MODEL 1
REMARK VINA RESULT:      -4.2      0.000      0.000
REMARK  4 active torsions:
REMARK  status: ('A' for Active; 'I' for Inactive)
REMARK    1  A    between atoms: C1_1  and  C5_5 
REMARK    2  A    between atoms: C1_1  and  C8_8 
REMARK    3  A    between atoms: C5_5  and  C6_6 
REMARK    4  A    between atoms: C6_6  and  C7_7 
ROOT
HETATM    1  C1  UNL     1     -33.695  15.848  -4.916  1.00 20.00     0.134 C 
HETATM    2  O9  UNL     1     -33.220  16.858  -5.441  1.00 20.00    -0.297 OA
ENDROOT
BRANCH   1   3
HETATM    3  C5  UNL     1     -33.293  15.440  -3.502  1.00 20.00     0.084 C 
BRANCH   3   4
HETATM    4  C6  UNL     1     -33.561  16.522  -2.458  1.00 20.00     0.078 C 
BRANCH   4   5
HETATM    5  C7  UNL     1     -34.919  16.372  -1.796  1.00 20.00     0.353 C 
HETATM    6  F10 UNL     1     -34.747  16.221  -0.458  1.00 20.00    -0.214 F 
HETATM    7  F11 UNL     1     -35.525  15.242  -2.238  1.00 20.00    -0.214 F 
ENDBRANCH   4   5
ENDBRANCH   3   4
ENDBRANCH   1   3
BRANCH   1   8
HETATM    8  C8  UNL     1     -34.711  14.959  -5.664  1.00 20.00     0.009 C 
HETATM    9  C2  UNL     1     -34.650  13.540  -5.084  1.00 20.00     0.022 C 
HETATM   10  C3  UNL     1     -34.405  14.934  -7.168  1.00 20.00     0.022 C 
HETATM   11  C4  UNL     1     -36.130  15.520  -5.464  1.00 20.00     0.022 C 
ENDBRANCH   1   8
TORSDOF 4
ENDMDL
MODEL 2
REMARK VINA RESULT:      -4.2      0.947      1.134
REMARK  4 active torsions:
REMARK  status: ('A' for Active; 'I' for Inactive)
REMARK    1  A    between atoms: C1_1  and  C5_5 
REMARK    2  A    between atoms: C1_1  and  C8_8 
REMARK    3  A    between atoms: C5_5  and  C6_6 
REMARK    4  A    between atoms: C6_6  and  C7_7 
ROOT
HETATM    1  C1  UNL     1     -33.694  15.701  -4.391  1.00 20.00     0.134 C 
HETATM    2  O9  UNL     1     -32.817  16.357  -4.958  1.00 20.00    -0.297 OA
ENDROOT
BRANCH   1   3
HETATM    3  C5  UNL     1     -33.873  15.778  -2.878  1.00 20.00     0.084 C 
BRANCH   3   4
HETATM    4  C6  UNL     1     -33.756  17.198  -2.325  1.00 20.00     0.078 C 
BRANCH   4   5
HETATM    5  C7  UNL     1     -34.354  17.335  -0.936  1.00 20.00     0.353 C 
HETATM    6  F10 UNL     1     -33.386  17.736  -0.073  1.00 20.00    -0.214 F 
HETATM    7  F11 UNL     1     -34.785  16.125  -0.498  1.00 20.00    -0.214 F 
ENDBRANCH   4   5
ENDBRANCH   3   4
ENDBRANCH   1   3
BRANCH   1   8
HETATM    8  C8  UNL     1     -34.643  14.779  -5.184  1.00 20.00     0.009 C 
HETATM    9  C2  UNL     1     -34.390  13.326  -4.763  1.00 20.00     0.022 C 
HETATM   10  C3  UNL     1     -34.421  14.942  -6.694  1.00 20.00     0.022 C 
HETATM   11  C4  UNL     1     -36.103  15.145  -4.865  1.00 20.00     0.022 C 
ENDBRANCH   1   8
TORSDOF 4
ENDMDL
MODEL 3
REMARK VINA RESULT:      -4.2      0.027      1.303
REMARK  4 active torsions:
REMARK  status: ('A' for Active; 'I' for Inactive)
REMARK    1  A    between atoms: C1_1  and  C5_5 
REMARK    2  A    between atoms: C1_1  and  C8_8 
REMARK    3  A    between atoms: C5_5  and  C6_6 
REMARK    4  A    between atoms: C6_6  and  C7_7 
ROOT
HETATM    1  C1  UNL     1     -33.705  15.852  -4.906  1.00 20.00     0.134 C 
HETATM    2  O9  UNL     1     -33.227  16.857  -5.439  1.00 20.00    -0.297 OA
ENDROOT
BRANCH   1   3
HETATM    3  C5  UNL     1     -33.297  15.449  -3.492  1.00 20.00     0.084 C 
BRANCH   3   4
HETATM    4  C6  UNL     1     -33.572  16.531  -2.450  1.00 20.00     0.078 C 
BRANCH   4   5
HETATM    5  C7  UNL     1     -34.926  16.368  -1.781  1.00 20.00     0.353 C 
HETATM    6  F10 UNL     1     -34.746  16.222  -0.444  1.00 20.00    -0.214 F 
HETATM    7  F11 UNL     1     -35.521  15.230  -2.218  1.00 20.00    -0.214 F 
ENDBRANCH   4   5
ENDBRANCH   3   4
ENDBRANCH   1   3
BRANCH   1   8
HETATM    8  C8  UNL     1     -34.729  14.965  -5.643  1.00 20.00     0.009 C 
HETATM    9  C2  UNL     1     -36.133  15.546  -5.432  1.00 20.00     0.022 C 
HETATM   10  C3  UNL     1     -34.667  13.521  -5.128  1.00 20.00     0.022 C 
HETATM   11  C4  UNL     1     -34.413  14.958  -7.149  1.00 20.00     0.022 C 
ENDBRANCH   1   8
TORSDOF 4
ENDMDL
MODEL 4
REMARK VINA RESULT:      -4.2      0.023      1.308
REMARK  4 active torsions:
REMARK  status: ('A' for Active; 'I' for Inactive)
REMARK    1  A    between atoms: C1_1  and  C5_5 
REMARK    2  A    between atoms: C1_1  and  C8_8 
REMARK    3  A    between atoms: C5_5  and  C6_6 
REMARK    4  A    between atoms: C6_6  and  C7_7 
ROOT
HETATM    1  C1  UNL     1     -33.697  15.850  -4.913  1.00 20.00     0.134 C 
HETATM    2  O9  UNL     1     -33.207  16.848  -5.448  1.00 20.00    -0.297 OA
ENDROOT
BRANCH   1   3
HETATM    3  C5  UNL     1     -33.295  15.443  -3.499  1.00 20.00     0.084 C 
BRANCH   3   4
HETATM    4  C6  UNL     1     -33.563  16.527  -2.456  1.00 20.00     0.078 C 
BRANCH   4   5
HETATM    5  C7  UNL     1     -34.916  16.369  -1.784  1.00 20.00     0.353 C 
HETATM    6  F10 UNL     1     -34.733  16.228  -0.446  1.00 20.00    -0.214 F 
HETATM    7  F11 UNL     1     -35.514  15.230  -2.215  1.00 20.00    -0.214 F 
ENDBRANCH   4   5
ENDBRANCH   3   4
ENDBRANCH   1   3
BRANCH   1   8
HETATM    8  C8  UNL     1     -34.733  14.975  -5.650  1.00 20.00     0.009 C 
HETATM    9  C2  UNL     1     -34.386  14.947  -7.144  1.00 20.00     0.022 C 
HETATM   10  C3  UNL     1     -36.152  15.523  -5.442  1.00 20.00     0.022 C 
HETATM   11  C4  UNL     1     -34.680  13.540  -5.097  1.00 20.00     0.022 C 
ENDBRANCH   1   8
TORSDOF 4
ENDMDL
MODEL 5
REMARK VINA RESULT:      -4.2     11.259     12.046
REMARK  4 active torsions:
REMARK  status: ('A' for Active; 'I' for Inactive)
REMARK    1  A    between atoms: C1_1  and  C5_5 
REMARK    2  A    between atoms: C1_1  and  C8_8 
REMARK    3  A    between atoms: C5_5  and  C6_6 
REMARK    4  A    between atoms: C6_6  and  C7_7 
ROOT
HETATM    1  C1  UNL     1     -33.492   6.207   4.241  1.00 20.00     0.134 C 
HETATM    2  O9  UNL     1     -33.546   6.760   5.343  1.00 20.00    -0.297 OA
ENDROOT
BRANCH   1   3
HETATM    3  C5  UNL     1     -32.277   6.383   3.337  1.00 20.00     0.084 C 
BRANCH   3   4
HETATM    4  C6  UNL     1     -31.855   7.841   3.164  1.00 20.00     0.078 C 
BRANCH   4   5
HETATM    5  C7  UNL     1     -32.295   8.424   1.833  1.00 20.00     0.353 C 
HETATM    6  F10 UNL     1     -31.265   8.347   0.952  1.00 20.00    -0.214 F 
HETATM    7  F11 UNL     1     -32.582   9.741   1.979  1.00 20.00    -0.214 F 
ENDBRANCH   4   5
ENDBRANCH   3   4
ENDBRANCH   1   3
BRANCH   1   8
HETATM    8  C8  UNL     1     -34.648   5.319   3.735  1.00 20.00     0.009 C 
HETATM    9  C2  UNL     1     -34.265   4.737   2.368  1.00 20.00     0.022 C 
HETATM   10  C3  UNL     1     -35.947   6.130   3.624  1.00 20.00     0.022 C 
HETATM   11  C4  UNL     1     -34.879   4.162   4.723  1.00 20.00     0.022 C 
ENDBRANCH   1   8
TORSDOF 4
ENDMDL
MODEL 6
REMARK VINA RESULT:      -4.1     11.259     11.991
REMARK  4 active torsions:
REMARK  status: ('A' for Active; 'I' for Inactive)
REMARK    1  A    between atoms: C1_1  and  C5_5 
REMARK    2  A    between atoms: C1_1  and  C8_8 
REMARK    3  A    between atoms: C5_5  and  C6_6 
REMARK    4  A    between atoms: C6_6  and  C7_7 
ROOT
HETATM    1  C1  UNL     1     -33.485   6.195   4.237  1.00 20.00     0.134 C 
HETATM    2  O9  UNL     1     -33.552   6.748   5.337  1.00 20.00    -0.297 OA
ENDROOT
BRANCH   1   3
HETATM    3  C5  UNL     1     -32.261   6.374   3.345  1.00 20.00     0.084 C 
BRANCH   3   4
HETATM    4  C6  UNL     1     -31.850   7.835   3.165  1.00 20.00     0.078 C 
BRANCH   4   5
HETATM    5  C7  UNL     1     -32.290   8.406   1.829  1.00 20.00     0.353 C 
HETATM    6  F10 UNL     1     -31.244   8.366   0.964  1.00 20.00    -0.214 F 
HETATM    7  F11 UNL     1     -32.622   9.713   1.973  1.00 20.00    -0.214 F 
ENDBRANCH   4   5
ENDBRANCH   3   4
ENDBRANCH   1   3
BRANCH   1   8
HETATM    8  C8  UNL     1     -34.633   5.303   3.718  1.00 20.00     0.009 C 
HETATM    9  C2  UNL     1     -34.863   4.160   4.714  1.00 20.00     0.022 C 
HETATM   10  C3  UNL     1     -34.298   4.741   2.330  1.00 20.00     0.022 C 
HETATM   11  C4  UNL     1     -35.922   6.137   3.608  1.00 20.00     0.022 C 
ENDBRANCH   1   8
TORSDOF 4
ENDMDL
MODEL 7
REMARK VINA RESULT:      -4.1      1.677      2.089
REMARK  4 active torsions:
REMARK  status: ('A' for Active; 'I' for Inactive)
REMARK    1  A    between atoms: C1_1  and  C5_5 
REMARK    2  A    between atoms: C1_1  and  C8_8 
REMARK    3  A    between atoms: C5_5  and  C6_6 
REMARK    4  A    between atoms: C6_6  and  C7_7 
ROOT
HETATM    1  C1  UNL     1     -34.689  13.980  -4.702  1.00 20.00     0.134 C 
HETATM    2  O9  UNL     1     -34.873  12.763  -4.786  1.00 20.00    -0.297 OA
ENDROOT
BRANCH   1   3
HETATM    3  C5  UNL     1     -34.069  14.592  -3.450  1.00 20.00     0.084 C 
BRANCH   3   4
HETATM    4  C6  UNL     1     -35.099  15.184  -2.490  1.00 20.00     0.078 C 
BRANCH   4   5
HETATM    5  C7  UNL     1     -34.586  16.418  -1.769  1.00 20.00     0.353 C 
HETATM    6  F10 UNL     1     -33.253  16.540  -1.991  1.00 20.00    -0.214 F 
HETATM    7  F11 UNL     1     -34.742  16.267  -0.430  1.00 20.00    -0.214 F 
ENDBRANCH   4   5
ENDBRANCH   3   4
ENDBRANCH   1   3
BRANCH   1   8
HETATM    8  C8  UNL     1     -35.078  14.930  -5.854  1.00 20.00     0.009 C 
HETATM    9  C2  UNL     1     -35.029  14.154  -7.176  1.00 20.00     0.022 C 
HETATM   10  C3  UNL     1     -34.129  16.135  -5.908  1.00 20.00     0.022 C 
HETATM   11  C4  UNL     1     -36.510  15.447  -5.632  1.00 20.00     0.022 C 
ENDBRANCH   1   8
TORSDOF 4
ENDMDL
MODEL 8
REMARK VINA RESULT:      -4.1     11.432     12.313
REMARK  4 active torsions:
REMARK  status: ('A' for Active; 'I' for Inactive)
REMARK    1  A    between atoms: C1_1  and  C5_5 
REMARK    2  A    between atoms: C1_1  and  C8_8 
REMARK    3  A    between atoms: C5_5  and  C6_6 
REMARK    4  A    between atoms: C6_6  and  C7_7 
ROOT
HETATM    1  C1  UNL     1     -33.458   5.830   3.611  1.00 20.00     0.134 C 
HETATM    2  O9  UNL     1     -33.221   5.164   2.600  1.00 20.00    -0.297 OA
ENDROOT
BRANCH   1   3
HETATM    3  C5  UNL     1     -32.658   7.090   3.923  1.00 20.00     0.084 C 
BRANCH   3   4
HETATM    4  C6  UNL     1     -31.642   7.448   2.839  1.00 20.00     0.078 C 
BRANCH   4   5
HETATM    5  C7  UNL     1     -32.221   8.363   1.775  1.00 20.00     0.353 C 
HETATM    6  F10 UNL     1     -31.351   8.443   0.737  1.00 20.00    -0.214 F 
HETATM    7  F11 UNL     1     -32.351   9.619   2.269  1.00 20.00    -0.214 F 
ENDBRANCH   4   5
ENDBRANCH   3   4
ENDBRANCH   1   3
BRANCH   1   8
HETATM    8  C8  UNL     1     -34.569   5.416   4.598  1.00 20.00     0.009 C 
HETATM    9  C2  UNL     1     -35.934   5.715   3.965  1.00 20.00     0.022 C 
HETATM   10  C3  UNL     1     -34.422   6.169   5.928  1.00 20.00     0.022 C 
HETATM   11  C4  UNL     1     -34.471   3.906   4.881  1.00 20.00     0.022 C 
ENDBRANCH   1   8
TORSDOF 4
ENDMDL
MODEL 9
REMARK VINA RESULT:      -4.0      2.720      4.190
REMARK  4 active torsions:
REMARK  status: ('A' for Active; 'I' for Inactive)
REMARK    1  A    between atoms: C1_1  and  C5_5 
REMARK    2  A    between atoms: C1_1  and  C8_8 
REMARK    3  A    between atoms: C5_5  and  C6_6 
REMARK    4  A    between atoms: C6_6  and  C7_7 
ROOT
HETATM    1  C1  UNL     1     -33.788  14.980  -3.475  1.00 20.00     0.134 C 
HETATM    2  O9  UNL     1     -32.564  14.847  -3.549  1.00 20.00    -0.297 OA
ENDROOT
BRANCH   1   3
HETATM    3  C5  UNL     1     -34.722  13.821  -3.809  1.00 20.00     0.084 C 
BRANCH   3   4
HETATM    4  C6  UNL     1     -34.620  13.360  -5.262  1.00 20.00     0.078 C 
BRANCH   4   5
HETATM    5  C7  UNL     1     -35.002  14.449  -6.249  1.00 20.00     0.353 C 
HETATM    6  F10 UNL     1     -35.552  13.876  -7.350  1.00 20.00    -0.214 F 
HETATM    7  F11 UNL     1     -33.890  15.102  -6.668  1.00 20.00    -0.214 F 
ENDBRANCH   4   5
ENDBRANCH   3   4
ENDBRANCH   1   3
BRANCH   1   8
HETATM    8  C8  UNL     1     -34.423  16.319  -3.044  1.00 20.00     0.009 C 
HETATM    9  C2  UNL     1     -35.950  16.173  -3.061  1.00 20.00     0.022 C 
HETATM   10  C3  UNL     1     -33.985  17.453  -3.980  1.00 20.00     0.022 C 
HETATM   11  C4  UNL     1     -33.971  16.666  -1.614  1.00 20.00     0.022 C 
ENDBRANCH   1   8
TORSDOF 4
ENDMDL
