MODEL 1
REMARK VINA RESULT:      -5.0      0.000      0.000
REMARK  3 active torsions:
REMARK  status: ('A' for Active; 'I' for Inactive)
REMARK    1  A    between atoms: C2_2  and  C10_10 
REMARK    2  A    between atoms: C3_3  and  C8_8 
REMARK    3  A    between atoms: C8_8  and  C10_10 
ROOT
HETATM    1  C4  UNL     1     -33.283  16.558  -5.466  1.00 20.00     0.001 C 
HETATM    2  C5  UNL     1     -34.164  15.705  -6.361  1.00 20.00     0.001 C 
HETATM    3  C6  UNL     1     -33.276  15.831  -4.123  1.00 20.00     0.021 C 
HETATM    4  C7  UNL     1     -35.279  15.265  -5.421  1.00 20.00     0.021 C 
HETATM    5  C8  UNL     1     -34.563  14.982  -4.091  1.00 20.00     0.055 C 
ENDROOT
BRANCH   5   6
HETATM    6  C3  UNL     1     -34.189  13.523  -4.013  1.00 20.00     0.182 C 
HETATM    7  O11 UNL     1     -35.105  12.715  -4.329  1.00 20.00    -0.647 OA
HETATM    8  O12 UNL     1     -33.004  13.299  -3.641  1.00 20.00    -0.647 OA
ENDBRANCH   5   6
BRANCH   5   9
HETATM    9  C10 UNL     1     -35.449  15.315  -2.891  1.00 20.00     0.022 C 
HETATM   10  C9  UNL     1     -34.660  16.090  -1.830  1.00 20.00     0.015 C 
BRANCH   9  11
HETATM   11  C2  UNL     1     -36.652  16.117  -3.325  1.00 20.00    -0.031 C 
HETATM   12  C1  UNL     1     -36.927  17.351  -2.889  1.00 20.00     0.007 C 
ENDBRANCH   9  11
ENDBRANCH   5   9
TORSDOF 3
ENDMDL
MODEL 2
REMARK VINA RESULT:      -4.9      0.839      3.284
REMARK  3 active torsions:
REMARK  status: ('A' for Active; 'I' for Inactive)
REMARK    1  A    between atoms: C2_2  and  C10_10 
REMARK    2  A    between atoms: C3_3  and  C8_8 
REMARK    3  A    between atoms: C8_8  and  C10_10 
ROOT
HETATM    1  C4  UNL     1     -35.987  16.163  -2.846  1.00 20.00     0.001 C 
HETATM    2  C5  UNL     1     -34.750  15.879  -2.012  1.00 20.00     0.001 C 
HETATM    3  C6  UNL     1     -35.840  15.266  -4.074  1.00 20.00     0.021 C 
HETATM    4  C7  UNL     1     -33.657  15.741  -3.062  1.00 20.00     0.021 C 
HETATM    5  C8  UNL     1     -34.331  14.980  -4.215  1.00 20.00     0.055 C 
ENDROOT
BRANCH   5   6
HETATM    6  C3  UNL     1     -34.094  13.499  -4.057  1.00 20.00     0.182 C 
HETATM    7  O11 UNL     1     -32.914  13.173  -3.748  1.00 20.00    -0.647 OA
HETATM    8  O12 UNL     1     -35.109  12.776  -4.254  1.00 20.00    -0.647 OA
ENDBRANCH   5   6
BRANCH   5   9
HETATM    9  C10 UNL     1     -33.781  15.411  -5.573  1.00 20.00     0.022 C 
HETATM   10  C9  UNL     1     -34.788  15.111  -6.688  1.00 20.00     0.015 C 
BRANCH   9  11
HETATM   11  C2  UNL     1     -33.444  16.883  -5.567  1.00 20.00    -0.031 C 
HETATM   12  C1  UNL     1     -34.114  17.808  -6.263  1.00 20.00     0.007 C 
ENDBRANCH   9  11
ENDBRANCH   5   9
TORSDOF 3
ENDMDL
MODEL 3
REMARK VINA RESULT:      -4.9      1.440      2.123
REMARK  3 active torsions:
REMARK  status: ('A' for Active; 'I' for Inactive)
REMARK    1  A    between atoms: C2_2  and  C10_10 
REMARK    2  A    between atoms: C3_3  and  C8_8 
REMARK    3  A    between atoms: C8_8  and  C10_10 
ROOT
HETATM    1  C4  UNL     1     -34.660  16.050  -6.559  1.00 20.00     0.001 C 
HETATM    2  C5  UNL     1     -36.044  16.387  -6.033  1.00 20.00     0.001 C 
HETATM    3  C6  UNL     1     -34.182  14.897  -5.678  1.00 20.00     0.021 C 
HETATM    4  C7  UNL     1     -35.880  16.241  -4.526  1.00 20.00     0.021 C 
HETATM    5  C8  UNL     1     -34.976  15.010  -4.361  1.00 20.00     0.055 C 
ENDROOT
BRANCH   5   6
HETATM    6  C3  UNL     1     -35.823  13.774  -4.191  1.00 20.00     0.182 C 
HETATM    7  O11 UNL     1     -37.024  13.985  -3.863  1.00 20.00    -0.647 OA
HETATM    8  O12 UNL     1     -35.220  12.685  -4.399  1.00 20.00    -0.647 OA
ENDBRANCH   5   6
BRANCH   5   9
HETATM    9  C10 UNL     1     -34.064  15.138  -3.141  1.00 20.00     0.022 C 
HETATM   10  C9  UNL     1     -32.590  15.082  -3.555  1.00 20.00     0.015 C 
BRANCH   9  11
HETATM   11  C2  UNL     1     -34.343  16.425  -2.404  1.00 20.00    -0.031 C 
HETATM   12  C1  UNL     1     -34.584  16.499  -1.090  1.00 20.00     0.007 C 
ENDBRANCH   9  11
ENDBRANCH   5   9
TORSDOF 3
ENDMDL
MODEL 4
REMARK VINA RESULT:      -4.8      1.172      1.846
REMARK  3 active torsions:
REMARK  status: ('A' for Active; 'I' for Inactive)
REMARK    1  A    between atoms: C2_2  and  C10_10 
REMARK    2  A    between atoms: C3_3  and  C8_8 
REMARK    3  A    between atoms: C8_8  and  C10_10 
ROOT
HETATM    1  C4  UNL     1     -35.274  15.646  -6.706  1.00 20.00     0.001 C 
HETATM    2  C5  UNL     1     -36.454  14.974  -6.026  1.00 20.00     0.001 C 
HETATM    3  C6  UNL     1     -34.064  15.253  -5.859  1.00 20.00     0.021 C 
HETATM    4  C7  UNL     1     -36.133  15.141  -4.547  1.00 20.00     0.021 C 
HETATM    5  C8  UNL     1     -34.616  14.915  -4.459  1.00 20.00     0.055 C 
ENDROOT
BRANCH   5   6
HETATM    6  C3  UNL     1     -34.333  13.465  -4.156  1.00 20.00     0.182 C 
HETATM    7  O11 UNL     1     -35.311  12.682  -4.310  1.00 20.00    -0.647 OA
HETATM    8  O12 UNL     1     -33.151  13.222  -3.786  1.00 20.00    -0.647 OA
ENDBRANCH   5   6
BRANCH   5   9
HETATM    9  C10 UNL     1     -33.980  15.768  -3.362  1.00 20.00     0.022 C 
HETATM   10  C9  UNL     1     -33.609  17.155  -3.897  1.00 20.00     0.015 C 
BRANCH   9  11
HETATM   11  C2  UNL     1     -34.917  15.903  -2.186  1.00 20.00    -0.031 C 
HETATM   12  C1  UNL     1     -34.603  16.531  -1.047  1.00 20.00     0.007 C 
ENDBRANCH   9  11
ENDBRANCH   5   9
TORSDOF 3
ENDMDL
MODEL 5
REMARK VINA RESULT:      -4.8      1.465      2.508
REMARK  3 active torsions:
REMARK  status: ('A' for Active; 'I' for Inactive)
REMARK    1  A    between atoms: C2_2  and  C10_10 
REMARK    2  A    between atoms: C3_3  and  C8_8 
REMARK    3  A    between atoms: C8_8  and  C10_10 
ROOT
HETATM    1  C4  UNL     1     -36.793  16.700  -5.125  1.00 20.00     0.001 C 
HETATM    2  C5  UNL     1     -37.674  15.521  -4.753  1.00 20.00     0.001 C 
HETATM    3  C6  UNL     1     -35.375  16.130  -5.152  1.00 20.00     0.021 C 
HETATM    4  C7  UNL     1     -36.838  14.787  -3.713  1.00 20.00     0.021 C 
HETATM    5  C8  UNL     1     -35.400  14.883  -4.246  1.00 20.00     0.055 C 
ENDROOT
BRANCH   5   6
HETATM    6  C3  UNL     1     -35.081  13.665  -5.076  1.00 20.00     0.182 C 
HETATM    7  O11 UNL     1     -35.000  12.582  -4.433  1.00 20.00    -0.647 OA
HETATM    8  O12 UNL     1     -34.935  13.888  -6.309  1.00 20.00    -0.647 OA
ENDBRANCH   5   6
BRANCH   5   9
HETATM    9  C10 UNL     1     -34.382  14.970  -3.110  1.00 20.00     0.022 C 
HETATM   10  C9  UNL     1     -33.008  15.391  -3.641  1.00 20.00     0.015 C 
BRANCH   9  11
HETATM   11  C2  UNL     1     -34.846  15.944  -2.054  1.00 20.00    -0.031 C 
HETATM   12  C1  UNL     1     -34.065  16.881  -1.504  1.00 20.00     0.007 C 
ENDBRANCH   9  11
ENDBRANCH   5   9
TORSDOF 3
ENDMDL
MODEL 6
REMARK VINA RESULT:      -4.6      1.950      2.772
REMARK  3 active torsions:
REMARK  status: ('A' for Active; 'I' for Inactive)
REMARK    1  A    between atoms: C2_2  and  C10_10 
REMARK    2  A    between atoms: C3_3  and  C8_8 
REMARK    3  A    between atoms: C8_8  and  C10_10 
ROOT
HETATM    1  C4  UNL     1     -34.842  14.691  -6.793  1.00 20.00     0.001 C 
HETATM    2  C5  UNL     1     -35.311  16.120  -6.582  1.00 20.00     0.001 C 
HETATM    3  C6  UNL     1     -35.223  13.964  -5.504  1.00 20.00     0.021 C 
HETATM    4  C7  UNL     1     -34.978  16.374  -5.118  1.00 20.00     0.021 C 
HETATM    5  C8  UNL     1     -35.322  15.051  -4.415  1.00 20.00     0.055 C 
ENDROOT
BRANCH   5   6
HETATM    6  C3  UNL     1     -36.739  15.102  -3.898  1.00 20.00     0.182 C 
HETATM    7  O11 UNL     1     -37.341  13.993  -3.871  1.00 20.00    -0.647 OA
HETATM    8  O12 UNL     1     -37.138  16.250  -3.559  1.00 20.00    -0.647 OA
ENDBRANCH   5   6
BRANCH   5   9
HETATM    9  C10 UNL     1     -34.391  14.779  -3.235  1.00 20.00     0.022 C 
HETATM   10  C9  UNL     1     -33.247  13.848  -3.648  1.00 20.00     0.015 C 
BRANCH   9  11
HETATM   11  C2  UNL     1     -33.831  16.071  -2.692  1.00 20.00    -0.031 C 
HETATM   12  C1  UNL     1     -34.196  16.615  -1.525  1.00 20.00     0.007 C 
ENDBRANCH   9  11
ENDBRANCH   5   9
TORSDOF 3
ENDMDL
MODEL 7
REMARK VINA RESULT:      -4.5      1.921      3.048
REMARK  3 active torsions:
REMARK  status: ('A' for Active; 'I' for Inactive)
REMARK    1  A    between atoms: C2_2  and  C10_10 
REMARK    2  A    between atoms: C3_3  and  C8_8 
REMARK    3  A    between atoms: C8_8  and  C10_10 
ROOT
HETATM    1  C4  UNL     1     -35.186  13.420  -4.164  1.00 20.00     0.001 C 
HETATM    2  C5  UNL     1     -33.667  13.411  -4.158  1.00 20.00     0.001 C 
HETATM    3  C6  UNL     1     -35.563  14.850  -4.548  1.00 20.00     0.021 C 
HETATM    4  C7  UNL     1     -33.322  14.766  -3.555  1.00 20.00     0.021 C 
HETATM    5  C8  UNL     1     -34.355  15.727  -4.165  1.00 20.00     0.055 C 
ENDROOT
BRANCH   5   6
HETATM    6  C3  UNL     1     -33.789  16.359  -5.412  1.00 20.00     0.182 C 
HETATM    7  O11 UNL     1     -34.155  15.828  -6.498  1.00 20.00    -0.647 OA
HETATM    8  O12 UNL     1     -33.021  17.339  -5.209  1.00 20.00    -0.647 OA
ENDBRANCH   5   6
BRANCH   5   9
HETATM    9  C10 UNL     1     -34.731  16.843  -3.191  1.00 20.00     0.022 C 
HETATM   10  C9  UNL     1     -36.248  16.891  -2.978  1.00 20.00     0.015 C 
BRANCH   9  11
HETATM   11  C2  UNL     1     -34.032  16.651  -1.868  1.00 20.00    -0.031 C 
HETATM   12  C1  UNL     1     -34.646  16.706  -0.680  1.00 20.00     0.007 C 
ENDBRANCH   9  11
ENDBRANCH   5   9
TORSDOF 3
ENDMDL
MODEL 8
REMARK VINA RESULT:      -4.5      1.968      3.144
REMARK  3 active torsions:
REMARK  status: ('A' for Active; 'I' for Inactive)
REMARK    1  A    between atoms: C2_2  and  C10_10 
REMARK    2  A    between atoms: C3_3  and  C8_8 
REMARK    3  A    between atoms: C8_8  and  C10_10 
ROOT
HETATM    1  C4  UNL     1     -36.590  14.411  -3.981  1.00 20.00     0.001 C 
HETATM    2  C5  UNL     1     -35.346  13.562  -4.174  1.00 20.00     0.001 C 
HETATM    3  C6  UNL     1     -36.109  15.849  -4.172  1.00 20.00     0.021 C 
HETATM    4  C7  UNL     1     -34.262  14.386  -3.492  1.00 20.00     0.021 C 
HETATM    5  C8  UNL     1     -34.598  15.838  -3.866  1.00 20.00     0.055 C 
ENDROOT
BRANCH   5   6
HETATM    6  C3  UNL     1     -33.841  16.233  -5.109  1.00 20.00     0.182 C 
HETATM    7  O11 UNL     1     -32.587  16.294  -4.979  1.00 20.00    -0.647 OA
HETATM    8  O12 UNL     1     -34.563  16.451  -6.122  1.00 20.00    -0.647 OA
ENDBRANCH   5   6
BRANCH   5   9
HETATM    9  C10 UNL     1     -34.224  16.810  -2.748  1.00 20.00     0.022 C 
HETATM   10  C9  UNL     1     -34.818  18.197  -3.011  1.00 20.00     0.015 C 
BRANCH   9  11
HETATM   11  C2  UNL     1     -34.700  16.291  -1.413  1.00 20.00    -0.031 C 
HETATM   12  C1  UNL     1     -34.692  17.009  -0.284  1.00 20.00     0.007 C 
ENDBRANCH   9  11
ENDBRANCH   5   9
TORSDOF 3
ENDMDL
MODEL 9
REMARK VINA RESULT:      -4.4      1.233      2.168
REMARK  3 active torsions:
REMARK  status: ('A' for Active; 'I' for Inactive)
REMARK    1  A    between atoms: C2_2  and  C10_10 
REMARK    2  A    between atoms: C3_3  and  C8_8 
REMARK    3  A    between atoms: C8_8  and  C10_10 
ROOT
HETATM    1  C4  UNL     1     -33.746  16.749  -3.656  1.00 20.00     0.001 C 
HETATM    2  C5  UNL     1     -33.106  16.311  -4.961  1.00 20.00     0.001 C 
HETATM    3  C6  UNL     1     -34.571  15.545  -3.206  1.00 20.00     0.021 C 
HETATM    4  C7  UNL     1     -34.216  15.513  -5.632  1.00 20.00     0.021 C 
HETATM    5  C8  UNL     1     -34.871  14.733  -4.482  1.00 20.00     0.055 C 
ENDROOT
BRANCH   5   6
HETATM    6  C3  UNL     1     -34.234  13.371  -4.361  1.00 20.00     0.182 C 
HETATM    7  O11 UNL     1     -33.230  13.314  -3.598  1.00 20.00    -0.647 OA
HETATM    8  O12 UNL     1     -34.789  12.464  -5.040  1.00 20.00    -0.647 OA
ENDBRANCH   5   6
BRANCH   5   9
HETATM    9  C10 UNL     1     -36.370  14.542  -4.711  1.00 20.00     0.022 C 
HETATM   10  C9  UNL     1     -37.173  15.050  -3.510  1.00 20.00     0.015 C 
BRANCH   9  11
HETATM   11  C2  UNL     1     -36.811  15.257  -5.965  1.00 20.00    -0.031 C 
HETATM   12  C1  UNL     1     -37.840  16.110  -6.019  1.00 20.00     0.007 C 
ENDBRANCH   9  11
ENDBRANCH   5   9
TORSDOF 3
ENDMDL
