MODEL 1
REMARK VINA RESULT:      -5.5      0.000      0.000
REMARK  3 active torsions:
REMARK  status: ('A' for Active; 'I' for Inactive)
REMARK    1  A    between atoms: C2_2  and  C11_11 
REMARK    2  A    between atoms: C3_3  and  C9_9 
REMARK    3  A    between atoms: C9_9  and  C11_11 
ROOT
HETATM    1  C1  UNL     1     -34.432  16.303  -1.657  1.00 20.00    -0.111 C 
HETATM    2  C2  UNL     1     -34.130  15.776  -2.693  1.00 20.00    -0.106 C 
HETATM    3  C10 UNL     1     -34.800  16.945  -0.396  1.00 20.00     0.112 C 
ENDROOT
BRANCH   2   4
HETATM    4  C11 UNL     1     -33.748  15.133  -3.950  1.00 20.00     0.114 C 
BRANCH   4   5
HETATM    5  C9  UNL     1     -34.959  14.969  -4.868  1.00 20.00     0.058 C 
HETATM    6  C7  UNL     1     -35.878  16.191  -4.794  1.00 20.00     0.021 C 
HETATM    7  C5  UNL     1     -37.038  16.123  -5.789  1.00 20.00     0.001 C 
HETATM    8  C4  UNL     1     -36.549  15.860  -7.209  1.00 20.00     0.000 C 
HETATM    9  C6  UNL     1     -35.696  14.599  -7.281  1.00 20.00     0.001 C 
HETATM   10  C8  UNL     1     -34.523  14.650  -6.303  1.00 20.00     0.021 C 
BRANCH   5  11
HETATM   11  C3  UNL     1     -35.670  13.756  -4.270  1.00 20.00     0.182 C 
HETATM   12  O12 UNL     1     -36.816  13.985  -3.793  1.00 20.00    -0.647 OA
HETATM   13  O13 UNL     1     -35.018  12.676  -4.331  1.00 20.00    -0.647 OA
ENDBRANCH   5  11
ENDBRANCH   4   5
ENDBRANCH   2   4
TORSDOF 3
ENDMDL
MODEL 2
REMARK VINA RESULT:      -5.3      1.592      2.424
REMARK  3 active torsions:
REMARK  status: ('A' for Active; 'I' for Inactive)
REMARK    1  A    between atoms: C2_2  and  C11_11 
REMARK    2  A    between atoms: C3_3  and  C9_9 
REMARK    3  A    between atoms: C9_9  and  C11_11 
ROOT
HETATM    1  C1  UNL     1     -34.194  17.062  -1.046  1.00 20.00    -0.111 C 
HETATM    2  C2  UNL     1     -34.626  16.210  -1.774  1.00 20.00    -0.106 C 
HETATM    3  C10 UNL     1     -33.666  18.098  -0.161  1.00 20.00     0.112 C 
ENDROOT
BRANCH   2   4
HETATM    4  C11 UNL     1     -35.168  15.176  -2.656  1.00 20.00     0.114 C 
BRANCH   4   5
HETATM    5  C9  UNL     1     -34.458  15.187  -4.010  1.00 20.00     0.058 C 
HETATM    6  C7  UNL     1     -35.371  14.653  -5.117  1.00 20.00     0.021 C 
HETATM    7  C5  UNL     1     -34.743  14.763  -6.507  1.00 20.00     0.001 C 
HETATM    8  C4  UNL     1     -34.258  16.178  -6.799  1.00 20.00     0.000 C 
HETATM    9  C6  UNL     1     -33.293  16.669  -5.726  1.00 20.00     0.001 C 
HETATM   10  C8  UNL     1     -33.904  16.580  -4.328  1.00 20.00     0.021 C 
BRANCH   5  11
HETATM   11  C3  UNL     1     -33.300  14.216  -3.788  1.00 20.00     0.182 C 
HETATM   12  O12 UNL     1     -33.602  12.992  -3.859  1.00 20.00    -0.647 OA
HETATM   13  O13 UNL     1     -32.185  14.764  -3.563  1.00 20.00    -0.647 OA
ENDBRANCH   5  11
ENDBRANCH   4   5
ENDBRANCH   2   4
TORSDOF 3
ENDMDL
MODEL 3
REMARK VINA RESULT:      -5.3      1.184      1.471
REMARK  3 active torsions:
REMARK  status: ('A' for Active; 'I' for Inactive)
REMARK    1  A    between atoms: C2_2  and  C11_11 
REMARK    2  A    between atoms: C3_3  and  C9_9 
REMARK    3  A    between atoms: C9_9  and  C11_11 
ROOT
HETATM    1  C1  UNL     1     -34.478  16.714  -0.994  1.00 20.00    -0.111 C 
HETATM    2  C2  UNL     1     -34.047  16.222  -2.001  1.00 20.00    -0.106 C 
HETATM    3  C10 UNL     1     -35.004  17.314   0.232  1.00 20.00     0.112 C 
ENDROOT
BRANCH   2   4
HETATM    4  C11 UNL     1     -33.508  15.628  -3.224  1.00 20.00     0.114 C 
BRANCH   4   5
HETATM    5  C9  UNL     1     -34.619  14.974  -4.047  1.00 20.00     0.058 C 
HETATM    6  C7  UNL     1     -35.985  15.169  -3.385  1.00 20.00     0.021 C 
HETATM    7  C5  UNL     1     -37.139  14.638  -4.237  1.00 20.00     0.001 C 
HETATM    8  C4  UNL     1     -37.103  15.203  -5.652  1.00 20.00     0.000 C 
HETATM    9  C6  UNL     1     -35.762  14.937  -6.326  1.00 20.00     0.001 C 
HETATM   10  C8  UNL     1     -34.594  15.471  -5.497  1.00 20.00     0.021 C 
BRANCH   5  11
HETATM   11  C3  UNL     1     -34.237  13.496  -4.008  1.00 20.00     0.182 C 
HETATM   12  O12 UNL     1     -35.175  12.689  -4.259  1.00 20.00    -0.647 OA
HETATM   13  O13 UNL     1     -33.026  13.268  -3.730  1.00 20.00    -0.647 OA
ENDBRANCH   5  11
ENDBRANCH   4   5
ENDBRANCH   2   4
TORSDOF 3
ENDMDL
MODEL 4
REMARK VINA RESULT:      -5.0      1.157      1.718
REMARK  3 active torsions:
REMARK  status: ('A' for Active; 'I' for Inactive)
REMARK    1  A    between atoms: C2_2  and  C11_11 
REMARK    2  A    between atoms: C3_3  and  C9_9 
REMARK    3  A    between atoms: C9_9  and  C11_11 
ROOT
HETATM    1  C1  UNL     1     -33.769  17.563  -1.589  1.00 20.00    -0.111 C 
HETATM    2  C2  UNL     1     -34.286  16.531  -1.924  1.00 20.00    -0.106 C 
HETATM    3  C10 UNL     1     -33.142  18.818  -1.181  1.00 20.00     0.112 C 
ENDROOT
BRANCH   2   4
HETATM    4  C11 UNL     1     -34.902  15.271  -2.340  1.00 20.00     0.114 C 
BRANCH   4   5
HETATM    5  C9  UNL     1     -35.186  15.274  -3.842  1.00 20.00     0.058 C 
HETATM    6  C7  UNL     1     -36.131  16.417  -4.223  1.00 20.00     0.021 C 
HETATM    7  C5  UNL     1     -36.343  16.531  -5.733  1.00 20.00     0.001 C 
HETATM    8  C4  UNL     1     -35.020  16.607  -6.487  1.00 20.00     0.000 C 
HETATM    9  C6  UNL     1     -34.120  15.424  -6.153  1.00 20.00     0.001 C 
HETATM   10  C8  UNL     1     -33.883  15.297  -4.649  1.00 20.00     0.021 C 
BRANCH   5  11
HETATM   11  C3  UNL     1     -35.891  13.935  -4.051  1.00 20.00     0.182 C 
HETATM   12  O12 UNL     1     -35.130  12.953  -4.272  1.00 20.00    -0.647 OA
HETATM   13  O13 UNL     1     -37.151  13.982  -3.974  1.00 20.00    -0.647 OA
ENDBRANCH   5  11
ENDBRANCH   4   5
ENDBRANCH   2   4
TORSDOF 3
ENDMDL
MODEL 5
REMARK VINA RESULT:      -4.9      2.470      3.274
REMARK  3 active torsions:
REMARK  status: ('A' for Active; 'I' for Inactive)
REMARK    1  A    between atoms: C2_2  and  C11_11 
REMARK    2  A    between atoms: C3_3  and  C9_9 
REMARK    3  A    between atoms: C9_9  and  C11_11 
ROOT
HETATM    1  C1  UNL     1     -34.743  17.210  -0.118  1.00 20.00    -0.111 C 
HETATM    2  C2  UNL     1     -34.077  16.978  -1.091  1.00 20.00    -0.106 C 
HETATM    3  C10 UNL     1     -35.554  17.492   1.065  1.00 20.00     0.112 C 
ENDROOT
BRANCH   2   4
HETATM    4  C11 UNL     1     -33.253  16.701  -2.267  1.00 20.00     0.114 C 
BRANCH   4   5
HETATM    5  C9  UNL     1     -34.041  15.907  -3.309  1.00 20.00     0.058 C 
HETATM    6  C7  UNL     1     -33.315  14.612  -3.683  1.00 20.00     0.021 C 
HETATM    7  C5  UNL     1     -34.127  13.728  -4.630  1.00 20.00     0.001 C 
HETATM    8  C4  UNL     1     -35.529  13.463  -4.093  1.00 20.00     0.000 C 
HETATM    9  C6  UNL     1     -36.268  14.763  -3.795  1.00 20.00     0.001 C 
HETATM   10  C8  UNL     1     -35.478  15.657  -2.839  1.00 20.00     0.021 C 
BRANCH   5  11
HETATM   11  C3  UNL     1     -34.054  16.852  -4.509  1.00 20.00     0.182 C 
HETATM   12  O12 UNL     1     -35.096  17.553  -4.632  1.00 20.00    -0.647 OA
HETATM   13  O13 UNL     1     -33.015  16.812  -5.227  1.00 20.00    -0.647 OA
ENDBRANCH   5  11
ENDBRANCH   4   5
ENDBRANCH   2   4
TORSDOF 3
ENDMDL
MODEL 6
REMARK VINA RESULT:      -4.7      1.925      2.508
REMARK  3 active torsions:
REMARK  status: ('A' for Active; 'I' for Inactive)
REMARK    1  A    between atoms: C2_2  and  C11_11 
REMARK    2  A    between atoms: C3_3  and  C9_9 
REMARK    3  A    between atoms: C9_9  and  C11_11 
ROOT
HETATM    1  C1  UNL     1     -34.680  16.496  -1.168  1.00 20.00    -0.111 C 
HETATM    2  C2  UNL     1     -34.442  15.766  -2.092  1.00 20.00    -0.106 C 
HETATM    3  C10 UNL     1     -34.971  17.384  -0.043  1.00 20.00     0.112 C 
ENDROOT
BRANCH   2   4
HETATM    4  C11 UNL     1     -34.142  14.888  -3.223  1.00 20.00     0.114 C 
BRANCH   4   5
HETATM    5  C9  UNL     1     -34.777  15.419  -4.508  1.00 20.00     0.058 C 
HETATM    6  C7  UNL     1     -34.597  14.430  -5.663  1.00 20.00     0.021 C 
HETATM    7  C5  UNL     1     -35.324  14.866  -6.936  1.00 20.00     0.001 C 
HETATM    8  C4  UNL     1     -36.793  15.173  -6.670  1.00 20.00     0.000 C 
HETATM    9  C6  UNL     1     -36.956  16.214  -5.568  1.00 20.00     0.001 C 
HETATM   10  C8  UNL     1     -36.246  15.793  -4.281  1.00 20.00     0.021 C 
BRANCH   5  11
HETATM   11  C3  UNL     1     -33.966  16.683  -4.784  1.00 20.00     0.182 C 
HETATM   12  O12 UNL     1     -34.589  17.769  -4.625  1.00 20.00    -0.647 OA
HETATM   13  O13 UNL     1     -32.770  16.479  -5.136  1.00 20.00    -0.647 OA
ENDBRANCH   5  11
ENDBRANCH   4   5
ENDBRANCH   2   4
TORSDOF 3
ENDMDL
MODEL 7
REMARK VINA RESULT:      -4.7      1.915      3.355
REMARK  3 active torsions:
REMARK  status: ('A' for Active; 'I' for Inactive)
REMARK    1  A    between atoms: C2_2  and  C11_11 
REMARK    2  A    between atoms: C3_3  and  C9_9 
REMARK    3  A    between atoms: C9_9  and  C11_11 
ROOT
HETATM    1  C1  UNL     1     -38.745  14.699  -4.232  1.00 20.00    -0.111 C 
HETATM    2  C2  UNL     1     -37.609  14.797  -3.854  1.00 20.00    -0.106 C 
HETATM    3  C10 UNL     1     -40.127  14.578  -4.692  1.00 20.00     0.112 C 
ENDROOT
BRANCH   2   4
HETATM    4  C11 UNL     1     -36.222  14.923  -3.407  1.00 20.00     0.114 C 
BRANCH   4   5
HETATM    5  C9  UNL     1     -35.264  14.936  -4.599  1.00 20.00     0.058 C 
HETATM    6  C7  UNL     1     -36.016  14.711  -5.914  1.00 20.00     0.021 C 
HETATM    7  C5  UNL     1     -35.115  14.839  -7.142  1.00 20.00     0.001 C 
HETATM    8  C4  UNL     1     -34.344  16.154  -7.143  1.00 20.00     0.000 C 
HETATM    9  C6  UNL     1     -33.542  16.331  -5.859  1.00 20.00     0.001 C 
HETATM   10  C8  UNL     1     -34.426  16.219  -4.617  1.00 20.00     0.021 C 
BRANCH   5  11
HETATM   11  C3  UNL     1     -34.360  13.739  -4.314  1.00 20.00     0.182 C 
HETATM   12  O12 UNL     1     -33.263  14.013  -3.752  1.00 20.00    -0.647 OA
HETATM   13  O13 UNL     1     -34.827  12.623  -4.677  1.00 20.00    -0.647 OA
ENDBRANCH   5  11
ENDBRANCH   4   5
ENDBRANCH   2   4
TORSDOF 3
ENDMDL
MODEL 8
REMARK VINA RESULT:      -4.6      1.779      3.243
REMARK  3 active torsions:
REMARK  status: ('A' for Active; 'I' for Inactive)
REMARK    1  A    between atoms: C2_2  and  C11_11 
REMARK    2  A    between atoms: C3_3  and  C9_9 
REMARK    3  A    between atoms: C9_9  and  C11_11 
ROOT
HETATM    1  C1  UNL     1     -38.287  16.338  -3.666  1.00 20.00    -0.111 C 
HETATM    2  C2  UNL     1     -37.535  15.405  -3.739  1.00 20.00    -0.106 C 
HETATM    3  C10 UNL     1     -39.201  17.476  -3.577  1.00 20.00     0.112 C 
ENDROOT
BRANCH   2   4
HETATM    4  C11 UNL     1     -36.631  14.257  -3.825  1.00 20.00     0.114 C 
BRANCH   4   5
HETATM    5  C9  UNL     1     -35.273  14.675  -4.391  1.00 20.00     0.058 C 
HETATM    6  C7  UNL     1     -35.396  15.117  -5.852  1.00 20.00     0.021 C 
HETATM    7  C5  UNL     1     -34.084  15.660  -6.420  1.00 20.00     0.001 C 
HETATM    8  C4  UNL     1     -33.497  16.756  -5.538  1.00 20.00     0.000 C 
HETATM    9  C6  UNL     1     -33.312  16.278  -4.103  1.00 20.00     0.001 C 
HETATM   10  C8  UNL     1     -34.615  15.742  -3.510  1.00 20.00     0.021 C 
BRANCH   5  11
HETATM   11  C3  UNL     1     -34.467  13.380  -4.314  1.00 20.00     0.182 C 
HETATM   12  O12 UNL     1     -33.591  13.344  -3.406  1.00 20.00    -0.647 OA
HETATM   13  O13 UNL     1     -34.782  12.507  -5.171  1.00 20.00    -0.647 OA
ENDBRANCH   5  11
ENDBRANCH   4   5
ENDBRANCH   2   4
TORSDOF 3
ENDMDL
MODEL 9
REMARK VINA RESULT:      -4.6      2.394      4.261
REMARK  3 active torsions:
REMARK  status: ('A' for Active; 'I' for Inactive)
REMARK    1  A    between atoms: C2_2  and  C11_11 
REMARK    2  A    between atoms: C3_3  and  C9_9 
REMARK    3  A    between atoms: C9_9  and  C11_11 
ROOT
HETATM    1  C1  UNL     1     -37.859  14.867  -3.799  1.00 20.00    -0.111 C 
HETATM    2  C2  UNL     1     -36.668  14.727  -3.867  1.00 20.00    -0.106 C 
HETATM    3  C10 UNL     1     -39.309  15.036  -3.716  1.00 20.00     0.112 C 
ENDROOT
BRANCH   2   4
HETATM    4  C11 UNL     1     -35.217  14.569  -3.960  1.00 20.00     0.114 C 
BRANCH   4   5
HETATM    5  C9  UNL     1     -34.501  15.845  -3.517  1.00 20.00     0.058 C 
HETATM    6  C7  UNL     1     -35.129  17.084  -4.160  1.00 20.00     0.021 C 
HETATM    7  C5  UNL     1     -34.523  18.391  -3.648  1.00 20.00     0.001 C 
HETATM    8  C4  UNL     1     -34.543  18.465  -2.126  1.00 20.00     0.000 C 
HETATM    9  C6  UNL     1     -33.849  17.261  -1.499  1.00 20.00     0.001 C 
HETATM   10  C8  UNL     1     -34.448  15.943  -1.988  1.00 20.00     0.021 C 
BRANCH   5  11
HETATM   11  C3  UNL     1     -33.089  15.644  -4.064  1.00 20.00     0.182 C 
HETATM   12  O12 UNL     1     -32.426  14.719  -3.518  1.00 20.00    -0.647 OA
HETATM   13  O13 UNL     1     -32.766  16.430  -4.998  1.00 20.00    -0.647 OA
ENDBRANCH   5  11
ENDBRANCH   4   5
ENDBRANCH   2   4
TORSDOF 3
ENDMDL
