MODEL 1
REMARK VINA RESULT:      -5.3      0.000      0.000
REMARK  4 active torsions:
REMARK  status: ('A' for Active; 'I' for Inactive)
REMARK    1  A    between atoms: C1_1  and  C6_6 
REMARK    2  A    between atoms: C4_4  and  C6_6 
REMARK    3  A    between atoms: C5_5  and  C6_6 
REMARK    4  A    between atoms: C5_5  and  C7_7 
ROOT
HETATM    1  C6  UNL     1     -33.867   5.687   4.993  1.00 20.00     0.063 C 
ENDROOT
BRANCH   1   2
HETATM    2  C1  UNL     1     -35.035   4.852   4.477  1.00 20.00     0.127 C 
HETATM    3  C2  UNL     1     -35.991   5.532   3.532  1.00 20.00     0.091 C 
HETATM    4  O8  UNL     1     -35.198   3.678   4.809  1.00 20.00    -0.298 OA
ENDBRANCH   1   2
BRANCH   1   5
HETATM    5  C4  UNL     1     -34.148   6.137   6.438  1.00 20.00     0.008 C 
HETATM    6  C3  UNL     1     -33.382   7.396   6.825  1.00 20.00     0.006 C 
ENDBRANCH   1   5
BRANCH   1   7
HETATM    7  C5  UNL     1     -33.642   6.909   4.086  1.00 20.00     0.129 C 
BRANCH   7   8
HETATM    8  C7  UNL     1     -32.317   6.877   3.346  1.00 20.00     0.388 C 
HETATM    9  F9  UNL     1     -32.412   7.425   2.117  1.00 20.00    -0.171 F 
HETATM   10  F10 UNL     1     -31.863   5.614   3.207  1.00 20.00    -0.171 F 
HETATM   11  F11 UNL     1     -31.382   7.575   4.030  1.00 20.00    -0.171 F 
ENDBRANCH   7   8
ENDBRANCH   1   7
TORSDOF 4
ENDMDL
MODEL 2
REMARK VINA RESULT:      -5.3      0.018      1.135
REMARK  4 active torsions:
REMARK  status: ('A' for Active; 'I' for Inactive)
REMARK    1  A    between atoms: C1_1  and  C6_6 
REMARK    2  A    between atoms: C4_4  and  C6_6 
REMARK    3  A    between atoms: C5_5  and  C6_6 
REMARK    4  A    between atoms: C5_5  and  C7_7 
ROOT
HETATM    1  C6  UNL     1     -33.867   5.677   4.997  1.00 20.00     0.063 C 
ENDROOT
BRANCH   1   2
HETATM    2  C1  UNL     1     -35.037   4.845   4.480  1.00 20.00     0.127 C 
HETATM    3  C2  UNL     1     -35.991   5.528   3.533  1.00 20.00     0.091 C 
HETATM    4  O8  UNL     1     -35.203   3.672   4.813  1.00 20.00    -0.298 OA
ENDBRANCH   1   2
BRANCH   1   5
HETATM    5  C4  UNL     1     -34.147   6.127   6.442  1.00 20.00     0.008 C 
HETATM    6  C3  UNL     1     -33.393   7.395   6.823  1.00 20.00     0.006 C 
ENDBRANCH   1   5
BRANCH   1   7
HETATM    7  C5  UNL     1     -33.640   6.900   4.091  1.00 20.00     0.129 C 
BRANCH   7   8
HETATM    8  C7  UNL     1     -32.313   6.870   3.355  1.00 20.00     0.388 C 
HETATM    9  F9  UNL     1     -31.863   5.611   3.177  1.00 20.00    -0.171 F 
HETATM   10  F10 UNL     1     -31.367   7.562   4.022  1.00 20.00    -0.171 F 
HETATM   11  F11 UNL     1     -32.444   7.431   2.131  1.00 20.00    -0.171 F 
ENDBRANCH   7   8
ENDBRANCH   1   7
TORSDOF 4
ENDMDL
MODEL 3
REMARK VINA RESULT:      -5.3      0.011      1.138
REMARK  4 active torsions:
REMARK  status: ('A' for Active; 'I' for Inactive)
REMARK    1  A    between atoms: C1_1  and  C6_6 
REMARK    2  A    between atoms: C4_4  and  C6_6 
REMARK    3  A    between atoms: C5_5  and  C6_6 
REMARK    4  A    between atoms: C5_5  and  C7_7 
ROOT
HETATM    1  C6  UNL     1     -33.866   5.684   4.990  1.00 20.00     0.063 C 
ENDROOT
BRANCH   1   2
HETATM    2  C1  UNL     1     -35.034   4.850   4.474  1.00 20.00     0.127 C 
HETATM    3  C2  UNL     1     -35.988   5.530   3.526  1.00 20.00     0.091 C 
HETATM    4  O8  UNL     1     -35.200   3.677   4.810  1.00 20.00    -0.298 OA
ENDBRANCH   1   2
BRANCH   1   5
HETATM    5  C4  UNL     1     -34.144   6.131   6.436  1.00 20.00     0.008 C 
HETATM    6  C3  UNL     1     -33.384   7.393   6.823  1.00 20.00     0.006 C 
ENDBRANCH   1   5
BRANCH   1   7
HETATM    7  C5  UNL     1     -33.643   6.909   4.086  1.00 20.00     0.129 C 
BRANCH   7   8
HETATM    8  C7  UNL     1     -32.313   6.889   3.357  1.00 20.00     0.388 C 
HETATM    9  F9  UNL     1     -31.361   7.575   4.023  1.00 20.00    -0.171 F 
HETATM   10  F10 UNL     1     -32.422   7.420   2.121  1.00 20.00    -0.171 F 
HETATM   11  F11 UNL     1     -31.874   5.617   3.218  1.00 20.00    -0.171 F 
ENDBRANCH   7   8
ENDBRANCH   1   7
TORSDOF 4
ENDMDL
MODEL 4
REMARK VINA RESULT:      -4.7      1.622      2.736
REMARK  4 active torsions:
REMARK  status: ('A' for Active; 'I' for Inactive)
REMARK    1  A    between atoms: C1_1  and  C6_6 
REMARK    2  A    between atoms: C4_4  and  C6_6 
REMARK    3  A    between atoms: C5_5  and  C6_6 
REMARK    4  A    between atoms: C5_5  and  C7_7 
ROOT
HETATM    1  C6  UNL     1     -34.074   6.394   4.280  1.00 20.00     0.063 C 
ENDROOT
BRANCH   1   2
HETATM    2  C1  UNL     1     -34.127   6.082   5.773  1.00 20.00     0.127 C 
HETATM    3  C2  UNL     1     -34.797   4.793   6.173  1.00 20.00     0.091 C 
HETATM    4  O8  UNL     1     -33.649   6.838   6.617  1.00 20.00    -0.298 OA
ENDBRANCH   1   2
BRANCH   1   5
HETATM    5  C4  UNL     1     -35.057   5.485   3.523  1.00 20.00     0.008 C 
HETATM    6  C3  UNL     1     -34.509   5.004   2.185  1.00 20.00     0.006 C 
ENDBRANCH   1   5
BRANCH   1   7
HETATM    7  C5  UNL     1     -32.645   6.200   3.744  1.00 20.00     0.129 C 
BRANCH   7   8
HETATM    8  C7  UNL     1     -32.072   7.441   3.086  1.00 20.00     0.388 C 
HETATM    9  F9  UNL     1     -31.517   7.167   1.888  1.00 20.00    -0.171 F 
HETATM   10  F10 UNL     1     -31.129   8.017   3.861  1.00 20.00    -0.171 F 
HETATM   11  F11 UNL     1     -33.047   8.356   2.883  1.00 20.00    -0.171 F 
ENDBRANCH   7   8
ENDBRANCH   1   7
TORSDOF 4
ENDMDL
MODEL 5
REMARK VINA RESULT:      -4.4     11.617     12.203
REMARK  4 active torsions:
REMARK  status: ('A' for Active; 'I' for Inactive)
REMARK    1  A    between atoms: C1_1  and  C6_6 
REMARK    2  A    between atoms: C4_4  and  C6_6 
REMARK    3  A    between atoms: C5_5  and  C6_6 
REMARK    4  A    between atoms: C5_5  and  C7_7 
ROOT
HETATM    1  C6  UNL     1     -34.544  15.895  -2.468  1.00 20.00     0.063 C 
ENDROOT
BRANCH   1   2
HETATM    2  C1  UNL     1     -35.661  16.534  -3.287  1.00 20.00     0.127 C 
HETATM    3  C2  UNL     1     -36.922  15.729  -3.462  1.00 20.00     0.091 C 
HETATM    4  O8  UNL     1     -35.548  17.654  -3.787  1.00 20.00    -0.298 OA
ENDBRANCH   1   2
BRANCH   1   5
HETATM    5  C4  UNL     1     -33.975  16.923  -1.474  1.00 20.00     0.008 C 
HETATM    6  C3  UNL     1     -34.783  17.010  -0.185  1.00 20.00     0.006 C 
ENDBRANCH   1   5
BRANCH   1   7
HETATM    7  C5  UNL     1     -33.431  15.376  -3.395  1.00 20.00     0.129 C 
BRANCH   7   8
HETATM    8  C7  UNL     1     -33.637  13.940  -3.842  1.00 20.00     0.388 C 
HETATM    9  F9  UNL     1     -34.660  13.350  -3.190  1.00 20.00    -0.171 F 
HETATM   10  F10 UNL     1     -32.528  13.199  -3.637  1.00 20.00    -0.171 F 
HETATM   11  F11 UNL     1     -33.918  13.897  -5.164  1.00 20.00    -0.171 F 
ENDBRANCH   7   8
ENDBRANCH   1   7
TORSDOF 4
ENDMDL
MODEL 6
REMARK VINA RESULT:      -4.4     11.506     12.245
REMARK  4 active torsions:
REMARK  status: ('A' for Active; 'I' for Inactive)
REMARK    1  A    between atoms: C1_1  and  C6_6 
REMARK    2  A    between atoms: C4_4  and  C6_6 
REMARK    3  A    between atoms: C5_5  and  C6_6 
REMARK    4  A    between atoms: C5_5  and  C7_7 
ROOT
HETATM    1  C6  UNL     1     -34.740  14.912  -3.195  1.00 20.00     0.063 C 
ENDROOT
BRANCH   1   2
HETATM    2  C1  UNL     1     -34.043  13.770  -3.928  1.00 20.00     0.127 C 
HETATM    3  C2  UNL     1     -34.722  13.241  -5.165  1.00 20.00     0.091 C 
HETATM    4  O8  UNL     1     -32.976  13.297  -3.538  1.00 20.00    -0.298 OA
ENDBRANCH   1   2
BRANCH   1   5
HETATM    5  C4  UNL     1     -35.827  15.523  -4.098  1.00 20.00     0.008 C 
HETATM    6  C3  UNL     1     -37.223  15.417  -3.498  1.00 20.00     0.006 C 
ENDBRANCH   1   5
BRANCH   1   7
HETATM    7  C5  UNL     1     -33.718  15.987  -2.786  1.00 20.00     0.129 C 
BRANCH   7   8
HETATM    8  C7  UNL     1     -34.157  16.816  -1.593  1.00 20.00     0.388 C 
HETATM    9  F9  UNL     1     -34.825  16.078  -0.683  1.00 20.00    -0.171 F 
HETATM   10  F10 UNL     1     -34.955  17.836  -1.971  1.00 20.00    -0.171 F 
HETATM   11  F11 UNL     1     -33.080  17.348  -0.972  1.00 20.00    -0.171 F 
ENDBRANCH   7   8
ENDBRANCH   1   7
TORSDOF 4
ENDMDL
MODEL 7
REMARK VINA RESULT:      -4.3     11.803     12.948
REMARK  4 active torsions:
REMARK  status: ('A' for Active; 'I' for Inactive)
REMARK    1  A    between atoms: C1_1  and  C6_6 
REMARK    2  A    between atoms: C4_4  and  C6_6 
REMARK    3  A    between atoms: C5_5  and  C6_6 
REMARK    4  A    between atoms: C5_5  and  C7_7 
ROOT
HETATM    1  C6  UNL     1     -33.894  16.530  -3.242  1.00 20.00     0.063 C 
ENDROOT
BRANCH   1   2
HETATM    2  C1  UNL     1     -33.764  17.733  -4.172  1.00 20.00     0.127 C 
HETATM    3  C2  UNL     1     -33.656  17.443  -5.647  1.00 20.00     0.091 C 
HETATM    4  O8  UNL     1     -33.748  18.888  -3.748  1.00 20.00    -0.298 OA
ENDBRANCH   1   2
BRANCH   1   5
HETATM    5  C4  UNL     1     -33.616  16.961  -1.791  1.00 20.00     0.008 C 
HETATM    6  C3  UNL     1     -34.738  16.577  -0.834  1.00 20.00     0.006 C 
ENDBRANCH   1   5
BRANCH   1   7
HETATM    7  C5  UNL     1     -32.917  15.419  -3.666  1.00 20.00     0.129 C 
BRANCH   7   8
HETATM    8  C7  UNL     1     -33.586  14.075  -3.884  1.00 20.00     0.388 C 
HETATM    9  F9  UNL     1     -34.677  13.921  -3.105  1.00 20.00    -0.171 F 
HETATM   10  F10 UNL     1     -32.740  13.057  -3.623  1.00 20.00    -0.171 F 
HETATM   11  F11 UNL     1     -33.986  13.955  -5.170  1.00 20.00    -0.171 F 
ENDBRANCH   7   8
ENDBRANCH   1   7
TORSDOF 4
ENDMDL
MODEL 8
REMARK VINA RESULT:      -4.3     11.872     12.857
REMARK  4 active torsions:
REMARK  status: ('A' for Active; 'I' for Inactive)
REMARK    1  A    between atoms: C1_1  and  C6_6 
REMARK    2  A    between atoms: C4_4  and  C6_6 
REMARK    3  A    between atoms: C5_5  and  C6_6 
REMARK    4  A    between atoms: C5_5  and  C7_7 
ROOT
HETATM    1  C6  UNL     1     -33.643  15.496  -3.249  1.00 20.00     0.063 C 
ENDROOT
BRANCH   1   2
HETATM    2  C1  UNL     1     -33.773  16.386  -4.481  1.00 20.00     0.127 C 
HETATM    3  C2  UNL     1     -35.127  16.994  -4.741  1.00 20.00     0.091 C 
HETATM    4  O8  UNL     1     -32.824  16.605  -5.233  1.00 20.00    -0.298 OA
ENDBRANCH   1   2
BRANCH   1   5
HETATM    5  C4  UNL     1     -33.600  14.018  -3.677  1.00 20.00     0.008 C 
HETATM    6  C3  UNL     1     -34.972  13.470  -4.051  1.00 20.00     0.006 C 
ENDBRANCH   1   5
BRANCH   1   7
HETATM    7  C5  UNL     1     -34.819  15.740  -2.287  1.00 20.00     0.129 C 
BRANCH   7   8
HETATM    8  C7  UNL     1     -34.535  16.804  -1.243  1.00 20.00     0.388 C 
HETATM    9  F9  UNL     1     -34.877  16.399  -0.003  1.00 20.00    -0.171 F 
HETATM   10  F10 UNL     1     -35.205  17.944  -1.510  1.00 20.00    -0.171 F 
HETATM   11  F11 UNL     1     -33.216  17.100  -1.223  1.00 20.00    -0.171 F 
ENDBRANCH   7   8
ENDBRANCH   1   7
TORSDOF 4
ENDMDL
MODEL 9
REMARK VINA RESULT:      -4.3     11.608     12.607
REMARK  4 active torsions:
REMARK  status: ('A' for Active; 'I' for Inactive)
REMARK    1  A    between atoms: C1_1  and  C6_6 
REMARK    2  A    between atoms: C4_4  and  C6_6 
REMARK    3  A    between atoms: C5_5  and  C6_6 
REMARK    4  A    between atoms: C5_5  and  C7_7 
ROOT
HETATM    1  C6  UNL     1     -35.377  15.706  -3.709  1.00 20.00     0.063 C 
ENDROOT
BRANCH   1   2
HETATM    2  C1  UNL     1     -36.016  14.341  -3.950  1.00 20.00     0.127 C 
HETATM    3  C2  UNL     1     -35.098  13.229  -4.387  1.00 20.00     0.091 C 
HETATM    4  O8  UNL     1     -37.221  14.147  -3.796  1.00 20.00    -0.298 OA
ENDBRANCH   1   2
BRANCH   1   5
HETATM    5  C4  UNL     1     -34.749  16.223  -5.015  1.00 20.00     0.008 C 
HETATM    6  C3  UNL     1     -33.243  16.427  -4.908  1.00 20.00     0.006 C 
ENDBRANCH   1   5
BRANCH   1   7
HETATM    7  C5  UNL     1     -34.310  15.609  -2.605  1.00 20.00     0.129 C 
BRANCH   7   8
HETATM    8  C7  UNL     1     -34.430  16.695  -1.552  1.00 20.00     0.388 C 
HETATM    9  F9  UNL     1     -34.855  16.207  -0.368  1.00 20.00    -0.171 F 
HETATM   10  F10 UNL     1     -35.290  17.661  -1.938  1.00 20.00    -0.171 F 
HETATM   11  F11 UNL     1     -33.228  17.279  -1.342  1.00 20.00    -0.171 F 
ENDBRANCH   7   8
ENDBRANCH   1   7
TORSDOF 4
ENDMDL
