MODEL 1
REMARK VINA RESULT:      -4.5      0.000      0.000
REMARK  4 active torsions:
REMARK  status: ('A' for Active; 'I' for Inactive)
REMARK    1  A    between atoms: C1_1  and  C7_7 
REMARK    2  A    between atoms: C6_6  and  C8_8 
REMARK    3  A    between atoms: C6_6  and  O10_10 
REMARK    4  A    between atoms: C7_7  and  C8_8 
ROOT
HETATM    1  C3  UNL     1     -33.631   6.702   6.272  1.00 20.00     0.018 C 
HETATM    2  C7  UNL     1     -34.058   6.392   4.836  1.00 20.00     0.056 C 
ENDROOT
BRANCH   2   3
HETATM    3  C1  UNL     1     -35.046   5.221   4.813  1.00 20.00     0.127 C 
HETATM    4  C2  UNL     1     -34.786   4.087   5.774  1.00 20.00     0.091 C 
HETATM    5  O9  UNL     1     -35.997   5.177   4.034  1.00 20.00    -0.298 OA
ENDBRANCH   2   3
BRANCH   2   6
HETATM    6  C8  UNL     1     -32.879   6.135   3.865  1.00 20.00     0.016 C 
HETATM    7  C4  UNL     1     -33.365   5.474   2.567  1.00 20.00     0.013 C 
BRANCH   6   8
HETATM    8  C6  UNL     1     -32.069   7.402   3.552  1.00 20.00     0.172 C 
BRANCH   8   9
HETATM    9  O10 UNL     1     -32.003   7.593   2.143  1.00 20.00    -0.396 OA
HETATM   10  C5  UNL     1     -32.223   8.952   1.792  1.00 20.00     0.201 C 
ENDBRANCH   8   9
ENDBRANCH   6   8
ENDBRANCH   2   6
TORSDOF 4
ENDMDL
MODEL 2
REMARK VINA RESULT:      -4.4     11.472     12.310
REMARK  4 active torsions:
REMARK  status: ('A' for Active; 'I' for Inactive)
REMARK    1  A    between atoms: C1_1  and  C7_7 
REMARK    2  A    between atoms: C6_6  and  C8_8 
REMARK    3  A    between atoms: C6_6  and  O10_10 
REMARK    4  A    between atoms: C7_7  and  C8_8 
ROOT
HETATM    1  C3  UNL     1     -34.598  13.294  -4.726  1.00 20.00     0.018 C 
HETATM    2  C7  UNL     1     -35.318  14.233  -3.756  1.00 20.00     0.056 C 
ENDROOT
BRANCH   2   3
HETATM    3  C1  UNL     1     -36.720  14.567  -4.276  1.00 20.00     0.127 C 
HETATM    4  C2  UNL     1     -36.804  15.380  -5.545  1.00 20.00     0.091 C 
HETATM    5  O9  UNL     1     -37.742  14.221  -3.685  1.00 20.00    -0.298 OA
ENDBRANCH   2   3
BRANCH   2   6
HETATM    6  C8  UNL     1     -34.533  15.526  -3.424  1.00 20.00     0.016 C 
HETATM    7  C4  UNL     1     -34.753  15.949  -1.965  1.00 20.00     0.013 C 
BRANCH   6   8
HETATM    8  C6  UNL     1     -33.032  15.415  -3.731  1.00 20.00     0.172 C 
BRANCH   8   9
HETATM    9  O10 UNL     1     -32.715  16.209  -4.869  1.00 20.00    -0.396 OA
HETATM   10  C5  UNL     1     -33.608  17.307  -5.002  1.00 20.00     0.201 C 
ENDBRANCH   8   9
ENDBRANCH   6   8
ENDBRANCH   2   6
TORSDOF 4
ENDMDL
MODEL 3
REMARK VINA RESULT:      -4.4     11.019     12.173
REMARK  4 active torsions:
REMARK  status: ('A' for Active; 'I' for Inactive)
REMARK    1  A    between atoms: C1_1  and  C7_7 
REMARK    2  A    between atoms: C6_6  and  C8_8 
REMARK    3  A    between atoms: C6_6  and  O10_10 
REMARK    4  A    between atoms: C7_7  and  C8_8 
ROOT
HETATM    1  C3  UNL     1     -32.795  14.259  -3.628  1.00 20.00     0.018 C 
HETATM    2  C7  UNL     1     -34.218  14.475  -3.109  1.00 20.00     0.056 C 
ENDROOT
BRANCH   2   3
HETATM    3  C1  UNL     1     -35.229  13.758  -4.008  1.00 20.00     0.127 C 
HETATM    4  C2  UNL     1     -36.568  14.427  -4.203  1.00 20.00     0.091 C 
HETATM    5  O9  UNL     1     -34.990  12.671  -4.534  1.00 20.00    -0.298 OA
ENDBRANCH   2   3
BRANCH   2   6
HETATM    6  C8  UNL     1     -34.606  15.962  -2.923  1.00 20.00     0.016 C 
HETATM    7  C4  UNL     1     -34.615  16.351  -1.438  1.00 20.00     0.013 C 
BRANCH   6   8
HETATM    8  C6  UNL     1     -33.716  16.923  -3.725  1.00 20.00     0.172 C 
BRANCH   8   9
HETATM    9  O10 UNL     1     -34.454  17.465  -4.814  1.00 20.00    -0.396 OA
HETATM   10  C5  UNL     1     -34.114  16.831  -6.039  1.00 20.00     0.201 C 
ENDBRANCH   8   9
ENDBRANCH   6   8
ENDBRANCH   2   6
TORSDOF 4
ENDMDL
MODEL 4
REMARK VINA RESULT:      -4.4     11.361     12.318
REMARK  4 active torsions:
REMARK  status: ('A' for Active; 'I' for Inactive)
REMARK    1  A    between atoms: C1_1  and  C7_7 
REMARK    2  A    between atoms: C6_6  and  C8_8 
REMARK    3  A    between atoms: C6_6  and  O10_10 
REMARK    4  A    between atoms: C7_7  and  C8_8 
ROOT
HETATM    1  C3  UNL     1     -33.290  15.978  -4.506  1.00 20.00     0.018 C 
HETATM    2  C7  UNL     1     -33.966  14.790  -3.818  1.00 20.00     0.056 C 
ENDROOT
BRANCH   2   3
HETATM    3  C1  UNL     1     -34.544  13.827  -4.860  1.00 20.00     0.127 C 
HETATM    4  C2  UNL     1     -34.689  14.348  -6.269  1.00 20.00     0.091 C 
HETATM    5  O9  UNL     1     -34.904  12.686  -4.575  1.00 20.00    -0.298 OA
ENDBRANCH   2   3
BRANCH   2   6
HETATM    6  C8  UNL     1     -35.045  15.187  -2.780  1.00 20.00     0.016 C 
HETATM    7  C4  UNL     1     -34.497  16.212  -1.777  1.00 20.00     0.013 C 
BRANCH   6   8
HETATM    8  C6  UNL     1     -36.339  15.704  -3.424  1.00 20.00     0.172 C 
BRANCH   8   9
HETATM    9  O10 UNL     1     -37.383  14.756  -3.231  1.00 20.00    -0.396 OA
HETATM   10  C5  UNL     1     -38.331  14.803  -4.288  1.00 20.00     0.201 C 
ENDBRANCH   8   9
ENDBRANCH   6   8
ENDBRANCH   2   6
TORSDOF 4
ENDMDL
MODEL 5
REMARK VINA RESULT:      -4.2     11.415     11.973
REMARK  4 active torsions:
REMARK  status: ('A' for Active; 'I' for Inactive)
REMARK    1  A    between atoms: C1_1  and  C7_7 
REMARK    2  A    between atoms: C6_6  and  C8_8 
REMARK    3  A    between atoms: C6_6  and  O10_10 
REMARK    4  A    between atoms: C7_7  and  C8_8 
ROOT
HETATM    1  C3  UNL     1     -36.823  15.059  -3.430  1.00 20.00     0.018 C 
HETATM    2  C7  UNL     1     -35.411  15.091  -4.018  1.00 20.00     0.056 C 
ENDROOT
BRANCH   2   3
HETATM    3  C1  UNL     1     -35.157  13.841  -4.867  1.00 20.00     0.127 C 
HETATM    4  C2  UNL     1     -35.059  14.036  -6.360  1.00 20.00     0.091 C 
HETATM    5  O9  UNL     1     -35.061  12.718  -4.374  1.00 20.00    -0.298 OA
ENDBRANCH   2   3
BRANCH   2   6
HETATM    6  C8  UNL     1     -34.290  15.277  -2.966  1.00 20.00     0.016 C 
HETATM    7  C4  UNL     1     -32.901  15.198  -3.616  1.00 20.00     0.013 C 
BRANCH   6   8
HETATM    8  C6  UNL     1     -34.431  16.576  -2.158  1.00 20.00     0.172 C 
BRANCH   8   9
HETATM    9  O10 UNL     1     -34.639  16.266  -0.784  1.00 20.00    -0.396 OA
HETATM   10  C5  UNL     1     -34.933  17.431  -0.027  1.00 20.00     0.201 C 
ENDBRANCH   8   9
ENDBRANCH   6   8
ENDBRANCH   2   6
TORSDOF 4
ENDMDL
MODEL 6
REMARK VINA RESULT:      -4.1     11.209     12.032
REMARK  4 active torsions:
REMARK  status: ('A' for Active; 'I' for Inactive)
REMARK    1  A    between atoms: C1_1  and  C7_7 
REMARK    2  A    between atoms: C6_6  and  C8_8 
REMARK    3  A    between atoms: C6_6  and  O10_10 
REMARK    4  A    between atoms: C7_7  and  C8_8 
ROOT
HETATM    1  C3  UNL     1     -32.630  14.775  -3.578  1.00 20.00     0.018 C 
HETATM    2  C7  UNL     1     -34.109  14.389  -3.514  1.00 20.00     0.056 C 
ENDROOT
BRANCH   2   3
HETATM    3  C1  UNL     1     -34.537  13.696  -4.812  1.00 20.00     0.127 C 
HETATM    4  C2  UNL     1     -34.518  14.528  -6.070  1.00 20.00     0.091 C 
HETATM    5  O9  UNL     1     -34.908  12.524  -4.841  1.00 20.00    -0.298 OA
ENDBRANCH   2   3
BRANCH   2   6
HETATM    6  C8  UNL     1     -35.058  15.566  -3.181  1.00 20.00     0.016 C 
HETATM    7  C4  UNL     1     -36.529  15.145  -3.311  1.00 20.00     0.013 C 
BRANCH   6   8
HETATM    8  C6  UNL     1     -34.795  16.180  -1.798  1.00 20.00     0.172 C 
BRANCH   8   9
HETATM    9  O10 UNL     1     -34.298  17.505  -1.948  1.00 20.00    -0.396 OA
HETATM   10  C5  UNL     1     -33.442  17.864  -0.872  1.00 20.00     0.201 C 
ENDBRANCH   8   9
ENDBRANCH   6   8
ENDBRANCH   2   6
TORSDOF 4
ENDMDL
MODEL 7
REMARK VINA RESULT:      -4.1     10.819     12.490
REMARK  4 active torsions:
REMARK  status: ('A' for Active; 'I' for Inactive)
REMARK    1  A    between atoms: C1_1  and  C7_7 
REMARK    2  A    between atoms: C6_6  and  C8_8 
REMARK    3  A    between atoms: C6_6  and  O10_10 
REMARK    4  A    between atoms: C7_7  and  C8_8 
ROOT
HETATM    1  C3  UNL     1     -34.626  15.791  -2.568  1.00 20.00     0.018 C 
HETATM    2  C7  UNL     1     -35.383  14.883  -3.540  1.00 20.00     0.056 C 
ENDROOT
BRANCH   2   3
HETATM    3  C1  UNL     1     -34.556  13.634  -3.859  1.00 20.00     0.127 C 
HETATM    4  C2  UNL     1     -33.069  13.718  -3.619  1.00 20.00     0.091 C 
HETATM    5  O9  UNL     1     -35.060  12.609  -4.316  1.00 20.00    -0.298 OA
ENDBRANCH   2   3
BRANCH   2   6
HETATM    6  C8  UNL     1     -35.839  15.586  -4.842  1.00 20.00     0.016 C 
HETATM    7  C4  UNL     1     -37.277  16.110  -4.715  1.00 20.00     0.013 C 
BRANCH   6   8
HETATM    8  C6  UNL     1     -34.894  16.715  -5.280  1.00 20.00     0.172 C 
BRANCH   8   9
HETATM    9  O10 UNL     1     -33.857  16.182  -6.097  1.00 20.00    -0.396 OA
HETATM   10  C5  UNL     1     -34.380  15.353  -7.125  1.00 20.00     0.201 C 
ENDBRANCH   8   9
ENDBRANCH   6   8
ENDBRANCH   2   6
TORSDOF 4
ENDMDL
MODEL 8
REMARK VINA RESULT:      -4.0     10.939     12.955
REMARK  4 active torsions:
REMARK  status: ('A' for Active; 'I' for Inactive)
REMARK    1  A    between atoms: C1_1  and  C7_7 
REMARK    2  A    between atoms: C6_6  and  C8_8 
REMARK    3  A    between atoms: C6_6  and  O10_10 
REMARK    4  A    between atoms: C7_7  and  C8_8 
ROOT
HETATM    1  C3  UNL     1     -35.425  14.351  -6.839  1.00 20.00     0.018 C 
HETATM    2  C7  UNL     1     -34.384  14.719  -5.780  1.00 20.00     0.056 C 
ENDROOT
BRANCH   2   3
HETATM    3  C1  UNL     1     -34.251  13.595  -4.748  1.00 20.00     0.127 C 
HETATM    4  C2  UNL     1     -33.233  13.789  -3.651  1.00 20.00     0.091 C 
HETATM    5  O9  UNL     1     -34.915  12.561  -4.811  1.00 20.00    -0.298 OA
ENDBRANCH   2   3
BRANCH   2   6
HETATM    6  C8  UNL     1     -34.642  16.077  -5.082  1.00 20.00     0.016 C 
HETATM    7  C4  UNL     1     -33.908  17.218  -5.802  1.00 20.00     0.013 C 
BRANCH   6   8
HETATM    8  C6  UNL     1     -36.135  16.406  -4.936  1.00 20.00     0.172 C 
BRANCH   8   9
HETATM    9  O10 UNL     1     -36.600  15.967  -3.665  1.00 20.00    -0.396 OA
HETATM   10  C5  UNL     1     -37.597  14.963  -3.795  1.00 20.00     0.201 C 
ENDBRANCH   8   9
ENDBRANCH   6   8
ENDBRANCH   2   6
TORSDOF 4
ENDMDL
MODEL 9
REMARK VINA RESULT:      -4.0      1.471      1.783
REMARK  4 active torsions:
REMARK  status: ('A' for Active; 'I' for Inactive)
REMARK    1  A    between atoms: C1_1  and  C7_7 
REMARK    2  A    between atoms: C6_6  and  C8_8 
REMARK    3  A    between atoms: C6_6  and  O10_10 
REMARK    4  A    between atoms: C7_7  and  C8_8 
ROOT
HETATM    1  C3  UNL     1     -35.342   5.854   3.333  1.00 20.00     0.018 C 
HETATM    2  C7  UNL     1     -34.066   5.549   4.119  1.00 20.00     0.056 C 
ENDROOT
BRANCH   2   3
HETATM    3  C1  UNL     1     -34.334   5.630   5.625  1.00 20.00     0.127 C 
HETATM    4  C2  UNL     1     -35.063   4.469   6.254  1.00 20.00     0.091 C 
HETATM    5  O9  UNL     1     -34.002   6.602   6.303  1.00 20.00    -0.298 OA
ENDBRANCH   2   3
BRANCH   2   6
HETATM    6  C8  UNL     1     -32.854   6.431   3.729  1.00 20.00     0.016 C 
HETATM    7  C4  UNL     1     -31.776   5.606   3.013  1.00 20.00     0.013 C 
BRANCH   6   8
HETATM    8  C6  UNL     1     -33.245   7.653   2.884  1.00 20.00     0.172 C 
BRANCH   8   9
HETATM    9  O10 UNL     1     -32.099   8.154   2.206  1.00 20.00    -0.396 OA
HETATM   10  C5  UNL     1     -32.405   9.325   1.462  1.00 20.00     0.201 C 
ENDBRANCH   8   9
ENDBRANCH   6   8
ENDBRANCH   2   6
TORSDOF 4
ENDMDL
