MODEL 1
REMARK VINA RESULT:      -6.2      0.000      0.000
REMARK  3 active torsions:
REMARK  status: ('A' for Active; 'I' for Inactive)
REMARK    1  A    between atoms: C7_7  and  C9_9 
REMARK    2  A    between atoms: C8_8  and  C10_10 
REMARK    3  A    between atoms: C9_9  and  C10_10 
ROOT
HETATM    1  C1  UNL     1     -34.053   6.166   5.869  1.00 20.00     0.131 C 
HETATM    2  C2  UNL     1     -34.821   4.907   6.188  1.00 20.00     0.079 C 
HETATM    3  C3  UNL     1     -35.415   4.547   4.832  1.00 20.00     0.008 C 
HETATM    4  C4  UNL     1     -34.392   5.053   3.823  1.00 20.00     0.013 C 
HETATM    5  C7  UNL     1     -33.962   6.412   4.377  1.00 20.00     0.055 C 
HETATM    6  O11 UNL     1     -33.565   6.895   6.722  1.00 20.00    -0.298 OA
ENDROOT
BRANCH   5   7
HETATM    7  C9  UNL     1     -32.574   6.822   3.929  1.00 20.00     0.012 C 
BRANCH   7   8
HETATM    8  C10 UNL     1     -32.517   7.063   2.420  1.00 20.00     0.005 C 
BRANCH   8   9
HETATM    9  C8  UNL     1     -31.829   8.377   2.086  1.00 20.00    -0.014 A 
HETATM   10  C5  UNL     1     -31.716   8.830   0.657  1.00 20.00     0.005 A 
HETATM   11  C6  UNL     1     -32.633   9.552   1.604  1.00 20.00     0.005 A 
ENDBRANCH   8   9
ENDBRANCH   7   8
ENDBRANCH   5   7
TORSDOF 3
ENDMDL
MODEL 2
REMARK VINA RESULT:      -5.3      1.453      1.985
REMARK  3 active torsions:
REMARK  status: ('A' for Active; 'I' for Inactive)
REMARK    1  A    between atoms: C7_7  and  C9_9 
REMARK    2  A    between atoms: C8_8  and  C10_10 
REMARK    3  A    between atoms: C9_9  and  C10_10 
ROOT
HETATM    1  C1  UNL     1     -34.443   5.305   3.841  1.00 20.00     0.131 C 
HETATM    2  C2  UNL     1     -35.438   4.636   4.757  1.00 20.00     0.079 C 
HETATM    3  C3  UNL     1     -34.796   4.840   6.124  1.00 20.00     0.008 C 
HETATM    4  C4  UNL     1     -34.046   6.160   5.998  1.00 20.00     0.013 C 
HETATM    5  C7  UNL     1     -33.404   6.094   4.611  1.00 20.00     0.055 C 
HETATM    6  O11 UNL     1     -34.480   5.216   2.621  1.00 20.00    -0.298 OA
ENDROOT
BRANCH   5   7
HETATM    7  C9  UNL     1     -33.138   7.462   4.015  1.00 20.00     0.012 C 
BRANCH   7   8
HETATM    8  C10 UNL     1     -32.028   7.413   2.964  1.00 20.00     0.005 C 
BRANCH   8   9
HETATM    9  C8  UNL     1     -32.448   8.093   1.671  1.00 20.00    -0.014 A 
HETATM   10  C5  UNL     1     -32.426   9.592   1.563  1.00 20.00     0.005 A 
HETATM   11  C6  UNL     1     -31.422   8.769   0.803  1.00 20.00     0.005 A 
ENDBRANCH   8   9
ENDBRANCH   7   8
ENDBRANCH   5   7
TORSDOF 3
ENDMDL
MODEL 3
REMARK VINA RESULT:      -4.9     11.077     12.195
REMARK  3 active torsions:
REMARK  status: ('A' for Active; 'I' for Inactive)
REMARK    1  A    between atoms: C7_7  and  C9_9 
REMARK    2  A    between atoms: C8_8  and  C10_10 
REMARK    3  A    between atoms: C9_9  and  C10_10 
ROOT
HETATM    1  C1  UNL     1     -34.001  15.425  -5.302  1.00 20.00     0.131 C 
HETATM    2  C2  UNL     1     -34.880  14.347  -5.886  1.00 20.00     0.079 C 
HETATM    3  C3  UNL     1     -34.664  13.199  -4.908  1.00 20.00     0.008 C 
HETATM    4  C4  UNL     1     -34.407  13.883  -3.571  1.00 20.00     0.013 C 
HETATM    5  C7  UNL     1     -33.494  15.058  -3.923  1.00 20.00     0.055 C 
HETATM    6  O11 UNL     1     -33.737  16.470  -5.882  1.00 20.00    -0.298 OA
ENDROOT
BRANCH   5   7
HETATM    7  C9  UNL     1     -33.591  16.201  -2.933  1.00 20.00     0.012 C 
BRANCH   7   8
HETATM    8  C10 UNL     1     -34.872  16.119  -2.101  1.00 20.00     0.005 C 
BRANCH   8   9
HETATM    9  C8  UNL     1     -34.647  16.592  -0.674  1.00 20.00    -0.014 A 
HETATM   10  C5  UNL     1     -33.852  17.840  -0.407  1.00 20.00     0.005 A 
HETATM   11  C6  UNL     1     -35.337  17.829  -0.169  1.00 20.00     0.005 A 
ENDBRANCH   8   9
ENDBRANCH   7   8
ENDBRANCH   5   7
TORSDOF 3
ENDMDL
MODEL 4
REMARK VINA RESULT:      -4.9      1.046      1.513
REMARK  3 active torsions:
REMARK  status: ('A' for Active; 'I' for Inactive)
REMARK    1  A    between atoms: C7_7  and  C9_9 
REMARK    2  A    between atoms: C8_8  and  C10_10 
REMARK    3  A    between atoms: C9_9  and  C10_10 
ROOT
HETATM    1  C1  UNL     1     -34.192   6.003   5.966  1.00 20.00     0.131 C 
HETATM    2  C2  UNL     1     -34.200   4.669   6.672  1.00 20.00     0.079 C 
HETATM    3  C3  UNL     1     -35.244   3.896   5.876  1.00 20.00     0.008 C 
HETATM    4  C4  UNL     1     -35.135   4.456   4.463  1.00 20.00     0.013 C 
HETATM    5  C7  UNL     1     -34.975   5.962   4.670  1.00 20.00     0.055 C 
HETATM    6  O11 UNL     1     -33.617   6.993   6.397  1.00 20.00    -0.298 OA
ENDROOT
BRANCH   5   7
HETATM    7  C9  UNL     1     -34.257   6.645   3.523  1.00 20.00     0.012 C 
BRANCH   7   8
HETATM    8  C10 UNL     1     -33.033   5.847   3.070  1.00 20.00     0.005 C 
BRANCH   8   9
HETATM    9  C8  UNL     1     -31.876   6.758   2.694  1.00 20.00    -0.014 A 
HETATM   10  C5  UNL     1     -32.127   8.201   2.356  1.00 20.00     0.005 A 
HETATM   11  C6  UNL     1     -31.427   7.840   3.637  1.00 20.00     0.005 A 
ENDBRANCH   8   9
ENDBRANCH   7   8
ENDBRANCH   5   7
TORSDOF 3
ENDMDL
MODEL 5
REMARK VINA RESULT:      -4.8     11.219     12.393
REMARK  3 active torsions:
REMARK  status: ('A' for Active; 'I' for Inactive)
REMARK    1  A    between atoms: C7_7  and  C9_9 
REMARK    2  A    between atoms: C8_8  and  C10_10 
REMARK    3  A    between atoms: C9_9  and  C10_10 
ROOT
HETATM    1  C1  UNL     1     -34.900  13.780  -5.272  1.00 20.00     0.131 C 
HETATM    2  C2  UNL     1     -35.160  14.166  -6.707  1.00 20.00     0.079 C 
HETATM    3  C3  UNL     1     -35.530  15.638  -6.576  1.00 20.00     0.008 C 
HETATM    4  C4  UNL     1     -34.729  16.125  -5.375  1.00 20.00     0.013 C 
HETATM    5  C7  UNL     1     -34.851  14.988  -4.359  1.00 20.00     0.055 C 
HETATM    6  O11 UNL     1     -34.747  12.624  -4.900  1.00 20.00    -0.298 OA
ENDROOT
BRANCH   5   7
HETATM    7  C9  UNL     1     -33.697  14.942  -3.379  1.00 20.00     0.012 C 
BRANCH   7   8
HETATM    8  C10 UNL     1     -33.622  16.217  -2.536  1.00 20.00     0.005 C 
BRANCH   8   9
HETATM    9  C8  UNL     1     -34.772  16.305  -1.546  1.00 20.00    -0.014 A 
HETATM   10  C5  UNL     1     -34.615  17.086  -0.272  1.00 20.00     0.005 A 
HETATM   11  C6  UNL     1     -35.515  17.599  -1.362  1.00 20.00     0.005 A 
ENDBRANCH   8   9
ENDBRANCH   7   8
ENDBRANCH   5   7
TORSDOF 3
ENDMDL
MODEL 6
REMARK VINA RESULT:      -4.8      1.468      1.994
REMARK  3 active torsions:
REMARK  status: ('A' for Active; 'I' for Inactive)
REMARK    1  A    between atoms: C7_7  and  C9_9 
REMARK    2  A    between atoms: C8_8  and  C10_10 
REMARK    3  A    between atoms: C9_9  and  C10_10 
ROOT
HETATM    1  C1  UNL     1     -34.496   4.900   4.861  1.00 20.00     0.131 C 
HETATM    2  C2  UNL     1     -35.123   5.304   6.173  1.00 20.00     0.079 C 
HETATM    3  C3  UNL     1     -34.086   6.267   6.736  1.00 20.00     0.008 C 
HETATM    4  C4  UNL     1     -33.461   6.914   5.506  1.00 20.00     0.013 C 
HETATM    5  C7  UNL     1     -33.294   5.757   4.520  1.00 20.00     0.055 C 
HETATM    6  O11 UNL     1     -34.918   3.989   4.162  1.00 20.00    -0.298 OA
ENDROOT
BRANCH   5   7
HETATM    7  C9  UNL     1     -33.279   6.208   3.074  1.00 20.00     0.012 C 
BRANCH   7   8
HETATM    8  C10 UNL     1     -32.284   7.347   2.848  1.00 20.00     0.005 C 
BRANCH   8   9
HETATM    9  C8  UNL     1     -32.690   8.224   1.675  1.00 20.00    -0.014 A 
HETATM   10  C5  UNL     1     -32.388   9.696   1.690  1.00 20.00     0.005 A 
HETATM   11  C6  UNL     1     -31.644   8.786   0.752  1.00 20.00     0.005 A 
ENDBRANCH   8   9
ENDBRANCH   7   8
ENDBRANCH   5   7
TORSDOF 3
ENDMDL
MODEL 7
REMARK VINA RESULT:      -4.7     10.970     12.034
REMARK  3 active torsions:
REMARK  status: ('A' for Active; 'I' for Inactive)
REMARK    1  A    between atoms: C7_7  and  C9_9 
REMARK    2  A    between atoms: C8_8  and  C10_10 
REMARK    3  A    between atoms: C9_9  and  C10_10 
ROOT
HETATM    1  C1  UNL     1     -32.609  18.834   0.460  1.00 20.00     0.131 C 
HETATM    2  C2  UNL     1     -32.837  18.788   1.951  1.00 20.00     0.079 C 
HETATM    3  C3  UNL     1     -34.332  18.506   2.034  1.00 20.00     0.008 C 
HETATM    4  C4  UNL     1     -34.630  17.675   0.793  1.00 20.00     0.013 C 
HETATM    5  C7  UNL     1     -33.818  18.350  -0.313  1.00 20.00     0.055 C 
HETATM    6  O11 UNL     1     -31.566  19.216  -0.054  1.00 20.00    -0.298 OA
ENDROOT
BRANCH   5   7
HETATM    7  C9  UNL     1     -33.459  17.407  -1.444  1.00 20.00     0.012 C 
BRANCH   7   8
HETATM    8  C10 UNL     1     -34.488  16.285  -1.591  1.00 20.00     0.005 C 
BRANCH   8   9
HETATM    9  C8  UNL     1     -34.554  15.767  -3.019  1.00 20.00    -0.014 A 
HETATM   10  C5  UNL     1     -33.307  15.294  -3.711  1.00 20.00     0.005 A 
HETATM   11  C6  UNL     1     -34.361  14.303  -3.303  1.00 20.00     0.005 A 
ENDBRANCH   8   9
ENDBRANCH   7   8
ENDBRANCH   5   7
TORSDOF 3
ENDMDL
MODEL 8
REMARK VINA RESULT:      -4.5     10.935     12.774
REMARK  3 active torsions:
REMARK  status: ('A' for Active; 'I' for Inactive)
REMARK    1  A    between atoms: C7_7  and  C9_9 
REMARK    2  A    between atoms: C8_8  and  C10_10 
REMARK    3  A    between atoms: C9_9  and  C10_10 
ROOT
HETATM    1  C1  UNL     1     -34.384  13.671  -4.797  1.00 20.00     0.131 C 
HETATM    2  C2  UNL     1     -33.728  14.275  -3.580  1.00 20.00     0.079 C 
HETATM    3  C3  UNL     1     -33.129  15.557  -4.146  1.00 20.00     0.008 C 
HETATM    4  C4  UNL     1     -34.082  15.959  -5.264  1.00 20.00     0.013 C 
HETATM    5  C7  UNL     1     -34.417  14.640  -5.962  1.00 20.00     0.055 C 
HETATM    6  O11 UNL     1     -34.835  12.534  -4.829  1.00 20.00    -0.298 OA
ENDROOT
BRANCH   5   7
HETATM    7  C9  UNL     1     -35.757  14.667  -6.670  1.00 20.00     0.012 C 
BRANCH   7   8
HETATM    8  C10 UNL     1     -36.656  15.781  -6.132  1.00 20.00     0.005 C 
BRANCH   8   9
HETATM    9  C8  UNL     1     -37.800  15.226  -5.299  1.00 20.00    -0.014 A 
HETATM   10  C5  UNL     1     -37.595  14.917  -3.842  1.00 20.00     0.005 A 
HETATM   11  C6  UNL     1     -38.456  16.080  -4.249  1.00 20.00     0.005 A 
ENDBRANCH   8   9
ENDBRANCH   7   8
ENDBRANCH   5   7
TORSDOF 3
ENDMDL
MODEL 9
REMARK VINA RESULT:      -4.5     11.016     12.380
REMARK  3 active torsions:
REMARK  status: ('A' for Active; 'I' for Inactive)
REMARK    1  A    between atoms: C7_7  and  C9_9 
REMARK    2  A    between atoms: C8_8  and  C10_10 
REMARK    3  A    between atoms: C9_9  and  C10_10 
ROOT
HETATM    1  C1  UNL     1     -36.038  14.888  -3.369  1.00 20.00     0.131 C 
HETATM    2  C2  UNL     1     -35.698  16.187  -2.681  1.00 20.00     0.079 C 
HETATM    3  C3  UNL     1     -34.216  16.005  -2.377  1.00 20.00     0.008 C 
HETATM    4  C4  UNL     1     -33.701  15.128  -3.511  1.00 20.00     0.013 C 
HETATM    5  C7  UNL     1     -34.800  14.082  -3.703  1.00 20.00     0.055 C 
HETATM    6  O11 UNL     1     -37.182  14.537  -3.624  1.00 20.00    -0.298 OA
ENDROOT
BRANCH   5   7
HETATM    7  C9  UNL     1     -34.830  13.504  -5.104  1.00 20.00     0.012 C 
BRANCH   7   8
HETATM    8  C10 UNL     1     -34.429  14.543  -6.152  1.00 20.00     0.005 C 
BRANCH   8   9
HETATM    9  C8  UNL     1     -35.402  14.568  -7.319  1.00 20.00    -0.014 A 
HETATM   10  C5  UNL     1     -36.809  15.058  -7.121  1.00 20.00     0.005 A 
HETATM   11  C6  UNL     1     -35.833  15.879  -7.917  1.00 20.00     0.005 A 
ENDBRANCH   8   9
ENDBRANCH   7   8
ENDBRANCH   5   7
TORSDOF 3
ENDMDL
