MODEL 1
REMARK VINA RESULT:      -4.7      0.000      0.000
REMARK  4 active torsions:
REMARK  status: ('A' for Active; 'I' for Inactive)
REMARK    1  A    between atoms: C1_1  and  C8_8 
REMARK    2  A    between atoms: C1_1  and  C10_10 
REMARK    3  A    between atoms: C5_5  and  C9_9 
REMARK    4  A    between atoms: C9_9  and  C10_10 
ROOT
HETATM    1  C7  UNL     1     -36.535  15.023  -3.628  1.00 20.00     0.018 C 
HETATM    2  C10 UNL     1     -35.138  14.427  -3.474  1.00 20.00     0.051 C 
ENDROOT
BRANCH   2   3
HETATM    3  C1  UNL     1     -34.742  13.772  -4.797  1.00 20.00     0.130 C 
HETATM    4  O11 UNL     1     -34.686  12.548  -4.921  1.00 20.00    -0.298 OA
BRANCH   3   5
HETATM    5  C8  UNL     1     -34.459  14.717  -5.954  1.00 20.00     0.074 C 
HETATM    6  C6  UNL     1     -35.318  14.425  -7.172  1.00 20.00     0.013 C 
ENDBRANCH   3   5
ENDBRANCH   2   3
BRANCH   2   7
HETATM    7  C9  UNL     1     -34.131  15.503  -3.046  1.00 20.00     0.016 C 
BRANCH   7   8
HETATM    8  C5  UNL     1     -34.825  16.637  -2.307  1.00 20.00    -0.014 C 
HETATM    9  C3  UNL     1     -34.086  17.999  -2.304  1.00 20.00     0.005 C 
HETATM   10  C2  UNL     1     -33.494  17.616  -0.934  1.00 20.00     0.001 C 
HETATM   11  C4  UNL     1     -34.672  16.636  -0.764  1.00 20.00     0.005 C 
ENDBRANCH   7   8
ENDBRANCH   2   7
TORSDOF 4
ENDMDL
MODEL 2
REMARK VINA RESULT:      -4.7      1.037      1.754
REMARK  4 active torsions:
REMARK  status: ('A' for Active; 'I' for Inactive)
REMARK    1  A    between atoms: C1_1  and  C8_8 
REMARK    2  A    between atoms: C1_1  and  C10_10 
REMARK    3  A    between atoms: C5_5  and  C9_9 
REMARK    4  A    between atoms: C9_9  and  C10_10 
ROOT
HETATM    1  C7  UNL     1     -32.781  13.945  -3.451  1.00 20.00     0.018 C 
HETATM    2  C10 UNL     1     -33.958  14.690  -4.076  1.00 20.00     0.051 C 
ENDROOT
BRANCH   2   3
HETATM    3  C1  UNL     1     -34.763  13.702  -4.919  1.00 20.00     0.130 C 
HETATM    4  O11 UNL     1     -35.063  12.585  -4.497  1.00 20.00    -0.298 OA
BRANCH   3   5
HETATM    5  C8  UNL     1     -35.202  14.194  -6.290  1.00 20.00     0.074 C 
HETATM    6  C6  UNL     1     -34.303  15.289  -6.834  1.00 20.00     0.013 C 
ENDBRANCH   3   5
ENDBRANCH   2   3
BRANCH   2   7
HETATM    7  C9  UNL     1     -34.821  15.351  -2.993  1.00 20.00     0.016 C 
BRANCH   7   8
HETATM    8  C5  UNL     1     -33.988  16.281  -2.123  1.00 20.00    -0.014 C 
HETATM    9  C3  UNL     1     -34.606  16.669  -0.756  1.00 20.00     0.005 C 
HETATM   10  C2  UNL     1     -35.140  17.952  -1.422  1.00 20.00     0.001 C 
HETATM   11  C4  UNL     1     -34.042  17.785  -2.490  1.00 20.00     0.005 C 
ENDBRANCH   7   8
ENDBRANCH   2   7
TORSDOF 4
ENDMDL
MODEL 3
REMARK VINA RESULT:      -4.5      1.611      2.104
REMARK  4 active torsions:
REMARK  status: ('A' for Active; 'I' for Inactive)
REMARK    1  A    between atoms: C1_1  and  C8_8 
REMARK    2  A    between atoms: C1_1  and  C10_10 
REMARK    3  A    between atoms: C5_5  and  C9_9 
REMARK    4  A    between atoms: C9_9  and  C10_10 
ROOT
HETATM    1  C7  UNL     1     -33.205  16.229  -4.875  1.00 20.00     0.018 C 
HETATM    2  C10 UNL     1     -34.098  15.663  -3.773  1.00 20.00     0.051 C 
ENDROOT
BRANCH   2   3
HETATM    3  C1  UNL     1     -34.095  14.138  -3.883  1.00 20.00     0.130 C 
HETATM    4  O11 UNL     1     -33.083  13.476  -3.652  1.00 20.00    -0.298 OA
BRANCH   3   5
HETATM    5  C8  UNL     1     -35.419  13.490  -4.254  1.00 20.00     0.074 C 
HETATM    6  C6  UNL     1     -36.591  14.450  -4.148  1.00 20.00     0.013 C 
ENDBRANCH   3   5
ENDBRANCH   2   3
BRANCH   2   7
HETATM    7  C9  UNL     1     -33.626  16.137  -2.392  1.00 20.00     0.016 C 
BRANCH   7   8
HETATM    8  C5  UNL     1     -34.805  16.348  -1.455  1.00 20.00    -0.014 C 
HETATM    9  C3  UNL     1     -35.842  17.412  -1.895  1.00 20.00     0.005 C 
HETATM   10  C2  UNL     1     -35.097  18.428  -1.008  1.00 20.00     0.001 C 
HETATM   11  C4  UNL     1     -34.535  17.233  -0.212  1.00 20.00     0.005 C 
ENDBRANCH   7   8
ENDBRANCH   2   7
TORSDOF 4
ENDMDL
MODEL 4
REMARK VINA RESULT:      -4.4     11.149     12.093
REMARK  4 active torsions:
REMARK  status: ('A' for Active; 'I' for Inactive)
REMARK    1  A    between atoms: C1_1  and  C8_8 
REMARK    2  A    between atoms: C1_1  and  C10_10 
REMARK    3  A    between atoms: C5_5  and  C9_9 
REMARK    4  A    between atoms: C9_9  and  C10_10 
ROOT
HETATM    1  C7  UNL     1     -33.869   6.141   2.198  1.00 20.00     0.018 C 
HETATM    2  C10 UNL     1     -32.557   6.105   2.978  1.00 20.00     0.051 C 
ENDROOT
BRANCH   2   3
HETATM    3  C1  UNL     1     -31.917   7.491   2.911  1.00 20.00     0.130 C 
HETATM    4  O11 UNL     1     -31.351   7.989   3.885  1.00 20.00    -0.298 OA
BRANCH   3   5
HETATM    5  C8  UNL     1     -31.988   8.199   1.567  1.00 20.00     0.074 C 
HETATM    6  C6  UNL     1     -32.484   9.629   1.684  1.00 20.00     0.013 C 
ENDBRANCH   3   5
ENDBRANCH   2   3
BRANCH   2   7
HETATM    7  C9  UNL     1     -32.795   5.656   4.425  1.00 20.00     0.016 C 
BRANCH   7   8
HETATM    8  C5  UNL     1     -34.225   5.942   4.858  1.00 20.00    -0.014 C 
HETATM    9  C3  UNL     1     -34.487   5.943   6.385  1.00 20.00     0.005 C 
HETATM   10  C2  UNL     1     -34.937   4.475   6.256  1.00 20.00     0.001 C 
HETATM   11  C4  UNL     1     -35.214   4.752   4.765  1.00 20.00     0.005 C 
ENDBRANCH   7   8
ENDBRANCH   2   7
TORSDOF 4
ENDMDL
MODEL 5
REMARK VINA RESULT:      -4.4      1.891      2.350
REMARK  4 active torsions:
REMARK  status: ('A' for Active; 'I' for Inactive)
REMARK    1  A    between atoms: C1_1  and  C8_8 
REMARK    2  A    between atoms: C1_1  and  C10_10 
REMARK    3  A    between atoms: C5_5  and  C9_9 
REMARK    4  A    between atoms: C9_9  and  C10_10 
ROOT
HETATM    1  C7  UNL     1     -33.398  13.762  -3.735  1.00 20.00     0.018 C 
HETATM    2  C10 UNL     1     -33.412  15.274  -3.521  1.00 20.00     0.051 C 
ENDROOT
BRANCH   2   3
HETATM    3  C1  UNL     1     -33.666  15.952  -4.867  1.00 20.00     0.130 C 
HETATM    4  O11 UNL     1     -32.979  16.898  -5.253  1.00 20.00    -0.298 OA
BRANCH   3   5
HETATM    5  C8  UNL     1     -34.787  15.367  -5.711  1.00 20.00     0.074 C 
HETATM    6  C6  UNL     1     -34.356  15.079  -7.138  1.00 20.00     0.013 C 
ENDBRANCH   3   5
ENDBRANCH   2   3
BRANCH   2   7
HETATM    7  C9  UNL     1     -34.465  15.666  -2.476  1.00 20.00     0.016 C 
BRANCH   7   8
HETATM    8  C5  UNL     1     -33.943  16.761  -1.558  1.00 20.00    -0.014 C 
HETATM    9  C3  UNL     1     -34.743  16.991  -0.251  1.00 20.00     0.005 C 
HETATM   10  C2  UNL     1     -35.504  18.118  -0.978  1.00 20.00     0.001 C 
HETATM   11  C4  UNL     1     -34.314  18.213  -1.953  1.00 20.00     0.005 C 
ENDBRANCH   7   8
ENDBRANCH   2   7
TORSDOF 4
ENDMDL
MODEL 6
REMARK VINA RESULT:      -4.3     11.561     12.676
REMARK  4 active torsions:
REMARK  status: ('A' for Active; 'I' for Inactive)
REMARK    1  A    between atoms: C1_1  and  C8_8 
REMARK    2  A    between atoms: C1_1  and  C10_10 
REMARK    3  A    between atoms: C5_5  and  C9_9 
REMARK    4  A    between atoms: C9_9  and  C10_10 
ROOT
HETATM    1  C7  UNL     1     -36.061   6.036   3.399  1.00 20.00     0.018 C 
HETATM    2  C10 UNL     1     -34.670   5.767   3.968  1.00 20.00     0.051 C 
ENDROOT
BRANCH   2   3
HETATM    3  C1  UNL     1     -34.786   4.684   5.040  1.00 20.00     0.130 C 
HETATM    4  O11 UNL     1     -35.139   3.537   4.765  1.00 20.00    -0.298 OA
BRANCH   3   5
HETATM    5  C8  UNL     1     -34.407   5.097   6.453  1.00 20.00     0.074 C 
HETATM    6  C6  UNL     1     -34.092   6.578   6.566  1.00 20.00     0.013 C 
ENDBRANCH   3   5
ENDBRANCH   2   3
BRANCH   2   7
HETATM    7  C9  UNL     1     -33.694   5.364   2.854  1.00 20.00     0.016 C 
BRANCH   7   8
HETATM    8  C5  UNL     1     -32.343   6.038   3.041  1.00 20.00    -0.014 C 
HETATM    9  C3  UNL     1     -32.334   7.305   3.932  1.00 20.00     0.005 C 
HETATM   10  C2  UNL     1     -32.449   8.146   2.646  1.00 20.00     0.001 C 
HETATM   11  C4  UNL     1     -31.868   6.944   1.877  1.00 20.00     0.005 C 
ENDBRANCH   7   8
ENDBRANCH   2   7
TORSDOF 4
ENDMDL
MODEL 7
REMARK VINA RESULT:      -4.3      1.738      4.690
REMARK  4 active torsions:
REMARK  status: ('A' for Active; 'I' for Inactive)
REMARK    1  A    between atoms: C1_1  and  C8_8 
REMARK    2  A    between atoms: C1_1  and  C10_10 
REMARK    3  A    between atoms: C5_5  and  C9_9 
REMARK    4  A    between atoms: C9_9  and  C10_10 
ROOT
HETATM    1  C7  UNL     1     -33.665  13.892  -3.775  1.00 20.00     0.018 C 
HETATM    2  C10 UNL     1     -35.148  14.251  -3.849  1.00 20.00     0.051 C 
ENDROOT
BRANCH   2   3
HETATM    3  C1  UNL     1     -35.378  15.526  -3.039  1.00 20.00     0.130 C 
HETATM    4  O11 UNL     1     -36.472  16.091  -3.021  1.00 20.00    -0.298 OA
BRANCH   3   5
HETATM    5  C8  UNL     1     -34.193  16.031  -2.231  1.00 20.00     0.074 C 
HETATM    6  C6  UNL     1     -34.606  16.640  -0.903  1.00 20.00     0.013 C 
ENDBRANCH   3   5
ENDBRANCH   2   3
BRANCH   2   7
HETATM    7  C9  UNL     1     -35.596  14.412  -5.307  1.00 20.00     0.016 C 
BRANCH   7   8
HETATM    8  C5  UNL     1     -34.441  14.865  -6.187  1.00 20.00    -0.014 C 
HETATM    9  C3  UNL     1     -34.249  16.397  -6.322  1.00 20.00     0.005 C 
HETATM   10  C2  UNL     1     -35.070  16.331  -7.625  1.00 20.00     0.001 C 
HETATM   11  C4  UNL     1     -34.699  14.838  -7.715  1.00 20.00     0.005 C 
ENDBRANCH   7   8
ENDBRANCH   2   7
TORSDOF 4
ENDMDL
MODEL 8
REMARK VINA RESULT:      -4.3     10.289     11.427
REMARK  4 active torsions:
REMARK  status: ('A' for Active; 'I' for Inactive)
REMARK    1  A    between atoms: C1_1  and  C8_8 
REMARK    2  A    between atoms: C1_1  and  C10_10 
REMARK    3  A    between atoms: C5_5  and  C9_9 
REMARK    4  A    between atoms: C9_9  and  C10_10 
ROOT
HETATM    1  C7  UNL     1     -31.939   7.368   4.479  1.00 20.00     0.018 C 
HETATM    2  C10 UNL     1     -32.620   6.425   3.491  1.00 20.00     0.051 C 
ENDROOT
BRANCH   2   3
HETATM    3  C1  UNL     1     -33.909   5.906   4.126  1.00 20.00     0.130 C 
HETATM    4  O11 UNL     1     -34.771   5.330   3.461  1.00 20.00    -0.298 OA
BRANCH   3   5
HETATM    5  C8  UNL     1     -34.046   6.109   5.626  1.00 20.00     0.074 C 
HETATM    6  C6  UNL     1     -34.787   4.972   6.306  1.00 20.00     0.013 C 
ENDBRANCH   3   5
ENDBRANCH   2   3
BRANCH   2   7
HETATM    7  C9  UNL     1     -32.886   7.134   2.156  1.00 20.00     0.016 C 
BRANCH   7   8
HETATM    8  C5  UNL     1     -31.971   8.337   1.985  1.00 20.00    -0.014 C 
HETATM    9  C3  UNL     1     -32.675   9.706   1.806  1.00 20.00     0.005 C 
HETATM   10  C2  UNL     1     -32.532   9.520   0.282  1.00 20.00     0.001 C 
HETATM   11  C4  UNL     1     -31.376   8.542   0.569  1.00 20.00     0.005 C 
ENDBRANCH   7   8
ENDBRANCH   2   7
TORSDOF 4
ENDMDL
MODEL 9
REMARK VINA RESULT:      -4.3      2.450      4.228
REMARK  4 active torsions:
REMARK  status: ('A' for Active; 'I' for Inactive)
REMARK    1  A    between atoms: C1_1  and  C8_8 
REMARK    2  A    between atoms: C1_1  and  C10_10 
REMARK    3  A    between atoms: C5_5  and  C9_9 
REMARK    4  A    between atoms: C9_9  and  C10_10 
ROOT
HETATM    1  C7  UNL     1     -34.414  16.579  -1.232  1.00 20.00     0.018 C 
HETATM    2  C10 UNL     1     -34.437  16.426  -2.751  1.00 20.00     0.051 C 
ENDROOT
BRANCH   2   3
HETATM    3  C1  UNL     1     -33.837  17.685  -3.375  1.00 20.00     0.130 C 
HETATM    4  O11 UNL     1     -33.569  18.678  -2.696  1.00 20.00    -0.298 OA
BRANCH   3   5
HETATM    5  C8  UNL     1     -33.559  17.627  -4.868  1.00 20.00     0.074 C 
HETATM    6  C6  UNL     1     -34.801  17.871  -5.705  1.00 20.00     0.013 C 
ENDBRANCH   3   5
ENDBRANCH   2   3
BRANCH   2   7
HETATM    7  C9  UNL     1     -33.683  15.161  -3.182  1.00 20.00     0.016 C 
BRANCH   7   8
HETATM    8  C5  UNL     1     -34.650  14.038  -3.523  1.00 20.00    -0.014 C 
HETATM    9  C3  UNL     1     -34.346  13.250  -4.823  1.00 20.00     0.005 C 
HETATM   10  C2  UNL     1     -35.338  14.176  -5.553  1.00 20.00     0.001 C 
HETATM   11  C4  UNL     1     -35.985  14.467  -4.184  1.00 20.00     0.005 C 
ENDBRANCH   7   8
ENDBRANCH   2   7
TORSDOF 4
ENDMDL
