MODEL 1
REMARK VINA RESULT:      -3.9      0.000      0.000
REMARK  2 active torsions:
REMARK  status: ('A' for Active; 'I' for Inactive)
REMARK    1  A    between atoms: C4_4  and  C5_5 
REMARK    2  A    between atoms: C5_5  and  C6_6 
ROOT
HETATM    1  C1  UNL     1     -33.399   6.399   5.070  1.00 20.00     0.038 A 
HETATM    2  C2  UNL     1     -34.827   5.006   3.877  1.00 20.00     0.074 A 
HETATM    3  C3  UNL     1     -34.471   5.461   5.126  1.00 20.00     0.041 A 
HETATM    4  C4  UNL     1     -32.976   6.623   3.778  1.00 20.00    -0.015 A 
HETATM    5  S7  UNL     1     -33.870   5.706   2.641  1.00 20.00    -0.105 SA
HETATM    6 CL8  UNL     1     -35.208   4.981   6.592  1.00 20.00    -0.084 Cl
ENDROOT
BRANCH   4   7
HETATM    7  C5  UNL     1     -31.897   7.517   3.305  1.00 20.00     0.061 C 
BRANCH   7   8
HETATM    8  C6  UNL     1     -32.051   7.994   1.853  1.00 20.00     0.119 C 
HETATM    9 CL9  UNL     1     -32.529   9.708   1.773  1.00 20.00    -0.130 Cl
ENDBRANCH   7   8
ENDBRANCH   4   7
TORSDOF 2
ENDMDL
MODEL 2
REMARK VINA RESULT:      -3.7     11.324     12.361
REMARK  2 active torsions:
REMARK  status: ('A' for Active; 'I' for Inactive)
REMARK    1  A    between atoms: C4_4  and  C5_5 
REMARK    2  A    between atoms: C5_5  and  C6_6 
ROOT
HETATM    1  C1  UNL     1     -34.180  15.757  -5.249  1.00 20.00     0.038 A 
HETATM    2  C2  UNL     1     -34.717  13.497  -5.348  1.00 20.00     0.074 A 
HETATM    3  C3  UNL     1     -34.559  14.657  -6.072  1.00 20.00     0.041 A 
HETATM    4  C4  UNL     1     -34.065  15.394  -3.925  1.00 20.00    -0.015 A 
HETATM    5  S7  UNL     1     -34.411  13.736  -3.679  1.00 20.00    -0.105 SA
HETATM    6 CL8  UNL     1     -34.781  14.796  -7.762  1.00 20.00    -0.084 Cl
ENDROOT
BRANCH   4   7
HETATM    7  C5  UNL     1     -33.697  16.240  -2.768  1.00 20.00     0.061 C 
BRANCH   7   8
HETATM    8  C6  UNL     1     -34.729  16.254  -1.631  1.00 20.00     0.119 C 
HETATM    9 CL9  UNL     1     -34.212  17.306  -0.289  1.00 20.00    -0.130 Cl
ENDBRANCH   7   8
ENDBRANCH   4   7
TORSDOF 2
ENDMDL
MODEL 3
REMARK VINA RESULT:      -3.7     11.515     12.119
REMARK  2 active torsions:
REMARK  status: ('A' for Active; 'I' for Inactive)
REMARK    1  A    between atoms: C4_4  and  C5_5 
REMARK    2  A    between atoms: C5_5  and  C6_6 
ROOT
HETATM    1  C1  UNL     1     -34.244  15.062  -3.074  1.00 20.00     0.038 A 
HETATM    2  C2  UNL     1     -33.995  15.720  -5.290  1.00 20.00     0.074 A 
HETATM    3  C3  UNL     1     -34.298  14.676  -4.445  1.00 20.00     0.041 A 
HETATM    4  C4  UNL     1     -33.899  16.387  -2.924  1.00 20.00    -0.015 A 
HETATM    5  S7  UNL     1     -33.645  17.159  -4.430  1.00 20.00    -0.105 SA
HETATM    6 CL8  UNL     1     -34.698  13.092  -4.948  1.00 20.00    -0.084 Cl
ENDROOT
BRANCH   4   7
HETATM    7  C5  UNL     1     -33.738  17.160  -1.673  1.00 20.00     0.061 C 
BRANCH   7   8
HETATM    8  C6  UNL     1     -34.717  16.778  -0.554  1.00 20.00     0.119 C 
HETATM    9 CL9  UNL     1     -34.532  17.835   0.868  1.00 20.00    -0.130 Cl
ENDBRANCH   7   8
ENDBRANCH   4   7
TORSDOF 2
ENDMDL
MODEL 4
REMARK VINA RESULT:      -3.6     11.401     12.356
REMARK  2 active torsions:
REMARK  status: ('A' for Active; 'I' for Inactive)
REMARK    1  A    between atoms: C4_4  and  C5_5 
REMARK    2  A    between atoms: C5_5  and  C6_6 
ROOT
HETATM    1  C1  UNL     1     -34.658  15.044  -3.005  1.00 20.00     0.038 A 
HETATM    2  C2  UNL     1     -33.715  17.156  -3.241  1.00 20.00     0.074 A 
HETATM    3  C3  UNL     1     -34.309  16.272  -2.369  1.00 20.00     0.041 A 
HETATM    4  C4  UNL     1     -34.316  15.039  -4.340  1.00 20.00    -0.015 A 
HETATM    5  S7  UNL     1     -33.579  16.507  -4.820  1.00 20.00    -0.105 SA
HETATM    6 CL8  UNL     1     -34.609  16.577  -0.714  1.00 20.00    -0.084 Cl
ENDROOT
BRANCH   4   7
HETATM    7  C5  UNL     1     -34.510  13.962  -5.335  1.00 20.00     0.061 C 
BRANCH   7   8
HETATM    8  C6  UNL     1     -35.126  14.422  -6.664  1.00 20.00     0.119 C 
HETATM    9 CL9  UNL     1     -36.745  15.126  -6.429  1.00 20.00    -0.130 Cl
ENDBRANCH   7   8
ENDBRANCH   4   7
TORSDOF 2
ENDMDL
MODEL 5
REMARK VINA RESULT:      -3.6     11.282     12.041
REMARK  2 active torsions:
REMARK  status: ('A' for Active; 'I' for Inactive)
REMARK    1  A    between atoms: C4_4  and  C5_5 
REMARK    2  A    between atoms: C5_5  and  C6_6 
ROOT
HETATM    1  C1  UNL     1     -34.788  15.997  -1.929  1.00 20.00     0.038 A 
HETATM    2  C2  UNL     1     -33.837  17.814  -3.021  1.00 20.00     0.074 A 
HETATM    3  C3  UNL     1     -34.089  17.232  -1.800  1.00 20.00     0.041 A 
HETATM    4  C4  UNL     1     -35.045  15.683  -3.246  1.00 20.00    -0.015 A 
HETATM    5  S7  UNL     1     -34.442  16.873  -4.318  1.00 20.00    -0.105 SA
HETATM    6 CL8  UNL     1     -33.631  17.886  -0.288  1.00 20.00    -0.084 Cl
ENDROOT
BRANCH   4   7
HETATM    7  C5  UNL     1     -35.743  14.498  -3.791  1.00 20.00     0.061 C 
BRANCH   7   8
HETATM    8  C6  UNL     1     -34.829  13.484  -4.494  1.00 20.00     0.119 C 
HETATM    9 CL9  UNL     1     -33.205  13.446  -3.763  1.00 20.00    -0.130 Cl
ENDBRANCH   7   8
ENDBRANCH   4   7
TORSDOF 2
ENDMDL
MODEL 6
REMARK VINA RESULT:      -3.6     11.243     12.023
REMARK  2 active torsions:
REMARK  status: ('A' for Active; 'I' for Inactive)
REMARK    1  A    between atoms: C4_4  and  C5_5 
REMARK    2  A    between atoms: C5_5  and  C6_6 
ROOT
HETATM    1  C1  UNL     1     -34.245  16.086  -1.851  1.00 20.00     0.038 A 
HETATM    2  C2  UNL     1     -34.436  18.402  -1.878  1.00 20.00     0.074 A 
HETATM    3  C3  UNL     1     -34.569  17.264  -1.116  1.00 20.00     0.041 A 
HETATM    4  C4  UNL     1     -33.877  16.371  -3.148  1.00 20.00    -0.015 A 
HETATM    5  S7  UNL     1     -33.923  18.050  -3.474  1.00 20.00    -0.105 SA
HETATM    6 CL8  UNL     1     -35.061  17.231   0.520  1.00 20.00    -0.084 Cl
ENDROOT
BRANCH   4   7
HETATM    7  C5  UNL     1     -33.474  15.432  -4.217  1.00 20.00     0.061 C 
BRANCH   7   8
HETATM    8  C6  UNL     1     -33.554  13.948  -3.830  1.00 20.00     0.119 C 
HETATM    9 CL9  UNL     1     -35.144  13.251  -4.226  1.00 20.00    -0.130 Cl
ENDBRANCH   7   8
ENDBRANCH   4   7
TORSDOF 2
ENDMDL
MODEL 7
REMARK VINA RESULT:      -3.5     10.859     12.572
REMARK  2 active torsions:
REMARK  status: ('A' for Active; 'I' for Inactive)
REMARK    1  A    between atoms: C4_4  and  C5_5 
REMARK    2  A    between atoms: C5_5  and  C6_6 
ROOT
HETATM    1  C1  UNL     1     -34.234  15.889  -4.712  1.00 20.00     0.038 A 
HETATM    2  C2  UNL     1     -34.478  13.991  -3.393  1.00 20.00     0.074 A 
HETATM    3  C3  UNL     1     -34.281  15.353  -3.392  1.00 20.00     0.041 A 
HETATM    4  C4  UNL     1     -34.396  14.913  -5.671  1.00 20.00    -0.015 A 
HETATM    5  S7  UNL     1     -34.604  13.361  -4.980  1.00 20.00    -0.105 SA
HETATM    6 CL8  UNL     1     -34.109  16.319  -1.992  1.00 20.00    -0.084 Cl
ENDROOT
BRANCH   4   7
HETATM    7  C5  UNL     1     -34.406  15.062  -7.143  1.00 20.00     0.061 C 
BRANCH   7   8
HETATM    8  C6  UNL     1     -35.660  14.506  -7.834  1.00 20.00     0.119 C 
HETATM    9 CL9  UNL     1     -37.152  15.137  -7.093  1.00 20.00    -0.130 Cl
ENDBRANCH   7   8
ENDBRANCH   4   7
TORSDOF 2
ENDMDL
MODEL 8
REMARK VINA RESULT:      -3.4     10.070     11.263
REMARK  2 active torsions:
REMARK  status: ('A' for Active; 'I' for Inactive)
REMARK    1  A    between atoms: C4_4  and  C5_5 
REMARK    2  A    between atoms: C5_5  and  C6_6 
ROOT
HETATM    1  C1  UNL     1     -41.307   4.274  -1.553  1.00 20.00     0.038 A 
HETATM    2  C2  UNL     1     -42.263   6.365  -1.895  1.00 20.00     0.074 A 
HETATM    3  C3  UNL     1     -41.340   5.646  -1.170  1.00 20.00     0.041 A 
HETATM    4  C4  UNL     1     -42.209   3.996  -2.557  1.00 20.00    -0.015 A 
HETATM    5  S7  UNL     1     -43.088   5.386  -3.033  1.00 20.00    -0.105 SA
HETATM    6 CL8  UNL     1     -40.334   6.292   0.052  1.00 20.00    -0.084 Cl
ENDROOT
BRANCH   4   7
HETATM    7  C5  UNL     1     -42.478   2.702  -3.221  1.00 20.00     0.061 C 
BRANCH   7   8
HETATM    8  C6  UNL     1     -41.229   1.988  -3.759  1.00 20.00     0.119 C 
HETATM    9 CL9  UNL     1     -41.520   0.246  -3.992  1.00 20.00    -0.130 Cl
ENDBRANCH   7   8
ENDBRANCH   4   7
TORSDOF 2
ENDMDL
MODEL 9
REMARK VINA RESULT:      -3.4      9.978     10.795
REMARK  2 active torsions:
REMARK  status: ('A' for Active; 'I' for Inactive)
REMARK    1  A    between atoms: C4_4  and  C5_5 
REMARK    2  A    between atoms: C5_5  and  C6_6 
ROOT
HETATM    1  C1  UNL     1     -42.322   5.341  -2.578  1.00 20.00     0.038 A 
HETATM    2  C2  UNL     1     -40.763   4.478  -1.086  1.00 20.00     0.074 A 
HETATM    3  C3  UNL     1     -41.560   4.206  -2.175  1.00 20.00     0.041 A 
HETATM    4  C4  UNL     1     -42.077   6.438  -1.781  1.00 20.00    -0.015 A 
HETATM    5  S7  UNL     1     -40.934   6.097  -0.554  1.00 20.00    -0.105 SA
HETATM    6 CL8  UNL     1     -41.650   2.697  -2.972  1.00 20.00    -0.084 Cl
ENDROOT
BRANCH   4   7
HETATM    7  C5  UNL     1     -42.666   7.791  -1.872  1.00 20.00     0.061 C 
BRANCH   7   8
HETATM    8  C6  UNL     1     -43.388   8.088  -3.195  1.00 20.00     0.119 C 
HETATM    9 CL9  UNL     1     -42.236   8.460  -4.502  1.00 20.00    -0.130 Cl
ENDBRANCH   7   8
ENDBRANCH   4   7
TORSDOF 2
ENDMDL
