MODEL 1
REMARK VINA RESULT:      -4.2      0.000      0.000
REMARK  3 active torsions:
REMARK  status: ('A' for Active; 'I' for Inactive)
REMARK    1  A    between atoms: C1_1  and  C7_7 
REMARK    2  A    between atoms: C7_7  and  C8_8 
REMARK    3  A    between atoms: C7_7  and  C9_9 
ROOT
HETATM    1  C7  UNL     1     -35.005  15.129  -3.759  1.00 20.00     0.061 C 
ENDROOT
BRANCH   1   2
HETATM    2  C1  UNL     1     -34.398  13.725  -3.872  1.00 20.00     0.128 C 
HETATM    3  C2  UNL     1     -32.931  13.588  -3.550  1.00 20.00     0.091 C 
HETATM    4  O10 UNL     1     -35.060  12.749  -4.225  1.00 20.00    -0.298 OA
ENDBRANCH   1   2
BRANCH   1   5
HETATM    5  C8  UNL     1     -35.348  15.706  -5.162  1.00 20.00    -0.011 C 
HETATM    6  C3  UNL     1     -36.823  15.493  -5.526  1.00 20.00     0.010 C 
HETATM    7  C4  UNL     1     -34.459  15.184  -6.295  1.00 20.00     0.010 C 
ENDBRANCH   1   5
BRANCH   1   8
HETATM    8  C9  UNL     1     -34.084  16.026  -2.882  1.00 20.00    -0.011 C 
HETATM    9  C5  UNL     1     -33.805  17.390  -3.526  1.00 20.00     0.010 C 
HETATM   10  C6  UNL     1     -34.701  16.263  -1.495  1.00 20.00     0.010 C 
ENDBRANCH   1   8
TORSDOF 3
ENDMDL
MODEL 2
REMARK VINA RESULT:      -3.9      1.179      2.211
REMARK  3 active torsions:
REMARK  status: ('A' for Active; 'I' for Inactive)
REMARK    1  A    between atoms: C1_1  and  C7_7 
REMARK    2  A    between atoms: C7_7  and  C8_8 
REMARK    3  A    between atoms: C7_7  and  C9_9 
ROOT
HETATM    1  C7  UNL     1     -34.940  15.291  -4.319  1.00 20.00     0.061 C 
ENDROOT
BRANCH   1   2
HETATM    2  C1  UNL     1     -35.983  14.168  -4.256  1.00 20.00     0.128 C 
HETATM    3  C2  UNL     1     -37.425  14.585  -4.111  1.00 20.00     0.091 C 
HETATM    4  O10 UNL     1     -35.671  12.979  -4.302  1.00 20.00    -0.298 OA
ENDBRANCH   1   2
BRANCH   1   5
HETATM    5  C8  UNL     1     -34.287  15.371  -5.728  1.00 20.00    -0.011 C 
HETATM    6  C3  UNL     1     -34.036  16.820  -6.164  1.00 20.00     0.010 C 
HETATM    7  C4  UNL     1     -35.058  14.631  -6.825  1.00 20.00     0.010 C 
ENDBRANCH   1   5
BRANCH   1   8
HETATM    8  C9  UNL     1     -33.940  15.141  -3.135  1.00 20.00    -0.011 C 
HETATM    9  C5  UNL     1     -32.545  14.698  -3.594  1.00 20.00     0.010 C 
HETATM   10  C6  UNL     1     -33.799  16.460  -2.360  1.00 20.00     0.010 C 
ENDBRANCH   1   8
TORSDOF 3
ENDMDL
MODEL 3
REMARK VINA RESULT:      -3.9      1.221      3.473
REMARK  3 active torsions:
REMARK  status: ('A' for Active; 'I' for Inactive)
REMARK    1  A    between atoms: C1_1  and  C7_7 
REMARK    2  A    between atoms: C7_7  and  C8_8 
REMARK    3  A    between atoms: C7_7  and  C9_9 
ROOT
HETATM    1  C7  UNL     1     -34.266  14.735  -5.081  1.00 20.00     0.061 C 
ENDROOT
BRANCH   1   2
HETATM    2  C1  UNL     1     -35.363  13.819  -4.523  1.00 20.00     0.128 C 
HETATM    3  C2  UNL     1     -36.735  14.422  -4.356  1.00 20.00     0.091 C 
HETATM    4  O10 UNL     1     -35.143  12.650  -4.206  1.00 20.00    -0.298 OA
ENDBRANCH   1   2
BRANCH   1   5
HETATM    5  C8  UNL     1     -33.488  15.440  -3.933  1.00 20.00    -0.011 C 
HETATM    6  C3  UNL     1     -32.249  14.645  -3.506  1.00 20.00     0.010 C 
HETATM    7  C4  UNL     1     -34.338  15.767  -2.701  1.00 20.00     0.010 C 
ENDBRANCH   1   5
BRANCH   1   8
HETATM    8  C9  UNL     1     -34.877  15.690  -6.149  1.00 20.00    -0.011 C 
HETATM    9  C5  UNL     1     -34.160  17.044  -6.206  1.00 20.00     0.010 C 
HETATM   10  C6  UNL     1     -34.829  15.056  -7.547  1.00 20.00     0.010 C 
ENDBRANCH   1   8
TORSDOF 3
ENDMDL
MODEL 4
REMARK VINA RESULT:      -3.9      1.013      3.296
REMARK  3 active torsions:
REMARK  status: ('A' for Active; 'I' for Inactive)
REMARK    1  A    between atoms: C1_1  and  C7_7 
REMARK    2  A    between atoms: C7_7  and  C8_8 
REMARK    3  A    between atoms: C7_7  and  C9_9 
ROOT
HETATM    1  C7  UNL     1     -34.563  14.887  -5.228  1.00 20.00     0.061 C 
ENDROOT
BRANCH   1   2
HETATM    2  C1  UNL     1     -34.291  13.636  -4.384  1.00 20.00     0.128 C 
HETATM    3  C2  UNL     1     -32.997  13.605  -3.609  1.00 20.00     0.091 C 
HETATM    4  O10 UNL     1     -35.073  12.687  -4.345  1.00 20.00    -0.298 OA
ENDBRANCH   1   2
BRANCH   1   5
HETATM    5  C8  UNL     1     -35.034  16.072  -4.339  1.00 20.00    -0.011 C 
HETATM    6  C3  UNL     1     -33.958  17.156  -4.208  1.00 20.00     0.010 C 
HETATM    7  C4  UNL     1     -35.522  15.662  -2.945  1.00 20.00     0.010 C 
ENDBRANCH   1   5
BRANCH   1   8
HETATM    8  C9  UNL     1     -35.516  14.525  -6.405  1.00 20.00    -0.011 C 
HETATM    9  C5  UNL     1     -36.851  15.276  -6.335  1.00 20.00     0.010 C 
HETATM   10  C6  UNL     1     -34.860  14.828  -7.761  1.00 20.00     0.010 C 
ENDBRANCH   1   8
TORSDOF 3
ENDMDL
MODEL 5
REMARK VINA RESULT:      -3.8      1.959      3.841
REMARK  3 active torsions:
REMARK  status: ('A' for Active; 'I' for Inactive)
REMARK    1  A    between atoms: C1_1  and  C7_7 
REMARK    2  A    between atoms: C7_7  and  C8_8 
REMARK    3  A    between atoms: C7_7  and  C9_9 
ROOT
HETATM    1  C7  UNL     1     -35.004  15.675  -2.852  1.00 20.00     0.061 C 
ENDROOT
BRANCH   1   2
HETATM    2  C1  UNL     1     -36.110  16.491  -3.533  1.00 20.00     0.128 C 
HETATM    3  C2  UNL     1     -35.929  16.795  -4.999  1.00 20.00     0.091 C 
HETATM    4  O10 UNL     1     -37.095  16.902  -2.920  1.00 20.00    -0.298 OA
ENDBRANCH   1   2
BRANCH   1   5
HETATM    5  C8  UNL     1     -34.108  16.581  -1.960  1.00 20.00    -0.011 C 
HETATM    6  C3  UNL     1     -34.675  16.734  -0.544  1.00 20.00     0.010 C 
HETATM    7  C4  UNL     1     -33.821  17.965  -2.551  1.00 20.00     0.010 C 
ENDBRANCH   1   5
BRANCH   1   8
HETATM    8  C9  UNL     1     -34.241  14.838  -3.920  1.00 20.00    -0.011 C 
HETATM    9  C5  UNL     1     -32.751  14.683  -3.593  1.00 20.00     0.010 C 
HETATM   10  C6  UNL     1     -34.853  13.436  -4.062  1.00 20.00     0.010 C 
ENDBRANCH   1   8
TORSDOF 3
ENDMDL
MODEL 6
REMARK VINA RESULT:      -3.8      1.412      2.924
REMARK  3 active torsions:
REMARK  status: ('A' for Active; 'I' for Inactive)
REMARK    1  A    between atoms: C1_1  and  C7_7 
REMARK    2  A    between atoms: C7_7  and  C8_8 
REMARK    3  A    between atoms: C7_7  and  C9_9 
ROOT
HETATM    1  C7  UNL     1     -34.071  15.544  -3.531  1.00 20.00     0.061 C 
ENDROOT
BRANCH   1   2
HETATM    2  C1  UNL     1     -34.083  14.040  -3.832  1.00 20.00     0.128 C 
HETATM    3  C2  UNL     1     -35.407  13.434  -4.225  1.00 20.00     0.091 C 
HETATM    4  O10 UNL     1     -33.072  13.344  -3.744  1.00 20.00    -0.298 OA
ENDBRANCH   1   2
BRANCH   1   5
HETATM    5  C8  UNL     1     -35.036  15.889  -2.362  1.00 20.00    -0.011 C 
HETATM    6  C3  UNL     1     -36.278  16.646  -2.847  1.00 20.00     0.010 C 
HETATM    7  C4  UNL     1     -34.384  16.659  -1.209  1.00 20.00     0.010 C 
ENDBRANCH   1   5
BRANCH   1   8
HETATM    8  C9  UNL     1     -34.314  16.341  -4.846  1.00 20.00    -0.011 C 
HETATM    9  C5  UNL     1     -33.512  17.647  -4.900  1.00 20.00     0.010 C 
HETATM   10  C6  UNL     1     -33.949  15.498  -6.078  1.00 20.00     0.010 C 
ENDBRANCH   1   8
TORSDOF 3
ENDMDL
MODEL 7
REMARK VINA RESULT:      -3.8      1.196      2.074
REMARK  3 active torsions:
REMARK  status: ('A' for Active; 'I' for Inactive)
REMARK    1  A    between atoms: C1_1  and  C7_7 
REMARK    2  A    between atoms: C7_7  and  C8_8 
REMARK    3  A    between atoms: C7_7  and  C9_9 
ROOT
HETATM    1  C7  UNL     1     -35.151  14.789  -3.504  1.00 20.00     0.061 C 
ENDROOT
BRANCH   1   2
HETATM    2  C1  UNL     1     -35.026  13.787  -4.659  1.00 20.00     0.128 C 
HETATM    3  C2  UNL     1     -34.855  14.361  -6.043  1.00 20.00     0.091 C 
HETATM    4  O10 UNL     1     -35.080  12.571  -4.482  1.00 20.00    -0.298 OA
ENDBRANCH   1   2
BRANCH   1   5
HETATM    5  C8  UNL     1     -36.496  15.567  -3.580  1.00 20.00    -0.011 C 
HETATM    6  C3  UNL     1     -37.670  14.650  -3.943  1.00 20.00     0.010 C 
HETATM    7  C4  UNL     1     -36.476  16.774  -4.523  1.00 20.00     0.010 C 
ENDBRANCH   1   5
BRANCH   1   8
HETATM    8  C9  UNL     1     -33.875  15.680  -3.446  1.00 20.00    -0.011 C 
HETATM    9  C5  UNL     1     -33.807  16.529  -2.171  1.00 20.00     0.010 C 
HETATM   10  C6  UNL     1     -32.601  14.825  -3.527  1.00 20.00     0.010 C 
ENDBRANCH   1   8
TORSDOF 3
ENDMDL
MODEL 8
REMARK VINA RESULT:      -3.8      1.741      3.733
REMARK  3 active torsions:
REMARK  status: ('A' for Active; 'I' for Inactive)
REMARK    1  A    between atoms: C1_1  and  C7_7 
REMARK    2  A    between atoms: C7_7  and  C8_8 
REMARK    3  A    between atoms: C7_7  and  C9_9 
ROOT
HETATM    1  C7  UNL     1     -34.646  16.226  -3.515  1.00 20.00     0.061 C 
ENDROOT
BRANCH   1   2
HETATM    2  C1  UNL     1     -33.776  16.295  -4.777  1.00 20.00     0.128 C 
HETATM    3  C2  UNL     1     -34.486  16.569  -6.080  1.00 20.00     0.091 C 
HETATM    4  O10 UNL     1     -32.559  16.119  -4.747  1.00 20.00    -0.298 OA
ENDBRANCH   1   2
BRANCH   1   5
HETATM    5  C8  UNL     1     -33.916  16.861  -2.297  1.00 20.00    -0.011 C 
HETATM    6  C3  UNL     1     -34.616  16.533  -0.973  1.00 20.00     0.010 C 
HETATM    7  C4  UNL     1     -33.704  18.375  -2.405  1.00 20.00     0.010 C 
ENDBRANCH   1   5
BRANCH   1   8
HETATM    8  C9  UNL     1     -35.140  14.766  -3.302  1.00 20.00    -0.011 C 
HETATM    9  C5  UNL     1     -36.441  14.468  -4.058  1.00 20.00     0.010 C 
HETATM   10  C6  UNL     1     -34.077  13.751  -3.749  1.00 20.00     0.010 C 
ENDBRANCH   1   8
TORSDOF 3
ENDMDL
MODEL 9
REMARK VINA RESULT:      -3.8      1.669      3.093
REMARK  3 active torsions:
REMARK  status: ('A' for Active; 'I' for Inactive)
REMARK    1  A    between atoms: C1_1  and  C7_7 
REMARK    2  A    between atoms: C7_7  and  C8_8 
REMARK    3  A    between atoms: C7_7  and  C9_9 
ROOT
HETATM    1  C7  UNL     1     -34.717  15.742  -4.699  1.00 20.00     0.061 C 
ENDROOT
BRANCH   1   2
HETATM    2  C1  UNL     1     -33.710  15.635  -3.547  1.00 20.00     0.128 C 
HETATM    3  C2  UNL     1     -34.154  16.155  -2.203  1.00 20.00     0.091 C 
HETATM    4  O10 UNL     1     -32.583  15.166  -3.702  1.00 20.00    -0.298 OA
ENDBRANCH   1   2
BRANCH   1   5
HETATM    5  C8  UNL     1     -35.647  14.496  -4.748  1.00 20.00    -0.011 C 
HETATM    6  C3  UNL     1     -36.969  14.736  -4.010  1.00 20.00     0.010 C 
HETATM    7  C4  UNL     1     -35.001  13.204  -4.237  1.00 20.00     0.010 C 
ENDBRANCH   1   5
BRANCH   1   8
HETATM    8  C9  UNL     1     -33.963  16.056  -6.024  1.00 20.00    -0.011 C 
HETATM    9  C5  UNL     1     -34.415  15.162  -7.185  1.00 20.00     0.010 C 
HETATM   10  C6  UNL     1     -34.159  17.523  -6.437  1.00 20.00     0.010 C 
ENDBRANCH   1   8
TORSDOF 3
ENDMDL
