MODEL 1
REMARK VINA RESULT:      -3.9      0.000      0.000
REMARK  2 active torsions:
REMARK  status: ('A' for Active; 'I' for Inactive)
REMARK    1  A    between atoms: C4_4  and  C7_7 
REMARK    2  A    between atoms: C7_7  and  O8_8 
ROOT
HETATM    1  C1  UNL     1     -32.915   7.030   4.952  1.00 20.00     0.008 C 
HETATM    2  C2  UNL     1     -33.977   6.560   5.948  1.00 20.00     0.016 C 
HETATM    3  C3  UNL     1     -34.505   5.773   3.697  1.00 20.00     0.022 C 
HETATM    4  C4  UNL     1     -33.005   6.053   3.784  1.00 20.00     0.011 C 
HETATM    5  C5  UNL     1     -34.941   5.677   5.154  1.00 20.00     0.058 C 
HETATM    6 BR9  UNL     1     -34.814   3.823   5.767  1.00 20.00    -0.091 Br
ENDROOT
BRANCH   4   7
HETATM    7  C7  UNL     1     -32.425   6.608   2.494  1.00 20.00     0.171 C 
BRANCH   7   8
HETATM    8  O8  UNL     1     -32.097   7.973   2.692  1.00 20.00    -0.396 OA
HETATM    9  C6  UNL     1     -32.017   8.678   1.458  1.00 20.00     0.201 C 
ENDBRANCH   7   8
ENDBRANCH   4   7
TORSDOF 2
ENDMDL
MODEL 2
REMARK VINA RESULT:      -3.9     11.465     12.294
REMARK  2 active torsions:
REMARK  status: ('A' for Active; 'I' for Inactive)
REMARK    1  A    between atoms: C4_4  and  C7_7 
REMARK    2  A    between atoms: C7_7  and  O8_8 
ROOT
HETATM    1  C1  UNL     1     -33.794  13.893  -3.663  1.00 20.00     0.008 C 
HETATM    2  C2  UNL     1     -34.537  13.267  -4.846  1.00 20.00     0.016 C 
HETATM    3  C3  UNL     1     -35.261  15.574  -4.504  1.00 20.00     0.022 C 
HETATM    4  C4  UNL     1     -33.868  15.399  -3.900  1.00 20.00     0.011 C 
HETATM    5  C5  UNL     1     -35.405  14.378  -5.437  1.00 20.00     0.058 C 
HETATM    6 BR9  UNL     1     -34.768  14.849  -7.226  1.00 20.00    -0.091 Br
ENDROOT
BRANCH   4   7
HETATM    7  C7  UNL     1     -33.657  16.214  -2.635  1.00 20.00     0.171 C 
BRANCH   7   8
HETATM    8  O8  UNL     1     -34.723  15.946  -1.738  1.00 20.00    -0.396 OA
HETATM    9  C6  UNL     1     -34.658  16.777  -0.585  1.00 20.00     0.201 C 
ENDBRANCH   7   8
ENDBRANCH   4   7
TORSDOF 2
ENDMDL
MODEL 3
REMARK VINA RESULT:      -3.7     11.659     12.324
REMARK  2 active torsions:
REMARK  status: ('A' for Active; 'I' for Inactive)
REMARK    1  A    between atoms: C4_4  and  C7_7 
REMARK    2  A    between atoms: C7_7  and  O8_8 
ROOT
HETATM    1  C1  UNL     1     -34.383  14.628  -3.745  1.00 20.00     0.008 C 
HETATM    2  C2  UNL     1     -33.481  15.624  -3.011  1.00 20.00     0.016 C 
HETATM    3  C3  UNL     1     -35.725  16.546  -3.290  1.00 20.00     0.022 C 
HETATM    4  C4  UNL     1     -35.806  15.021  -3.357  1.00 20.00     0.011 C 
HETATM    5  C5  UNL     1     -34.372  16.810  -2.641  1.00 20.00     0.058 C 
HETATM    6 BR9  UNL     1     -34.576  16.916  -0.698  1.00 20.00    -0.091 Br
ENDROOT
BRANCH   4   7
HETATM    7  C7  UNL     1     -36.852  14.520  -4.338  1.00 20.00     0.171 C 
BRANCH   7   8
HETATM    8  O8  UNL     1     -38.048  14.244  -3.627  1.00 20.00    -0.396 OA
HETATM    9  C6  UNL     1     -39.197  14.677  -4.346  1.00 20.00     0.201 C 
ENDBRANCH   7   8
ENDBRANCH   4   7
TORSDOF 2
ENDMDL
MODEL 4
REMARK VINA RESULT:      -3.7     11.293     12.050
REMARK  2 active torsions:
REMARK  status: ('A' for Active; 'I' for Inactive)
REMARK    1  A    between atoms: C4_4  and  C7_7 
REMARK    2  A    between atoms: C7_7  and  O8_8 
ROOT
HETATM    1  C1  UNL     1     -33.561  16.814  -3.954  1.00 20.00     0.008 C 
HETATM    2  C2  UNL     1     -34.372  17.848  -3.169  1.00 20.00     0.016 C 
HETATM    3  C3  UNL     1     -34.822  15.596  -2.338  1.00 20.00     0.022 C 
HETATM    4  C4  UNL     1     -33.459  15.605  -3.029  1.00 20.00     0.011 C 
HETATM    5  C5  UNL     1     -35.105  17.070  -2.076  1.00 20.00     0.058 C 
HETATM    6 BR9  UNL     1     -34.418  17.577  -0.315  1.00 20.00    -0.091 Br
ENDROOT
BRANCH   4   7
HETATM    7  C7  UNL     1     -33.155  14.312  -3.768  1.00 20.00     0.171 C 
BRANCH   7   8
HETATM    8  O8  UNL     1     -34.264  13.439  -3.634  1.00 20.00    -0.396 OA
HETATM    9  C6  UNL     1     -34.814  13.093  -4.900  1.00 20.00     0.201 C 
ENDBRANCH   7   8
ENDBRANCH   4   7
TORSDOF 2
ENDMDL
MODEL 5
REMARK VINA RESULT:      -3.7     11.311     12.834
REMARK  2 active torsions:
REMARK  status: ('A' for Active; 'I' for Inactive)
REMARK    1  A    between atoms: C4_4  and  C7_7 
REMARK    2  A    between atoms: C7_7  and  O8_8 
ROOT
HETATM    1  C1  UNL     1     -34.413  13.591  -5.026  1.00 20.00     0.008 C 
HETATM    2  C2  UNL     1     -34.030  13.733  -3.551  1.00 20.00     0.016 C 
HETATM    3  C3  UNL     1     -33.468  15.766  -4.783  1.00 20.00     0.022 C 
HETATM    4  C4  UNL     1     -34.569  15.020  -5.536  1.00 20.00     0.011 C 
HETATM    5  C5  UNL     1     -33.511  15.162  -3.385  1.00 20.00     0.058 C 
HETATM    6 BR9  UNL     1     -34.731  16.192  -2.253  1.00 20.00    -0.091 Br
ENDROOT
BRANCH   4   7
HETATM    7  C7  UNL     1     -34.443  15.133  -7.046  1.00 20.00     0.171 C 
BRANCH   7   8
HETATM    8  O8  UNL     1     -35.410  14.289  -7.649  1.00 20.00    -0.396 OA
HETATM    9  C6  UNL     1     -36.677  14.929  -7.747  1.00 20.00     0.201 C 
ENDBRANCH   7   8
ENDBRANCH   4   7
TORSDOF 2
ENDMDL
MODEL 6
REMARK VINA RESULT:      -3.5     11.579     12.688
REMARK  2 active torsions:
REMARK  status: ('A' for Active; 'I' for Inactive)
REMARK    1  A    between atoms: C4_4  and  C7_7 
REMARK    2  A    between atoms: C7_7  and  O8_8 
ROOT
HETATM    1  C1  UNL     1     -34.009  15.898  -2.433  1.00 20.00     0.008 C 
HETATM    2  C2  UNL     1     -34.043  17.397  -2.742  1.00 20.00     0.016 C 
HETATM    3  C3  UNL     1     -33.217  16.144  -4.669  1.00 20.00     0.022 C 
HETATM    4  C4  UNL     1     -34.056  15.211  -3.795  1.00 20.00     0.011 C 
HETATM    5  C5  UNL     1     -33.623  17.538  -4.205  1.00 20.00     0.058 C 
HETATM    6 BR9  UNL     1     -35.128  18.183  -5.277  1.00 20.00    -0.091 Br
ENDROOT
BRANCH   4   7
HETATM    7  C7  UNL     1     -33.528  13.787  -3.764  1.00 20.00     0.171 C 
BRANCH   7   8
HETATM    8  O8  UNL     1     -34.582  12.903  -4.111  1.00 20.00    -0.396 OA
HETATM    9  C6  UNL     1     -35.779  13.608  -4.417  1.00 20.00     0.201 C 
ENDBRANCH   7   8
ENDBRANCH   4   7
TORSDOF 2
ENDMDL
MODEL 7
REMARK VINA RESULT:      -3.5     11.545     12.295
REMARK  2 active torsions:
REMARK  status: ('A' for Active; 'I' for Inactive)
REMARK    1  A    between atoms: C4_4  and  C7_7 
REMARK    2  A    between atoms: C7_7  and  O8_8 
ROOT
HETATM    1  C1  UNL     1     -35.734  16.733  -3.211  1.00 20.00     0.008 C 
HETATM    2  C2  UNL     1     -35.482  16.124  -4.593  1.00 20.00     0.016 C 
HETATM    3  C3  UNL     1     -33.649  15.585  -3.072  1.00 20.00     0.022 C 
HETATM    4  C4  UNL     1     -34.899  15.893  -2.248  1.00 20.00     0.011 C 
HETATM    5  C5  UNL     1     -34.192  15.312  -4.469  1.00 20.00     0.058 C 
HETATM    6 BR9  UNL     1     -34.576  13.404  -4.673  1.00 20.00    -0.091 Br
ENDROOT
BRANCH   4   7
HETATM    7  C7  UNL     1     -34.594  16.607  -0.943  1.00 20.00     0.171 C 
BRANCH   7   8
HETATM    8  O8  UNL     1     -33.452  17.428  -1.127  1.00 20.00    -0.396 OA
HETATM    9  C6  UNL     1     -33.315  18.379  -0.078  1.00 20.00     0.201 C 
ENDBRANCH   7   8
ENDBRANCH   4   7
TORSDOF 2
ENDMDL
MODEL 8
REMARK VINA RESULT:      -3.4     12.174     12.904
REMARK  2 active torsions:
REMARK  status: ('A' for Active; 'I' for Inactive)
REMARK    1  A    between atoms: C4_4  and  C7_7 
REMARK    2  A    between atoms: C7_7  and  O8_8 
ROOT
HETATM    1  C1  UNL     1     -34.988  15.516  -2.643  1.00 20.00     0.008 C 
HETATM    2  C2  UNL     1     -33.773  16.441  -2.755  1.00 20.00     0.016 C 
HETATM    3  C3  UNL     1     -34.227  15.358  -4.897  1.00 20.00     0.022 C 
HETATM    4  C4  UNL     1     -35.511  15.373  -4.069  1.00 20.00     0.011 C 
HETATM    5  C5  UNL     1     -33.349  16.406  -4.223  1.00 20.00     0.058 C 
HETATM    6 BR9  UNL     1     -33.647  18.155  -5.051  1.00 20.00    -0.091 Br
ENDROOT
BRANCH   4   7
HETATM    7  C7  UNL     1     -36.366  14.133  -4.270  1.00 20.00     0.171 C 
BRANCH   7   8
HETATM    8  O8  UNL     1     -37.569  14.284  -3.533  1.00 20.00    -0.396 OA
HETATM    9  C6  UNL     1     -38.619  14.800  -4.343  1.00 20.00     0.201 C 
ENDBRANCH   7   8
ENDBRANCH   4   7
TORSDOF 2
ENDMDL
MODEL 9
REMARK VINA RESULT:      -3.4      3.001      4.216
REMARK  2 active torsions:
REMARK  status: ('A' for Active; 'I' for Inactive)
REMARK    1  A    between atoms: C4_4  and  C7_7 
REMARK    2  A    between atoms: C7_7  and  O8_8 
ROOT
HETATM    1  C1  UNL     1     -33.309   6.828   4.937  1.00 20.00     0.008 C 
HETATM    2  C2  UNL     1     -32.040   7.482   4.385  1.00 20.00     0.016 C 
HETATM    3  C3  UNL     1     -33.007   5.962   2.736  1.00 20.00     0.022 C 
HETATM    4  C4  UNL     1     -34.104   6.401   3.706  1.00 20.00     0.011 C 
HETATM    5  C5  UNL     1     -31.905   6.994   2.942  1.00 20.00     0.058 C 
HETATM    6 BR9  UNL     1     -32.153   8.488   1.702  1.00 20.00    -0.091 Br
ENDROOT
BRANCH   4   7
HETATM    7  C7  UNL     1     -35.117   5.307   3.998  1.00 20.00     0.171 C 
BRANCH   7   8
HETATM    8  O8  UNL     1     -35.231   5.155   5.404  1.00 20.00    -0.396 OA
HETATM    9  C6  UNL     1     -34.885   3.838   5.818  1.00 20.00     0.201 C 
ENDBRANCH   7   8
ENDBRANCH   4   7
TORSDOF 2
ENDMDL
