MODEL 1
REMARK VINA RESULT:      -3.7      0.000      0.000
REMARK  4 active torsions:
REMARK  status: ('A' for Active; 'I' for Inactive)
REMARK    1  A    between atoms: C6_6  and  C7_7 
REMARK    2  A    between atoms: C6_6  and  O10_10 
REMARK    3  A    between atoms: C7_7  and  C8_8 
REMARK    4  A    between atoms: C7_7  and  O9_9 
ROOT
HETATM    1  C7  UNL     1     -33.575  15.866  -4.724  1.00 20.00     0.154 C 
ENDROOT
BRANCH   1   2
HETATM    2  C6  UNL     1     -34.141  16.849  -3.675  1.00 20.00     0.146 C 
HETATM    3  C1  UNL     1     -33.814  16.435  -2.242  1.00 20.00     0.042 C 
BRANCH   2   4
HETATM    4  O10 UNL     1     -33.633  18.163  -3.874  1.00 20.00    -0.388 OA
HETATM    5  C5  UNL     1     -33.554  18.486  -5.255  1.00 20.00     0.202 C 
ENDBRANCH   2   4
ENDBRANCH   1   2
BRANCH   1   6
HETATM    6  C8  UNL     1     -34.584  14.865  -5.378  1.00 20.00    -0.023 C 
HETATM    7  C2  UNL     1     -36.021  15.323  -5.035  1.00 20.00     0.017 C 
HETATM    8  C3  UNL     1     -34.440  14.864  -6.911  1.00 20.00     0.017 C 
HETATM    9  C4  UNL     1     -34.424  13.422  -4.862  1.00 20.00     0.017 C 
ENDBRANCH   1   6
BRANCH   1  10
HETATM   10  O9  UNL     1     -32.514  15.107  -4.136  1.00 20.00    -0.392 OA
HETATM   11  H28 UNL     1     -31.694  15.445  -4.521  1.00 20.00     0.210 HD
ENDBRANCH   1  10
TORSDOF 4
ENDMDL
MODEL 2
REMARK VINA RESULT:      -3.7      0.081      1.360
REMARK  4 active torsions:
REMARK  status: ('A' for Active; 'I' for Inactive)
REMARK    1  A    between atoms: C6_6  and  C7_7 
REMARK    2  A    between atoms: C6_6  and  O10_10 
REMARK    3  A    between atoms: C7_7  and  C8_8 
REMARK    4  A    between atoms: C7_7  and  O9_9 
ROOT
HETATM    1  C7  UNL     1     -33.597  15.827  -4.702  1.00 20.00     0.154 C 
ENDROOT
BRANCH   1   2
HETATM    2  C6  UNL     1     -34.133  16.851  -3.677  1.00 20.00     0.146 C 
HETATM    3  C1  UNL     1     -33.839  16.450  -2.233  1.00 20.00     0.042 C 
BRANCH   2   4
HETATM    4  O10 UNL     1     -33.568  18.139  -3.892  1.00 20.00    -0.388 OA
HETATM    5  C5  UNL     1     -33.556  18.476  -5.272  1.00 20.00     0.202 C 
ENDBRANCH   2   4
ENDBRANCH   1   2
BRANCH   1   6
HETATM    6  C8  UNL     1     -34.628  14.815  -5.304  1.00 20.00    -0.023 C 
HETATM    7  C2  UNL     1     -34.470  14.813  -6.842  1.00 20.00     0.017 C 
HETATM    8  C3  UNL     1     -34.356  13.387  -4.797  1.00 20.00     0.017 C 
HETATM    9  C4  UNL     1     -36.090  15.184  -4.990  1.00 20.00     0.017 C 
ENDBRANCH   1   6
BRANCH   1  10
HETATM   10  O9  UNL     1     -32.533  15.076  -4.108  1.00 20.00    -0.392 OA
HETATM   11  H28 UNL     1     -32.260  14.425  -4.769  1.00 20.00     0.210 HD
ENDBRANCH   1  10
TORSDOF 4
ENDMDL
MODEL 3
REMARK VINA RESULT:      -3.7      1.332      3.849
REMARK  4 active torsions:
REMARK  status: ('A' for Active; 'I' for Inactive)
REMARK    1  A    between atoms: C6_6  and  C7_7 
REMARK    2  A    between atoms: C6_6  and  O10_10 
REMARK    3  A    between atoms: C7_7  and  C8_8 
REMARK    4  A    between atoms: C7_7  and  O9_9 
ROOT
HETATM    1  C7  UNL     1     -33.821  15.600  -4.439  1.00 20.00     0.154 C 
ENDROOT
BRANCH   1   2
HETATM    2  C6  UNL     1     -34.746  15.168  -5.599  1.00 20.00     0.146 C 
HETATM    3  C1  UNL     1     -34.215  15.592  -6.966  1.00 20.00     0.042 C 
BRANCH   2   4
HETATM    4  O10 UNL     1     -34.922  13.756  -5.620  1.00 20.00    -0.388 OA
HETATM    5  C5  UNL     1     -35.033  13.227  -4.307  1.00 20.00     0.202 C 
ENDBRANCH   2   4
ENDBRANCH   1   2
BRANCH   1   6
HETATM    6  C8  UNL     1     -34.313  16.781  -3.539  1.00 20.00    -0.023 C 
HETATM    7  C2  UNL     1     -35.855  16.858  -3.631  1.00 20.00     0.017 C 
HETATM    8  C3  UNL     1     -33.938  16.540  -2.065  1.00 20.00     0.017 C 
HETATM    9  C4  UNL     1     -33.755  18.148  -3.977  1.00 20.00     0.017 C 
ENDBRANCH   1   6
BRANCH   1  10
HETATM   10  O9  UNL     1     -32.536  15.947  -4.964  1.00 20.00    -0.392 OA
HETATM   11  H28 UNL     1     -31.999  15.144  -4.915  1.00 20.00     0.210 HD
ENDBRANCH   1  10
TORSDOF 4
ENDMDL
MODEL 4
REMARK VINA RESULT:      -3.6      1.618      2.756
REMARK  4 active torsions:
REMARK  status: ('A' for Active; 'I' for Inactive)
REMARK    1  A    between atoms: C6_6  and  C7_7 
REMARK    2  A    between atoms: C6_6  and  O10_10 
REMARK    3  A    between atoms: C7_7  and  C8_8 
REMARK    4  A    between atoms: C7_7  and  O9_9 
ROOT
HETATM    1  C7  UNL     1     -33.891  15.678  -5.090  1.00 20.00     0.154 C 
ENDROOT
BRANCH   1   2
HETATM    2  C6  UNL     1     -34.600  17.039  -5.267  1.00 20.00     0.146 C 
HETATM    3  C1  UNL     1     -33.619  18.198  -5.436  1.00 20.00     0.042 C 
BRANCH   2   4
HETATM    4  O10 UNL     1     -35.459  17.030  -6.401  1.00 20.00    -0.388 OA
HETATM    5  C5  UNL     1     -34.951  16.194  -7.430  1.00 20.00     0.202 C 
ENDBRANCH   2   4
ENDBRANCH   1   2
BRANCH   1   6
HETATM    6  C8  UNL     1     -34.391  14.762  -3.924  1.00 20.00    -0.023 C 
HETATM    7  C2  UNL     1     -33.336  13.656  -3.684  1.00 20.00     0.017 C 
HETATM    8  C3  UNL     1     -34.541  15.566  -2.620  1.00 20.00     0.017 C 
HETATM    9  C4  UNL     1     -35.728  14.064  -4.234  1.00 20.00     0.017 C 
ENDBRANCH   1   6
BRANCH   1  10
HETATM   10  O9  UNL     1     -32.488  15.895  -4.914  1.00 20.00    -0.392 OA
HETATM   11  H28 UNL     1     -32.377  16.845  -4.769  1.00 20.00     0.210 HD
ENDBRANCH   1  10
TORSDOF 4
ENDMDL
MODEL 5
REMARK VINA RESULT:      -3.6      1.642      2.907
REMARK  4 active torsions:
REMARK  status: ('A' for Active; 'I' for Inactive)
REMARK    1  A    between atoms: C6_6  and  C7_7 
REMARK    2  A    between atoms: C6_6  and  O10_10 
REMARK    3  A    between atoms: C7_7  and  C8_8 
REMARK    4  A    between atoms: C7_7  and  O9_9 
ROOT
HETATM    1  C7  UNL     1     -33.834  15.592  -5.143  1.00 20.00     0.154 C 
ENDROOT
BRANCH   1   2
HETATM    2  C6  UNL     1     -34.486  16.750  -5.931  1.00 20.00     0.146 C 
HETATM    3  C1  UNL     1     -33.696  18.053  -5.827  1.00 20.00     0.042 C 
BRANCH   2   4
HETATM    4  O10 UNL     1     -34.612  16.428  -7.311  1.00 20.00    -0.388 OA
HETATM    5  C5  UNL     1     -34.673  15.024  -7.513  1.00 20.00     0.202 C 
ENDBRANCH   2   4
ENDBRANCH   1   2
BRANCH   1   6
HETATM    6  C8  UNL     1     -34.530  15.156  -3.812  1.00 20.00    -0.023 C 
HETATM    7  C2  UNL     1     -36.049  15.413  -3.946  1.00 20.00     0.017 C 
HETATM    8  C3  UNL     1     -34.325  13.652  -3.553  1.00 20.00     0.017 C 
HETATM    9  C4  UNL     1     -34.035  15.943  -2.584  1.00 20.00     0.017 C 
ENDBRANCH   1   6
BRANCH   1  10
HETATM   10  O9  UNL     1     -32.476  15.930  -4.844  1.00 20.00    -0.392 OA
HETATM   11  H28 UNL     1     -32.354  16.844  -5.136  1.00 20.00     0.210 HD
ENDBRANCH   1  10
TORSDOF 4
ENDMDL
MODEL 6
REMARK VINA RESULT:      -3.6      2.523      4.076
REMARK  4 active torsions:
REMARK  status: ('A' for Active; 'I' for Inactive)
REMARK    1  A    between atoms: C6_6  and  C7_7 
REMARK    2  A    between atoms: C6_6  and  O10_10 
REMARK    3  A    between atoms: C7_7  and  C8_8 
REMARK    4  A    between atoms: C7_7  and  O9_9 
ROOT
HETATM    1  C7  UNL     1     -35.464  14.157  -4.448  1.00 20.00     0.154 C 
ENDROOT
BRANCH   1   2
HETATM    2  C6  UNL     1     -36.795  14.940  -4.409  1.00 20.00     0.146 C 
HETATM    3  C1  UNL     1     -37.281  15.348  -5.798  1.00 20.00     0.042 C 
BRANCH   2   4
HETATM    4  O10 UNL     1     -37.826  14.175  -3.796  1.00 20.00    -0.388 OA
HETATM    5  C5  UNL     1     -39.103  14.760  -4.010  1.00 20.00     0.202 C 
ENDBRANCH   2   4
ENDBRANCH   1   2
BRANCH   1   6
HETATM    6  C8  UNL     1     -34.197  14.876  -3.878  1.00 20.00    -0.023 C 
HETATM    7  C2  UNL     1     -33.111  13.810  -3.602  1.00 20.00     0.017 C 
HETATM    8  C3  UNL     1     -33.629  15.878  -4.900  1.00 20.00     0.017 C 
HETATM    9  C4  UNL     1     -34.466  15.615  -2.554  1.00 20.00     0.017 C 
ENDBRANCH   1   6
BRANCH   1  10
HETATM   10  O9  UNL     1     -35.185  13.767  -5.796  1.00 20.00    -0.392 OA
HETATM   11  H28 UNL     1     -35.766  13.018  -5.987  1.00 20.00     0.210 HD
ENDBRANCH   1  10
TORSDOF 4
ENDMDL
MODEL 7
REMARK VINA RESULT:      -3.6      1.498      2.402
REMARK  4 active torsions:
REMARK  status: ('A' for Active; 'I' for Inactive)
REMARK    1  A    between atoms: C6_6  and  C7_7 
REMARK    2  A    between atoms: C6_6  and  O10_10 
REMARK    3  A    between atoms: C7_7  and  C8_8 
REMARK    4  A    between atoms: C7_7  and  O9_9 
ROOT
HETATM    1  C7  UNL     1     -33.937  16.083  -4.745  1.00 20.00     0.154 C 
ENDROOT
BRANCH   1   2
HETATM    2  C6  UNL     1     -34.410  14.974  -3.780  1.00 20.00     0.146 C 
HETATM    3  C1  UNL     1     -33.500  13.748  -3.799  1.00 20.00     0.042 C 
BRANCH   2   4
HETATM    4  O10 UNL     1     -34.471  15.449  -2.440  1.00 20.00    -0.388 OA
HETATM    5  C5  UNL     1     -35.125  16.707  -2.364  1.00 20.00     0.202 C 
ENDBRANCH   2   4
ENDBRANCH   1   2
BRANCH   1   6
HETATM    6  C8  UNL     1     -34.680  16.198  -6.117  1.00 20.00    -0.023 C 
HETATM    7  C2  UNL     1     -36.203  16.114  -5.858  1.00 20.00     0.017 C 
HETATM    8  C3  UNL     1     -34.388  17.552  -6.789  1.00 20.00     0.017 C 
HETATM    9  C4  UNL     1     -34.316  15.067  -7.098  1.00 20.00     0.017 C 
ENDBRANCH   1   6
BRANCH   1  10
HETATM   10  O9  UNL     1     -32.541  15.917  -5.009  1.00 20.00    -0.392 OA
HETATM   11  H28 UNL     1     -32.475  15.583  -5.915  1.00 20.00     0.210 HD
ENDBRANCH   1  10
TORSDOF 4
ENDMDL
MODEL 8
REMARK VINA RESULT:      -3.5      2.307      3.855
REMARK  4 active torsions:
REMARK  status: ('A' for Active; 'I' for Inactive)
REMARK    1  A    between atoms: C6_6  and  C7_7 
REMARK    2  A    between atoms: C6_6  and  O10_10 
REMARK    3  A    between atoms: C7_7  and  C8_8 
REMARK    4  A    between atoms: C7_7  and  O9_9 
ROOT
HETATM    1  C7  UNL     1     -35.289  14.263  -4.677  1.00 20.00     0.154 C 
ENDROOT
BRANCH   1   2
HETATM    2  C6  UNL     1     -35.800  15.012  -5.928  1.00 20.00     0.146 C 
HETATM    3  C1  UNL     1     -35.377  14.340  -7.232  1.00 20.00     0.042 C 
BRANCH   2   4
HETATM    4  O10 UNL     1     -37.220  15.105  -5.928  1.00 20.00    -0.388 OA
HETATM    5  C5  UNL     1     -37.744  15.055  -4.609  1.00 20.00     0.202 C 
ENDBRANCH   2   4
ENDBRANCH   1   2
BRANCH   1   6
HETATM    6  C8  UNL     1     -34.077  14.895  -3.914  1.00 20.00    -0.023 C 
HETATM    7  C2  UNL     1     -34.594  15.495  -2.586  1.00 20.00     0.017 C 
HETATM    8  C3  UNL     1     -33.025  13.825  -3.573  1.00 20.00     0.017 C 
HETATM    9  C4  UNL     1     -33.395  16.031  -4.699  1.00 20.00     0.017 C 
ENDBRANCH   1   6
BRANCH   1  10
HETATM   10  O9  UNL     1     -34.936  12.925  -5.039  1.00 20.00    -0.392 OA
HETATM   11  H28 UNL     1     -34.130  12.992  -5.570  1.00 20.00     0.210 HD
ENDBRANCH   1  10
TORSDOF 4
ENDMDL
MODEL 9
REMARK VINA RESULT:      -3.5      2.622      4.034
REMARK  4 active torsions:
REMARK  status: ('A' for Active; 'I' for Inactive)
REMARK    1  A    between atoms: C6_6  and  C7_7 
REMARK    2  A    between atoms: C6_6  and  O10_10 
REMARK    3  A    between atoms: C7_7  and  C8_8 
REMARK    4  A    between atoms: C7_7  and  O9_9 
ROOT
HETATM    1  C7  UNL     1     -35.724  14.581  -4.468  1.00 20.00     0.154 C 
ENDROOT
BRANCH   1   2
HETATM    2  C6  UNL     1     -36.974  15.164  -3.774  1.00 20.00     0.146 C 
HETATM    3  C1  UNL     1     -37.527  16.394  -4.490  1.00 20.00     0.042 C 
BRANCH   2   4
HETATM    4  O10 UNL     1     -38.019  14.200  -3.699  1.00 20.00    -0.388 OA
HETATM    5  C5  UNL     1     -39.208  14.675  -4.313  1.00 20.00     0.202 C 
ENDBRANCH   2   4
ENDBRANCH   1   2
BRANCH   1   6
HETATM    6  C8  UNL     1     -34.331  14.970  -3.871  1.00 20.00    -0.023 C 
HETATM    7  C2  UNL     1     -33.653  15.979  -4.827  1.00 20.00     0.017 C 
HETATM    8  C3  UNL     1     -34.493  15.652  -2.500  1.00 20.00     0.017 C 
HETATM    9  C4  UNL     1     -33.381  13.768  -3.719  1.00 20.00     0.017 C 
ENDBRANCH   1   6
BRANCH   1  10
HETATM   10  O9  UNL     1     -35.734  14.952  -5.850  1.00 20.00    -0.392 OA
HETATM   11  H28 UNL     1     -34.879  15.371  -6.023  1.00 20.00     0.210 HD
ENDBRANCH   1  10
TORSDOF 4
ENDMDL
