MODEL 1
REMARK VINA RESULT:      -4.6      0.000      0.000
REMARK  2 active torsions:
REMARK  status: ('A' for Active; 'I' for Inactive)
REMARK    1  A    between atoms: C4_4  and  C7_7 
REMARK    2  A    between atoms: C7_7  and  O8_8 
ROOT
HETATM    1  C1  UNL     1     -34.430   5.474   3.013  1.00 20.00     0.008 C 
HETATM    2  C2  UNL     1     -35.395   5.012   4.095  1.00 20.00     0.020 C 
HETATM    3  C3  UNL     1     -33.611   6.169   5.218  1.00 20.00     0.027 C 
HETATM    4  C4  UNL     1     -33.550   6.514   3.718  1.00 20.00     0.011 C 
HETATM    5  C5  UNL     1     -34.488   4.922   5.312  1.00 20.00     0.082 C 
HETATM    6 CL9  UNL     1     -35.399   4.843   6.826  1.00 20.00    -0.125 Cl
ENDROOT
BRANCH   4   7
HETATM    7  C7  UNL     1     -32.132   6.543   3.171  1.00 20.00     0.171 C 
BRANCH   7   8
HETATM    8  O8  UNL     1     -31.721   7.893   3.037  1.00 20.00    -0.396 OA
HETATM    9  C6  UNL     1     -32.076   8.428   1.768  1.00 20.00     0.201 C 
ENDBRANCH   7   8
ENDBRANCH   4   7
TORSDOF 2
ENDMDL
MODEL 2
REMARK VINA RESULT:      -4.0     11.588     12.517
REMARK  2 active torsions:
REMARK  status: ('A' for Active; 'I' for Inactive)
REMARK    1  A    between atoms: C4_4  and  C7_7 
REMARK    2  A    between atoms: C7_7  and  O8_8 
ROOT
HETATM    1  C1  UNL     1     -34.224  13.819  -3.609  1.00 20.00     0.008 C 
HETATM    2  C2  UNL     1     -34.717  13.264  -4.937  1.00 20.00     0.020 C 
HETATM    3  C3  UNL     1     -34.107  15.556  -5.336  1.00 20.00     0.027 C 
HETATM    4  C4  UNL     1     -33.497  15.114  -3.993  1.00 20.00     0.011 C 
HETATM    5  C5  UNL     1     -35.186  14.522  -5.651  1.00 20.00     0.082 C 
HETATM    6 CL9  UNL     1     -35.399  14.269  -7.389  1.00 20.00    -0.125 Cl
ENDROOT
BRANCH   4   7
HETATM    7  C7  UNL     1     -33.601  16.181  -2.913  1.00 20.00     0.171 C 
BRANCH   7   8
HETATM    8  O8  UNL     1     -34.635  15.819  -2.013  1.00 20.00    -0.396 OA
HETATM    9  C6  UNL     1     -34.622  16.630  -0.844  1.00 20.00     0.201 C 
ENDBRANCH   7   8
ENDBRANCH   4   7
TORSDOF 2
ENDMDL
MODEL 3
REMARK VINA RESULT:      -3.7     11.893     12.476
REMARK  2 active torsions:
REMARK  status: ('A' for Active; 'I' for Inactive)
REMARK    1  A    between atoms: C4_4  and  C7_7 
REMARK    2  A    between atoms: C7_7  and  O8_8 
ROOT
HETATM    1  C1  UNL     1     -34.137  14.732  -4.317  1.00 20.00     0.008 C 
HETATM    2  C2  UNL     1     -33.210  15.472  -3.364  1.00 20.00     0.020 C 
HETATM    3  C3  UNL     1     -35.444  15.796  -2.535  1.00 20.00     0.027 C 
HETATM    4  C4  UNL     1     -35.462  14.637  -3.550  1.00 20.00     0.011 C 
HETATM    5  C5  UNL     1     -34.131  16.534  -2.787  1.00 20.00     0.082 C 
HETATM    6 CL9  UNL     1     -33.473  17.270  -1.318  1.00 20.00    -0.125 Cl
ENDROOT
BRANCH   4   7
HETATM    7  C7  UNL     1     -36.671  14.672  -4.472  1.00 20.00     0.171 C 
BRANCH   7   8
HETATM    8  O8  UNL     1     -37.781  14.115  -3.789  1.00 20.00    -0.396 OA
HETATM    9  C6  UNL     1     -38.900  14.994  -3.800  1.00 20.00     0.201 C 
ENDBRANCH   7   8
ENDBRANCH   4   7
TORSDOF 2
ENDMDL
MODEL 4
REMARK VINA RESULT:      -3.6      1.275      2.010
REMARK  2 active torsions:
REMARK  status: ('A' for Active; 'I' for Inactive)
REMARK    1  A    between atoms: C4_4  and  C7_7 
REMARK    2  A    between atoms: C7_7  and  O8_8 
ROOT
HETATM    1  C1  UNL     1     -32.552   7.286   4.602  1.00 20.00     0.008 C 
HETATM    2  C2  UNL     1     -33.577   6.403   5.298  1.00 20.00     0.020 C 
HETATM    3  C3  UNL     1     -33.490   5.677   3.007  1.00 20.00     0.027 C 
HETATM    4  C4  UNL     1     -32.252   6.548   3.292  1.00 20.00     0.011 C 
HETATM    5  C5  UNL     1     -34.468   5.980   4.141  1.00 20.00     0.082 C 
HETATM    6 CL9  UNL     1     -35.487   4.592   4.549  1.00 20.00    -0.125 Cl
ENDROOT
BRANCH   4   7
HETATM    7  C7  UNL     1     -31.917   7.498   2.153  1.00 20.00     0.171 C 
BRANCH   7   8
HETATM    8  O8  UNL     1     -32.545   8.745   2.400  1.00 20.00    -0.396 OA
HETATM    9  C6  UNL     1     -32.380   9.643   1.309  1.00 20.00     0.201 C 
ENDBRANCH   7   8
ENDBRANCH   4   7
TORSDOF 2
ENDMDL
MODEL 5
REMARK VINA RESULT:      -3.6     11.690     12.449
REMARK  2 active torsions:
REMARK  status: ('A' for Active; 'I' for Inactive)
REMARK    1  A    between atoms: C4_4  and  C7_7 
REMARK    2  A    between atoms: C7_7  and  O8_8 
ROOT
HETATM    1  C1  UNL     1     -33.353  14.966  -3.576  1.00 20.00     0.008 C 
HETATM    2  C2  UNL     1     -33.743  16.126  -2.673  1.00 20.00     0.020 C 
HETATM    3  C3  UNL     1     -35.793  15.069  -3.354  1.00 20.00     0.027 C 
HETATM    4  C4  UNL     1     -34.625  14.112  -3.657  1.00 20.00     0.011 C 
HETATM    5  C5  UNL     1     -35.151  16.441  -3.152  1.00 20.00     0.082 C 
HETATM    6 CL9  UNL     1     -36.044  17.446  -2.002  1.00 20.00    -0.125 Cl
ENDROOT
BRANCH   4   7
HETATM    7  C7  UNL     1     -34.767  13.405  -4.996  1.00 20.00     0.171 C 
BRANCH   7   8
HETATM    8  O8  UNL     1     -34.406  14.308  -6.028  1.00 20.00    -0.396 OA
HETATM    9  C6  UNL     1     -35.405  14.378  -7.039  1.00 20.00     0.201 C 
ENDBRANCH   7   8
ENDBRANCH   4   7
TORSDOF 2
ENDMDL
MODEL 6
REMARK VINA RESULT:      -3.5     11.327     12.129
REMARK  2 active torsions:
REMARK  status: ('A' for Active; 'I' for Inactive)
REMARK    1  A    between atoms: C4_4  and  C7_7 
REMARK    2  A    between atoms: C7_7  and  O8_8 
ROOT
HETATM    1  C1  UNL     1     -33.413  16.202  -2.778  1.00 20.00     0.008 C 
HETATM    2  C2  UNL     1     -33.165  15.034  -3.720  1.00 20.00     0.020 C 
HETATM    3  C3  UNL     1     -35.550  15.216  -3.468  1.00 20.00     0.027 C 
HETATM    4  C4  UNL     1     -34.903  16.518  -2.960  1.00 20.00     0.011 C 
HETATM    5  C5  UNL     1     -34.415  14.194  -3.519  1.00 20.00     0.082 C 
HETATM    6 CL9  UNL     1     -34.636  12.997  -4.803  1.00 20.00    -0.125 Cl
ENDROOT
BRANCH   4   7
HETATM    7  C7  UNL     1     -35.546  17.044  -1.685  1.00 20.00     0.171 C 
BRANCH   7   8
HETATM    8  O8  UNL     1     -34.802  16.576  -0.573  1.00 20.00    -0.396 OA
HETATM    9  C6  UNL     1     -34.971  17.415   0.563  1.00 20.00     0.201 C 
ENDBRANCH   7   8
ENDBRANCH   4   7
TORSDOF 2
ENDMDL
MODEL 7
REMARK VINA RESULT:      -3.5     11.753     12.494
REMARK  2 active torsions:
REMARK  status: ('A' for Active; 'I' for Inactive)
REMARK    1  A    between atoms: C4_4  and  C7_7 
REMARK    2  A    between atoms: C7_7  and  O8_8 
ROOT
HETATM    1  C1  UNL     1     -33.250  18.483  -1.243  1.00 20.00     0.008 C 
HETATM    2  C2  UNL     1     -33.552  18.533   0.247  1.00 20.00     0.020 C 
HETATM    3  C3  UNL     1     -34.796  16.677  -0.642  1.00 20.00     0.027 C 
HETATM    4  C4  UNL     1     -33.732  17.092  -1.675  1.00 20.00     0.011 C 
HETATM    5  C5  UNL     1     -34.914  17.860   0.317  1.00 20.00     0.082 C 
HETATM    6 CL9  UNL     1     -35.335  17.363   1.962  1.00 20.00    -0.125 Cl
ENDROOT
BRANCH   4   7
HETATM    7  C7  UNL     1     -34.251  17.075  -3.104  1.00 20.00     0.171 C 
BRANCH   7   8
HETATM    8  O8  UNL     1     -33.262  16.499  -3.941  1.00 20.00    -0.396 OA
HETATM    9  C6  UNL     1     -33.059  15.123  -3.645  1.00 20.00     0.201 C 
ENDBRANCH   7   8
ENDBRANCH   4   7
TORSDOF 2
ENDMDL
MODEL 8
REMARK VINA RESULT:      -3.5     11.541     12.485
REMARK  2 active torsions:
REMARK  status: ('A' for Active; 'I' for Inactive)
REMARK    1  A    between atoms: C4_4  and  C7_7 
REMARK    2  A    between atoms: C7_7  and  O8_8 
ROOT
HETATM    1  C1  UNL     1     -33.831  17.419  -3.181  1.00 20.00     0.008 C 
HETATM    2  C2  UNL     1     -33.610  18.422  -2.059  1.00 20.00     0.020 C 
HETATM    3  C3  UNL     1     -34.597  16.474  -1.051  1.00 20.00     0.027 C 
HETATM    4  C4  UNL     1     -34.081  16.093  -2.452  1.00 20.00     0.011 C 
HETATM    5  C5  UNL     1     -34.661  18.001  -1.045  1.00 20.00     0.082 C 
HETATM    6 CL9  UNL     1     -34.364  18.687   0.558  1.00 20.00    -0.125 Cl
ENDROOT
BRANCH   4   7
HETATM    7  C7  UNL     1     -35.035  15.183  -3.210  1.00 20.00     0.171 C 
BRANCH   7   8
HETATM    8  O8  UNL     1     -34.420  13.918  -3.382  1.00 20.00    -0.396 OA
HETATM    9  C6  UNL     1     -34.808  13.306  -4.606  1.00 20.00     0.201 C 
ENDBRANCH   7   8
ENDBRANCH   4   7
TORSDOF 2
ENDMDL
MODEL 9
REMARK VINA RESULT:      -3.4     11.513     12.223
REMARK  2 active torsions:
REMARK  status: ('A' for Active; 'I' for Inactive)
REMARK    1  A    between atoms: C4_4  and  C7_7 
REMARK    2  A    between atoms: C7_7  and  O8_8 
ROOT
HETATM    1  C1  UNL     1     -36.273  15.774  -3.157  1.00 20.00     0.008 C 
HETATM    2  C2  UNL     1     -35.789  16.920  -2.281  1.00 20.00     0.020 C 
HETATM    3  C3  UNL     1     -33.857  15.579  -2.784  1.00 20.00     0.027 C 
HETATM    4  C4  UNL     1     -34.986  15.196  -3.759  1.00 20.00     0.011 C 
HETATM    5  C5  UNL     1     -34.544  16.327  -1.642  1.00 20.00     0.082 C 
HETATM    6 CL9  UNL     1     -33.506  17.562  -0.916  1.00 20.00    -0.125 Cl
ENDROOT
BRANCH   4   7
HETATM    7  C7  UNL     1     -35.080  13.697  -4.000  1.00 20.00     0.171 C 
BRANCH   7   8
HETATM    8  O8  UNL     1     -34.479  13.398  -5.249  1.00 20.00    -0.396 OA
HETATM    9  C6  UNL     1     -35.054  14.159  -6.305  1.00 20.00     0.201 C 
ENDBRANCH   7   8
ENDBRANCH   4   7
TORSDOF 2
ENDMDL
