MODEL 1
REMARK VINA RESULT:      -5.2      0.000      0.000
REMARK  3 active torsions:
REMARK  status: ('A' for Active; 'I' for Inactive)
REMARK    1  A    between atoms: C1_1  and  C5_5 
REMARK    2  A    between atoms: C2_2  and  C7_7 
REMARK    3  A    between atoms: C5_5  and  C6_6 
ROOT
HETATM    1  C1  UNL     1     -33.031   6.390   3.953  1.00 20.00    -0.029 C 
HETATM    2  C2  UNL     1     -34.193   5.723   4.008  1.00 20.00    -0.027 C 
ENDROOT
BRANCH   1   3
HETATM    3  C5  UNL     1     -32.312   6.710   2.674  1.00 20.00     0.042 C 
BRANCH   3   4
HETATM    4  C6  UNL     1     -32.108   8.207   2.472  1.00 20.00     0.118 C 
HETATM    5 CL8  UNL     1     -31.701   8.593   0.781  1.00 20.00    -0.130 Cl
ENDBRANCH   3   4
ENDBRANCH   1   3
BRANCH   2   6
HETATM    6  C7  UNL     1     -34.916   5.404   5.292  1.00 20.00    -0.001 C 
HETATM    7  C3  UNL     1     -34.279   6.160   6.459  1.00 20.00     0.013 C 
HETATM    8  C4  UNL     1     -34.894   3.898   5.550  1.00 20.00     0.013 C 
ENDBRANCH   2   6
TORSDOF 3
ENDMDL
MODEL 2
REMARK VINA RESULT:      -5.0      1.106      1.547
REMARK  3 active torsions:
REMARK  status: ('A' for Active; 'I' for Inactive)
REMARK    1  A    between atoms: C1_1  and  C5_5 
REMARK    2  A    between atoms: C2_2  and  C7_7 
REMARK    3  A    between atoms: C5_5  and  C6_6 
ROOT
HETATM    1  C1  UNL     1     -32.817   6.556   3.258  1.00 20.00    -0.029 C 
HETATM    2  C2  UNL     1     -33.405   6.337   4.443  1.00 20.00    -0.027 C 
ENDROOT
BRANCH   1   3
HETATM    3  C5  UNL     1     -31.836   7.664   3.005  1.00 20.00     0.042 C 
BRANCH   3   4
HETATM    4  C6  UNL     1     -31.972   8.266   1.611  1.00 20.00     0.118 C 
HETATM    5 CL8  UNL     1     -32.575   9.942   1.674  1.00 20.00    -0.130 Cl
ENDBRANCH   3   4
ENDBRANCH   1   3
BRANCH   2   6
HETATM    6  C7  UNL     1     -34.387   5.223   4.697  1.00 20.00    -0.001 C 
HETATM    7  C3  UNL     1     -35.634   5.409   3.832  1.00 20.00     0.013 C 
HETATM    8  C4  UNL     1     -34.763   5.178   6.178  1.00 20.00     0.013 C 
ENDBRANCH   2   6
TORSDOF 3
ENDMDL
MODEL 3
REMARK VINA RESULT:      -4.7      2.633      4.567
REMARK  3 active torsions:
REMARK  status: ('A' for Active; 'I' for Inactive)
REMARK    1  A    between atoms: C1_1  and  C5_5 
REMARK    2  A    between atoms: C2_2  and  C7_7 
REMARK    3  A    between atoms: C5_5  and  C6_6 
ROOT
HETATM    1  C1  UNL     1     -33.951   6.360   3.794  1.00 20.00    -0.029 C 
HETATM    2  C2  UNL     1     -32.864   6.176   3.031  1.00 20.00    -0.027 C 
ENDROOT
BRANCH   1   3
HETATM    3  C5  UNL     1     -35.033   5.332   3.967  1.00 20.00     0.042 C 
BRANCH   3   4
HETATM    4  C6  UNL     1     -35.073   4.750   5.376  1.00 20.00     0.118 C 
HETATM    5 CL8  UNL     1     -34.387   5.877   6.573  1.00 20.00    -0.130 Cl
ENDBRANCH   3   4
ENDBRANCH   1   3
BRANCH   2   6
HETATM    6  C7  UNL     1     -31.777   7.206   2.860  1.00 20.00    -0.001 C 
HETATM    7  C3  UNL     1     -31.373   7.779   4.219  1.00 20.00     0.013 C 
HETATM    8  C4  UNL     1     -32.249   8.320   1.926  1.00 20.00     0.013 C 
ENDBRANCH   2   6
TORSDOF 3
ENDMDL
MODEL 4
REMARK VINA RESULT:      -4.6      1.243      1.243
REMARK  3 active torsions:
REMARK  status: ('A' for Active; 'I' for Inactive)
REMARK    1  A    between atoms: C1_1  and  C5_5 
REMARK    2  A    between atoms: C2_2  and  C7_7 
REMARK    3  A    between atoms: C5_5  and  C6_6 
ROOT
HETATM    1  C1  UNL     1     -33.223   6.049   3.831  1.00 20.00    -0.029 C 
HETATM    2  C2  UNL     1     -34.491   5.674   4.058  1.00 20.00    -0.027 C 
ENDROOT
BRANCH   1   3
HETATM    3  C5  UNL     1     -32.698   6.438   2.479  1.00 20.00     0.042 C 
BRANCH   3   4
HETATM    4  C6  UNL     1     -31.920   7.749   2.504  1.00 20.00     0.118 C 
HETATM    5 CL8  UNL     1     -31.106   8.001   4.068  1.00 20.00    -0.130 Cl
ENDBRANCH   3   4
ENDBRANCH   1   3
BRANCH   2   6
HETATM    6  C7  UNL     1     -35.019   5.287   5.416  1.00 20.00    -0.001 C 
HETATM    7  C3  UNL     1     -34.311   6.091   6.507  1.00 20.00     0.013 C 
HETATM    8  C4  UNL     1     -34.832   3.788   5.647  1.00 20.00     0.013 C 
ENDBRANCH   2   6
TORSDOF 3
ENDMDL
MODEL 5
REMARK VINA RESULT:      -4.0      2.673      5.140
REMARK  3 active torsions:
REMARK  status: ('A' for Active; 'I' for Inactive)
REMARK    1  A    between atoms: C1_1  and  C5_5 
REMARK    2  A    between atoms: C2_2  and  C7_7 
REMARK    3  A    between atoms: C5_5  and  C6_6 
ROOT
HETATM    1  C1  UNL     1     -32.929   7.331   2.819  1.00 20.00    -0.029 C 
HETATM    2  C2  UNL     1     -31.865   7.766   2.128  1.00 20.00    -0.027 C 
ENDROOT
BRANCH   1   3
HETATM    3  C5  UNL     1     -32.912   6.112   3.697  1.00 20.00     0.042 C 
BRANCH   3   4
HETATM    4  C6  UNL     1     -34.292   5.756   4.238  1.00 20.00     0.118 C 
HETATM    5 CL8  UNL     1     -34.327   5.780   6.019  1.00 20.00    -0.130 Cl
ENDBRANCH   3   4
ENDBRANCH   1   3
BRANCH   2   6
HETATM    6  C7  UNL     1     -31.881   8.990   1.250  1.00 20.00    -0.001 C 
HETATM    7  C3  UNL     1     -32.736  10.087   1.886  1.00 20.00     0.013 C 
HETATM    8  C4  UNL     1     -32.410   8.636  -0.140  1.00 20.00     0.013 C 
ENDBRANCH   2   6
TORSDOF 3
ENDMDL
MODEL 6
REMARK VINA RESULT:      -3.8      2.727      4.637
REMARK  3 active torsions:
REMARK  status: ('A' for Active; 'I' for Inactive)
REMARK    1  A    between atoms: C1_1  and  C5_5 
REMARK    2  A    between atoms: C2_2  and  C7_7 
REMARK    3  A    between atoms: C5_5  and  C6_6 
ROOT
HETATM    1  C1  UNL     1     -33.580   6.183   4.788  1.00 20.00    -0.029 C 
HETATM    2  C2  UNL     1     -32.665   7.052   4.334  1.00 20.00    -0.027 C 
ENDROOT
BRANCH   1   3
HETATM    3  C5  UNL     1     -34.250   6.302   6.127  1.00 20.00     0.042 C 
BRANCH   3   4
HETATM    4  C6  UNL     1     -35.000   5.035   6.526  1.00 20.00     0.118 C 
HETATM    5 CL8  UNL     1     -35.008   3.834   5.209  1.00 20.00    -0.130 Cl
ENDBRANCH   3   4
ENDBRANCH   1   3
BRANCH   2   6
HETATM    6  C7  UNL     1     -31.994   6.934   2.989  1.00 20.00    -0.001 C 
HETATM    7  C3  UNL     1     -32.212   8.211   2.176  1.00 20.00     0.013 C 
HETATM    8  C4  UNL     1     -32.534   5.719   2.235  1.00 20.00     0.013 C 
ENDBRANCH   2   6
TORSDOF 3
ENDMDL
MODEL 7
REMARK VINA RESULT:      -3.8     11.440     12.161
REMARK  3 active torsions:
REMARK  status: ('A' for Active; 'I' for Inactive)
REMARK    1  A    between atoms: C1_1  and  C5_5 
REMARK    2  A    between atoms: C2_2  and  C7_7 
REMARK    3  A    between atoms: C5_5  and  C6_6 
ROOT
HETATM    1  C1  UNL     1     -33.826  14.698  -3.579  1.00 20.00    -0.029 C 
HETATM    2  C2  UNL     1     -34.504  15.432  -2.685  1.00 20.00    -0.027 C 
ENDROOT
BRANCH   1   3
HETATM    3  C5  UNL     1     -34.417  13.534  -4.322  1.00 20.00     0.042 C 
BRANCH   3   4
HETATM    4  C6  UNL     1     -34.966  13.925  -5.690  1.00 20.00     0.118 C 
HETATM    5 CL8  UNL     1     -34.175  15.392  -6.321  1.00 20.00    -0.130 Cl
ENDBRANCH   3   4
ENDBRANCH   1   3
BRANCH   2   6
HETATM    6  C7  UNL     1     -33.912  16.602  -1.941  1.00 20.00    -0.001 C 
HETATM    7  C3  UNL     1     -34.629  16.796  -0.604  1.00 20.00     0.013 C 
HETATM    8  C4  UNL     1     -34.008  17.870  -2.791  1.00 20.00     0.013 C 
ENDBRANCH   2   6
TORSDOF 3
ENDMDL
MODEL 8
REMARK VINA RESULT:      -3.8     11.376     12.302
REMARK  3 active torsions:
REMARK  status: ('A' for Active; 'I' for Inactive)
REMARK    1  A    between atoms: C1_1  and  C5_5 
REMARK    2  A    between atoms: C2_2  and  C7_7 
REMARK    3  A    between atoms: C5_5  and  C6_6 
ROOT
HETATM    1  C1  UNL     1     -33.896  16.756  -1.551  1.00 20.00    -0.029 C 
HETATM    2  C2  UNL     1     -34.191  15.771  -2.412  1.00 20.00    -0.027 C 
ENDROOT
BRANCH   1   3
HETATM    3  C5  UNL     1     -34.826  17.223  -0.468  1.00 20.00     0.042 C 
BRANCH   3   4
HETATM    4  C6  UNL     1     -34.141  18.138   0.542  1.00 20.00     0.118 C 
HETATM    5 CL8  UNL     1     -32.506  18.600   0.008  1.00 20.00    -0.130 Cl
ENDBRANCH   3   4
ENDBRANCH   1   3
BRANCH   2   6
HETATM    6  C7  UNL     1     -33.257  15.300  -3.497  1.00 20.00    -0.001 C 
HETATM    7  C3  UNL     1     -33.333  16.235  -4.704  1.00 20.00     0.013 C 
HETATM    8  C4  UNL     1     -33.601  13.867  -3.904  1.00 20.00     0.013 C 
ENDBRANCH   2   6
TORSDOF 3
ENDMDL
MODEL 9
REMARK VINA RESULT:      -3.7     11.254     12.046
REMARK  3 active torsions:
REMARK  status: ('A' for Active; 'I' for Inactive)
REMARK    1  A    between atoms: C1_1  and  C5_5 
REMARK    2  A    between atoms: C2_2  and  C7_7 
REMARK    3  A    between atoms: C5_5  and  C6_6 
ROOT
HETATM    1  C1  UNL     1     -34.318  16.593  -1.491  1.00 20.00    -0.029 C 
HETATM    2  C2  UNL     1     -34.883  15.626  -2.229  1.00 20.00    -0.027 C 
ENDROOT
BRANCH   1   3
HETATM    3  C5  UNL     1     -34.848  17.045  -0.160  1.00 20.00     0.042 C 
BRANCH   3   4
HETATM    4  C6  UNL     1     -34.183  18.324   0.336  1.00 20.00     0.118 C 
HETATM    5 CL8  UNL     1     -32.510  18.470  -0.261  1.00 20.00    -0.130 Cl
ENDBRANCH   3   4
ENDBRANCH   1   3
BRANCH   2   6
HETATM    6  C7  UNL     1     -34.348  15.171  -3.562  1.00 20.00    -0.001 C 
HETATM    7  C3  UNL     1     -34.726  13.710  -3.812  1.00 20.00     0.013 C 
HETATM    8  C4  UNL     1     -32.831  15.350  -3.612  1.00 20.00     0.013 C 
ENDBRANCH   2   6
TORSDOF 3
ENDMDL
