MODEL 1
REMARK VINA RESULT:      -4.7      0.000      0.000
REMARK  3 active torsions:
REMARK  status: ('A' for Active; 'I' for Inactive)
REMARK    1  A    between atoms: C3_3  and  C5_5 
REMARK    2  A    between atoms: C6_6  and  C8_8 
REMARK    3  A    between atoms: C8_8  and  C9_9 
ROOT
HETATM    1  C1  UNL     1     -34.138  15.886  -4.926  1.00 20.00     0.026 A 
HETATM    2  C2  UNL     1     -34.391  14.117  -3.441  1.00 20.00     0.061 A 
HETATM    3  C3  UNL     1     -34.114  15.460  -3.566  1.00 20.00    -0.029 A 
HETATM    4  C4  UNL     1     -34.432  14.853  -5.787  1.00 20.00    -0.021 A 
HETATM    5  C7  UNL     1     -34.550  14.888  -7.261  1.00 20.00     0.056 C 
HETATM    6  S10 UNL     1     -34.680  13.376  -4.957  1.00 20.00    -0.106 SA
ENDROOT
BRANCH   3   7
HETATM    7  C5  UNL     1     -33.828  16.328  -2.412  1.00 20.00     0.008 C 
HETATM    8  C6  UNL     1     -34.626  16.478  -1.343  1.00 20.00    -0.025 C 
BRANCH   8   9
HETATM    9  C8  UNL     1     -34.300  17.384  -0.189  1.00 20.00     0.042 C 
BRANCH   9  10
HETATM   10  C9  UNL     1     -33.531  18.631  -0.617  1.00 20.00     0.118 C 
HETATM   11 CL11 UNL     1     -31.999  18.796   0.276  1.00 20.00    -0.130 Cl
ENDBRANCH   9  10
ENDBRANCH   8   9
ENDBRANCH   3   7
TORSDOF 3
ENDMDL
MODEL 2
REMARK VINA RESULT:      -4.6      1.348      1.479
REMARK  3 active torsions:
REMARK  status: ('A' for Active; 'I' for Inactive)
REMARK    1  A    between atoms: C3_3  and  C5_5 
REMARK    2  A    between atoms: C6_6  and  C8_8 
REMARK    3  A    between atoms: C8_8  and  C9_9 
ROOT
HETATM    1  C1  UNL     1     -34.117  15.880  -4.867  1.00 20.00     0.026 A 
HETATM    2  C2  UNL     1     -34.398  14.068  -3.438  1.00 20.00     0.061 A 
HETATM    3  C3  UNL     1     -34.107  15.412  -3.521  1.00 20.00    -0.029 A 
HETATM    4  C4  UNL     1     -34.414  14.875  -5.761  1.00 20.00    -0.021 A 
HETATM    5  C7  UNL     1     -34.521  14.956  -7.234  1.00 20.00     0.056 C 
HETATM    6  S10 UNL     1     -34.682  13.376  -4.978  1.00 20.00    -0.106 SA
ENDROOT
BRANCH   3   7
HETATM    7  C5  UNL     1     -33.822  16.242  -2.339  1.00 20.00     0.008 C 
HETATM    8  C6  UNL     1     -34.692  16.502  -1.350  1.00 20.00    -0.025 C 
BRANCH   8   9
HETATM    9  C8  UNL     1     -34.363  17.364  -0.163  1.00 20.00     0.042 C 
BRANCH   9  10
HETATM   10  C9  UNL     1     -35.601  17.771   0.630  1.00 20.00     0.118 C 
HETATM   11 CL11 UNL     1     -35.373  17.516   2.378  1.00 20.00    -0.130 Cl
ENDBRANCH   9  10
ENDBRANCH   8   9
ENDBRANCH   3   7
TORSDOF 3
ENDMDL
MODEL 3
REMARK VINA RESULT:      -4.5      3.493      5.829
REMARK  3 active torsions:
REMARK  status: ('A' for Active; 'I' for Inactive)
REMARK    1  A    between atoms: C3_3  and  C5_5 
REMARK    2  A    between atoms: C6_6  and  C8_8 
REMARK    3  A    between atoms: C8_8  and  C9_9 
ROOT
HETATM    1  C1  UNL     1     -34.647  16.509  -0.785  1.00 20.00     0.026 A 
HETATM    2  C2  UNL     1     -33.658  18.153  -2.096  1.00 20.00     0.061 A 
HETATM    3  C3  UNL     1     -34.003  16.822  -2.017  1.00 20.00    -0.029 A 
HETATM    4  C4  UNL     1     -34.769  17.611   0.031  1.00 20.00    -0.021 A 
HETATM    5  C7  UNL     1     -35.372  17.698   1.378  1.00 20.00     0.056 C 
HETATM    6  S10 UNL     1     -34.110  19.019  -0.689  1.00 20.00    -0.106 SA
ENDROOT
BRANCH   3   7
HETATM    7  C5  UNL     1     -33.726  15.860  -3.096  1.00 20.00     0.008 C 
HETATM    8  C6  UNL     1     -34.303  14.654  -3.222  1.00 20.00    -0.025 C 
BRANCH   8   9
HETATM    9  C8  UNL     1     -33.983  13.697  -4.336  1.00 20.00     0.042 C 
BRANCH   9  10
HETATM   10  C9  UNL     1     -34.953  13.813  -5.509  1.00 20.00     0.118 C 
HETATM   11 CL11 UNL     1     -34.333  14.910  -6.767  1.00 20.00    -0.130 Cl
ENDBRANCH   9  10
ENDBRANCH   8   9
ENDBRANCH   3   7
TORSDOF 3
ENDMDL
MODEL 4
REMARK VINA RESULT:      -4.4      1.483      1.827
REMARK  3 active torsions:
REMARK  status: ('A' for Active; 'I' for Inactive)
REMARK    1  A    between atoms: C3_3  and  C5_5 
REMARK    2  A    between atoms: C6_6  and  C8_8 
REMARK    3  A    between atoms: C8_8  and  C9_9 
ROOT
HETATM    1  C1  UNL     1     -34.297  14.945  -3.036  1.00 20.00     0.026 A 
HETATM    2  C2  UNL     1     -33.714  16.938  -4.079  1.00 20.00     0.061 A 
HETATM    3  C3  UNL     1     -33.933  16.313  -2.871  1.00 20.00    -0.029 A 
HETATM    4  C4  UNL     1     -34.343  14.577  -4.362  1.00 20.00    -0.021 A 
HETATM    5  C7  UNL     1     -34.676  13.258  -4.941  1.00 20.00     0.056 C 
HETATM    6  S10 UNL     1     -33.946  15.879  -5.403  1.00 20.00    -0.106 SA
ENDROOT
BRANCH   3   7
HETATM    7  C5  UNL     1     -33.800  17.003  -1.578  1.00 20.00     0.008 C 
HETATM    8  C6  UNL     1     -34.710  16.978  -0.592  1.00 20.00    -0.025 C 
BRANCH   8   9
HETATM    9  C8  UNL     1     -34.538  17.707   0.712  1.00 20.00     0.042 C 
BRANCH   9  10
HETATM   10  C9  UNL     1     -33.813  19.040   0.550  1.00 20.00     0.118 C 
HETATM   11 CL11 UNL     1     -32.077  18.892   0.921  1.00 20.00    -0.130 Cl
ENDBRANCH   9  10
ENDBRANCH   8   9
ENDBRANCH   3   7
TORSDOF 3
ENDMDL
MODEL 5
REMARK VINA RESULT:      -4.3      2.033      2.438
REMARK  3 active torsions:
REMARK  status: ('A' for Active; 'I' for Inactive)
REMARK    1  A    between atoms: C3_3  and  C5_5 
REMARK    2  A    between atoms: C6_6  and  C8_8 
REMARK    3  A    between atoms: C8_8  and  C9_9 
ROOT
HETATM    1  C1  UNL     1     -34.311  15.004  -2.990  1.00 20.00     0.026 A 
HETATM    2  C2  UNL     1     -33.689  16.929  -4.135  1.00 20.00     0.061 A 
HETATM    3  C3  UNL     1     -33.916  16.370  -2.897  1.00 20.00    -0.029 A 
HETATM    4  C4  UNL     1     -34.371  14.571  -4.296  1.00 20.00    -0.021 A 
HETATM    5  C7  UNL     1     -34.737  13.232  -4.806  1.00 20.00     0.056 C 
HETATM    6  S10 UNL     1     -33.951  15.809  -5.403  1.00 20.00    -0.106 SA
ENDROOT
BRANCH   3   7
HETATM    7  C5  UNL     1     -33.761  17.122  -1.640  1.00 20.00     0.008 C 
HETATM    8  C6  UNL     1     -34.571  17.020  -0.574  1.00 20.00    -0.025 C 
BRANCH   8   9
HETATM    9  C8  UNL     1     -34.381  17.815   0.687  1.00 20.00     0.042 C 
BRANCH   9  10
HETATM   10  C9  UNL     1     -35.573  17.709   1.634  1.00 20.00     0.118 C 
HETATM   11 CL11 UNL     1     -35.076  17.875   3.336  1.00 20.00    -0.130 Cl
ENDBRANCH   9  10
ENDBRANCH   8   9
ENDBRANCH   3   7
TORSDOF 3
ENDMDL
MODEL 6
REMARK VINA RESULT:      -4.3      3.621      6.050
REMARK  3 active torsions:
REMARK  status: ('A' for Active; 'I' for Inactive)
REMARK    1  A    between atoms: C3_3  and  C5_5 
REMARK    2  A    between atoms: C6_6  and  C8_8 
REMARK    3  A    between atoms: C8_8  and  C9_9 
ROOT
HETATM    1  C1  UNL     1     -34.905  16.926  -0.172  1.00 20.00     0.026 A 
HETATM    2  C2  UNL     1     -33.153  18.292  -0.854  1.00 20.00     0.061 A 
HETATM    3  C3  UNL     1     -33.958  17.228  -1.193  1.00 20.00    -0.029 A 
HETATM    4  C4  UNL     1     -34.786  17.771   0.910  1.00 20.00    -0.021 A 
HETATM    5  C7  UNL     1     -35.577  17.784   2.159  1.00 20.00     0.056 C 
HETATM    6  S10 UNL     1     -33.539  18.924   0.690  1.00 20.00    -0.106 SA
ENDROOT
BRANCH   3   7
HETATM    7  C5  UNL     1     -33.831  16.505  -2.469  1.00 20.00     0.008 C 
HETATM    8  C6  UNL     1     -34.247  15.248  -2.689  1.00 20.00    -0.025 C 
BRANCH   8   9
HETATM    9  C8  UNL     1     -34.090  14.543  -4.008  1.00 20.00     0.042 C 
BRANCH   9  10
HETATM   10  C9  UNL     1     -35.275  13.640  -4.338  1.00 20.00     0.118 C 
HETATM   11 CL11 UNL     1     -36.825  14.426  -3.951  1.00 20.00    -0.130 Cl
ENDBRANCH   9  10
ENDBRANCH   8   9
ENDBRANCH   3   7
TORSDOF 3
ENDMDL
MODEL 7
REMARK VINA RESULT:      -4.2      2.055      2.374
REMARK  3 active torsions:
REMARK  status: ('A' for Active; 'I' for Inactive)
REMARK    1  A    between atoms: C3_3  and  C5_5 
REMARK    2  A    between atoms: C6_6  and  C8_8 
REMARK    3  A    between atoms: C8_8  and  C9_9 
ROOT
HETATM    1  C1  UNL     1     -36.048  15.830  -2.945  1.00 20.00     0.026 A 
HETATM    2  C2  UNL     1     -34.134  14.565  -3.316  1.00 20.00     0.061 A 
HETATM    3  C3  UNL     1     -34.654  15.677  -2.692  1.00 20.00    -0.029 A 
HETATM    4  C4  UNL     1     -36.539  14.831  -3.755  1.00 20.00    -0.021 A 
HETATM    5  C7  UNL     1     -37.922  14.637  -4.243  1.00 20.00     0.056 C 
HETATM    6  S10 UNL     1     -35.323  13.712  -4.205  1.00 20.00    -0.106 SA
ENDROOT
BRANCH   3   7
HETATM    7  C5  UNL     1     -33.840  16.583  -1.864  1.00 20.00     0.008 C 
HETATM    8  C6  UNL     1     -34.299  17.309  -0.833  1.00 20.00    -0.025 C 
BRANCH   8   9
HETATM    9  C8  UNL     1     -33.434  18.231  -0.020  1.00 20.00     0.042 C 
BRANCH   9  10
HETATM   10  C9  UNL     1     -33.892  18.339   1.432  1.00 20.00     0.118 C 
HETATM   11 CL11 UNL     1     -35.439  17.498   1.696  1.00 20.00    -0.130 Cl
ENDBRANCH   9  10
ENDBRANCH   8   9
ENDBRANCH   3   7
TORSDOF 3
ENDMDL
MODEL 8
REMARK VINA RESULT:      -4.0      3.642      6.516
REMARK  3 active torsions:
REMARK  status: ('A' for Active; 'I' for Inactive)
REMARK    1  A    between atoms: C3_3  and  C5_5 
REMARK    2  A    between atoms: C6_6  and  C8_8 
REMARK    3  A    between atoms: C8_8  and  C9_9 
ROOT
HETATM    1  C1  UNL     1     -35.108  17.639   1.339  1.00 20.00     0.026 A 
HETATM    2  C2  UNL     1     -33.199  18.541   0.369  1.00 20.00     0.061 A 
HETATM    3  C3  UNL     1     -34.359  17.834   0.143  1.00 20.00    -0.029 A 
HETATM    4  C4  UNL     1     -34.491  18.203   2.434  1.00 20.00    -0.021 A 
HETATM    5  C7  UNL     1     -34.945  18.218   3.841  1.00 20.00     0.056 C 
HETATM    6  S10 UNL     1     -33.015  18.967   2.017  1.00 20.00    -0.106 SA
ENDROOT
BRANCH   3   7
HETATM    7  C5  UNL     1     -34.752  17.349  -1.190  1.00 20.00     0.008 C 
HETATM    8  C6  UNL     1     -34.713  16.067  -1.588  1.00 20.00    -0.025 C 
BRANCH   8   9
HETATM    9  C8  UNL     1     -35.116  15.616  -2.964  1.00 20.00     0.042 C 
BRANCH   9  10
HETATM   10  C9  UNL     1     -34.305  14.418  -3.452  1.00 20.00     0.118 C 
HETATM   11 CL11 UNL     1     -32.579  14.820  -3.623  1.00 20.00    -0.130 Cl
ENDBRANCH   9  10
ENDBRANCH   8   9
ENDBRANCH   3   7
TORSDOF 3
ENDMDL
MODEL 9
REMARK VINA RESULT:      -4.0     10.682     12.113
REMARK  3 active torsions:
REMARK  status: ('A' for Active; 'I' for Inactive)
REMARK    1  A    between atoms: C3_3  and  C5_5 
REMARK    2  A    between atoms: C6_6  and  C8_8 
REMARK    3  A    between atoms: C8_8  and  C9_9 
ROOT
HETATM    1  C1  UNL     1     -34.264   5.229   4.108  1.00 20.00     0.026 A 
HETATM    2  C2  UNL     1     -33.224   7.065   5.082  1.00 20.00     0.061 A 
HETATM    3  C3  UNL     1     -33.470   6.394   3.904  1.00 20.00    -0.029 A 
HETATM    4  C4  UNL     1     -34.592   5.052   5.434  1.00 20.00    -0.021 A 
HETATM    5  C7  UNL     1     -35.395   3.972   6.048  1.00 20.00     0.056 C 
HETATM    6  S10 UNL     1     -33.947   6.289   6.426  1.00 20.00    -0.106 SA
ENDROOT
BRANCH   3   7
HETATM    7  C5  UNL     1     -32.960   6.853   2.602  1.00 20.00     0.008 C 
HETATM    8  C6  UNL     1     -32.094   7.864   2.424  1.00 20.00    -0.025 C 
BRANCH   8   9
HETATM    9  C8  UNL     1     -31.606   8.306   1.073  1.00 20.00     0.042 C 
BRANCH   9  10
HETATM   10  C9  UNL     1     -32.125   9.687   0.683  1.00 20.00     0.118 C 
HETATM   11 CL11 UNL     1     -32.801  10.554   2.084  1.00 20.00    -0.130 Cl
ENDBRANCH   9  10
ENDBRANCH   8   9
ENDBRANCH   3   7
TORSDOF 3
ENDMDL
