MODEL 1
REMARK VINA RESULT:      -4.0      0.000      0.000
REMARK  2 active torsions:
REMARK  status: ('A' for Active; 'I' for Inactive)
REMARK    1  A    between atoms: C7_7  and  C8_8 
REMARK    2  A    between atoms: C8_8  and  S9_9 
ROOT
HETATM    1  C1  UNL     1     -34.659  13.325  -4.466  1.00 20.00     0.005 C 
HETATM    2  C2  UNL     1     -33.341  13.652  -3.747  1.00 20.00     0.005 C 
HETATM    3  C3  UNL     1     -34.035  15.568  -4.963  1.00 20.00     0.009 C 
HETATM    4  C4  UNL     1     -35.778  15.283  -3.369  1.00 20.00     0.010 C 
HETATM    5  C5  UNL     1     -35.275  14.713  -4.707  1.00 20.00    -0.014 C 
HETATM    6  C6  UNL     1     -33.384  15.187  -3.631  1.00 20.00    -0.009 C 
HETATM    7  C7  UNL     1     -34.471  15.565  -2.597  1.00 20.00    -0.001 C 
ENDROOT
BRANCH   7   8
HETATM    8  C8  UNL     1     -34.372  17.016  -2.138  1.00 20.00     0.075 C 
BRANCH   8   9
HETATM    9  S9  UNL     1     -34.698  17.138  -0.361  1.00 20.00    -0.182 SA
HETATM   10  H23 UNL     1     -35.323  18.323  -0.407  1.00 20.00     0.101 HD
ENDBRANCH   8   9
ENDBRANCH   7   8
TORSDOF 2
ENDMDL
MODEL 2
REMARK VINA RESULT:      -3.8     11.018     12.178
REMARK  2 active torsions:
REMARK  status: ('A' for Active; 'I' for Inactive)
REMARK    1  A    between atoms: C7_7  and  C8_8 
REMARK    2  A    between atoms: C8_8  and  S9_9 
ROOT
HETATM    1  C1  UNL     1     -40.615   4.668  -0.831  1.00 20.00     0.005 C 
HETATM    2  C2  UNL     1     -41.539   4.346  -2.015  1.00 20.00     0.005 C 
HETATM    3  C3  UNL     1     -42.754   5.636  -0.439  1.00 20.00     0.009 C 
HETATM    4  C4  UNL     1     -41.034   7.123  -1.135  1.00 20.00     0.010 C 
HETATM    5  C5  UNL     1     -41.270   5.914  -0.212  1.00 20.00    -0.014 C 
HETATM    6  C6  UNL     1     -42.588   5.472  -1.951  1.00 20.00    -0.009 C 
HETATM    7  C7  UNL     1     -41.904   6.796  -2.367  1.00 20.00    -0.001 C 
ENDROOT
BRANCH   7   8
HETATM    8  C8  UNL     1     -42.904   7.904  -2.679  1.00 20.00     0.075 C 
BRANCH   8   9
HETATM    9  S9  UNL     1     -42.723   8.451  -4.396  1.00 20.00    -0.182 SA
HETATM   10  H23 UNL     1     -42.664   9.762  -4.128  1.00 20.00     0.101 HD
ENDBRANCH   8   9
ENDBRANCH   7   8
TORSDOF 2
ENDMDL
MODEL 3
REMARK VINA RESULT:      -3.8     12.304     13.498
REMARK  2 active torsions:
REMARK  status: ('A' for Active; 'I' for Inactive)
REMARK    1  A    between atoms: C7_7  and  C8_8 
REMARK    2  A    between atoms: C8_8  and  S9_9 
ROOT
HETATM    1  C1  UNL     1     -41.217   6.954  -0.798  1.00 20.00     0.005 C 
HETATM    2  C2  UNL     1     -41.686   6.442  -2.168  1.00 20.00     0.005 C 
HETATM    3  C3  UNL     1     -40.594   4.669  -1.031  1.00 20.00     0.009 C 
HETATM    4  C4  UNL     1     -42.474   5.116   0.355  1.00 20.00     0.010 C 
HETATM    5  C5  UNL     1     -41.074   5.663   0.024  1.00 20.00    -0.014 C 
HETATM    6  C6  UNL     1     -41.792   4.921  -1.949  1.00 20.00    -0.009 C 
HETATM    7  C7  UNL     1     -42.999   4.648  -1.020  1.00 20.00    -0.001 C 
ENDROOT
BRANCH   7   8
HETATM    8  C8  UNL     1     -43.417   3.182  -1.010  1.00 20.00     0.075 C 
BRANCH   8   9
HETATM    9  S9  UNL     1     -43.249   2.468  -2.666  1.00 20.00    -0.182 SA
HETATM   10  H23 UNL     1     -42.193   1.691  -2.385  1.00 20.00     0.101 HD
ENDBRANCH   8   9
ENDBRANCH   7   8
TORSDOF 2
ENDMDL
MODEL 4
REMARK VINA RESULT:      -3.8      2.135      2.758
REMARK  2 active torsions:
REMARK  status: ('A' for Active; 'I' for Inactive)
REMARK    1  A    between atoms: C7_7  and  C8_8 
REMARK    2  A    between atoms: C8_8  and  S9_9 
ROOT
HETATM    1  C1  UNL     1     -34.397  13.177  -4.780  1.00 20.00     0.005 C 
HETATM    2  C2  UNL     1     -35.033  14.169  -5.765  1.00 20.00     0.005 C 
HETATM    3  C3  UNL     1     -35.480  14.908  -3.556  1.00 20.00     0.009 C 
HETATM    4  C4  UNL     1     -33.109  15.035  -3.693  1.00 20.00     0.010 C 
HETATM    5  C5  UNL     1     -34.244  14.013  -3.498  1.00 20.00    -0.014 C 
HETATM    6  C6  UNL     1     -35.128  15.464  -4.937  1.00 20.00    -0.009 C 
HETATM    7  C7  UNL     1     -33.697  16.015  -4.731  1.00 20.00    -0.001 C 
ENDROOT
BRANCH   7   8
HETATM    8  C8  UNL     1     -33.684  17.457  -4.236  1.00 20.00     0.075 C 
BRANCH   8   9
HETATM    9  S9  UNL     1     -33.680  18.604  -5.637  1.00 20.00    -0.182 SA
HETATM   10  H23 UNL     1     -34.837  19.209  -5.335  1.00 20.00     0.101 HD
ENDBRANCH   8   9
ENDBRANCH   7   8
TORSDOF 2
ENDMDL
MODEL 5
REMARK VINA RESULT:      -3.8     12.184     13.120
REMARK  2 active torsions:
REMARK  status: ('A' for Active; 'I' for Inactive)
REMARK    1  A    between atoms: C7_7  and  C8_8 
REMARK    2  A    between atoms: C8_8  and  S9_9 
ROOT
HETATM    1  C1  UNL     1     -35.410   5.052   6.679  1.00 20.00     0.005 C 
HETATM    2  C2  UNL     1     -34.325   6.138   6.630  1.00 20.00     0.005 C 
HETATM    3  C3  UNL     1     -33.522   4.217   5.494  1.00 20.00     0.009 C 
HETATM    4  C4  UNL     1     -35.389   4.876   4.177  1.00 20.00     0.010 C 
HETATM    5  C5  UNL     1     -35.047   4.148   5.489  1.00 20.00    -0.014 C 
HETATM    6  C6  UNL     1     -33.498   5.744   5.392  1.00 20.00    -0.009 C 
HETATM    7  C7  UNL     1     -34.351   6.018   4.131  1.00 20.00    -0.001 C 
ENDROOT
BRANCH   7   8
HETATM    8  C8  UNL     1     -33.529   6.000   2.847  1.00 20.00     0.075 C 
BRANCH   8   9
HETATM    9  S9  UNL     1     -32.136   7.150   2.974  1.00 20.00    -0.182 SA
HETATM   10  H23 UNL     1     -31.629   6.642   4.106  1.00 20.00     0.101 HD
ENDBRANCH   8   9
ENDBRANCH   7   8
TORSDOF 2
ENDMDL
MODEL 6
REMARK VINA RESULT:      -3.8      1.938      2.809
REMARK  2 active torsions:
REMARK  status: ('A' for Active; 'I' for Inactive)
REMARK    1  A    between atoms: C7_7  and  C8_8 
REMARK    2  A    between atoms: C8_8  and  S9_9 
ROOT
HETATM    1  C1  UNL     1     -33.445  13.727  -3.784  1.00 20.00     0.005 C 
HETATM    2  C2  UNL     1     -34.963  13.788  -4.010  1.00 20.00     0.005 C 
HETATM    3  C3  UNL     1     -34.326  15.629  -2.657  1.00 20.00     0.009 C 
HETATM    4  C4  UNL     1     -33.184  16.047  -4.701  1.00 20.00     0.010 C 
HETATM    5  C5  UNL     1     -33.089  15.181  -3.432  1.00 20.00    -0.014 C 
HETATM    6  C6  UNL     1     -35.283  15.280  -3.798  1.00 20.00    -0.009 C 
HETATM    7  C7  UNL     1     -34.700  16.075  -4.991  1.00 20.00    -0.001 C 
ENDROOT
BRANCH   7   8
HETATM    8  C8  UNL     1     -35.246  17.496  -5.077  1.00 20.00     0.075 C 
BRANCH   8   9
HETATM    9  S9  UNL     1     -33.885  18.691  -5.126  1.00 20.00    -0.182 SA
HETATM   10  H23 UNL     1     -34.573  19.672  -5.727  1.00 20.00     0.101 HD
ENDBRANCH   8   9
ENDBRANCH   7   8
TORSDOF 2
ENDMDL
MODEL 7
REMARK VINA RESULT:      -3.8      2.337      3.633
REMARK  2 active torsions:
REMARK  status: ('A' for Active; 'I' for Inactive)
REMARK    1  A    between atoms: C7_7  and  C8_8 
REMARK    2  A    between atoms: C8_8  and  S9_9 
ROOT
HETATM    1  C1  UNL     1     -33.510  17.134  -1.947  1.00 20.00     0.005 C 
HETATM    2  C2  UNL     1     -34.694  16.380  -1.323  1.00 20.00     0.005 C 
HETATM    3  C3  UNL     1     -35.279  17.008  -3.535  1.00 20.00     0.009 C 
HETATM    4  C4  UNL     1     -33.453  15.520  -3.866  1.00 20.00     0.010 C 
HETATM    5  C5  UNL     1     -33.754  16.973  -3.456  1.00 20.00    -0.014 C 
HETATM    6  C6  UNL     1     -35.449  15.845  -2.555  1.00 20.00    -0.009 C 
HETATM    7  C7  UNL     1     -34.596  14.726  -3.198  1.00 20.00    -0.001 C 
ENDROOT
BRANCH   7   8
HETATM    8  C8  UNL     1     -35.380  13.888  -4.202  1.00 20.00     0.075 C 
BRANCH   8   9
HETATM    9  S9  UNL     1     -34.790  14.205  -5.884  1.00 20.00    -0.182 SA
HETATM   10  H23 UNL     1     -33.654  13.501  -5.777  1.00 20.00     0.101 HD
ENDBRANCH   8   9
ENDBRANCH   7   8
TORSDOF 2
ENDMDL
MODEL 8
REMARK VINA RESULT:      -3.7      2.793      3.739
REMARK  2 active torsions:
REMARK  status: ('A' for Active; 'I' for Inactive)
REMARK    1  A    between atoms: C7_7  and  C8_8 
REMARK    2  A    between atoms: C8_8  and  S9_9 
ROOT
HETATM    1  C1  UNL     1     -34.214  15.125  -3.027  1.00 20.00     0.005 C 
HETATM    2  C2  UNL     1     -33.386  14.106  -3.825  1.00 20.00     0.005 C 
HETATM    3  C3  UNL     1     -35.687  13.616  -4.133  1.00 20.00     0.009 C 
HETATM    4  C4  UNL     1     -35.465  15.776  -5.101  1.00 20.00     0.010 C 
HETATM    5  C5  UNL     1     -35.581  15.085  -3.731  1.00 20.00    -0.014 C 
HETATM    6  C6  UNL     1     -34.371  13.638  -4.913  1.00 20.00    -0.009 C 
HETATM    7  C7  UNL     1     -34.581  14.802  -5.910  1.00 20.00    -0.001 C 
ENDROOT
BRANCH   7   8
HETATM    8  C8  UNL     1     -35.249  14.357  -7.206  1.00 20.00     0.075 C 
BRANCH   8   9
HETATM    9  S9  UNL     1     -36.818  15.230  -7.439  1.00 20.00    -0.182 SA
HETATM   10  H23 UNL     1     -37.526  14.494  -6.570  1.00 20.00     0.101 HD
ENDBRANCH   8   9
ENDBRANCH   7   8
TORSDOF 2
ENDMDL
MODEL 9
REMARK VINA RESULT:      -3.7      2.720      3.575
REMARK  2 active torsions:
REMARK  status: ('A' for Active; 'I' for Inactive)
REMARK    1  A    between atoms: C7_7  and  C8_8 
REMARK    2  A    between atoms: C8_8  and  S9_9 
ROOT
HETATM    1  C1  UNL     1     -34.786  15.639  -2.457  1.00 20.00     0.005 C 
HETATM    2  C2  UNL     1     -33.625  16.451  -3.052  1.00 20.00     0.005 C 
HETATM    3  C3  UNL     1     -33.533  14.248  -3.927  1.00 20.00     0.009 C 
HETATM    4  C4  UNL     1     -35.605  15.067  -4.757  1.00 20.00     0.010 C 
HETATM    5  C5  UNL     1     -34.969  14.502  -3.475  1.00 20.00    -0.014 C 
HETATM    6  C6  UNL     1     -33.314  15.700  -4.360  1.00 20.00    -0.009 C 
HETATM    7  C7  UNL     1     -34.479  15.943  -5.348  1.00 20.00    -0.001 C 
ENDROOT
BRANCH   7   8
HETATM    8  C8  UNL     1     -34.132  15.548  -6.780  1.00 20.00     0.075 C 
BRANCH   8   9
HETATM    9  S9  UNL     1     -35.463  14.553  -7.499  1.00 20.00    -0.182 SA
HETATM   10  H23 UNL     1     -35.492  15.180  -8.683  1.00 20.00     0.101 HD
ENDBRANCH   8   9
ENDBRANCH   7   8
TORSDOF 2
ENDMDL
