MODEL 1
REMARK VINA RESULT:      -5.0      0.000      0.000
REMARK  3 active torsions:
REMARK  status: ('A' for Active; 'I' for Inactive)
REMARK    1  A    between atoms: C1_1  and  C10_10 
REMARK    2  A    between atoms: C8_8  and  C11_11 
REMARK    3  A    between atoms: C10_10  and  C11_11 
ROOT
HETATM    1  C2  UNL     1     -35.835  17.977  -1.019  1.00 20.00     0.005 C 
HETATM    2  C3  UNL     1     -34.796  17.062  -0.352  1.00 20.00     0.005 C 
HETATM    3  C4  UNL     1     -33.725  18.288  -2.076  1.00 20.00     0.009 C 
HETATM    4  C5  UNL     1     -35.318  16.979  -3.261  1.00 20.00     0.009 C 
HETATM    5  C6  UNL     1     -35.217  18.252  -2.400  1.00 20.00    -0.014 C 
HETATM    6  C7  UNL     1     -33.730  16.892  -1.451  1.00 20.00    -0.010 C 
HETATM    7  C8  UNL     1     -34.328  16.014  -2.576  1.00 20.00    -0.010 C 
ENDROOT
BRANCH   7   8
HETATM    8  C11 UNL     1     -33.271  15.488  -3.541  1.00 20.00     0.012 C 
BRANCH   8   9
HETATM    9  C10 UNL     1     -33.350  13.973  -3.678  1.00 20.00     0.078 C 
BRANCH   9  10
HETATM   10  C1  UNL     1     -34.426  13.536  -4.656  1.00 20.00     0.123 C 
HETATM   11  C9  UNL     1     -34.566  14.370  -5.903  1.00 20.00     0.091 C 
HETATM   12  O12 UNL     1     -35.152  12.563  -4.461  1.00 20.00    -0.298 OA
ENDBRANCH   9  10
ENDBRANCH   8   9
ENDBRANCH   7   8
TORSDOF 3
ENDMDL
MODEL 2
REMARK VINA RESULT:      -5.0     10.431     11.775
REMARK  3 active torsions:
REMARK  status: ('A' for Active; 'I' for Inactive)
REMARK    1  A    between atoms: C1_1  and  C10_10 
REMARK    2  A    between atoms: C8_8  and  C11_11 
REMARK    3  A    between atoms: C10_10  and  C11_11 
ROOT
HETATM    1  C2  UNL     1     -35.126   4.384   4.878  1.00 20.00     0.005 C 
HETATM    2  C3  UNL     1     -34.273   5.142   5.907  1.00 20.00     0.005 C 
HETATM    3  C4  UNL     1     -35.139   6.704   4.347  1.00 20.00     0.009 C 
HETATM    4  C5  UNL     1     -33.748   5.320   3.003  1.00 20.00     0.009 C 
HETATM    5  C6  UNL     1     -35.136   5.335   3.670  1.00 20.00    -0.014 C 
HETATM    6  C7  UNL     1     -33.866   6.418   5.145  1.00 20.00    -0.010 C 
HETATM    7  C8  UNL     1     -32.852   6.023   4.045  1.00 20.00    -0.010 C 
ENDROOT
BRANCH   7   8
HETATM    8  C11 UNL     1     -32.117   7.224   3.460  1.00 20.00     0.012 C 
BRANCH   8   9
HETATM    9  C10 UNL     1     -32.194   7.234   1.939  1.00 20.00     0.078 C 
BRANCH   9  10
HETATM   10  C1  UNL     1     -31.945   8.615   1.357  1.00 20.00     0.123 C 
HETATM   11  C9  UNL     1     -32.694   9.751   2.002  1.00 20.00     0.091 C 
HETATM   12  O12 UNL     1     -31.182   8.814   0.413  1.00 20.00    -0.298 OA
ENDBRANCH   9  10
ENDBRANCH   8   9
ENDBRANCH   7   8
TORSDOF 3
ENDMDL
MODEL 3
REMARK VINA RESULT:      -5.0      1.153      1.763
REMARK  3 active torsions:
REMARK  status: ('A' for Active; 'I' for Inactive)
REMARK    1  A    between atoms: C1_1  and  C10_10 
REMARK    2  A    between atoms: C8_8  and  C11_11 
REMARK    3  A    between atoms: C10_10  and  C11_11 
ROOT
HETATM    1  C2  UNL     1     -33.945  18.241   0.400  1.00 20.00     0.005 C 
HETATM    2  C3  UNL     1     -32.943  18.657  -0.688  1.00 20.00     0.005 C 
HETATM    3  C4  UNL     1     -35.111  18.577  -1.648  1.00 20.00     0.009 C 
HETATM    4  C5  UNL     1     -34.725  16.319  -1.010  1.00 20.00     0.009 C 
HETATM    5  C6  UNL     1     -35.125  17.680  -0.412  1.00 20.00    -0.014 C 
HETATM    6  C7  UNL     1     -33.658  18.244  -1.990  1.00 20.00    -0.010 C 
HETATM    7  C8  UNL     1     -33.668  16.699  -2.069  1.00 20.00    -0.010 C 
ENDROOT
BRANCH   7   8
HETATM    8  C11 UNL     1     -34.028  16.180  -3.457  1.00 20.00     0.012 C 
BRANCH   8   9
HETATM    9  C10 UNL     1     -33.762  14.685  -3.576  1.00 20.00     0.078 C 
BRANCH   9  10
HETATM   10  C1  UNL     1     -35.007  13.905  -3.963  1.00 20.00     0.123 C 
HETATM   11  C9  UNL     1     -36.309  14.660  -3.896  1.00 20.00     0.091 C 
HETATM   12  O12 UNL     1     -34.975  12.727  -4.312  1.00 20.00    -0.298 OA
ENDBRANCH   9  10
ENDBRANCH   8   9
ENDBRANCH   7   8
TORSDOF 3
ENDMDL
MODEL 4
REMARK VINA RESULT:      -4.9      1.101      1.766
REMARK  3 active torsions:
REMARK  status: ('A' for Active; 'I' for Inactive)
REMARK    1  A    between atoms: C1_1  and  C10_10 
REMARK    2  A    between atoms: C8_8  and  C11_11 
REMARK    3  A    between atoms: C10_10  and  C11_11 
ROOT
HETATM    1  C2  UNL     1     -33.947  17.908  -1.133  1.00 20.00     0.005 C 
HETATM    2  C3  UNL     1     -34.684  16.610  -0.768  1.00 20.00     0.005 C 
HETATM    3  C4  UNL     1     -33.490  16.258  -2.787  1.00 20.00     0.009 C 
HETATM    4  C5  UNL     1     -35.060  17.944  -3.380  1.00 20.00     0.009 C 
HETATM    5  C6  UNL     1     -33.719  17.762  -2.646  1.00 20.00    -0.014 C 
HETATM    6  C7  UNL     1     -34.823  15.899  -2.128  1.00 20.00    -0.010 C 
HETATM    7  C8  UNL     1     -35.851  16.680  -2.981  1.00 20.00    -0.010 C 
ENDROOT
BRANCH   7   8
HETATM    8  C11 UNL     1     -36.333  15.892  -4.195  1.00 20.00     0.012 C 
BRANCH   8   9
HETATM    9  C10 UNL     1     -36.265  14.391  -3.944  1.00 20.00     0.078 C 
BRANCH   9  10
HETATM   10  C1  UNL     1     -35.243  13.702  -4.833  1.00 20.00     0.123 C 
HETATM   11  C9  UNL     1     -34.755  14.493  -6.018  1.00 20.00     0.091 C 
HETATM   12  O12 UNL     1     -34.827  12.566  -4.616  1.00 20.00    -0.298 OA
ENDBRANCH   9  10
ENDBRANCH   8   9
ENDBRANCH   7   8
TORSDOF 3
ENDMDL
MODEL 5
REMARK VINA RESULT:      -4.9      2.507      4.837
REMARK  3 active torsions:
REMARK  status: ('A' for Active; 'I' for Inactive)
REMARK    1  A    between atoms: C1_1  and  C10_10 
REMARK    2  A    between atoms: C8_8  and  C11_11 
REMARK    3  A    between atoms: C10_10  and  C11_11 
ROOT
HETATM    1  C2  UNL     1     -34.414  13.947  -5.395  1.00 20.00     0.005 C 
HETATM    2  C3  UNL     1     -34.938  13.582  -3.997  1.00 20.00     0.005 C 
HETATM    3  C4  UNL     1     -35.633  15.791  -4.512  1.00 20.00     0.009 C 
HETATM    4  C5  UNL     1     -33.263  15.973  -4.468  1.00 20.00     0.009 C 
HETATM    5  C6  UNL     1     -34.409  15.484  -5.372  1.00 20.00    -0.014 C 
HETATM    6  C7  UNL     1     -35.130  14.959  -3.331  1.00 20.00    -0.010 C 
HETATM    7  C8  UNL     1     -33.732  15.564  -3.056  1.00 20.00    -0.010 C 
ENDROOT
BRANCH   7   8
HETATM    8  C11 UNL     1     -33.779  16.748  -2.096  1.00 20.00     0.012 C 
BRANCH   8   9
HETATM    9  C10 UNL     1     -34.770  16.506  -0.965  1.00 20.00     0.078 C 
BRANCH   9  10
HETATM   10  C1  UNL     1     -34.565  17.461   0.198  1.00 20.00     0.123 C 
HETATM   11  C9  UNL     1     -33.385  18.392   0.091  1.00 20.00     0.091 C 
HETATM   12  O12 UNL     1     -35.306  17.489   1.179  1.00 20.00    -0.298 OA
ENDBRANCH   9  10
ENDBRANCH   8   9
ENDBRANCH   7   8
TORSDOF 3
ENDMDL
MODEL 6
REMARK VINA RESULT:      -4.8      2.469      4.948
REMARK  3 active torsions:
REMARK  status: ('A' for Active; 'I' for Inactive)
REMARK    1  A    between atoms: C1_1  and  C10_10 
REMARK    2  A    between atoms: C8_8  and  C11_11 
REMARK    3  A    between atoms: C10_10  and  C11_11 
ROOT
HETATM    1  C2  UNL     1     -35.030  14.375  -5.457  1.00 20.00     0.005 C 
HETATM    2  C3  UNL     1     -33.971  15.470  -5.657  1.00 20.00     0.005 C 
HETATM    3  C4  UNL     1     -33.348  14.150  -3.787  1.00 20.00     0.009 C 
HETATM    4  C5  UNL     1     -35.402  15.126  -3.093  1.00 20.00     0.009 C 
HETATM    5  C6  UNL     1     -34.855  13.991  -3.978  1.00 20.00    -0.014 C 
HETATM    6  C7  UNL     1     -33.347  15.606  -4.254  1.00 20.00    -0.010 C 
HETATM    7  C8  UNL     1     -34.389  16.267  -3.321  1.00 20.00    -0.010 C 
ENDROOT
BRANCH   7   8
HETATM    8  C11 UNL     1     -33.780  16.771  -2.017  1.00 20.00     0.012 C 
BRANCH   8   9
HETATM    9  C10 UNL     1     -34.731  16.563  -0.845  1.00 20.00     0.078 C 
BRANCH   9  10
HETATM   10  C1  UNL     1     -34.488  17.555   0.279  1.00 20.00     0.123 C 
HETATM   11  C9  UNL     1     -33.316  18.485   0.101  1.00 20.00     0.091 C 
HETATM   12  O12 UNL     1     -35.193  17.611   1.285  1.00 20.00    -0.298 OA
ENDBRANCH   9  10
ENDBRANCH   8   9
ENDBRANCH   7   8
TORSDOF 3
ENDMDL
MODEL 7
REMARK VINA RESULT:      -4.7     12.364     14.052
REMARK  3 active torsions:
REMARK  status: ('A' for Active; 'I' for Inactive)
REMARK    1  A    between atoms: C1_1  and  C10_10 
REMARK    2  A    between atoms: C8_8  and  C11_11 
REMARK    3  A    between atoms: C10_10  and  C11_11 
ROOT
HETATM    1  C2  UNL     1     -40.950   7.072  -0.858  1.00 20.00     0.005 C 
HETATM    2  C3  UNL     1     -42.166   7.096  -1.798  1.00 20.00     0.005 C 
HETATM    3  C4  UNL     1     -42.596   5.555  -0.047  1.00 20.00     0.009 C 
HETATM    4  C5  UNL     1     -40.729   4.592  -1.161  1.00 20.00     0.009 C 
HETATM    5  C6  UNL     1     -41.081   5.707  -0.160  1.00 20.00    -0.014 C 
HETATM    6  C7  UNL     1     -42.820   5.723  -1.551  1.00 20.00    -0.010 C 
HETATM    7  C8  UNL     1     -41.906   4.633  -2.159  1.00 20.00    -0.010 C 
ENDROOT
BRANCH   7   8
HETATM    8  C11 UNL     1     -42.602   3.282  -2.289  1.00 20.00     0.012 C 
BRANCH   8   9
HETATM    9  C10 UNL     1     -43.291   3.142  -3.640  1.00 20.00     0.078 C 
BRANCH   9  10
HETATM   10  C1  UNL     1     -42.589   2.147  -4.547  1.00 20.00     0.123 C 
HETATM   11  C9  UNL     1     -41.503   1.320  -3.909  1.00 20.00     0.091 C 
HETATM   12  O12 UNL     1     -42.873   2.008  -5.735  1.00 20.00    -0.298 OA
ENDBRANCH   9  10
ENDBRANCH   8   9
ENDBRANCH   7   8
TORSDOF 3
ENDMDL
MODEL 8
REMARK VINA RESULT:      -4.6      0.923      1.833
REMARK  3 active torsions:
REMARK  status: ('A' for Active; 'I' for Inactive)
REMARK    1  A    between atoms: C1_1  and  C10_10 
REMARK    2  A    between atoms: C8_8  and  C11_11 
REMARK    3  A    between atoms: C10_10  and  C11_11 
ROOT
HETATM    1  C2  UNL     1     -33.691  18.889  -1.233  1.00 20.00     0.005 C 
HETATM    2  C3  UNL     1     -35.183  18.997  -1.585  1.00 20.00     0.005 C 
HETATM    3  C4  UNL     1     -34.832  16.973  -0.400  1.00 20.00     0.009 C 
HETATM    4  C5  UNL     1     -33.553  16.663  -2.380  1.00 20.00     0.009 C 
HETATM    5  C6  UNL     1     -33.496  17.378  -1.019  1.00 20.00    -0.014 C 
HETATM    6  C7  UNL     1     -35.649  17.529  -1.568  1.00 20.00    -0.010 C 
HETATM    7  C8  UNL     1     -35.033  16.810  -2.792  1.00 20.00    -0.010 C 
ENDROOT
BRANCH   7   8
HETATM    8  C11 UNL     1     -35.690  15.464  -3.080  1.00 20.00     0.012 C 
BRANCH   8   9
HETATM    9  C10 UNL     1     -34.649  14.378  -3.316  1.00 20.00     0.078 C 
BRANCH   9  10
HETATM   10  C1  UNL     1     -34.800  13.717  -4.675  1.00 20.00     0.123 C 
HETATM   11  C9  UNL     1     -34.996  14.646  -5.845  1.00 20.00     0.091 C 
HETATM   12  O12 UNL     1     -34.770  12.498  -4.833  1.00 20.00    -0.298 OA
ENDBRANCH   9  10
ENDBRANCH   8   9
ENDBRANCH   7   8
TORSDOF 3
ENDMDL
MODEL 9
REMARK VINA RESULT:      -4.4      2.416      4.375
REMARK  3 active torsions:
REMARK  status: ('A' for Active; 'I' for Inactive)
REMARK    1  A    between atoms: C1_1  and  C10_10 
REMARK    2  A    between atoms: C8_8  and  C11_11 
REMARK    3  A    between atoms: C10_10  and  C11_11 
ROOT
HETATM    1  C2  UNL     1     -33.302  13.705  -3.703  1.00 20.00     0.005 C 
HETATM    2  C3  UNL     1     -34.652  13.381  -4.361  1.00 20.00     0.005 C 
HETATM    3  C4  UNL     1     -34.061  15.611  -4.910  1.00 20.00     0.009 C 
HETATM    4  C5  UNL     1     -34.308  15.690  -2.547  1.00 20.00     0.009 C 
HETATM    5  C6  UNL     1     -33.313  15.242  -3.631  1.00 20.00    -0.014 C 
HETATM    6  C7  UNL     1     -35.288  14.772  -4.548  1.00 20.00    -0.010 C 
HETATM    7  C8  UNL     1     -35.678  15.319  -3.154  1.00 20.00    -0.010 C 
ENDROOT
BRANCH   7   8
HETATM    8  C11 UNL     1     -36.621  16.515  -3.230  1.00 20.00     0.012 C 
BRANCH   8   9
HETATM    9  C10 UNL     1     -37.749  16.269  -4.223  1.00 20.00     0.078 C 
BRANCH   9  10
HETATM   10  C1  UNL     1     -38.795  15.309  -3.684  1.00 20.00     0.123 C 
HETATM   11  C9  UNL     1     -39.859  15.914  -2.806  1.00 20.00     0.091 C 
HETATM   12  O12 UNL     1     -38.792  14.106  -3.937  1.00 20.00    -0.298 OA
ENDBRANCH   9  10
ENDBRANCH   8   9
ENDBRANCH   7   8
TORSDOF 3
ENDMDL
