MODEL 1
REMARK VINA RESULT:      -3.9      0.000      0.000
REMARK  4 active torsions:
REMARK  status: ('A' for Active; 'I' for Inactive)
REMARK    1  A    between atoms: C6_6  and  C7_7 
REMARK    2  A    between atoms: C6_6  and  O10_10 
REMARK    3  A    between atoms: C7_7  and  C8_8 
REMARK    4  A    between atoms: C7_7  and  O9_9 
ROOT
HETATM    1  C7  UNL     1     -33.565  15.494  -4.139  1.00 20.00     0.154 C 
ENDROOT
BRANCH   1   2
HETATM    2  C6  UNL     1     -34.106  16.681  -3.313  1.00 20.00     0.146 C 
HETATM    3  C1  UNL     1     -33.753  18.035  -3.925  1.00 20.00     0.042 C 
BRANCH   2   4
HETATM    4  O10 UNL     1     -33.595  16.661  -1.985  1.00 20.00    -0.388 OA
HETATM    5  C5  UNL     1     -34.640  16.563  -1.028  1.00 20.00     0.202 C 
ENDBRANCH   2   4
ENDBRANCH   1   2
BRANCH   1   6
HETATM    6  C8  UNL     1     -34.605  14.702  -4.998  1.00 20.00    -0.023 C 
HETATM    7  C2  UNL     1     -36.027  15.145  -4.580  1.00 20.00     0.017 C 
HETATM    8  C3  UNL     1     -34.433  15.019  -6.496  1.00 20.00     0.017 C 
HETATM    9  C4  UNL     1     -34.519  13.178  -4.800  1.00 20.00     0.017 C 
ENDBRANCH   1   6
BRANCH   1  10
HETATM   10  O9  UNL     1     -32.515  15.952  -4.995  1.00 20.00    -0.392 OA
HETATM   11  H28 UNL     1     -32.447  16.907  -4.851  1.00 20.00     0.210 HD
ENDBRANCH   1  10
TORSDOF 4
ENDMDL
MODEL 2
REMARK VINA RESULT:      -3.9      0.055      1.359
REMARK  4 active torsions:
REMARK  status: ('A' for Active; 'I' for Inactive)
REMARK    1  A    between atoms: C6_6  and  C7_7 
REMARK    2  A    between atoms: C6_6  and  O10_10 
REMARK    3  A    between atoms: C7_7  and  C8_8 
REMARK    4  A    between atoms: C7_7  and  O9_9 
ROOT
HETATM    1  C7  UNL     1     -33.590  15.502  -4.162  1.00 20.00     0.154 C 
ENDROOT
BRANCH   1   2
HETATM    2  C6  UNL     1     -34.115  16.695  -3.334  1.00 20.00     0.146 C 
HETATM    3  C1  UNL     1     -33.749  18.045  -3.947  1.00 20.00     0.042 C 
BRANCH   2   4
HETATM    4  O10 UNL     1     -33.599  16.669  -2.008  1.00 20.00    -0.388 OA
HETATM    5  C5  UNL     1     -34.640  16.541  -1.049  1.00 20.00     0.202 C 
ENDBRANCH   2   4
ENDBRANCH   1   2
BRANCH   1   6
HETATM    6  C8  UNL     1     -34.632  14.748  -5.051  1.00 20.00    -0.023 C 
HETATM    7  C2  UNL     1     -34.489  13.228  -4.796  1.00 20.00     0.017 C 
HETATM    8  C3  UNL     1     -36.069  15.156  -4.677  1.00 20.00     0.017 C 
HETATM    9  C4  UNL     1     -34.425  14.984  -6.558  1.00 20.00     0.017 C 
ENDBRANCH   1   6
BRANCH   1  10
HETATM   10  O9  UNL     1     -32.510  15.941  -4.992  1.00 20.00    -0.392 OA
HETATM   11  H28 UNL     1     -32.213  16.785  -4.623  1.00 20.00     0.210 HD
ENDBRANCH   1  10
TORSDOF 4
ENDMDL
MODEL 3
REMARK VINA RESULT:      -3.8      1.453      2.511
REMARK  4 active torsions:
REMARK  status: ('A' for Active; 'I' for Inactive)
REMARK    1  A    between atoms: C6_6  and  C7_7 
REMARK    2  A    between atoms: C6_6  and  O10_10 
REMARK    3  A    between atoms: C7_7  and  C8_8 
REMARK    4  A    between atoms: C7_7  and  O9_9 
ROOT
HETATM    1  C7  UNL     1     -34.935  15.886  -3.287  1.00 20.00     0.154 C 
ENDROOT
BRANCH   1   2
HETATM    2  C6  UNL     1     -34.012  16.495  -2.209  1.00 20.00     0.146 C 
HETATM    3  C1  UNL     1     -34.688  16.600  -0.843  1.00 20.00     0.042 C 
BRANCH   2   4
HETATM    4  O10 UNL     1     -33.579  17.799  -2.577  1.00 20.00    -0.388 OA
HETATM    5  C5  UNL     1     -34.470  18.399  -3.508  1.00 20.00     0.202 C 
ENDBRANCH   2   4
ENDBRANCH   1   2
BRANCH   1   6
HETATM    6  C8  UNL     1     -34.336  14.734  -4.158  1.00 20.00    -0.023 C 
HETATM    7  C2  UNL     1     -34.245  15.222  -5.623  1.00 20.00     0.017 C 
HETATM    8  C3  UNL     1     -32.912  14.376  -3.690  1.00 20.00     0.017 C 
HETATM    9  C4  UNL     1     -35.197  13.458  -4.148  1.00 20.00     0.017 C 
ENDBRANCH   1   6
BRANCH   1  10
HETATM   10  O9  UNL     1     -36.138  15.418  -2.670  1.00 20.00    -0.392 OA
HETATM   11  H28 UNL     1     -36.438  16.131  -2.088  1.00 20.00     0.210 HD
ENDBRANCH   1  10
TORSDOF 4
ENDMDL
MODEL 4
REMARK VINA RESULT:      -3.7      1.475      2.689
REMARK  4 active torsions:
REMARK  status: ('A' for Active; 'I' for Inactive)
REMARK    1  A    between atoms: C6_6  and  C7_7 
REMARK    2  A    between atoms: C6_6  and  O10_10 
REMARK    3  A    between atoms: C7_7  and  C8_8 
REMARK    4  A    between atoms: C7_7  and  O9_9 
ROOT
HETATM    1  C7  UNL     1     -34.939  15.984  -3.254  1.00 20.00     0.154 C 
ENDROOT
BRANCH   1   2
HETATM    2  C6  UNL     1     -34.002  16.563  -2.172  1.00 20.00     0.146 C 
HETATM    3  C1  UNL     1     -34.658  16.625  -0.794  1.00 20.00     0.042 C 
BRANCH   2   4
HETATM    4  O10 UNL     1     -33.578  17.879  -2.508  1.00 20.00    -0.388 OA
HETATM    5  C5  UNL     1     -34.461  18.488  -3.439  1.00 20.00     0.202 C 
ENDBRANCH   2   4
ENDBRANCH   1   2
BRANCH   1   6
HETATM    6  C8  UNL     1     -34.347  14.866  -4.174  1.00 20.00    -0.023 C 
HETATM    7  C2  UNL     1     -32.920  14.529  -3.682  1.00 20.00     0.017 C 
HETATM    8  C3  UNL     1     -35.192  13.582  -4.090  1.00 20.00     0.017 C 
HETATM    9  C4  UNL     1     -34.237  15.292  -5.650  1.00 20.00     0.017 C 
ENDBRANCH   1   6
BRANCH   1  10
HETATM   10  O9  UNL     1     -36.128  15.486  -2.633  1.00 20.00    -0.392 OA
HETATM   11  H28 UNL     1     -35.848  14.759  -2.058  1.00 20.00     0.210 HD
ENDBRANCH   1  10
TORSDOF 4
ENDMDL
MODEL 5
REMARK VINA RESULT:      -3.7      1.537      3.059
REMARK  4 active torsions:
REMARK  status: ('A' for Active; 'I' for Inactive)
REMARK    1  A    between atoms: C6_6  and  C7_7 
REMARK    2  A    between atoms: C6_6  and  O10_10 
REMARK    3  A    between atoms: C7_7  and  C8_8 
REMARK    4  A    between atoms: C7_7  and  O9_9 
ROOT
HETATM    1  C7  UNL     1     -33.646  16.430  -4.421  1.00 20.00     0.154 C 
ENDROOT
BRANCH   1   2
HETATM    2  C6  UNL     1     -34.299  16.833  -5.761  1.00 20.00     0.146 C 
HETATM    3  C1  UNL     1     -34.128  15.771  -6.845  1.00 20.00     0.042 C 
BRANCH   2   4
HETATM    4  O10 UNL     1     -33.751  18.049  -6.257  1.00 20.00    -0.388 OA
HETATM    5  C5  UNL     1     -33.596  19.009  -5.221  1.00 20.00     0.202 C 
ENDBRANCH   2   4
ENDBRANCH   1   2
BRANCH   1   6
HETATM    6  C8  UNL     1     -34.529  15.611  -3.425  1.00 20.00    -0.023 C 
HETATM    7  C2  UNL     1     -34.259  16.125  -1.991  1.00 20.00     0.017 C 
HETATM    8  C3  UNL     1     -36.026  15.813  -3.725  1.00 20.00     0.017 C 
HETATM    9  C4  UNL     1     -34.219  14.102  -3.440  1.00 20.00     0.017 C 
ENDBRANCH   1   6
BRANCH   1  10
HETATM   10  O9  UNL     1     -32.446  15.695  -4.683  1.00 20.00    -0.392 OA
HETATM   11  H28 UNL     1     -31.780  16.349  -4.939  1.00 20.00     0.210 HD
ENDBRANCH   1  10
TORSDOF 4
ENDMDL
MODEL 6
REMARK VINA RESULT:      -3.7      1.663      2.812
REMARK  4 active torsions:
REMARK  status: ('A' for Active; 'I' for Inactive)
REMARK    1  A    between atoms: C6_6  and  C7_7 
REMARK    2  A    between atoms: C6_6  and  O10_10 
REMARK    3  A    between atoms: C7_7  and  C8_8 
REMARK    4  A    between atoms: C7_7  and  O9_9 
ROOT
HETATM    1  C7  UNL     1     -33.885  15.672  -5.040  1.00 20.00     0.154 C 
ENDROOT
BRANCH   1   2
HETATM    2  C6  UNL     1     -34.542  15.434  -3.662  1.00 20.00     0.146 C 
HETATM    3  C1  UNL     1     -33.794  16.127  -2.525  1.00 20.00     0.042 C 
BRANCH   2   4
HETATM    4  O10 UNL     1     -34.606  14.047  -3.354  1.00 20.00    -0.388 OA
HETATM    5  C5  UNL     1     -34.946  13.276  -4.499  1.00 20.00     0.202 C 
ENDBRANCH   2   4
ENDBRANCH   1   2
BRANCH   1   6
HETATM    6  C8  UNL     1     -34.493  16.811  -5.922  1.00 20.00    -0.023 C 
HETATM    7  C2  UNL     1     -35.928  17.105  -5.426  1.00 20.00     0.017 C 
HETATM    8  C3  UNL     1     -33.671  18.106  -5.788  1.00 20.00     0.017 C 
HETATM    9  C4  UNL     1     -34.589  16.436  -7.413  1.00 20.00     0.017 C 
ENDBRANCH   1   6
BRANCH   1  10
HETATM   10  O9  UNL     1     -32.489  15.924  -4.860  1.00 20.00    -0.392 OA
HETATM   11  H28 UNL     1     -32.214  15.394  -4.098  1.00 20.00     0.210 HD
ENDBRANCH   1  10
TORSDOF 4
ENDMDL
MODEL 7
REMARK VINA RESULT:      -3.7      1.735      3.345
REMARK  4 active torsions:
REMARK  status: ('A' for Active; 'I' for Inactive)
REMARK    1  A    between atoms: C6_6  and  C7_7 
REMARK    2  A    between atoms: C6_6  and  O10_10 
REMARK    3  A    between atoms: C7_7  and  C8_8 
REMARK    4  A    between atoms: C7_7  and  O9_9 
ROOT
HETATM    1  C7  UNL     1     -34.105  16.014  -4.857  1.00 20.00     0.154 C 
ENDROOT
BRANCH   1   2
HETATM    2  C6  UNL     1     -35.067  15.641  -6.006  1.00 20.00     0.146 C 
HETATM    3  C1  UNL     1     -34.338  15.111  -7.238  1.00 20.00     0.042 C 
BRANCH   2   4
HETATM    4  O10 UNL     1     -35.844  16.762  -6.412  1.00 20.00    -0.388 OA
HETATM    5  C5  UNL     1     -36.248  17.546  -5.297  1.00 20.00     0.202 C 
ENDBRANCH   2   4
ENDBRANCH   1   2
BRANCH   1   6
HETATM    6  C8  UNL     1     -34.034  15.024  -3.649  1.00 20.00    -0.023 C 
HETATM    7  C2  UNL     1     -32.572  14.541  -3.495  1.00 20.00     0.017 C 
HETATM    8  C3  UNL     1     -34.440  15.725  -2.339  1.00 20.00     0.017 C 
HETATM    9  C4  UNL     1     -34.915  13.775  -3.837  1.00 20.00     0.017 C 
ENDBRANCH   1   6
BRANCH   1  10
HETATM   10  O9  UNL     1     -32.787  16.193  -5.383  1.00 20.00    -0.392 OA
HETATM   11  H28 UNL     1     -32.649  17.149  -5.445  1.00 20.00     0.210 HD
ENDBRANCH   1  10
TORSDOF 4
ENDMDL
MODEL 8
REMARK VINA RESULT:      -3.6      1.386      3.933
REMARK  4 active torsions:
REMARK  status: ('A' for Active; 'I' for Inactive)
REMARK    1  A    between atoms: C6_6  and  C7_7 
REMARK    2  A    between atoms: C6_6  and  O10_10 
REMARK    3  A    between atoms: C7_7  and  C8_8 
REMARK    4  A    between atoms: C7_7  and  O9_9 
ROOT
HETATM    1  C7  UNL     1     -33.645  15.967  -4.933  1.00 20.00     0.154 C 
ENDROOT
BRANCH   1   2
HETATM    2  C6  UNL     1     -34.507  14.686  -4.949  1.00 20.00     0.146 C 
HETATM    3  C1  UNL     1     -33.898  13.553  -4.126  1.00 20.00     0.042 C 
BRANCH   2   4
HETATM    4  O10 UNL     1     -34.691  14.205  -6.275  1.00 20.00    -0.388 OA
HETATM    5  C5  UNL     1     -34.514  15.241  -7.233  1.00 20.00     0.202 C 
ENDBRANCH   2   4
ENDBRANCH   1   2
BRANCH   1   6
HETATM    6  C8  UNL     1     -34.155  17.148  -4.043  1.00 20.00    -0.023 C 
HETATM    7  C2  UNL     1     -35.698  17.203  -4.136  1.00 20.00     0.017 C 
HETATM    8  C3  UNL     1     -33.778  16.925  -2.567  1.00 20.00     0.017 C 
HETATM    9  C4  UNL     1     -33.617  18.519  -4.492  1.00 20.00     0.017 C 
ENDBRANCH   1   6
BRANCH   1  10
HETATM   10  O9  UNL     1     -32.312  15.634  -4.535  1.00 20.00    -0.392 OA
HETATM   11  H28 UNL     1     -31.935  15.117  -5.261  1.00 20.00     0.210 HD
ENDBRANCH   1  10
TORSDOF 4
ENDMDL
MODEL 9
REMARK VINA RESULT:      -3.6      1.432      3.746
REMARK  4 active torsions:
REMARK  status: ('A' for Active; 'I' for Inactive)
REMARK    1  A    between atoms: C6_6  and  C7_7 
REMARK    2  A    between atoms: C6_6  and  O10_10 
REMARK    3  A    between atoms: C7_7  and  C8_8 
REMARK    4  A    between atoms: C7_7  and  O9_9 
ROOT
HETATM    1  C7  UNL     1     -33.829  15.752  -4.717  1.00 20.00     0.154 C 
ENDROOT
BRANCH   1   2
HETATM    2  C6  UNL     1     -34.314  14.329  -4.368  1.00 20.00     0.146 C 
HETATM    3  C1  UNL     1     -33.238  13.491  -3.680  1.00 20.00     0.042 C 
BRANCH   2   4
HETATM    4  O10 UNL     1     -34.731  13.625  -5.532  1.00 20.00    -0.388 OA
HETATM    5  C5  UNL     1     -35.105  14.518  -6.572  1.00 20.00     0.202 C 
ENDBRANCH   2   4
ENDBRANCH   1   2
BRANCH   1   6
HETATM    6  C8  UNL     1     -34.322  16.912  -3.791  1.00 20.00    -0.023 C 
HETATM    7  C2  UNL     1     -33.730  18.243  -4.312  1.00 20.00     0.017 C 
HETATM    8  C3  UNL     1     -35.857  17.030  -3.828  1.00 20.00     0.017 C 
HETATM    9  C4  UNL     1     -33.872  16.749  -2.327  1.00 20.00     0.017 C 
ENDBRANCH   1   6
BRANCH   1  10
HETATM   10  O9  UNL     1     -32.399  15.769  -4.754  1.00 20.00    -0.392 OA
HETATM   11  H28 UNL     1     -32.108  15.923  -3.844  1.00 20.00     0.210 HD
ENDBRANCH   1  10
TORSDOF 4
ENDMDL
