MODEL 1
REMARK VINA RESULT:      -4.5      0.000      0.000
REMARK  2 active torsions:
REMARK  status: ('A' for Active; 'I' for Inactive)
REMARK    1  A    between atoms: C3_3  and  C4_4 
REMARK    2  A    between atoms: C3_3  and  S9_9 
ROOT
HETATM    1  C1  UNL     1     -33.957   6.509   5.453  1.00 20.00     0.083 C 
HETATM    2  C3  UNL     1     -33.972   6.478   3.983  1.00 20.00     0.261 C 
HETATM    3  N5  UNL     1     -33.943   6.538   6.612  1.00 20.00    -0.196 NA
ENDROOT
BRANCH   2   4
HETATM    4  C4  UNL     1     -34.863   5.359   3.470  1.00 20.00     0.412 C 
HETATM    5  F6  UNL     1     -36.141   5.775   3.325  1.00 20.00    -0.169 F 
HETATM    6  F7  UNL     1     -34.448   4.935   2.253  1.00 20.00    -0.169 F 
HETATM    7  F8  UNL     1     -34.868   4.289   4.293  1.00 20.00    -0.169 F 
ENDBRANCH   2   4
BRANCH   2   8
HETATM    8  S9  UNL     1     -32.283   6.283   3.319  1.00 20.00    -0.145 SA
HETATM    9  C2  UNL     1     -32.167   7.865   2.454  1.00 20.00     0.091 C 
ENDBRANCH   2   8
TORSDOF 2
ENDMDL
MODEL 2
REMARK VINA RESULT:      -4.1      1.939      2.601
REMARK  2 active torsions:
REMARK  status: ('A' for Active; 'I' for Inactive)
REMARK    1  A    between atoms: C3_3  and  C4_4 
REMARK    2  A    between atoms: C3_3  and  S9_9 
ROOT
HETATM    1  C1  UNL     1     -33.996   6.498   6.062  1.00 20.00     0.083 C 
HETATM    2  C3  UNL     1     -34.855   5.646   5.226  1.00 20.00     0.261 C 
HETATM    3  N5  UNL     1     -33.321   7.174   6.719  1.00 20.00    -0.196 NA
ENDROOT
BRANCH   2   4
HETATM    4  C4  UNL     1     -34.837   4.206   5.715  1.00 20.00     0.412 C 
HETATM    5  F6  UNL     1     -33.624   3.870   6.210  1.00 20.00    -0.169 F 
HETATM    6  F7  UNL     1     -35.733   4.028   6.714  1.00 20.00    -0.169 F 
HETATM    7  F8  UNL     1     -35.140   3.329   4.735  1.00 20.00    -0.169 F 
ENDBRANCH   2   4
BRANCH   2   8
HETATM    8  S9  UNL     1     -34.337   5.716   3.478  1.00 20.00    -0.145 SA
HETATM    9  C2  UNL     1     -32.708   6.457   3.727  1.00 20.00     0.091 C 
ENDBRANCH   2   8
TORSDOF 2
ENDMDL
MODEL 3
REMARK VINA RESULT:      -3.9     11.661     12.338
REMARK  2 active torsions:
REMARK  status: ('A' for Active; 'I' for Inactive)
REMARK    1  A    between atoms: C3_3  and  C4_4 
REMARK    2  A    between atoms: C3_3  and  S9_9 
ROOT
HETATM    1  C1  UNL     1     -35.953  14.120  -4.335  1.00 20.00     0.083 C 
HETATM    2  C3  UNL     1     -34.596  14.107  -4.901  1.00 20.00     0.261 C 
HETATM    3  N5  UNL     1     -37.025  14.127  -3.894  1.00 20.00    -0.196 NA
ENDROOT
BRANCH   2   4
HETATM    4  C4  UNL     1     -33.558  14.425  -3.836  1.00 20.00     0.412 C 
HETATM    5  F6  UNL     1     -34.143  14.757  -2.663  1.00 20.00    -0.169 F 
HETATM    6  F7  UNL     1     -32.776  13.347  -3.593  1.00 20.00    -0.169 F 
HETATM    7  F8  UNL     1     -32.749  15.443  -4.196  1.00 20.00    -0.169 F 
ENDBRANCH   2   4
BRANCH   2   8
HETATM    8  S9  UNL     1     -34.455  15.294  -6.280  1.00 20.00    -0.145 SA
HETATM    9  C2  UNL     1     -35.514  14.434  -7.463  1.00 20.00     0.091 C 
ENDBRANCH   2   8
TORSDOF 2
ENDMDL
MODEL 4
REMARK VINA RESULT:      -3.9     11.651     12.340
REMARK  2 active torsions:
REMARK  status: ('A' for Active; 'I' for Inactive)
REMARK    1  A    between atoms: C3_3  and  C4_4 
REMARK    2  A    between atoms: C3_3  and  S9_9 
ROOT
HETATM    1  C1  UNL     1     -35.962  14.118  -4.333  1.00 20.00     0.083 C 
HETATM    2  C3  UNL     1     -34.606  14.097  -4.902  1.00 20.00     0.261 C 
HETATM    3  N5  UNL     1     -37.033  14.134  -3.889  1.00 20.00    -0.196 NA
ENDROOT
BRANCH   2   4
HETATM    4  C4  UNL     1     -33.562  14.398  -3.838  1.00 20.00     0.412 C 
HETATM    5  F6  UNL     1     -32.772  15.433  -4.205  1.00 20.00    -0.169 F 
HETATM    6  F7  UNL     1     -34.154  14.749  -2.673  1.00 20.00    -0.169 F 
HETATM    7  F8  UNL     1     -32.764  13.338  -3.588  1.00 20.00    -0.169 F 
ENDBRANCH   2   4
BRANCH   2   8
HETATM    8  S9  UNL     1     -34.458  15.290  -6.276  1.00 20.00    -0.145 SA
HETATM    9  C2  UNL     1     -35.510  14.433  -7.469  1.00 20.00     0.091 C 
ENDBRANCH   2   8
TORSDOF 2
ENDMDL
MODEL 5
REMARK VINA RESULT:      -3.9     11.760     12.440
REMARK  2 active torsions:
REMARK  status: ('A' for Active; 'I' for Inactive)
REMARK    1  A    between atoms: C3_3  and  C4_4 
REMARK    2  A    between atoms: C3_3  and  S9_9 
ROOT
HETATM    1  C1  UNL     1     -34.733  13.681  -4.549  1.00 20.00     0.083 C 
HETATM    2  C3  UNL     1     -34.631  15.130  -4.320  1.00 20.00     0.261 C 
HETATM    3  N5  UNL     1     -34.818  12.540  -4.732  1.00 20.00    -0.196 NA
ENDROOT
BRANCH   2   4
HETATM    4  C4  UNL     1     -33.233  15.513  -3.861  1.00 20.00     0.412 C 
HETATM    5  F6  UNL     1     -32.601  16.269  -4.788  1.00 20.00    -0.169 F 
HETATM    6  F7  UNL     1     -33.285  16.247  -2.725  1.00 20.00    -0.169 F 
HETATM    7  F8  UNL     1     -32.461  14.433  -3.614  1.00 20.00    -0.169 F 
ENDBRANCH   2   4
BRANCH   2   8
HETATM    8  S9  UNL     1     -35.862  15.683  -3.091  1.00 20.00    -0.145 SA
HETATM    9  C2  UNL     1     -37.318  14.904  -3.824  1.00 20.00     0.091 C 
ENDBRANCH   2   8
TORSDOF 2
ENDMDL
MODEL 6
REMARK VINA RESULT:      -3.8      1.986      2.968
REMARK  2 active torsions:
REMARK  status: ('A' for Active; 'I' for Inactive)
REMARK    1  A    between atoms: C3_3  and  C4_4 
REMARK    2  A    between atoms: C3_3  and  S9_9 
ROOT
HETATM    1  C1  UNL     1     -32.699   6.750   3.423  1.00 20.00     0.083 C 
HETATM    2  C3  UNL     1     -33.454   5.790   4.242  1.00 20.00     0.261 C 
HETATM    3  N5  UNL     1     -32.100   7.507   2.781  1.00 20.00    -0.196 NA
ENDROOT
BRANCH   2   4
HETATM    4  C4  UNL     1     -34.653   5.247   3.481  1.00 20.00     0.412 C 
HETATM    5  F6  UNL     1     -34.375   5.102   2.165  1.00 20.00    -0.169 F 
HETATM    6  F7  UNL     1     -35.002   4.025   3.946  1.00 20.00    -0.169 F 
HETATM    7  F8  UNL     1     -35.734   6.048   3.588  1.00 20.00    -0.169 F 
ENDBRANCH   2   4
BRANCH   2   8
HETATM    8  S9  UNL     1     -34.005   6.558   5.804  1.00 20.00    -0.145 SA
HETATM    9  C2  UNL     1     -34.688   5.080   6.585  1.00 20.00     0.091 C 
ENDBRANCH   2   8
TORSDOF 2
ENDMDL
MODEL 7
REMARK VINA RESULT:      -3.8      1.988      2.721
REMARK  2 active torsions:
REMARK  status: ('A' for Active; 'I' for Inactive)
REMARK    1  A    between atoms: C3_3  and  C4_4 
REMARK    2  A    between atoms: C3_3  and  S9_9 
ROOT
HETATM    1  C1  UNL     1     -32.697   6.755   3.415  1.00 20.00     0.083 C 
HETATM    2  C3  UNL     1     -33.441   5.796   4.245  1.00 20.00     0.261 C 
HETATM    3  N5  UNL     1     -32.107   7.512   2.764  1.00 20.00    -0.196 NA
ENDROOT
BRANCH   2   4
HETATM    4  C4  UNL     1     -34.639   5.238   3.494  1.00 20.00     0.412 C 
HETATM    5  F6  UNL     1     -35.704   6.066   3.584  1.00 20.00    -0.169 F 
HETATM    6  F7  UNL     1     -34.357   5.100   2.177  1.00 20.00    -0.169 F 
HETATM    7  F8  UNL     1     -35.017   4.028   3.959  1.00 20.00    -0.169 F 
ENDBRANCH   2   4
BRANCH   2   8
HETATM    8  S9  UNL     1     -33.990   6.573   5.803  1.00 20.00    -0.145 SA
HETATM    9  C2  UNL     1     -34.680   5.101   6.590  1.00 20.00     0.091 C 
ENDBRANCH   2   8
TORSDOF 2
ENDMDL
MODEL 8
REMARK VINA RESULT:      -3.8     11.652     12.258
REMARK  2 active torsions:
REMARK  status: ('A' for Active; 'I' for Inactive)
REMARK    1  A    between atoms: C3_3  and  C4_4 
REMARK    2  A    between atoms: C3_3  and  S9_9 
ROOT
HETATM    1  C1  UNL     1     -33.322  16.449  -4.442  1.00 20.00     0.083 C 
HETATM    2  C3  UNL     1     -33.515  15.476  -3.357  1.00 20.00     0.261 C 
HETATM    3  N5  UNL     1     -33.168  17.221  -5.294  1.00 20.00    -0.196 NA
ENDROOT
BRANCH   2   4
HETATM    4  C4  UNL     1     -33.754  14.081  -3.912  1.00 20.00     0.412 C 
HETATM    5  F6  UNL     1     -33.920  14.107  -5.254  1.00 20.00    -0.169 F 
HETATM    6  F7  UNL     1     -32.694  13.277  -3.662  1.00 20.00    -0.169 F 
HETATM    7  F8  UNL     1     -34.845  13.495  -3.373  1.00 20.00    -0.169 F 
ENDBRANCH   2   4
BRANCH   2   8
HETATM    8  S9  UNL     1     -34.908  15.966  -2.284  1.00 20.00    -0.145 SA
HETATM    9  C2  UNL     1     -33.994  17.048  -1.163  1.00 20.00     0.091 C 
ENDBRANCH   2   8
TORSDOF 2
ENDMDL
MODEL 9
REMARK VINA RESULT:      -3.8     11.359     11.857
REMARK  2 active torsions:
REMARK  status: ('A' for Active; 'I' for Inactive)
REMARK    1  A    between atoms: C3_3  and  C4_4 
REMARK    2  A    between atoms: C3_3  and  S9_9 
ROOT
HETATM    1  C1  UNL     1     -37.003  14.662  -3.839  1.00 20.00     0.083 C 
HETATM    2  C3  UNL     1     -35.593  15.060  -3.963  1.00 20.00     0.261 C 
HETATM    3  N5  UNL     1     -38.116  14.353  -3.740  1.00 20.00    -0.196 NA
ENDROOT
BRANCH   2   4
HETATM    4  C4  UNL     1     -34.703  13.851  -4.204  1.00 20.00     0.412 C 
HETATM    5  F6  UNL     1     -35.427  12.709  -4.245  1.00 20.00    -0.169 F 
HETATM    6  F7  UNL     1     -34.065  13.955  -5.393  1.00 20.00    -0.169 F 
HETATM    7  F8  UNL     1     -33.762  13.709  -3.247  1.00 20.00    -0.169 F 
ENDBRANCH   2   4
BRANCH   2   8
HETATM    8  S9  UNL     1     -35.036  15.956  -2.474  1.00 20.00    -0.145 SA
HETATM    9  C2  UNL     1     -33.827  17.039  -3.268  1.00 20.00     0.091 C 
ENDBRANCH   2   8
TORSDOF 2
ENDMDL
