MODEL 1
REMARK VINA RESULT:      -5.1      0.000      0.000
REMARK  4 active torsions:
REMARK  status: ('A' for Active; 'I' for Inactive)
REMARK    1  A    between atoms: C1_1  and  C9_9 
REMARK    2  A    between atoms: C8_8  and  C10_10 
REMARK    3  A    between atoms: C9_9  and  C11_11 
REMARK    4  A    between atoms: C10_10  and  C11_11 
ROOT
HETATM    1  C2  UNL     1     -34.739  13.476  -4.395  1.00 20.00     0.005 C 
HETATM    2  C3  UNL     1     -33.356  13.650  -3.750  1.00 20.00     0.005 C 
HETATM    3  C4  UNL     1     -33.952  15.682  -4.817  1.00 20.00     0.009 C 
HETATM    4  C5  UNL     1     -35.612  15.455  -3.128  1.00 20.00     0.009 C 
HETATM    5  C6  UNL     1     -35.245  14.922  -4.524  1.00 20.00    -0.014 C 
HETATM    6  C7  UNL     1     -33.257  15.174  -3.552  1.00 20.00    -0.010 C 
HETATM    7  C8  UNL     1     -34.241  15.583  -2.431  1.00 20.00    -0.010 C 
ENDROOT
BRANCH   7   8
HETATM    8  C10 UNL     1     -33.987  16.992  -1.906  1.00 20.00     0.005 C 
BRANCH   8   9
HETATM    9  C11 UNL     1     -34.418  17.124  -0.444  1.00 20.00     0.007 C 
BRANCH   9  10
HETATM   10  C9  UNL     1     -33.777  18.327   0.242  1.00 20.00     0.069 C 
BRANCH  10  11
HETATM   11  C1  UNL     1     -32.621  18.928  -0.524  1.00 20.00     0.231 C 
HETATM   12  O12 UNL     1     -31.527  19.203  -0.044  1.00 20.00    -0.307 OA
ENDBRANCH  10  11
ENDBRANCH   9  10
ENDBRANCH   8   9
ENDBRANCH   7   8
TORSDOF 4
ENDMDL
MODEL 2
REMARK VINA RESULT:      -5.1     11.429     12.598
REMARK  4 active torsions:
REMARK  status: ('A' for Active; 'I' for Inactive)
REMARK    1  A    between atoms: C1_1  and  C9_9 
REMARK    2  A    between atoms: C8_8  and  C10_10 
REMARK    3  A    between atoms: C9_9  and  C11_11 
REMARK    4  A    between atoms: C10_10  and  C11_11 
ROOT
HETATM    1  C2  UNL     1     -35.449   5.031   6.687  1.00 20.00     0.005 C 
HETATM    2  C3  UNL     1     -34.324   6.076   6.636  1.00 20.00     0.005 C 
HETATM    3  C4  UNL     1     -33.612   4.144   5.460  1.00 20.00     0.009 C 
HETATM    4  C5  UNL     1     -35.474   4.893   4.183  1.00 20.00     0.009 C 
HETATM    5  C6  UNL     1     -35.140   4.132   5.478  1.00 20.00    -0.014 C 
HETATM    6  C7  UNL     1     -33.532   5.670   5.380  1.00 20.00    -0.010 C 
HETATM    7  C8  UNL     1     -34.393   5.995   4.136  1.00 20.00    -0.010 C 
ENDROOT
BRANCH   7   8
HETATM    8  C10 UNL     1     -33.593   5.966   2.838  1.00 20.00     0.005 C 
BRANCH   8   9
HETATM    9  C11 UNL     1     -32.109   6.228   3.097  1.00 20.00     0.007 C 
BRANCH   9  10
HETATM   10  C9  UNL     1     -31.773   7.716   3.087  1.00 20.00     0.069 C 
BRANCH  10  11
HETATM   11  C1  UNL     1     -32.121   8.416   1.794  1.00 20.00     0.231 C 
HETATM   12  O12 UNL     1     -32.480   9.585   1.702  1.00 20.00    -0.307 OA
ENDBRANCH  10  11
ENDBRANCH   9  10
ENDBRANCH   8   9
ENDBRANCH   7   8
TORSDOF 4
ENDMDL
MODEL 3
REMARK VINA RESULT:      -5.0     10.762     11.951
REMARK  4 active torsions:
REMARK  status: ('A' for Active; 'I' for Inactive)
REMARK    1  A    between atoms: C1_1  and  C9_9 
REMARK    2  A    between atoms: C8_8  and  C10_10 
REMARK    3  A    between atoms: C9_9  and  C11_11 
REMARK    4  A    between atoms: C10_10  and  C11_11 
ROOT
HETATM    1  C2  UNL     1     -34.857   4.798   6.090  1.00 20.00     0.005 C 
HETATM    2  C3  UNL     1     -34.750   3.909   4.842  1.00 20.00     0.005 C 
HETATM    3  C4  UNL     1     -35.464   6.069   4.171  1.00 20.00     0.009 C 
HETATM    4  C5  UNL     1     -33.298   6.474   5.067  1.00 20.00     0.009 C 
HETATM    5  C6  UNL     1     -34.748   6.219   5.513  1.00 20.00    -0.014 C 
HETATM    6  C7  UNL     1     -34.553   4.931   3.707  1.00 20.00    -0.010 C 
HETATM    7  C8  UNL     1     -33.139   5.544   3.845  1.00 20.00    -0.010 C 
ENDROOT
BRANCH   7   8
HETATM    8  C10 UNL     1     -32.696   6.298   2.597  1.00 20.00     0.005 C 
BRANCH   8   9
HETATM    9  C11 UNL     1     -31.922   7.566   2.961  1.00 20.00     0.007 C 
BRANCH   9  10
HETATM   10  C9  UNL     1     -32.390   8.780   2.164  1.00 20.00     0.069 C 
BRANCH  10  11
HETATM   11  C1  UNL     1     -31.974   8.759   0.711  1.00 20.00     0.231 C 
HETATM   12  O12 UNL     1     -32.697   9.063  -0.232  1.00 20.00    -0.307 OA
ENDBRANCH  10  11
ENDBRANCH   9  10
ENDBRANCH   8   9
ENDBRANCH   7   8
TORSDOF 4
ENDMDL
MODEL 4
REMARK VINA RESULT:      -4.8      2.687      5.544
REMARK  4 active torsions:
REMARK  status: ('A' for Active; 'I' for Inactive)
REMARK    1  A    between atoms: C1_1  and  C9_9 
REMARK    2  A    between atoms: C8_8  and  C10_10 
REMARK    3  A    between atoms: C9_9  and  C11_11 
REMARK    4  A    between atoms: C10_10  and  C11_11 
ROOT
HETATM    1  C2  UNL     1     -33.938  18.705   1.310  1.00 20.00     0.005 C 
HETATM    2  C3  UNL     1     -35.132  17.745   1.416  1.00 20.00     0.005 C 
HETATM    3  C4  UNL     1     -35.309  18.946  -0.622  1.00 20.00     0.009 C 
HETATM    4  C5  UNL     1     -33.295  17.710  -0.900  1.00 20.00     0.009 C 
HETATM    5  C6  UNL     1     -33.840  18.969  -0.202  1.00 20.00    -0.014 C 
HETATM    6  C7  UNL     1     -35.546  17.545  -0.054  1.00 20.00    -0.010 C 
HETATM    7  C8  UNL     1     -34.455  16.701  -0.755  1.00 20.00    -0.010 C 
ENDROOT
BRANCH   7   8
HETATM    8  C10 UNL     1     -34.910  16.145  -2.100  1.00 20.00     0.005 C 
BRANCH   8   9
HETATM    9  C11 UNL     1     -33.740  16.037  -3.079  1.00 20.00     0.007 C 
BRANCH   9  10
HETATM   10  C9  UNL     1     -33.586  14.628  -3.645  1.00 20.00     0.069 C 
BRANCH  10  11
HETATM   11  C1  UNL     1     -34.897  13.918  -3.890  1.00 20.00     0.231 C 
HETATM   12  O12 UNL     1     -35.009  12.743  -4.224  1.00 20.00    -0.307 OA
ENDBRANCH  10  11
ENDBRANCH   9  10
ENDBRANCH   8   9
ENDBRANCH   7   8
TORSDOF 4
ENDMDL
MODEL 5
REMARK VINA RESULT:      -4.8      1.590      1.781
REMARK  4 active torsions:
REMARK  status: ('A' for Active; 'I' for Inactive)
REMARK    1  A    between atoms: C1_1  and  C9_9 
REMARK    2  A    between atoms: C8_8  and  C10_10 
REMARK    3  A    between atoms: C9_9  and  C11_11 
REMARK    4  A    between atoms: C10_10  and  C11_11 
ROOT
HETATM    1  C2  UNL     1     -34.694  13.303  -4.173  1.00 20.00     0.005 C 
HETATM    2  C3  UNL     1     -33.274  13.646  -3.698  1.00 20.00     0.005 C 
HETATM    3  C4  UNL     1     -34.066  15.423  -5.055  1.00 20.00     0.009 C 
HETATM    4  C5  UNL     1     -35.566  15.448  -3.210  1.00 20.00     0.009 C 
HETATM    5  C6  UNL     1     -35.287  14.681  -4.514  1.00 20.00    -0.014 C 
HETATM    6  C7  UNL     1     -33.242  15.184  -3.788  1.00 20.00    -0.010 C 
HETATM    7  C8  UNL     1     -34.151  15.754  -2.674  1.00 20.00    -0.010 C 
ENDROOT
BRANCH   7   8
HETATM    8  C10 UNL     1     -33.932  17.244  -2.436  1.00 20.00     0.005 C 
BRANCH   8   9
HETATM    9  C11 UNL     1     -33.660  17.535  -0.960  1.00 20.00     0.007 C 
BRANCH   9  10
HETATM   10  C9  UNL     1     -34.794  17.057  -0.057  1.00 20.00     0.069 C 
BRANCH  10  11
HETATM   11  C1  UNL     1     -34.924  17.838   1.231  1.00 20.00     0.231 C 
HETATM   12  O12 UNL     1     -35.465  17.426   2.251  1.00 20.00    -0.307 OA
ENDBRANCH  10  11
ENDBRANCH   9  10
ENDBRANCH   8   9
ENDBRANCH   7   8
TORSDOF 4
ENDMDL
MODEL 6
REMARK VINA RESULT:      -4.7      2.807      5.019
REMARK  4 active torsions:
REMARK  status: ('A' for Active; 'I' for Inactive)
REMARK    1  A    between atoms: C1_1  and  C9_9 
REMARK    2  A    between atoms: C8_8  and  C10_10 
REMARK    3  A    between atoms: C9_9  and  C11_11 
REMARK    4  A    between atoms: C10_10  and  C11_11 
ROOT
HETATM    1  C2  UNL     1     -35.155  17.968  -1.399  1.00 20.00     0.005 C 
HETATM    2  C3  UNL     1     -33.733  17.403  -1.258  1.00 20.00     0.005 C 
HETATM    3  C4  UNL     1     -35.108  15.746  -2.251  1.00 20.00     0.009 C 
HETATM    4  C5  UNL     1     -35.130  17.496  -3.862  1.00 20.00     0.009 C 
HETATM    5  C6  UNL     1     -35.761  17.102  -2.515  1.00 20.00    -0.014 C 
HETATM    6  C7  UNL     1     -33.688  16.308  -2.340  1.00 20.00    -0.010 C 
HETATM    7  C8  UNL     1     -33.676  16.995  -3.726  1.00 20.00    -0.010 C 
ENDROOT
BRANCH   7   8
HETATM    8  C10 UNL     1     -33.283  16.046  -4.853  1.00 20.00     0.005 C 
BRANCH   8   9
HETATM    9  C11 UNL     1     -34.430  15.861  -5.847  1.00 20.00     0.007 C 
BRANCH   9  10
HETATM   10  C9  UNL     1     -34.753  14.390  -6.093  1.00 20.00     0.069 C 
BRANCH  10  11
HETATM   11  C1  UNL     1     -34.340  13.474  -4.965  1.00 20.00     0.231 C 
HETATM   12  O12 UNL     1     -35.089  12.700  -4.377  1.00 20.00    -0.307 OA
ENDBRANCH  10  11
ENDBRANCH   9  10
ENDBRANCH   8   9
ENDBRANCH   7   8
TORSDOF 4
ENDMDL
MODEL 7
REMARK VINA RESULT:      -4.7      2.796      5.077
REMARK  4 active torsions:
REMARK  status: ('A' for Active; 'I' for Inactive)
REMARK    1  A    between atoms: C1_1  and  C9_9 
REMARK    2  A    between atoms: C8_8  and  C10_10 
REMARK    3  A    between atoms: C9_9  and  C11_11 
REMARK    4  A    between atoms: C10_10  and  C11_11 
ROOT
HETATM    1  C2  UNL     1     -34.517  18.460  -0.709  1.00 20.00     0.005 C 
HETATM    2  C3  UNL     1     -34.551  16.965  -0.359  1.00 20.00     0.005 C 
HETATM    3  C4  UNL     1     -35.915  17.325  -2.266  1.00 20.00     0.009 C 
HETATM    4  C5  UNL     1     -33.746  17.928  -3.036  1.00 20.00     0.009 C 
HETATM    5  C6  UNL     1     -34.913  18.476  -2.195  1.00 20.00    -0.014 C 
HETATM    6  C7  UNL     1     -34.925  16.305  -1.700  1.00 20.00    -0.010 C 
HETATM    7  C8  UNL     1     -33.716  16.432  -2.657  1.00 20.00    -0.010 C 
ENDROOT
BRANCH   7   8
HETATM    8  C10 UNL     1     -33.829  15.523  -3.876  1.00 20.00     0.005 C 
BRANCH   8   9
HETATM    9  C11 UNL     1     -34.155  14.086  -3.467  1.00 20.00     0.007 C 
BRANCH   9  10
HETATM   10  C9  UNL     1     -35.316  13.505  -4.270  1.00 20.00     0.069 C 
BRANCH  10  11
HETATM   11  C1  UNL     1     -36.541  14.389  -4.306  1.00 20.00     0.231 C 
HETATM   12  O12 UNL     1     -37.615  14.123  -3.777  1.00 20.00    -0.307 OA
ENDBRANCH  10  11
ENDBRANCH   9  10
ENDBRANCH   8   9
ENDBRANCH   7   8
TORSDOF 4
ENDMDL
MODEL 8
REMARK VINA RESULT:      -4.6      2.706      5.117
REMARK  4 active torsions:
REMARK  status: ('A' for Active; 'I' for Inactive)
REMARK    1  A    between atoms: C1_1  and  C9_9 
REMARK    2  A    between atoms: C8_8  and  C10_10 
REMARK    3  A    between atoms: C9_9  and  C11_11 
REMARK    4  A    between atoms: C10_10  and  C11_11 
ROOT
HETATM    1  C2  UNL     1     -34.475  18.970  -0.229  1.00 20.00     0.005 C 
HETATM    2  C3  UNL     1     -33.147  18.397  -0.745  1.00 20.00     0.005 C 
HETATM    3  C4  UNL     1     -34.722  16.630  -0.591  1.00 20.00     0.009 C 
HETATM    4  C5  UNL     1     -35.680  18.061  -2.232  1.00 20.00     0.009 C 
HETATM    5  C6  UNL     1     -35.507  17.935  -0.708  1.00 20.00    -0.014 C 
HETATM    6  C7  UNL     1     -33.588  17.123  -1.492  1.00 20.00    -0.010 C 
HETATM    7  C8  UNL     1     -34.331  17.548  -2.780  1.00 20.00    -0.010 C 
ENDROOT
BRANCH   7   8
HETATM    8  C10 UNL     1     -34.506  16.401  -3.768  1.00 20.00     0.005 C 
BRANCH   8   9
HETATM    9  C11 UNL     1     -33.187  15.664  -4.001  1.00 20.00     0.007 C 
BRANCH   9  10
HETATM   10  C9  UNL     1     -33.291  14.175  -3.685  1.00 20.00     0.069 C 
BRANCH  10  11
HETATM   11  C1  UNL     1     -34.680  13.606  -3.857  1.00 20.00     0.231 C 
HETATM   12  O12 UNL     1     -34.964  12.648  -4.568  1.00 20.00    -0.307 OA
ENDBRANCH  10  11
ENDBRANCH   9  10
ENDBRANCH   8   9
ENDBRANCH   7   8
TORSDOF 4
ENDMDL
MODEL 9
REMARK VINA RESULT:      -4.6      0.999      1.820
REMARK  4 active torsions:
REMARK  status: ('A' for Active; 'I' for Inactive)
REMARK    1  A    between atoms: C1_1  and  C9_9 
REMARK    2  A    between atoms: C8_8  and  C10_10 
REMARK    3  A    between atoms: C9_9  and  C11_11 
REMARK    4  A    between atoms: C10_10  and  C11_11 
ROOT
HETATM    1  C2  UNL     1     -35.183  14.294  -5.655  1.00 20.00     0.005 C 
HETATM    2  C3  UNL     1     -35.453  15.799  -5.507  1.00 20.00     0.005 C 
HETATM    3  C4  UNL     1     -36.502  14.663  -3.709  1.00 20.00     0.009 C 
HETATM    4  C5  UNL     1     -34.193  14.215  -3.353  1.00 20.00     0.009 C 
HETATM    5  C6  UNL     1     -35.378  13.766  -4.225  1.00 20.00    -0.014 C 
HETATM    6  C7  UNL     1     -35.732  15.953  -4.000  1.00 20.00    -0.010 C 
HETATM    7  C8  UNL     1     -34.403  15.740  -3.237  1.00 20.00    -0.010 C 
ENDROOT
BRANCH   7   8
HETATM    8  C10 UNL     1     -34.473  16.206  -1.787  1.00 20.00     0.005 C 
BRANCH   8   9
HETATM    9  C11 UNL     1     -33.533  17.387  -1.539  1.00 20.00     0.007 C 
BRANCH   9  10
HETATM   10  C9  UNL     1     -33.668  17.949  -0.126  1.00 20.00     0.069 C 
BRANCH  10  11
HETATM   11  C1  UNL     1     -32.783  19.142   0.147  1.00 20.00     0.231 C 
HETATM   12  O12 UNL     1     -31.591  19.212  -0.133  1.00 20.00    -0.307 OA
ENDBRANCH  10  11
ENDBRANCH   9  10
ENDBRANCH   8   9
ENDBRANCH   7   8
TORSDOF 4
ENDMDL
