MODEL 1
REMARK VINA RESULT:      -4.7      0.000      0.000
REMARK  3 active torsions:
REMARK  status: ('A' for Active; 'I' for Inactive)
REMARK    1  A    between atoms: C7_7  and  C9_9 
REMARK    2  A    between atoms: C9_9  and  N10_10 
REMARK    3  A    between atoms: N10_10  and  O11_11 
ROOT
HETATM    1  C1  UNL     1     -35.143   4.375   4.650  1.00 20.00     0.005 C 
HETATM    2  C2  UNL     1     -34.287   4.991   5.766  1.00 20.00     0.005 C 
HETATM    3  C3  UNL     1     -35.058   6.735   4.355  1.00 20.00     0.010 C 
HETATM    4  C4  UNL     1     -33.687   5.439   2.906  1.00 20.00     0.011 C 
HETATM    5  C5  UNL     1     -35.088   5.441   3.543  1.00 20.00    -0.014 C 
HETATM    6  C6  UNL     1     -33.815   6.319   5.145  1.00 20.00    -0.009 C 
HETATM    7  C7  UNL     1     -32.790   5.997   4.031  1.00 20.00     0.005 C 
ENDROOT
BRANCH   7   8
HETATM    8  C9  UNL     1     -31.998   7.221   3.584  1.00 20.00     0.122 C 
BRANCH   8   9
HETATM    9  N10 UNL     1     -32.235   7.474   2.202  1.00 20.00    -0.206 NA
HETATM   10  H28 UNL     1     -33.205   7.246   1.942  1.00 20.00     0.153 HD
BRANCH   9  11
HETATM   11  O11 UNL     1     -32.277   8.932   2.068  1.00 20.00    -0.311 OA
HETATM   12  C8  UNL     1     -32.347   9.251   0.685  1.00 20.00     0.229 C 
ENDBRANCH   9  11
ENDBRANCH   8   9
ENDBRANCH   7   8
TORSDOF 3
ENDMDL
MODEL 2
REMARK VINA RESULT:      -4.6     10.969     12.004
REMARK  3 active torsions:
REMARK  status: ('A' for Active; 'I' for Inactive)
REMARK    1  A    between atoms: C7_7  and  C9_9 
REMARK    2  A    between atoms: C9_9  and  N10_10 
REMARK    3  A    between atoms: N10_10  and  O11_11 
ROOT
HETATM    1  C1  UNL     1     -33.052  13.916  -3.699  1.00 20.00     0.005 C 
HETATM    2  C2  UNL     1     -34.203  13.328  -4.528  1.00 20.00     0.005 C 
HETATM    3  C3  UNL     1     -34.113  15.667  -4.912  1.00 20.00     0.010 C 
HETATM    4  C4  UNL     1     -34.629  15.523  -2.595  1.00 20.00     0.011 C 
HETATM    5  C5  UNL     1     -33.442  15.398  -3.567  1.00 20.00    -0.014 C 
HETATM    6  C6  UNL     1     -35.132  14.539  -4.735  1.00 20.00    -0.009 C 
HETATM    7  C7  UNL     1     -35.793  14.882  -3.379  1.00 20.00     0.005 C 
ENDROOT
BRANCH   7   8
HETATM    8  C9  UNL     1     -36.983  15.824  -3.522  1.00 20.00     0.122 C 
BRANCH   8   9
HETATM    9  N10 UNL     1     -38.151  15.216  -2.977  1.00 20.00    -0.206 NA
HETATM   10  H28 UNL     1     -38.973  15.827  -3.081  1.00 20.00     0.153 HD
BRANCH   9  11
HETATM   11  O11 UNL     1     -38.515  14.148  -3.911  1.00 20.00    -0.311 OA
HETATM   12  C8  UNL     1     -39.694  14.540  -4.600  1.00 20.00     0.229 C 
ENDBRANCH   9  11
ENDBRANCH   8   9
ENDBRANCH   7   8
TORSDOF 3
ENDMDL
MODEL 3
REMARK VINA RESULT:      -4.5     10.997     11.790
REMARK  3 active torsions:
REMARK  status: ('A' for Active; 'I' for Inactive)
REMARK    1  A    between atoms: C7_7  and  C9_9 
REMARK    2  A    between atoms: C9_9  and  N10_10 
REMARK    3  A    between atoms: N10_10  and  O11_11 
ROOT
HETATM    1  C1  UNL     1     -35.667  17.785  -1.075  1.00 20.00     0.005 C 
HETATM    2  C2  UNL     1     -34.413  17.007  -0.651  1.00 20.00     0.005 C 
HETATM    3  C3  UNL     1     -34.114  17.766  -2.879  1.00 20.00     0.010 C 
HETATM    4  C4  UNL     1     -35.965  16.282  -3.061  1.00 20.00     0.011 C 
HETATM    5  C5  UNL     1     -35.617  17.713  -2.610  1.00 20.00    -0.014 C 
HETATM    6  C6  UNL     1     -33.820  16.550  -1.997  1.00 20.00    -0.009 C 
HETATM    7  C7  UNL     1     -34.746  15.461  -2.591  1.00 20.00     0.005 C 
ENDROOT
BRANCH   7   8
HETATM    8  C9  UNL     1     -34.094  14.690  -3.733  1.00 20.00     0.122 C 
BRANCH   8   9
HETATM    9  N10 UNL     1     -34.163  13.290  -3.474  1.00 20.00    -0.206 NA
HETATM   10  H28 UNL     1     -34.844  13.082  -2.730  1.00 20.00     0.153 HD
BRANCH   9  11
HETATM   11  O11 UNL     1     -34.862  12.708  -4.622  1.00 20.00    -0.311 OA
HETATM   12  C8  UNL     1     -34.917  13.686  -5.652  1.00 20.00     0.229 C 
ENDBRANCH   9  11
ENDBRANCH   8   9
ENDBRANCH   7   8
TORSDOF 3
ENDMDL
MODEL 4
REMARK VINA RESULT:      -4.4     11.023     11.998
REMARK  3 active torsions:
REMARK  status: ('A' for Active; 'I' for Inactive)
REMARK    1  A    between atoms: C7_7  and  C9_9 
REMARK    2  A    between atoms: C9_9  and  N10_10 
REMARK    3  A    between atoms: N10_10  and  O11_11 
ROOT
HETATM    1  C1  UNL     1     -34.133  17.786  -1.742  1.00 20.00     0.005 C 
HETATM    2  C2  UNL     1     -34.695  16.485  -1.149  1.00 20.00     0.005 C 
HETATM    3  C3  UNL     1     -33.388  15.944  -3.053  1.00 20.00     0.010 C 
HETATM    4  C4  UNL     1     -35.156  17.247  -3.968  1.00 20.00     0.011 C 
HETATM    5  C5  UNL     1     -33.831  17.399  -3.200  1.00 20.00    -0.014 C 
HETATM    6  C6  UNL     1     -34.681  15.524  -2.352  1.00 20.00    -0.009 C 
HETATM    7  C7  UNL     1     -35.776  15.977  -3.348  1.00 20.00     0.005 C 
ENDROOT
BRANCH   7   8
HETATM    8  C9  UNL     1     -36.095  14.918  -4.397  1.00 20.00     0.122 C 
BRANCH   8   9
HETATM    9  N10 UNL     1     -36.259  13.648  -3.770  1.00 20.00    -0.206 NA
HETATM   10  H28 UNL     1     -37.100  13.167  -4.118  1.00 20.00     0.153 HD
BRANCH   9  11
HETATM   11  O11 UNL     1     -35.223  12.786  -4.343  1.00 20.00    -0.311 OA
HETATM   12  C8  UNL     1     -34.702  13.426  -5.501  1.00 20.00     0.229 C 
ENDBRANCH   9  11
ENDBRANCH   8   9
ENDBRANCH   7   8
TORSDOF 3
ENDMDL
MODEL 5
REMARK VINA RESULT:      -4.3     10.791     11.772
REMARK  3 active torsions:
REMARK  status: ('A' for Active; 'I' for Inactive)
REMARK    1  A    between atoms: C7_7  and  C9_9 
REMARK    2  A    between atoms: C9_9  and  N10_10 
REMARK    3  A    between atoms: N10_10  and  O11_11 
ROOT
HETATM    1  C1  UNL     1     -35.207  14.159  -5.608  1.00 20.00     0.005 C 
HETATM    2  C2  UNL     1     -34.083  15.194  -5.759  1.00 20.00     0.005 C 
HETATM    3  C3  UNL     1     -33.625  13.853  -3.857  1.00 20.00     0.010 C 
HETATM    4  C4  UNL     1     -35.655  14.943  -3.268  1.00 20.00     0.011 C 
HETATM    5  C5  UNL     1     -35.127  13.775  -4.121  1.00 20.00    -0.014 C 
HETATM    6  C6  UNL     1     -33.523  15.306  -4.329  1.00 20.00    -0.009 C 
HETATM    7  C7  UNL     1     -34.573  16.027  -3.451  1.00 20.00     0.005 C 
ENDROOT
BRANCH   7   8
HETATM    8  C9  UNL     1     -34.003  16.505  -2.120  1.00 20.00     0.122 C 
BRANCH   8   9
HETATM    9  N10 UNL     1     -34.954  16.288  -1.080  1.00 20.00    -0.206 NA
HETATM   10  H28 UNL     1     -34.825  15.364  -0.644  1.00 20.00     0.153 HD
BRANCH   9  11
HETATM   11  O11 UNL     1     -34.531  17.149   0.028  1.00 20.00    -0.311 OA
HETATM   12  C8  UNL     1     -33.535  18.040  -0.455  1.00 20.00     0.229 C 
ENDBRANCH   9  11
ENDBRANCH   8   9
ENDBRANCH   7   8
TORSDOF 3
ENDMDL
MODEL 6
REMARK VINA RESULT:      -4.3     10.828     11.834
REMARK  3 active torsions:
REMARK  status: ('A' for Active; 'I' for Inactive)
REMARK    1  A    between atoms: C7_7  and  C9_9 
REMARK    2  A    between atoms: C9_9  and  N10_10 
REMARK    3  A    between atoms: N10_10  and  O11_11 
ROOT
HETATM    1  C1  UNL     1     -34.466  13.985  -5.376  1.00 20.00     0.005 C 
HETATM    2  C2  UNL     1     -35.094  13.609  -4.026  1.00 20.00     0.005 C 
HETATM    3  C3  UNL     1     -35.680  15.851  -4.534  1.00 20.00     0.010 C 
HETATM    4  C4  UNL     1     -33.313  15.949  -4.325  1.00 20.00     0.011 C 
HETATM    5  C5  UNL     1     -34.410  15.521  -5.316  1.00 20.00    -0.014 C 
HETATM    6  C6  UNL     1     -35.285  14.975  -3.342  1.00 20.00    -0.009 C 
HETATM    7  C7  UNL     1     -33.890  15.525  -2.958  1.00 20.00     0.005 C 
ENDROOT
BRANCH   7   8
HETATM    8  C9  UNL     1     -33.963  16.689  -1.976  1.00 20.00     0.122 C 
BRANCH   8   9
HETATM    9  N10 UNL     1     -34.866  16.375  -0.919  1.00 20.00    -0.206 NA
HETATM   10  H28 UNL     1     -34.585  15.512  -0.432  1.00 20.00     0.153 HD
BRANCH   9  11
HETATM   11  O11 UNL     1     -34.599  17.356   0.136  1.00 20.00    -0.311 OA
HETATM   12  C8  UNL     1     -33.438  18.092  -0.225  1.00 20.00     0.229 C 
ENDBRANCH   9  11
ENDBRANCH   8   9
ENDBRANCH   7   8
TORSDOF 3
ENDMDL
MODEL 7
REMARK VINA RESULT:      -4.2      9.560     10.838
REMARK  3 active torsions:
REMARK  status: ('A' for Active; 'I' for Inactive)
REMARK    1  A    between atoms: C7_7  and  C9_9 
REMARK    2  A    between atoms: C9_9  and  N10_10 
REMARK    3  A    between atoms: N10_10  and  O11_11 
ROOT
HETATM    1  C1  UNL     1     -40.883   7.110  -0.706  1.00 20.00     0.005 C 
HETATM    2  C2  UNL     1     -41.969   7.341  -1.768  1.00 20.00     0.005 C 
HETATM    3  C3  UNL     1     -42.772   5.754  -0.199  1.00 20.00     0.010 C 
HETATM    4  C4  UNL     1     -40.908   4.646  -1.175  1.00 20.00     0.011 C 
HETATM    5  C5  UNL     1     -41.246   5.728  -0.135  1.00 20.00    -0.014 C 
HETATM    6  C6  UNL     1     -42.797   6.045  -1.701  1.00 20.00    -0.009 C 
HETATM    7  C7  UNL     1     -41.947   4.893  -2.289  1.00 20.00     0.005 C 
ENDROOT
BRANCH   7   8
HETATM    8  C9  UNL     1     -42.771   3.648  -2.598  1.00 20.00     0.122 C 
BRANCH   8   9
HETATM    9  N10 UNL     1     -41.985   2.479  -2.376  1.00 20.00    -0.206 NA
HETATM   10  H28 UNL     1     -42.579   1.645  -2.275  1.00 20.00     0.153 HD
BRANCH   9  11
HETATM   11  O11 UNL     1     -41.349   2.180  -3.661  1.00 20.00    -0.311 OA
HETATM   12  C8  UNL     1     -41.586   0.812  -3.967  1.00 20.00     0.229 C 
ENDBRANCH   9  11
ENDBRANCH   8   9
ENDBRANCH   7   8
TORSDOF 3
ENDMDL
MODEL 8
REMARK VINA RESULT:      -4.2     11.380     12.515
REMARK  3 active torsions:
REMARK  status: ('A' for Active; 'I' for Inactive)
REMARK    1  A    between atoms: C7_7  and  C9_9 
REMARK    2  A    between atoms: C9_9  and  N10_10 
REMARK    3  A    between atoms: N10_10  and  O11_11 
ROOT
HETATM    1  C1  UNL     1     -33.673  18.051  -1.934  1.00 20.00     0.005 C 
HETATM    2  C2  UNL     1     -34.298  17.001  -1.004  1.00 20.00     0.005 C 
HETATM    3  C3  UNL     1     -33.581  15.920  -2.990  1.00 20.00     0.010 C 
HETATM    4  C4  UNL     1     -35.260  17.414  -3.769  1.00 20.00     0.011 C 
HETATM    5  C5  UNL     1     -33.787  17.397  -3.321  1.00 20.00    -0.014 C 
HETATM    6  C6  UNL     1     -34.730  15.890  -1.979  1.00 20.00    -0.009 C 
HETATM    7  C7  UNL     1     -35.930  16.410  -2.807  1.00 20.00     0.005 C 
ENDROOT
BRANCH   7   8
HETATM    8  C9  UNL     1     -36.662  15.298  -3.550  1.00 20.00     0.122 C 
BRANCH   8   9
HETATM    9  N10 UNL     1     -37.941  15.082  -2.961  1.00 20.00    -0.206 NA
HETATM   10  H28 UNL     1     -38.549  15.905  -3.076  1.00 20.00     0.153 HD
BRANCH   9  11
HETATM   11  O11 UNL     1     -38.630  14.137  -3.844  1.00 20.00    -0.311 OA
HETATM   12  C8  UNL     1     -39.577  14.861  -4.617  1.00 20.00     0.229 C 
ENDBRANCH   9  11
ENDBRANCH   8   9
ENDBRANCH   7   8
TORSDOF 3
ENDMDL
MODEL 9
REMARK VINA RESULT:      -4.2     11.461     12.434
REMARK  3 active torsions:
REMARK  status: ('A' for Active; 'I' for Inactive)
REMARK    1  A    between atoms: C7_7  and  C9_9 
REMARK    2  A    between atoms: C9_9  and  N10_10 
REMARK    3  A    between atoms: N10_10  and  O11_11 
ROOT
HETATM    1  C1  UNL     1     -34.544  16.566  -0.925  1.00 20.00     0.005 C 
HETATM    2  C2  UNL     1     -33.625  17.644  -1.518  1.00 20.00     0.005 C 
HETATM    3  C3  UNL     1     -35.475  17.345  -2.973  1.00 20.00     0.010 C 
HETATM    4  C4  UNL     1     -34.391  15.228  -3.041  1.00 20.00     0.011 C 
HETATM    5  C5  UNL     1     -35.327  16.066  -2.151  1.00 20.00    -0.014 C 
HETATM    6  C6  UNL     1     -33.967  17.600  -3.019  1.00 20.00    -0.009 C 
HETATM    7  C7  UNL     1     -33.412  16.279  -3.605  1.00 20.00     0.005 C 
ENDROOT
BRANCH   7   8
HETATM    8  C9  UNL     1     -33.377  16.277  -5.130  1.00 20.00     0.122 C 
BRANCH   8   9
HETATM    9  N10 UNL     1     -33.722  14.984  -5.621  1.00 20.00    -0.206 NA
HETATM   10  H28 UNL     1     -34.625  14.670  -5.240  1.00 20.00     0.153 HD
BRANCH   9  11
HETATM   11  O11 UNL     1     -34.096  15.180  -7.023  1.00 20.00    -0.311 OA
HETATM   12  C8  UNL     1     -35.385  14.615  -7.224  1.00 20.00     0.229 C 
ENDBRANCH   9  11
ENDBRANCH   8   9
ENDBRANCH   7   8
TORSDOF 3
ENDMDL
