MODEL 1
REMARK VINA RESULT:      -3.9      0.000      0.000
REMARK  4 active torsions:
REMARK  status: ('A' for Active; 'I' for Inactive)
REMARK    1  A    between atoms: C4_4  and  C6_6 
REMARK    2  A    between atoms: C4_4  and  C7_7 
REMARK    3  A    between atoms: C5_5  and  C6_6 
REMARK    4  A    between atoms: C5_5  and  O8_8 
ROOT
HETATM    1  C1  UNL     1     -32.107   5.459   2.962  1.00 20.00     0.012 C 
HETATM    2  C6  UNL     1     -33.022   6.436   3.702  1.00 20.00     0.007 C 
ENDROOT
BRANCH   2   3
HETATM    3  C4  UNL     1     -34.469   5.904   3.832  1.00 20.00     0.026 C 
BRANCH   3   4
HETATM    4  C7  UNL     1     -34.927   5.540   5.253  1.00 20.00     0.078 C 
HETATM    5  C2  UNL     1     -34.078   6.258   6.298  1.00 20.00     0.026 C 
HETATM    6 CL9  UNL     1     -34.817   3.778   5.533  1.00 20.00    -0.125 Cl
ENDBRANCH   3   4
ENDBRANCH   2   3
BRANCH   2   7
HETATM    7  C5  UNL     1     -33.015   7.792   2.978  1.00 20.00     0.171 C 
BRANCH   7   8
HETATM    8  O8  UNL     1     -31.819   7.935   2.222  1.00 20.00    -0.396 OA
HETATM    9  C3  UNL     1     -31.999   8.821   1.126  1.00 20.00     0.201 C 
ENDBRANCH   7   8
ENDBRANCH   2   7
TORSDOF 4
ENDMDL
MODEL 2
REMARK VINA RESULT:      -3.7      1.314      1.433
REMARK  4 active torsions:
REMARK  status: ('A' for Active; 'I' for Inactive)
REMARK    1  A    between atoms: C4_4  and  C6_6 
REMARK    2  A    between atoms: C4_4  and  C7_7 
REMARK    3  A    between atoms: C5_5  and  C6_6 
REMARK    4  A    between atoms: C5_5  and  O8_8 
ROOT
HETATM    1  C1  UNL     1     -32.239   5.553   2.307  1.00 20.00     0.012 C 
HETATM    2  C6  UNL     1     -32.583   6.499   3.459  1.00 20.00     0.007 C 
ENDROOT
BRANCH   2   3
HETATM    3  C4  UNL     1     -33.973   6.201   4.069  1.00 20.00     0.026 C 
BRANCH   3   4
HETATM    4  C7  UNL     1     -33.972   5.589   5.479  1.00 20.00     0.078 C 
HETATM    5  C2  UNL     1     -35.186   4.688   5.681  1.00 20.00     0.026 C 
HETATM    6 CL9  UNL     1     -33.985   6.863   6.733  1.00 20.00    -0.125 Cl
ENDBRANCH   3   4
ENDBRANCH   2   3
BRANCH   2   7
HETATM    7  C5  UNL     1     -32.517   7.952   2.965  1.00 20.00     0.171 C 
BRANCH   7   8
HETATM    8  O8  UNL     1     -31.802   8.019   1.737  1.00 20.00    -0.396 OA
HETATM    9  C3  UNL     1     -32.159   9.172   0.988  1.00 20.00     0.201 C 
ENDBRANCH   7   8
ENDBRANCH   2   7
TORSDOF 4
ENDMDL
MODEL 3
REMARK VINA RESULT:      -3.6     11.009     11.827
REMARK  4 active torsions:
REMARK  status: ('A' for Active; 'I' for Inactive)
REMARK    1  A    between atoms: C4_4  and  C6_6 
REMARK    2  A    between atoms: C4_4  and  C7_7 
REMARK    3  A    between atoms: C5_5  and  C6_6 
REMARK    4  A    between atoms: C5_5  and  O8_8 
ROOT
HETATM    1  C1  UNL     1     -33.261  16.458  -4.914  1.00 20.00     0.012 C 
HETATM    2  C6  UNL     1     -33.840  15.610  -3.781  1.00 20.00     0.007 C 
ENDROOT
BRANCH   2   3
HETATM    3  C4  UNL     1     -33.745  16.318  -2.409  1.00 20.00     0.026 C 
BRANCH   3   4
HETATM    4  C7  UNL     1     -35.056  16.420  -1.612  1.00 20.00     0.078 C 
HETATM    5  C2  UNL     1     -36.062  17.312  -2.334  1.00 20.00     0.026 C 
HETATM    6 CL9  UNL     1     -34.767  17.083   0.022  1.00 20.00    -0.125 Cl
ENDBRANCH   3   4
ENDBRANCH   2   3
BRANCH   2   7
HETATM    7  C5  UNL     1     -33.115  14.256  -3.733  1.00 20.00     0.171 C 
BRANCH   7   8
HETATM    8  O8  UNL     1     -34.047  13.212  -3.479  1.00 20.00    -0.396 OA
HETATM    9  C3  UNL     1     -35.209  13.343  -4.287  1.00 20.00     0.201 C 
ENDBRANCH   7   8
ENDBRANCH   2   7
TORSDOF 4
ENDMDL
MODEL 4
REMARK VINA RESULT:      -3.5     11.302     12.159
REMARK  4 active torsions:
REMARK  status: ('A' for Active; 'I' for Inactive)
REMARK    1  A    between atoms: C4_4  and  C6_6 
REMARK    2  A    between atoms: C4_4  and  C7_7 
REMARK    3  A    between atoms: C5_5  and  C6_6 
REMARK    4  A    between atoms: C5_5  and  O8_8 
ROOT
HETATM    1  C1  UNL     1     -36.639  14.406  -4.084  1.00 20.00     0.012 C 
HETATM    2  C6  UNL     1     -35.274  13.723  -3.999  1.00 20.00     0.007 C 
ENDROOT
BRANCH   2   3
HETATM    3  C4  UNL     1     -34.241  14.569  -3.217  1.00 20.00     0.026 C 
BRANCH   3   4
HETATM    4  C7  UNL     1     -34.644  16.023  -2.925  1.00 20.00     0.078 C 
HETATM    5  C2  UNL     1     -33.712  16.998  -3.637  1.00 20.00     0.026 C 
HETATM    6 CL9  UNL     1     -34.603  16.364  -1.171  1.00 20.00    -0.125 Cl
ENDBRANCH   3   4
ENDBRANCH   2   3
BRANCH   2   7
HETATM    7  C5  UNL     1     -34.759  13.431  -5.417  1.00 20.00     0.171 C 
BRANCH   7   8
HETATM    8  O8  UNL     1     -35.359  14.324  -6.348  1.00 20.00    -0.396 OA
HETATM    9  C3  UNL     1     -34.385  15.117  -7.011  1.00 20.00     0.201 C 
ENDBRANCH   7   8
ENDBRANCH   2   7
TORSDOF 4
ENDMDL
MODEL 5
REMARK VINA RESULT:      -3.5     11.467     12.350
REMARK  4 active torsions:
REMARK  status: ('A' for Active; 'I' for Inactive)
REMARK    1  A    between atoms: C4_4  and  C6_6 
REMARK    2  A    between atoms: C4_4  and  C7_7 
REMARK    3  A    between atoms: C5_5  and  C6_6 
REMARK    4  A    between atoms: C5_5  and  O8_8 
ROOT
HETATM    1  C1  UNL     1     -34.700  16.592  -0.811  1.00 20.00     0.012 C 
HETATM    2  C6  UNL     1     -34.732  15.996  -2.218  1.00 20.00     0.007 C 
ENDROOT
BRANCH   2   3
HETATM    3  C4  UNL     1     -33.661  16.617  -3.145  1.00 20.00     0.026 C 
BRANCH   3   4
HETATM    4  C7  UNL     1     -33.076  15.684  -4.218  1.00 20.00     0.078 C 
HETATM    5  C2  UNL     1     -33.652  16.009  -5.593  1.00 20.00     0.026 C 
HETATM    6 CL9  UNL     1     -33.420  13.971  -3.839  1.00 20.00    -0.125 Cl
ENDBRANCH   3   4
ENDBRANCH   2   3
BRANCH   2   7
HETATM    7  C5  UNL     1     -36.133  16.183  -2.822  1.00 20.00     0.171 C 
BRANCH   7   8
HETATM    8  O8  UNL     1     -36.702  14.918  -3.136  1.00 20.00    -0.396 OA
HETATM    9  C3  UNL     1     -37.009  14.814  -4.519  1.00 20.00     0.201 C 
ENDBRANCH   7   8
ENDBRANCH   2   7
TORSDOF 4
ENDMDL
MODEL 6
REMARK VINA RESULT:      -3.4     11.019     11.955
REMARK  4 active torsions:
REMARK  status: ('A' for Active; 'I' for Inactive)
REMARK    1  A    between atoms: C4_4  and  C6_6 
REMARK    2  A    between atoms: C4_4  and  C7_7 
REMARK    3  A    between atoms: C5_5  and  C6_6 
REMARK    4  A    between atoms: C5_5  and  O8_8 
ROOT
HETATM    1  C1  UNL     1     -33.838  17.359  -4.030  1.00 20.00     0.012 C 
HETATM    2  C6  UNL     1     -33.790  16.341  -2.890  1.00 20.00     0.007 C 
ENDROOT
BRANCH   2   3
HETATM    3  C4  UNL     1     -34.980  15.354  -2.932  1.00 20.00     0.026 C 
BRANCH   3   4
HETATM    4  C7  UNL     1     -34.740  14.043  -3.697  1.00 20.00     0.078 C 
HETATM    5  C2  UNL     1     -33.254  13.695  -3.726  1.00 20.00     0.026 C 
HETATM    6 CL9  UNL     1     -35.337  14.159  -5.378  1.00 20.00    -0.125 Cl
ENDBRANCH   3   4
ENDBRANCH   2   3
BRANCH   2   7
HETATM    7  C5  UNL     1     -33.759  17.082  -1.544  1.00 20.00     0.171 C 
BRANCH   7   8
HETATM    8  O8  UNL     1     -34.674  16.482  -0.636  1.00 20.00    -0.396 OA
HETATM    9  C3  UNL     1     -35.012  17.367   0.424  1.00 20.00     0.201 C 
ENDBRANCH   7   8
ENDBRANCH   2   7
TORSDOF 4
ENDMDL
MODEL 7
REMARK VINA RESULT:      -3.4     11.610     12.415
REMARK  4 active torsions:
REMARK  status: ('A' for Active; 'I' for Inactive)
REMARK    1  A    between atoms: C4_4  and  C6_6 
REMARK    2  A    between atoms: C4_4  and  C7_7 
REMARK    3  A    between atoms: C5_5  and  C6_6 
REMARK    4  A    between atoms: C5_5  and  O8_8 
ROOT
HETATM    1  C1  UNL     1     -33.565  13.836  -3.813  1.00 20.00     0.012 C 
HETATM    2  C6  UNL     1     -33.252  15.290  -3.460  1.00 20.00     0.007 C 
ENDROOT
BRANCH   2   3
HETATM    3  C4  UNL     1     -34.324  15.915  -2.535  1.00 20.00     0.026 C 
BRANCH   3   4
HETATM    4  C7  UNL     1     -33.808  16.910  -1.484  1.00 20.00     0.078 C 
HETATM    5  C2  UNL     1     -34.774  17.007  -0.307  1.00 20.00     0.026 C 
HETATM    6 CL9  UNL     1     -33.595  18.539  -2.189  1.00 20.00    -0.125 Cl
ENDBRANCH   3   4
ENDBRANCH   2   3
BRANCH   2   7
HETATM    7  C5  UNL     1     -33.116  16.113  -4.750  1.00 20.00     0.171 C 
BRANCH   7   8
HETATM    8  O8  UNL     1     -34.404  16.421  -5.270  1.00 20.00    -0.396 OA
HETATM    9  C3  UNL     1     -34.491  16.122  -6.657  1.00 20.00     0.201 C 
ENDBRANCH   7   8
ENDBRANCH   2   7
TORSDOF 4
ENDMDL
MODEL 8
REMARK VINA RESULT:      -3.4     11.921     12.961
REMARK  4 active torsions:
REMARK  status: ('A' for Active; 'I' for Inactive)
REMARK    1  A    between atoms: C4_4  and  C6_6 
REMARK    2  A    between atoms: C4_4  and  C7_7 
REMARK    3  A    between atoms: C5_5  and  C6_6 
REMARK    4  A    between atoms: C5_5  and  O8_8 
ROOT
HETATM    1  C1  UNL     1     -34.590  15.834  -2.289  1.00 20.00     0.012 C 
HETATM    2  C6  UNL     1     -35.252  14.837  -3.241  1.00 20.00     0.007 C 
ENDROOT
BRANCH   2   3
HETATM    3  C4  UNL     1     -34.414  14.599  -4.520  1.00 20.00     0.026 C 
BRANCH   3   4
HETATM    4  C7  UNL     1     -34.576  15.645  -5.634  1.00 20.00     0.078 C 
HETATM    5  C2  UNL     1     -34.435  15.000  -7.010  1.00 20.00     0.026 C 
HETATM    6 CL9  UNL     1     -33.357  16.944  -5.480  1.00 20.00    -0.125 Cl
ENDBRANCH   3   4
ENDBRANCH   2   3
BRANCH   2   7
HETATM    7  C5  UNL     1     -36.657  15.337  -3.609  1.00 20.00     0.171 C 
BRANCH   7   8
HETATM    8  O8  UNL     1     -37.544  14.235  -3.759  1.00 20.00    -0.396 OA
HETATM    9  C3  UNL     1     -38.854  14.664  -4.103  1.00 20.00     0.201 C 
ENDBRANCH   7   8
ENDBRANCH   2   7
TORSDOF 4
ENDMDL
MODEL 9
REMARK VINA RESULT:      -3.4      2.728      4.377
REMARK  4 active torsions:
REMARK  status: ('A' for Active; 'I' for Inactive)
REMARK    1  A    between atoms: C4_4  and  C6_6 
REMARK    2  A    between atoms: C4_4  and  C7_7 
REMARK    3  A    between atoms: C5_5  and  C6_6 
REMARK    4  A    between atoms: C5_5  and  O8_8 
ROOT
HETATM    1  C1  UNL     1     -35.561   5.707   3.328  1.00 20.00     0.012 C 
HETATM    2  C6  UNL     1     -34.300   6.120   4.088  1.00 20.00     0.007 C 
ENDROOT
BRANCH   2   3
HETATM    3  C4  UNL     1     -33.069   6.247   3.159  1.00 20.00     0.026 C 
BRANCH   3   4
HETATM    4  C7  UNL     1     -32.425   7.641   3.083  1.00 20.00     0.078 C 
HETATM    5  C2  UNL     1     -31.989   7.960   1.656  1.00 20.00     0.026 C 
HETATM    6 CL9  UNL     1     -31.003   7.753   4.159  1.00 20.00    -0.125 Cl
ENDBRANCH   3   4
ENDBRANCH   2   3
BRANCH   2   7
HETATM    7  C5  UNL     1     -34.021   5.105   5.207  1.00 20.00     0.171 C 
BRANCH   7   8
HETATM    8  O8  UNL     1     -34.343   5.672   6.471  1.00 20.00    -0.396 OA
HETATM    9  C3  UNL     1     -33.799   6.977   6.611  1.00 20.00     0.201 C 
ENDBRANCH   7   8
ENDBRANCH   2   7
TORSDOF 4
ENDMDL
