MODEL 1
REMARK VINA RESULT:      -4.0      0.000      0.000
REMARK  2 active torsions:
REMARK  status: ('A' for Active; 'I' for Inactive)
REMARK    1  A    between atoms: C7_7  and  C8_8 
REMARK    2  A    between atoms: C8_8  and  S9_9 
ROOT
HETATM    1  C1  UNL     1     -34.243  15.312  -5.559  1.00 20.00     0.005 C 
HETATM    2  C2  UNL     1     -33.285  16.002  -4.578  1.00 20.00     0.005 C 
HETATM    3  C3  UNL     1     -33.521  13.736  -3.927  1.00 20.00     0.009 C 
HETATM    4  C4  UNL     1     -35.728  14.614  -3.671  1.00 20.00     0.010 C 
HETATM    5  C5  UNL     1     -34.754  14.107  -4.751  1.00 20.00    -0.014 C 
HETATM    6  C6  UNL     1     -33.401  15.135  -3.313  1.00 20.00    -0.009 C 
HETATM    7  C7  UNL     1     -34.789  15.279  -2.644  1.00 20.00    -0.001 C 
ENDROOT
BRANCH   7   8
HETATM    8  C8  UNL     1     -35.200  16.694  -2.272  1.00 20.00     0.075 C 
BRANCH   8   9
HETATM    9  S9  UNL     1     -34.669  17.085  -0.583  1.00 20.00    -0.182 SA
HETATM   10  H23 UNL     1     -35.520  18.104  -0.397  1.00 20.00     0.101 HD
ENDBRANCH   8   9
ENDBRANCH   7   8
TORSDOF 2
ENDMDL
MODEL 2
REMARK VINA RESULT:      -4.0     11.232     12.452
REMARK  2 active torsions:
REMARK  status: ('A' for Active; 'I' for Inactive)
REMARK    1  A    between atoms: C7_7  and  C8_8 
REMARK    2  A    between atoms: C8_8  and  S9_9 
ROOT
HETATM    1  C1  UNL     1     -42.468   5.393   0.427  1.00 20.00     0.005 C 
HETATM    2  C2  UNL     1     -43.138   4.969  -0.888  1.00 20.00     0.005 C 
HETATM    3  C3  UNL     1     -40.794   4.719  -1.126  1.00 20.00     0.009 C 
HETATM    4  C4  UNL     1     -41.063   7.068  -0.789  1.00 20.00     0.010 C 
HETATM    5  C5  UNL     1     -41.035   5.738  -0.012  1.00 20.00    -0.014 C 
HETATM    6  C6  UNL     1     -42.021   5.169  -1.926  1.00 20.00    -0.009 C 
HETATM    7  C7  UNL     1     -41.695   6.667  -2.137  1.00 20.00    -0.001 C 
ENDROOT
BRANCH   7   8
HETATM    8  C8  UNL     1     -42.865   7.546  -2.545  1.00 20.00     0.075 C 
BRANCH   8   9
HETATM    9  S9  UNL     1     -42.577   8.264  -4.185  1.00 20.00    -0.182 SA
HETATM   10  H23 UNL     1     -43.664   7.737  -4.767  1.00 20.00     0.101 HD
ENDBRANCH   8   9
ENDBRANCH   7   8
TORSDOF 2
ENDMDL
MODEL 3
REMARK VINA RESULT:      -3.9      2.639      3.712
REMARK  2 active torsions:
REMARK  status: ('A' for Active; 'I' for Inactive)
REMARK    1  A    between atoms: C7_7  and  C8_8 
REMARK    2  A    between atoms: C8_8  and  S9_9 
ROOT
HETATM    1  C1  UNL     1     -34.863  15.482  -2.845  1.00 20.00     0.005 C 
HETATM    2  C2  UNL     1     -35.667  14.517  -3.728  1.00 20.00     0.005 C 
HETATM    3  C3  UNL     1     -33.389  13.866  -3.787  1.00 20.00     0.009 C 
HETATM    4  C4  UNL     1     -33.362  16.045  -4.765  1.00 20.00     0.010 C 
HETATM    5  C5  UNL     1     -33.433  15.344  -3.396  1.00 20.00    -0.014 C 
HETATM    6  C6  UNL     1     -34.608  13.981  -4.707  1.00 20.00    -0.009 C 
HETATM    7  C7  UNL     1     -34.128  15.076  -5.689  1.00 20.00    -0.001 C 
ENDROOT
BRANCH   7   8
HETATM    8  C8  UNL     1     -35.215  15.751  -6.510  1.00 20.00     0.075 C 
BRANCH   8   9
HETATM    9  S9  UNL     1     -35.713  14.692  -7.895  1.00 20.00    -0.182 SA
HETATM   10  H23 UNL     1     -36.876  14.293  -7.362  1.00 20.00     0.101 HD
ENDBRANCH   8   9
ENDBRANCH   7   8
TORSDOF 2
ENDMDL
MODEL 4
REMARK VINA RESULT:      -3.8     12.316     13.457
REMARK  2 active torsions:
REMARK  status: ('A' for Active; 'I' for Inactive)
REMARK    1  A    between atoms: C7_7  and  C8_8 
REMARK    2  A    between atoms: C8_8  and  S9_9 
ROOT
HETATM    1  C1  UNL     1     -43.074   6.416  -0.036  1.00 20.00     0.005 C 
HETATM    2  C2  UNL     1     -42.726   5.006   0.460  1.00 20.00     0.005 C 
HETATM    3  C3  UNL     1     -40.718   6.096  -0.170  1.00 20.00     0.009 C 
HETATM    4  C4  UNL     1     -41.938   5.966  -2.219  1.00 20.00     0.010 C 
HETATM    5  C5  UNL     1     -41.864   6.781  -0.914  1.00 20.00    -0.014 C 
HETATM    6  C6  UNL     1     -41.382   4.717  -0.232  1.00 20.00    -0.009 C 
HETATM    7  C7  UNL     1     -41.550   4.545  -1.761  1.00 20.00    -0.001 C 
ENDROOT
BRANCH   7   8
HETATM    8  C8  UNL     1     -42.535   3.475  -2.202  1.00 20.00     0.075 C 
BRANCH   8   9
HETATM    9  S9  UNL     1     -41.734   2.301  -3.327  1.00 20.00    -0.182 SA
HETATM   10  H23 UNL     1     -41.250   1.494  -2.373  1.00 20.00     0.101 HD
ENDBRANCH   8   9
ENDBRANCH   7   8
TORSDOF 2
ENDMDL
MODEL 5
REMARK VINA RESULT:      -3.8      1.168      1.168
REMARK  2 active torsions:
REMARK  status: ('A' for Active; 'I' for Inactive)
REMARK    1  A    between atoms: C7_7  and  C8_8 
REMARK    2  A    between atoms: C8_8  and  S9_9 
ROOT
HETATM    1  C1  UNL     1     -34.226  15.217  -5.607  1.00 20.00     0.005 C 
HETATM    2  C2  UNL     1     -33.291  16.063  -4.731  1.00 20.00     0.005 C 
HETATM    3  C3  UNL     1     -33.389  13.874  -3.827  1.00 20.00     0.009 C 
HETATM    4  C4  UNL     1     -35.637  14.655  -3.619  1.00 20.00     0.010 C 
HETATM    5  C5  UNL     1     -34.655  14.083  -4.659  1.00 20.00    -0.014 C 
HETATM    6  C6  UNL     1     -33.337  15.337  -3.375  1.00 20.00    -0.009 C 
HETATM    7  C7  UNL     1     -34.719  15.480  -2.694  1.00 20.00    -0.001 C 
ENDROOT
BRANCH   7   8
HETATM    8  C8  UNL     1     -35.202  16.904  -2.472  1.00 20.00     0.075 C 
BRANCH   8   9
HETATM    9  S9  UNL     1     -36.778  17.179  -3.325  1.00 20.00    -0.182 SA
HETATM   10  H23 UNL     1     -36.992  15.897  -3.651  1.00 20.00     0.101 HD
ENDBRANCH   8   9
ENDBRANCH   7   8
TORSDOF 2
ENDMDL
MODEL 6
REMARK VINA RESULT:      -3.8     11.550     12.534
REMARK  2 active torsions:
REMARK  status: ('A' for Active; 'I' for Inactive)
REMARK    1  A    between atoms: C7_7  and  C8_8 
REMARK    2  A    between atoms: C8_8  and  S9_9 
ROOT
HETATM    1  C1  UNL     1     -34.374   4.613   5.754  1.00 20.00     0.005 C 
HETATM    2  C2  UNL     1     -34.205   6.139   5.770  1.00 20.00     0.005 C 
HETATM    3  C3  UNL     1     -35.860   5.585   4.168  1.00 20.00     0.009 C 
HETATM    4  C4  UNL     1     -33.889   4.551   3.301  1.00 20.00     0.010 C 
HETATM    5  C5  UNL     1     -34.983   4.348   4.366  1.00 20.00    -0.014 C 
HETATM    6  C6  UNL     1     -34.694   6.556   4.373  1.00 20.00    -0.009 C 
HETATM    7  C7  UNL     1     -33.725   6.084   3.262  1.00 20.00    -0.001 C 
ENDROOT
BRANCH   7   8
HETATM    8  C8  UNL     1     -32.283   6.544   3.403  1.00 20.00     0.075 C 
BRANCH   8   9
HETATM    9  S9  UNL     1     -31.976   7.995   2.360  1.00 20.00    -0.182 SA
HETATM   10  H23 UNL     1     -33.154   7.967   1.722  1.00 20.00     0.101 HD
ENDBRANCH   8   9
ENDBRANCH   7   8
TORSDOF 2
ENDMDL
MODEL 7
REMARK VINA RESULT:      -3.8      1.244      2.187
REMARK  2 active torsions:
REMARK  status: ('A' for Active; 'I' for Inactive)
REMARK    1  A    between atoms: C7_7  and  C8_8 
REMARK    2  A    between atoms: C8_8  and  S9_9 
ROOT
HETATM    1  C1  UNL     1     -36.495  14.399  -4.121  1.00 20.00     0.005 C 
HETATM    2  C2  UNL     1     -36.155  15.554  -5.074  1.00 20.00     0.005 C 
HETATM    3  C3  UNL     1     -34.817  13.686  -5.654  1.00 20.00     0.009 C 
HETATM    4  C4  UNL     1     -34.096  14.210  -3.438  1.00 20.00     0.010 C 
HETATM    5  C5  UNL     1     -35.240  13.511  -4.195  1.00 20.00    -0.014 C 
HETATM    6  C6  UNL     1     -34.729  15.211  -5.539  1.00 20.00    -0.009 C 
HETATM    7  C7  UNL     1     -33.701  15.356  -4.392  1.00 20.00    -0.001 C 
ENDROOT
BRANCH   7   8
HETATM    8  C8  UNL     1     -33.651  16.718  -3.718  1.00 20.00     0.075 C 
BRANCH   8   9
HETATM    9  S9  UNL     1     -34.125  16.579  -1.973  1.00 20.00    -0.182 SA
HETATM   10  H23 UNL     1     -35.238  15.862  -2.182  1.00 20.00     0.101 HD
ENDBRANCH   8   9
ENDBRANCH   7   8
TORSDOF 2
ENDMDL
MODEL 8
REMARK VINA RESULT:      -3.8      2.557      3.442
REMARK  2 active torsions:
REMARK  status: ('A' for Active; 'I' for Inactive)
REMARK    1  A    between atoms: C7_7  and  C8_8 
REMARK    2  A    between atoms: C8_8  and  S9_9 
ROOT
HETATM    1  C1  UNL     1     -32.788  14.650  -3.675  1.00 20.00     0.005 C 
HETATM    2  C2  UNL     1     -33.204  15.977  -4.324  1.00 20.00     0.005 C 
HETATM    3  C3  UNL     1     -35.101  15.034  -3.263  1.00 20.00     0.009 C 
HETATM    4  C4  UNL     1     -34.562  13.431  -4.949  1.00 20.00     0.010 C 
HETATM    5  C5  UNL     1     -34.122  13.895  -3.548  1.00 20.00    -0.014 C 
HETATM    6  C6  UNL     1     -34.718  15.801  -4.532  1.00 20.00    -0.009 C 
HETATM    7  C7  UNL     1     -35.028  14.741  -5.616  1.00 20.00    -0.001 C 
ENDROOT
BRANCH   7   8
HETATM    8  C8  UNL     1     -34.400  14.986  -6.979  1.00 20.00     0.075 C 
BRANCH   8   9
HETATM    9  S9  UNL     1     -35.021  16.532  -7.694  1.00 20.00    -0.182 SA
HETATM   10  H23 UNL     1     -36.292  16.373  -7.301  1.00 20.00     0.101 HD
ENDBRANCH   8   9
ENDBRANCH   7   8
TORSDOF 2
ENDMDL
MODEL 9
REMARK VINA RESULT:      -3.8      1.852      3.157
REMARK  2 active torsions:
REMARK  status: ('A' for Active; 'I' for Inactive)
REMARK    1  A    between atoms: C7_7  and  C8_8 
REMARK    2  A    between atoms: C8_8  and  S9_9 
ROOT
HETATM    1  C1  UNL     1     -34.635  15.568  -2.686  1.00 20.00     0.005 C 
HETATM    2  C2  UNL     1     -35.630  14.752  -3.522  1.00 20.00     0.005 C 
HETATM    3  C3  UNL     1     -33.463  13.852  -3.848  1.00 20.00     0.009 C 
HETATM    4  C4  UNL     1     -33.276  16.066  -4.726  1.00 20.00     0.010 C 
HETATM    5  C5  UNL     1     -33.293  15.301  -3.389  1.00 20.00    -0.014 C 
HETATM    6  C6  UNL     1     -34.745  14.155  -4.629  1.00 20.00    -0.009 C 
HETATM    7  C7  UNL     1     -34.238  15.243  -5.606  1.00 20.00    -0.001 C 
ENDROOT
BRANCH   7   8
HETATM    8  C8  UNL     1     -35.314  16.082  -6.277  1.00 20.00     0.075 C 
BRANCH   8   9
HETATM    9  S9  UNL     1     -35.123  17.830  -5.835  1.00 20.00    -0.182 SA
HETATM   10  H23 UNL     1     -34.326  17.625  -4.778  1.00 20.00     0.101 HD
ENDBRANCH   8   9
ENDBRANCH   7   8
TORSDOF 2
ENDMDL
