MODEL 1
REMARK VINA RESULT:      -4.0      0.000      0.000
REMARK  4 active torsions:
REMARK  status: ('A' for Active; 'I' for Inactive)
REMARK    1  A    between atoms: C4_4  and  C6_6 
REMARK    2  A    between atoms: C4_4  and  C7_7 
REMARK    3  A    between atoms: C5_5  and  C6_6 
REMARK    4  A    between atoms: C5_5  and  O8_8 
ROOT
HETATM    1  C1  UNL     1     -32.123   5.300   2.994  1.00 20.00     0.012 C 
HETATM    2  C6  UNL     1     -32.975   6.558   2.822  1.00 20.00     0.007 C 
ENDROOT
BRANCH   2   3
HETATM    3  C4  UNL     1     -34.119   6.640   3.861  1.00 20.00     0.026 C 
BRANCH   3   4
HETATM    4  C7  UNL     1     -33.963   5.750   5.104  1.00 20.00     0.078 C 
HETATM    5  C2  UNL     1     -35.107   4.744   5.200  1.00 20.00     0.026 C 
HETATM    6 CL9  UNL     1     -33.932   6.730   6.600  1.00 20.00    -0.125 Cl
ENDBRANCH   3   4
ENDBRANCH   2   3
BRANCH   2   7
HETATM    7  C5  UNL     1     -32.076   7.801   2.915  1.00 20.00     0.171 C 
BRANCH   7   8
HETATM    8  O8  UNL     1     -31.765   8.277   1.612  1.00 20.00    -0.396 OA
HETATM    9  C3  UNL     1     -32.425   9.503   1.334  1.00 20.00     0.201 C 
ENDBRANCH   7   8
ENDBRANCH   2   7
TORSDOF 4
ENDMDL
MODEL 2
REMARK VINA RESULT:      -3.7     10.832     11.884
REMARK  4 active torsions:
REMARK  status: ('A' for Active; 'I' for Inactive)
REMARK    1  A    between atoms: C4_4  and  C6_6 
REMARK    2  A    between atoms: C4_4  and  C7_7 
REMARK    3  A    between atoms: C5_5  and  C6_6 
REMARK    4  A    between atoms: C5_5  and  O8_8 
ROOT
HETATM    1  C1  UNL     1     -34.529  16.418  -1.173  1.00 20.00     0.012 C 
HETATM    2  C6  UNL     1     -34.147  16.005  -2.594  1.00 20.00     0.007 C 
ENDROOT
BRANCH   2   3
HETATM    3  C4  UNL     1     -35.240  15.145  -3.270  1.00 20.00     0.026 C 
BRANCH   3   4
HETATM    4  C7  UNL     1     -34.750  13.879  -3.992  1.00 20.00     0.078 C 
HETATM    5  C2  UNL     1     -33.282  13.607  -3.678  1.00 20.00     0.026 C 
HETATM    6 CL9  UNL     1     -34.941  14.031  -5.763  1.00 20.00    -0.125 Cl
ENDBRANCH   3   4
ENDBRANCH   2   3
BRANCH   2   7
HETATM    7  C5  UNL     1     -33.859  17.261  -3.431  1.00 20.00     0.171 C 
BRANCH   7   8
HETATM    8  O8  UNL     1     -33.060  16.924  -4.557  1.00 20.00    -0.396 OA
HETATM    9  C3  UNL     1     -33.592  17.469  -5.756  1.00 20.00     0.201 C 
ENDBRANCH   7   8
ENDBRANCH   2   7
TORSDOF 4
ENDMDL
MODEL 3
REMARK VINA RESULT:      -3.7     10.905     11.660
REMARK  4 active torsions:
REMARK  status: ('A' for Active; 'I' for Inactive)
REMARK    1  A    between atoms: C4_4  and  C6_6 
REMARK    2  A    between atoms: C4_4  and  C7_7 
REMARK    3  A    between atoms: C5_5  and  C6_6 
REMARK    4  A    between atoms: C5_5  and  O8_8 
ROOT
HETATM    1  C1  UNL     1     -33.097  13.719  -3.653  1.00 20.00     0.012 C 
HETATM    2  C6  UNL     1     -34.616  13.834  -3.779  1.00 20.00     0.007 C 
ENDROOT
BRANCH   2   3
HETATM    3  C4  UNL     1     -35.165  15.122  -3.120  1.00 20.00     0.026 C 
BRANCH   3   4
HETATM    4  C7  UNL     1     -34.126  16.019  -2.428  1.00 20.00     0.078 C 
HETATM    5  C2  UNL     1     -34.659  16.544  -1.099  1.00 20.00     0.026 C 
HETATM    6 CL9  UNL     1     -33.686  17.410  -3.461  1.00 20.00    -0.125 Cl
ENDBRANCH   3   4
ENDBRANCH   2   3
BRANCH   2   7
HETATM    7  C5  UNL     1     -35.011  13.781  -5.263  1.00 20.00     0.171 C 
BRANCH   7   8
HETATM    8  O8  UNL     1     -34.937  15.081  -5.835  1.00 20.00    -0.396 OA
HETATM    9  C3  UNL     1     -34.435  15.039  -7.162  1.00 20.00     0.201 C 
ENDBRANCH   7   8
ENDBRANCH   2   7
TORSDOF 4
ENDMDL
MODEL 4
REMARK VINA RESULT:      -3.6     11.043     12.554
REMARK  4 active torsions:
REMARK  status: ('A' for Active; 'I' for Inactive)
REMARK    1  A    between atoms: C4_4  and  C6_6 
REMARK    2  A    between atoms: C4_4  and  C7_7 
REMARK    3  A    between atoms: C5_5  and  C6_6 
REMARK    4  A    between atoms: C5_5  and  O8_8 
ROOT
HETATM    1  C1  UNL     1     -33.902  16.157  -2.421  1.00 20.00     0.012 C 
HETATM    2  C6  UNL     1     -33.884  15.446  -3.774  1.00 20.00     0.007 C 
ENDROOT
BRANCH   2   3
HETATM    3  C4  UNL     1     -33.235  16.308  -4.883  1.00 20.00     0.026 C 
BRANCH   3   4
HETATM    4  C7  UNL     1     -34.110  16.590  -6.115  1.00 20.00     0.078 C 
HETATM    5  C2  UNL     1     -35.524  16.984  -5.700  1.00 20.00     0.026 C 
HETATM    6 CL9  UNL     1     -34.202  15.157  -7.182  1.00 20.00    -0.125 Cl
ENDBRANCH   3   4
ENDBRANCH   2   3
BRANCH   2   7
HETATM    7  C5  UNL     1     -33.146  14.105  -3.636  1.00 20.00     0.171 C 
BRANCH   7   8
HETATM    8  O8  UNL     1     -33.838  13.091  -4.352  1.00 20.00    -0.396 OA
HETATM    9  C3  UNL     1     -35.244  13.284  -4.300  1.00 20.00     0.201 C 
ENDBRANCH   7   8
ENDBRANCH   2   7
TORSDOF 4
ENDMDL
MODEL 5
REMARK VINA RESULT:      -3.6      2.592      4.433
REMARK  4 active torsions:
REMARK  status: ('A' for Active; 'I' for Inactive)
REMARK    1  A    between atoms: C4_4  and  C6_6 
REMARK    2  A    between atoms: C4_4  and  C7_7 
REMARK    3  A    between atoms: C5_5  and  C6_6 
REMARK    4  A    between atoms: C5_5  and  O8_8 
ROOT
HETATM    1  C1  UNL     1     -35.243   5.795   3.197  1.00 20.00     0.012 C 
HETATM    2  C6  UNL     1     -33.938   5.581   3.964  1.00 20.00     0.007 C 
ENDROOT
BRANCH   2   3
HETATM    3  C4  UNL     1     -32.699   6.031   3.154  1.00 20.00     0.026 C 
BRANCH   3   4
HETATM    4  C7  UNL     1     -32.367   7.531   3.209  1.00 20.00     0.078 C 
HETATM    5  C2  UNL     1     -32.073   8.076   1.815  1.00 20.00     0.026 C 
HETATM    6 CL9  UNL     1     -30.951   7.839   4.257  1.00 20.00    -0.125 Cl
ENDBRANCH   3   4
ENDBRANCH   2   3
BRANCH   2   7
HETATM    7  C5  UNL     1     -34.004   6.332   5.304  1.00 20.00     0.171 C 
BRANCH   7   8
HETATM    8  O8  UNL     1     -34.697   5.549   6.267  1.00 20.00    -0.396 OA
HETATM    9  C3  UNL     1     -34.607   4.162   5.976  1.00 20.00     0.201 C 
ENDBRANCH   7   8
ENDBRANCH   2   7
TORSDOF 4
ENDMDL
MODEL 6
REMARK VINA RESULT:      -3.6     10.914     11.634
REMARK  4 active torsions:
REMARK  status: ('A' for Active; 'I' for Inactive)
REMARK    1  A    between atoms: C4_4  and  C6_6 
REMARK    2  A    between atoms: C4_4  and  C7_7 
REMARK    3  A    between atoms: C5_5  and  C6_6 
REMARK    4  A    between atoms: C5_5  and  O8_8 
ROOT
HETATM    1  C1  UNL     1     -33.353  16.601  -4.781  1.00 20.00     0.012 C 
HETATM    2  C6  UNL     1     -33.162  15.830  -3.474  1.00 20.00     0.007 C 
ENDROOT
BRANCH   2   3
HETATM    3  C4  UNL     1     -34.234  16.189  -2.418  1.00 20.00     0.026 C 
BRANCH   3   4
HETATM    4  C7  UNL     1     -33.767  17.096  -1.267  1.00 20.00     0.078 C 
HETATM    5  C2  UNL     1     -34.800  17.126  -0.145  1.00 20.00     0.026 C 
HETATM    6 CL9  UNL     1     -33.488  18.768  -1.837  1.00 20.00    -0.125 Cl
ENDBRANCH   3   4
ENDBRANCH   2   3
BRANCH   2   7
HETATM    7  C5  UNL     1     -33.179  14.321  -3.764  1.00 20.00     0.171 C 
BRANCH   7   8
HETATM    8  O8  UNL     1     -34.416  13.758  -3.348  1.00 20.00    -0.396 OA
HETATM    9  C3  UNL     1     -35.141  13.223  -4.446  1.00 20.00     0.201 C 
ENDBRANCH   7   8
ENDBRANCH   2   7
TORSDOF 4
ENDMDL
MODEL 7
REMARK VINA RESULT:      -3.4     10.941     11.755
REMARK  4 active torsions:
REMARK  status: ('A' for Active; 'I' for Inactive)
REMARK    1  A    between atoms: C4_4  and  C6_6 
REMARK    2  A    between atoms: C4_4  and  C7_7 
REMARK    3  A    between atoms: C5_5  and  C6_6 
REMARK    4  A    between atoms: C5_5  and  O8_8 
ROOT
HETATM    1  C1  UNL     1     -33.748  13.668  -3.883  1.00 20.00     0.012 C 
HETATM    2  C6  UNL     1     -34.769  14.701  -3.404  1.00 20.00     0.007 C 
ENDROOT
BRANCH   2   3
HETATM    3  C4  UNL     1     -34.232  16.148  -3.504  1.00 20.00     0.026 C 
BRANCH   3   4
HETATM    4  C7  UNL     1     -33.726  16.771  -2.194  1.00 20.00     0.078 C 
HETATM    5  C2  UNL     1     -34.680  16.466  -1.042  1.00 20.00     0.026 C 
HETATM    6 CL9  UNL     1     -33.556  18.544  -2.346  1.00 20.00    -0.125 Cl
ENDBRANCH   3   4
ENDBRANCH   2   3
BRANCH   2   7
HETATM    7  C5  UNL     1     -36.065  14.551  -4.216  1.00 20.00     0.171 C 
BRANCH   7   8
HETATM    8  O8  UNL     1     -37.193  14.656  -3.357  1.00 20.00    -0.396 OA
HETATM    9  C3  UNL     1     -38.405  14.727  -4.095  1.00 20.00     0.201 C 
ENDBRANCH   7   8
ENDBRANCH   2   7
TORSDOF 4
ENDMDL
MODEL 8
REMARK VINA RESULT:      -3.4     10.998     11.949
REMARK  4 active torsions:
REMARK  status: ('A' for Active; 'I' for Inactive)
REMARK    1  A    between atoms: C4_4  and  C6_6 
REMARK    2  A    between atoms: C4_4  and  C7_7 
REMARK    3  A    between atoms: C5_5  and  C6_6 
REMARK    4  A    between atoms: C5_5  and  O8_8 
ROOT
HETATM    1  C1  UNL     1     -34.650  16.847  -0.544  1.00 20.00     0.012 C 
HETATM    2  C6  UNL     1     -34.037  16.509  -1.903  1.00 20.00     0.007 C 
ENDROOT
BRANCH   2   3
HETATM    3  C4  UNL     1     -34.874  15.468  -2.683  1.00 20.00     0.026 C 
BRANCH   3   4
HETATM    4  C7  UNL     1     -34.175  14.800  -3.878  1.00 20.00     0.078 C 
HETATM    5  C2  UNL     1     -34.799  13.443  -4.186  1.00 20.00     0.026 C 
HETATM    6 CL9  UNL     1     -32.430  14.572  -3.559  1.00 20.00    -0.125 Cl
ENDBRANCH   3   4
ENDBRANCH   2   3
BRANCH   2   7
HETATM    7  C5  UNL     1     -33.879  17.796  -2.727  1.00 20.00     0.171 C 
BRANCH   7   8
HETATM    8  O8  UNL     1     -35.156  18.289  -3.112  1.00 20.00    -0.396 OA
HETATM    9  C3  UNL     1     -35.153  18.756  -4.453  1.00 20.00     0.201 C 
ENDBRANCH   7   8
ENDBRANCH   2   7
TORSDOF 4
ENDMDL
MODEL 9
REMARK VINA RESULT:      -3.4     10.720     11.598
REMARK  4 active torsions:
REMARK  status: ('A' for Active; 'I' for Inactive)
REMARK    1  A    between atoms: C4_4  and  C6_6 
REMARK    2  A    between atoms: C4_4  and  C7_7 
REMARK    3  A    between atoms: C5_5  and  C6_6 
REMARK    4  A    between atoms: C5_5  and  O8_8 
ROOT
HETATM    1  C1  UNL     1     -33.699  17.490  -4.154  1.00 20.00     0.012 C 
HETATM    2  C6  UNL     1     -34.190  16.461  -3.134  1.00 20.00     0.007 C 
ENDROOT
BRANCH   2   3
HETATM    3  C4  UNL     1     -33.665  15.038  -3.436  1.00 20.00     0.026 C 
BRANCH   3   4
HETATM    4  C7  UNL     1     -34.737  13.955  -3.640  1.00 20.00     0.078 C 
HETATM    5  C2  UNL     1     -34.527  13.223  -4.962  1.00 20.00     0.026 C 
HETATM    6 CL9  UNL     1     -36.379  14.662  -3.629  1.00 20.00    -0.125 Cl
ENDBRANCH   3   4
ENDBRANCH   2   3
BRANCH   2   7
HETATM    7  C5  UNL     1     -33.769  16.900  -1.723  1.00 20.00     0.171 C 
BRANCH   7   8
HETATM    8  O8  UNL     1     -34.682  16.390  -0.761  1.00 20.00    -0.396 OA
HETATM    9  C3  UNL     1     -34.949  17.340   0.261  1.00 20.00     0.201 C 
ENDBRANCH   7   8
ENDBRANCH   2   7
TORSDOF 4
ENDMDL
