MODEL 1
REMARK VINA RESULT:      -5.1      0.000      0.000
REMARK  3 active torsions:
REMARK  status: ('A' for Active; 'I' for Inactive)
REMARK    1  A    between atoms: C7_7  and  C9_9 
REMARK    2  A    between atoms: C8_8  and  O11_11 
REMARK    3  A    between atoms: C9_9  and  O11_11 
ROOT
HETATM    1  C1  UNL     1     -34.477   4.984   5.746  1.00 20.00     0.129 C 
HETATM    2  C2  UNL     1     -34.959   4.385   4.451  1.00 20.00     0.081 C 
HETATM    3  C3  UNL     1     -33.996   6.405   5.578  1.00 20.00     0.110 C 
HETATM    4  C4  UNL     1     -35.048   5.613   3.551  1.00 20.00     0.040 C 
HETATM    5  C8  UNL     1     -33.954   6.545   4.059  1.00 20.00     0.128 C 
HETATM    6  O10 UNL     1     -34.473   4.386   6.815  1.00 20.00    -0.298 OA
ENDROOT
BRANCH   5   7
HETATM    7  O11 UNL     1     -32.694   6.106   3.560  1.00 20.00    -0.385 OA
BRANCH   7   8
HETATM    8  C9  UNL     1     -31.873   7.202   3.185  1.00 20.00     0.172 C 
BRANCH   8   9
HETATM    9  C7  UNL     1     -32.525   7.936   2.033  1.00 20.00     0.009 A 
HETATM   10  C5  UNL     1     -32.448   9.435   1.949  1.00 20.00     0.007 A 
HETATM   11  C6  UNL     1     -31.680   8.587   0.974  1.00 20.00     0.007 A 
ENDBRANCH   8   9
ENDBRANCH   7   8
ENDBRANCH   5   7
TORSDOF 3
ENDMDL
MODEL 2
REMARK VINA RESULT:      -4.7     10.857     11.892
REMARK  3 active torsions:
REMARK  status: ('A' for Active; 'I' for Inactive)
REMARK    1  A    between atoms: C7_7  and  C9_9 
REMARK    2  A    between atoms: C8_8  and  O11_11 
REMARK    3  A    between atoms: C9_9  and  O11_11 
ROOT
HETATM    1  C1  UNL     1     -34.534  13.574  -4.509  1.00 20.00     0.129 C 
HETATM    2  C2  UNL     1     -33.312  13.899  -3.689  1.00 20.00     0.081 C 
HETATM    3  C3  UNL     1     -35.368  14.797  -4.806  1.00 20.00     0.110 C 
HETATM    4  C4  UNL     1     -33.274  15.421  -3.774  1.00 20.00     0.040 C 
HETATM    5  C8  UNL     1     -34.735  15.840  -3.889  1.00 20.00     0.128 C 
HETATM    6  O10 UNL     1     -34.819  12.445  -4.890  1.00 20.00    -0.298 OA
ENDROOT
BRANCH   5   7
HETATM    7  O11 UNL     1     -35.341  15.793  -2.601  1.00 20.00    -0.385 OA
BRANCH   7   8
HETATM    8  C9  UNL     1     -35.237  17.042  -1.933  1.00 20.00     0.172 C 
BRANCH   8   9
HETATM    9  C7  UNL     1     -34.517  16.839  -0.617  1.00 20.00     0.009 A 
HETATM   10  C5  UNL     1     -33.826  17.994   0.054  1.00 20.00     0.007 A 
HETATM   11  C6  UNL     1     -35.080  17.417   0.651  1.00 20.00     0.007 A 
ENDBRANCH   8   9
ENDBRANCH   7   8
ENDBRANCH   5   7
TORSDOF 3
ENDMDL
MODEL 3
REMARK VINA RESULT:      -4.6     10.962     12.255
REMARK  3 active torsions:
REMARK  status: ('A' for Active; 'I' for Inactive)
REMARK    1  A    between atoms: C7_7  and  C9_9 
REMARK    2  A    between atoms: C8_8  and  O11_11 
REMARK    3  A    between atoms: C9_9  and  O11_11 
ROOT
HETATM    1  C1  UNL     1     -34.736  14.342  -5.849  1.00 20.00     0.129 C 
HETATM    2  C2  UNL     1     -34.680  13.155  -4.922  1.00 20.00     0.081 C 
HETATM    3  C3  UNL     1     -34.261  15.612  -5.185  1.00 20.00     0.110 C 
HETATM    4  C4  UNL     1     -33.849  13.700  -3.765  1.00 20.00     0.040 C 
HETATM    5  C8  UNL     1     -34.175  15.188  -3.721  1.00 20.00     0.128 C 
HETATM    6  O10 UNL     1     -35.124  14.283  -7.009  1.00 20.00    -0.298 OA
ENDROOT
BRANCH   5   7
HETATM    7  O11 UNL     1     -35.433  15.375  -3.081  1.00 20.00    -0.385 OA
BRANCH   7   8
HETATM    8  C9  UNL     1     -35.472  16.598  -2.359  1.00 20.00     0.172 C 
BRANCH   8   9
HETATM    9  C7  UNL     1     -34.570  16.485  -1.150  1.00 20.00     0.009 A 
HETATM   10  C5  UNL     1     -33.690  17.637  -0.751  1.00 20.00     0.007 A 
HETATM   11  C6  UNL     1     -34.874  17.267   0.098  1.00 20.00     0.007 A 
ENDBRANCH   8   9
ENDBRANCH   7   8
ENDBRANCH   5   7
TORSDOF 3
ENDMDL
MODEL 4
REMARK VINA RESULT:      -4.5     11.288     12.337
REMARK  3 active torsions:
REMARK  status: ('A' for Active; 'I' for Inactive)
REMARK    1  A    between atoms: C7_7  and  C9_9 
REMARK    2  A    between atoms: C8_8  and  O11_11 
REMARK    3  A    between atoms: C9_9  and  O11_11 
ROOT
HETATM    1  C1  UNL     1     -34.979  13.747  -4.782  1.00 20.00     0.129 C 
HETATM    2  C2  UNL     1     -34.635  14.514  -6.032  1.00 20.00     0.081 C 
HETATM    3  C3  UNL     1     -35.524  14.638  -3.693  1.00 20.00     0.110 C 
HETATM    4  C4  UNL     1     -35.295  15.863  -5.764  1.00 20.00     0.040 C 
HETATM    5  C8  UNL     1     -35.234  16.029  -4.250  1.00 20.00     0.128 C 
HETATM    6  O10 UNL     1     -34.832  12.537  -4.663  1.00 20.00    -0.298 OA
ENDROOT
BRANCH   5   7
HETATM    7  O11 UNL     1     -33.924  16.445  -3.875  1.00 20.00    -0.385 OA
BRANCH   7   8
HETATM    8  C9  UNL     1     -33.965  17.534  -2.964  1.00 20.00     0.172 C 
BRANCH   8   9
HETATM    9  C7  UNL     1     -33.625  17.030  -1.578  1.00 20.00     0.009 A 
HETATM   10  C5  UNL     1     -33.827  17.915  -0.379  1.00 20.00     0.007 A 
HETATM   11  C6  UNL     1     -34.720  16.724  -0.594  1.00 20.00     0.007 A 
ENDBRANCH   8   9
ENDBRANCH   7   8
ENDBRANCH   5   7
TORSDOF 3
ENDMDL
MODEL 5
REMARK VINA RESULT:      -4.4     11.508     12.444
REMARK  3 active torsions:
REMARK  status: ('A' for Active; 'I' for Inactive)
REMARK    1  A    between atoms: C7_7  and  C9_9 
REMARK    2  A    between atoms: C8_8  and  O11_11 
REMARK    3  A    between atoms: C9_9  and  O11_11 
ROOT
HETATM    1  C1  UNL     1     -36.197  14.503  -4.472  1.00 20.00     0.129 C 
HETATM    2  C2  UNL     1     -35.137  13.670  -5.144  1.00 20.00     0.081 C 
HETATM    3  C3  UNL     1     -36.018  15.980  -4.732  1.00 20.00     0.110 C 
HETATM    4  C4  UNL     1     -34.493  14.683  -6.087  1.00 20.00     0.040 C 
HETATM    5  C8  UNL     1     -34.633  16.021  -5.371  1.00 20.00     0.128 C 
HETATM    6  O10 UNL     1     -37.101  14.036  -3.791  1.00 20.00    -0.298 OA
ENDROOT
BRANCH   5   7
HETATM    7  O11 UNL     1     -33.631  16.121  -4.363  1.00 20.00    -0.385 OA
BRANCH   7   8
HETATM    8  C9  UNL     1     -33.924  17.160  -3.441  1.00 20.00     0.172 C 
BRANCH   8   9
HETATM    9  C7  UNL     1     -33.647  16.666  -2.037  1.00 20.00     0.009 A 
HETATM   10  C5  UNL     1     -33.776  17.600  -0.866  1.00 20.00     0.007 A 
HETATM   11  C6  UNL     1     -34.775  16.493  -1.059  1.00 20.00     0.007 A 
ENDBRANCH   8   9
ENDBRANCH   7   8
ENDBRANCH   5   7
TORSDOF 3
ENDMDL
MODEL 6
REMARK VINA RESULT:      -4.3     11.145     12.517
REMARK  3 active torsions:
REMARK  status: ('A' for Active; 'I' for Inactive)
REMARK    1  A    between atoms: C7_7  and  C9_9 
REMARK    2  A    between atoms: C8_8  and  O11_11 
REMARK    3  A    between atoms: C9_9  and  O11_11 
ROOT
HETATM    1  C1  UNL     1     -33.964  15.630  -5.545  1.00 20.00     0.129 C 
HETATM    2  C2  UNL     1     -34.483  14.224  -5.392  1.00 20.00     0.081 C 
HETATM    3  C3  UNL     1     -33.432  16.191  -4.248  1.00 20.00     0.110 C 
HETATM    4  C4  UNL     1     -33.949  13.841  -4.015  1.00 20.00     0.040 C 
HETATM    5  C8  UNL     1     -33.909  15.152  -3.237  1.00 20.00     0.128 C 
HETATM    6  O10 UNL     1     -33.974  16.248  -6.602  1.00 20.00    -0.298 OA
ENDROOT
BRANCH   5   7
HETATM    7  O11 UNL     1     -35.222  15.471  -2.787  1.00 20.00    -0.385 OA
BRANCH   7   8
HETATM    8  C9  UNL     1     -35.261  16.745  -2.161  1.00 20.00     0.172 C 
BRANCH   8   9
HETATM    9  C7  UNL     1     -34.495  16.677  -0.858  1.00 20.00     0.009 A 
HETATM   10  C5  UNL     1     -33.807  17.901  -0.318  1.00 20.00     0.007 A 
HETATM   11  C6  UNL     1     -35.029  17.359   0.371  1.00 20.00     0.007 A 
ENDBRANCH   8   9
ENDBRANCH   7   8
ENDBRANCH   5   7
TORSDOF 3
ENDMDL
MODEL 7
REMARK VINA RESULT:      -4.3     10.786     12.646
REMARK  3 active torsions:
REMARK  status: ('A' for Active; 'I' for Inactive)
REMARK    1  A    between atoms: C7_7  and  C9_9 
REMARK    2  A    between atoms: C8_8  and  O11_11 
REMARK    3  A    between atoms: C9_9  and  O11_11 
ROOT
HETATM    1  C1  UNL     1     -34.683  13.604  -3.984  1.00 20.00     0.129 C 
HETATM    2  C2  UNL     1     -35.575  14.756  -3.599  1.00 20.00     0.081 C 
HETATM    3  C3  UNL     1     -33.223  13.903  -3.745  1.00 20.00     0.110 C 
HETATM    4  C4  UNL     1     -34.615  15.647  -2.816  1.00 20.00     0.040 C 
HETATM    5  C8  UNL     1     -33.252  15.400  -3.453  1.00 20.00     0.128 C 
HETATM    6  O10 UNL     1     -35.097  12.546  -4.441  1.00 20.00    -0.298 OA
ENDROOT
BRANCH   5   7
HETATM    7  O11 UNL     1     -33.159  16.139  -4.667  1.00 20.00    -0.385 OA
BRANCH   7   8
HETATM    8  C9  UNL     1     -33.552  17.491  -4.483  1.00 20.00     0.172 C 
BRANCH   8   9
HETATM    9  C7  UNL     1     -34.501  17.884  -5.594  1.00 20.00     0.009 A 
HETATM   10  C5  UNL     1     -33.982  18.570  -6.828  1.00 20.00     0.007 A 
HETATM   11  C6  UNL     1     -34.475  17.152  -6.907  1.00 20.00     0.007 A 
ENDBRANCH   8   9
ENDBRANCH   7   8
ENDBRANCH   5   7
TORSDOF 3
ENDMDL
MODEL 8
REMARK VINA RESULT:      -4.2     10.845     12.641
REMARK  3 active torsions:
REMARK  status: ('A' for Active; 'I' for Inactive)
REMARK    1  A    between atoms: C7_7  and  C9_9 
REMARK    2  A    between atoms: C8_8  and  O11_11 
REMARK    3  A    between atoms: C9_9  and  O11_11 
ROOT
HETATM    1  C1  UNL     1     -34.243  14.341  -3.380  1.00 20.00     0.129 C 
HETATM    2  C2  UNL     1     -35.331  15.113  -2.681  1.00 20.00     0.081 C 
HETATM    3  C3  UNL     1     -33.051  15.205  -3.717  1.00 20.00     0.110 C 
HETATM    4  C4  UNL     1     -34.614  16.411  -2.322  1.00 20.00     0.040 C 
HETATM    5  C8  UNL     1     -33.587  16.605  -3.432  1.00 20.00     0.128 C 
HETATM    6  O10 UNL     1     -34.317  13.148  -3.647  1.00 20.00    -0.298 OA
ENDROOT
BRANCH   5   7
HETATM    7  O11 UNL     1     -34.237  17.126  -4.588  1.00 20.00    -0.385 OA
BRANCH   7   8
HETATM    8  C9  UNL     1     -33.473  16.894  -5.762  1.00 20.00     0.172 C 
BRANCH   8   9
HETATM    9  C7  UNL     1     -34.394  16.415  -6.863  1.00 20.00     0.009 A 
HETATM   10  C5  UNL     1     -34.488  14.951  -7.189  1.00 20.00     0.007 A 
HETATM   11  C6  UNL     1     -35.642  15.648  -6.526  1.00 20.00     0.007 A 
ENDBRANCH   8   9
ENDBRANCH   7   8
ENDBRANCH   5   7
TORSDOF 3
ENDMDL
MODEL 9
REMARK VINA RESULT:      -4.0     10.995     12.838
REMARK  3 active torsions:
REMARK  status: ('A' for Active; 'I' for Inactive)
REMARK    1  A    between atoms: C7_7  and  C9_9 
REMARK    2  A    between atoms: C8_8  and  O11_11 
REMARK    3  A    between atoms: C9_9  and  O11_11 
ROOT
HETATM    1  C1  UNL     1     -34.417  13.637  -4.784  1.00 20.00     0.129 C 
HETATM    2  C2  UNL     1     -33.724  14.253  -3.596  1.00 20.00     0.081 C 
HETATM    3  C3  UNL     1     -34.585  14.614  -5.922  1.00 20.00     0.110 C 
HETATM    4  C4  UNL     1     -33.193  15.556  -4.185  1.00 20.00     0.040 C 
HETATM    5  C8  UNL     1     -34.204  15.936  -5.260  1.00 20.00     0.128 C 
HETATM    6  O10 UNL     1     -34.802  12.475  -4.821  1.00 20.00    -0.298 OA
ENDROOT
BRANCH   5   7
HETATM    7  O11 UNL     1     -35.347  16.523  -4.644  1.00 20.00    -0.385 OA
BRANCH   7   8
HETATM    8  C9  UNL     1     -36.490  16.437  -5.481  1.00 20.00     0.172 C 
BRANCH   8   9
HETATM    9  C7  UNL     1     -37.702  16.124  -4.630  1.00 20.00     0.009 A 
HETATM   10  C5  UNL     1     -38.733  15.142  -5.111  1.00 20.00     0.007 A 
HETATM   11  C6  UNL     1     -37.833  14.784  -3.962  1.00 20.00     0.007 A 
ENDBRANCH   8   9
ENDBRANCH   7   8
ENDBRANCH   5   7
TORSDOF 3
ENDMDL
