MODEL 1
REMARK VINA RESULT:      -5.6      0.000      0.000
REMARK  3 active torsions:
REMARK  status: ('A' for Active; 'I' for Inactive)
REMARK    1  A    between atoms: C3_3  and  C9_9 
REMARK    2  A    between atoms: C7_7  and  O11_11 
REMARK    3  A    between atoms: C9_9  and  O11_11 
ROOT
HETATM    1  C1  UNL     1     -34.899   4.517   5.078  1.00 20.00     0.129 C 
HETATM    2  C4  UNL     1     -34.202   5.165   6.245  1.00 20.00     0.081 C 
HETATM    3  C5  UNL     1     -34.900   5.393   3.849  1.00 20.00     0.110 C 
HETATM    4  C6  UNL     1     -34.061   6.607   5.763  1.00 20.00     0.040 C 
HETATM    5  C7  UNL     1     -33.926   6.497   4.249  1.00 20.00     0.129 C 
HETATM    6  O10 UNL     1     -35.406   3.402   5.121  1.00 20.00    -0.298 OA
ENDROOT
BRANCH   5   7
HETATM    7  O11 UNL     1     -32.593   6.117   3.923  1.00 20.00    -0.382 OA
BRANCH   7   8
HETATM    8  C9  UNL     1     -31.798   7.246   3.592  1.00 20.00     0.195 C 
BRANCH   8   9
HETATM    9  C3  UNL     1     -32.110   7.659   2.190  1.00 20.00    -0.005 C 
HETATM   10  C2  UNL     1     -32.141   8.934   1.779  1.00 20.00    -0.033 C 
HETATM   11  C8  UNL     1     -32.457   9.350   0.381  1.00 20.00     0.036 C 
ENDBRANCH   8   9
ENDBRANCH   7   8
ENDBRANCH   5   7
TORSDOF 3
ENDMDL
MODEL 2
REMARK VINA RESULT:      -4.8     11.157     12.268
REMARK  3 active torsions:
REMARK  status: ('A' for Active; 'I' for Inactive)
REMARK    1  A    between atoms: C3_3  and  C9_9 
REMARK    2  A    between atoms: C7_7  and  O11_11 
REMARK    3  A    between atoms: C9_9  and  O11_11 
ROOT
HETATM    1  C1  UNL     1     -34.373  13.680  -4.870  1.00 20.00     0.129 C 
HETATM    2  C4  UNL     1     -34.733  14.688  -5.930  1.00 20.00     0.081 C 
HETATM    3  C5  UNL     1     -33.490  14.266  -3.795  1.00 20.00     0.110 C 
HETATM    4  C6  UNL     1     -33.765  15.827  -5.621  1.00 20.00     0.040 C 
HETATM    5  C7  UNL     1     -33.557  15.757  -4.113  1.00 20.00     0.129 C 
HETATM    6  O10 UNL     1     -34.757  12.517  -4.878  1.00 20.00    -0.298 OA
ENDROOT
BRANCH   5   7
HETATM    7  O11 UNL     1     -34.672  16.349  -3.456  1.00 20.00    -0.382 OA
BRANCH   7   8
HETATM    8  C9  UNL     1     -34.813  15.863  -2.130  1.00 20.00     0.195 C 
BRANCH   8   9
HETATM    9  C3  UNL     1     -34.218  16.858  -1.188  1.00 20.00    -0.005 C 
HETATM   10  C2  UNL     1     -34.775  17.201  -0.018  1.00 20.00    -0.033 C 
HETATM   11  C8  UNL     1     -34.185  18.197   0.924  1.00 20.00     0.036 C 
ENDBRANCH   8   9
ENDBRANCH   7   8
ENDBRANCH   5   7
TORSDOF 3
ENDMDL
MODEL 3
REMARK VINA RESULT:      -4.6     11.374     12.285
REMARK  3 active torsions:
REMARK  status: ('A' for Active; 'I' for Inactive)
REMARK    1  A    between atoms: C3_3  and  C9_9 
REMARK    2  A    between atoms: C7_7  and  O11_11 
REMARK    3  A    between atoms: C9_9  and  O11_11 
ROOT
HETATM    1  C1  UNL     1     -36.666  14.330  -4.438  1.00 20.00     0.129 C 
HETATM    2  C4  UNL     1     -36.688  15.180  -5.681  1.00 20.00     0.081 C 
HETATM    3  C5  UNL     1     -35.351  13.615  -4.253  1.00 20.00     0.110 C 
HETATM    4  C6  UNL     1     -35.440  14.694  -6.414  1.00 20.00     0.040 C 
HETATM    5  C7  UNL     1     -34.476  14.289  -5.306  1.00 20.00     0.129 C 
HETATM    6  O10 UNL     1     -37.610  14.234  -3.662  1.00 20.00    -0.298 OA
ENDROOT
BRANCH   5   7
HETATM    7  O11 UNL     1     -33.866  15.456  -4.763  1.00 20.00    -0.382 OA
BRANCH   7   8
HETATM    8  C9  UNL     1     -33.323  15.206  -3.475  1.00 20.00     0.195 C 
BRANCH   8   9
HETATM    9  C3  UNL     1     -33.708  16.328  -2.566  1.00 20.00    -0.005 C 
HETATM   10  C2  UNL     1     -34.574  16.199  -1.550  1.00 20.00    -0.033 C 
HETATM   11  C8  UNL     1     -34.963  17.319  -0.644  1.00 20.00     0.036 C 
ENDBRANCH   8   9
ENDBRANCH   7   8
ENDBRANCH   5   7
TORSDOF 3
ENDMDL
MODEL 4
REMARK VINA RESULT:      -4.2     11.142     12.419
REMARK  3 active torsions:
REMARK  status: ('A' for Active; 'I' for Inactive)
REMARK    1  A    between atoms: C3_3  and  C9_9 
REMARK    2  A    between atoms: C7_7  and  O11_11 
REMARK    3  A    between atoms: C9_9  and  O11_11 
ROOT
HETATM    1  C1  UNL     1     -33.602  15.292  -4.555  1.00 20.00     0.129 C 
HETATM    2  C4  UNL     1     -33.584  13.988  -3.800  1.00 20.00     0.081 C 
HETATM    3  C5  UNL     1     -34.966  15.614  -5.114  1.00 20.00     0.110 C 
HETATM    4  C6  UNL     1     -34.924  13.376  -4.201  1.00 20.00     0.040 C 
HETATM    5  C7  UNL     1     -35.842  14.572  -4.425  1.00 20.00     0.129 C 
HETATM    6  O10 UNL     1     -32.620  16.010  -4.696  1.00 20.00    -0.298 OA
ENDROOT
BRANCH   5   7
HETATM    7  O11 UNL     1     -36.291  15.062  -3.167  1.00 20.00    -0.382 OA
BRANCH   7   8
HETATM    8  C9  UNL     1     -36.655  16.433  -3.243  1.00 20.00     0.195 C 
BRANCH   8   9
HETATM    9  C3  UNL     1     -35.913  17.186  -2.187  1.00 20.00    -0.005 C 
HETATM   10  C2  UNL     1     -34.960  16.644  -1.416  1.00 20.00    -0.033 C 
HETATM   11  C8  UNL     1     -34.221  17.393  -0.358  1.00 20.00     0.036 C 
ENDBRANCH   8   9
ENDBRANCH   7   8
ENDBRANCH   5   7
TORSDOF 3
ENDMDL
MODEL 5
REMARK VINA RESULT:      -4.1     11.649     12.528
REMARK  3 active torsions:
REMARK  status: ('A' for Active; 'I' for Inactive)
REMARK    1  A    between atoms: C3_3  and  C9_9 
REMARK    2  A    between atoms: C7_7  and  O11_11 
REMARK    3  A    between atoms: C9_9  and  O11_11 
ROOT
HETATM    1  C1  UNL     1     -37.402  14.650  -4.329  1.00 20.00     0.129 C 
HETATM    2  C4  UNL     1     -37.488  15.743  -5.362  1.00 20.00     0.081 C 
HETATM    3  C5  UNL     1     -36.004  14.100  -4.189  1.00 20.00     0.110 C 
HETATM    4  C6  UNL     1     -36.143  15.609  -6.072  1.00 20.00     0.040 C 
HETATM    5  C7  UNL     1     -35.188  15.106  -4.997  1.00 20.00     0.129 C 
HETATM    6  O10 UNL     1     -38.359  14.255  -3.675  1.00 20.00    -0.298 OA
ENDROOT
BRANCH   5   7
HETATM    7  O11 UNL     1     -34.794  16.195  -4.170  1.00 20.00    -0.382 OA
BRANCH   7   8
HETATM    8  C9  UNL     1     -34.178  15.743  -2.973  1.00 20.00     0.195 C 
BRANCH   8   9
HETATM    9  C3  UNL     1     -34.885  16.354  -1.808  1.00 20.00    -0.005 C 
HETATM   10  C2  UNL     1     -34.256  16.902  -0.759  1.00 20.00    -0.033 C 
HETATM   11  C8  UNL     1     -34.961  17.509   0.409  1.00 20.00     0.036 C 
ENDBRANCH   8   9
ENDBRANCH   7   8
ENDBRANCH   5   7
TORSDOF 3
ENDMDL
MODEL 6
REMARK VINA RESULT:      -4.0      9.477     10.877
REMARK  3 active torsions:
REMARK  status: ('A' for Active; 'I' for Inactive)
REMARK    1  A    between atoms: C3_3  and  C9_9 
REMARK    2  A    between atoms: C7_7  and  O11_11 
REMARK    3  A    between atoms: C9_9  and  O11_11 
ROOT
HETATM    1  C1  UNL     1     -42.728   7.549  -0.740  1.00 20.00     0.129 C 
HETATM    2  C4  UNL     1     -43.283   6.268  -0.174  1.00 20.00     0.081 C 
HETATM    3  C5  UNL     1     -41.233   7.491  -0.934  1.00 20.00     0.110 C 
HETATM    4  C6  UNL     1     -42.014   5.545   0.267  1.00 20.00     0.040 C 
HETATM    5  C7  UNL     1     -40.944   6.009  -0.714  1.00 20.00     0.129 C 
HETATM    6  O10 UNL     1     -43.415   8.526  -1.014  1.00 20.00    -0.298 OA
ENDROOT
BRANCH   5   7
HETATM    7  O11 UNL     1     -41.086   5.294  -1.936  1.00 20.00    -0.382 OA
BRANCH   7   8
HETATM    8  C9  UNL     1     -40.980   3.893  -1.734  1.00 20.00     0.195 C 
BRANCH   8   9
HETATM    9  C3  UNL     1     -41.799   3.195  -2.771  1.00 20.00    -0.005 C 
HETATM   10  C2  UNL     1     -41.339   2.189  -3.530  1.00 20.00    -0.033 C 
HETATM   11  C8  UNL     1     -42.153   1.493  -4.569  1.00 20.00     0.036 C 
ENDBRANCH   8   9
ENDBRANCH   7   8
ENDBRANCH   5   7
TORSDOF 3
ENDMDL
MODEL 7
REMARK VINA RESULT:      -4.0     11.522     13.414
REMARK  3 active torsions:
REMARK  status: ('A' for Active; 'I' for Inactive)
REMARK    1  A    between atoms: C3_3  and  C9_9 
REMARK    2  A    between atoms: C7_7  and  O11_11 
REMARK    3  A    between atoms: C9_9  and  O11_11 
ROOT
HETATM    1  C1  UNL     1     -35.971  16.459  -6.222  1.00 20.00     0.129 C 
HETATM    2  C4  UNL     1     -34.742  16.410  -7.092  1.00 20.00     0.081 C 
HETATM    3  C5  UNL     1     -36.211  15.160  -5.493  1.00 20.00     0.110 C 
HETATM    4  C6  UNL     1     -34.428  14.916  -7.106  1.00 20.00     0.040 C 
HETATM    5  C7  UNL     1     -34.909  14.408  -5.752  1.00 20.00     0.129 C 
HETATM    6  O10 UNL     1     -36.692  17.444  -6.118  1.00 20.00    -0.298 OA
ENDROOT
BRANCH   5   7
HETATM    7  O11 UNL     1     -33.946  14.737  -4.757  1.00 20.00    -0.382 OA
BRANCH   7   8
HETATM    8  C9  UNL     1     -34.497  14.649  -3.452  1.00 20.00     0.195 C 
BRANCH   8   9
HETATM    9  C3  UNL     1     -34.005  15.806  -2.643  1.00 20.00    -0.005 C 
HETATM   10  C2  UNL     1     -34.600  16.237  -1.522  1.00 20.00    -0.033 C 
HETATM   11  C8  UNL     1     -34.114  17.395  -0.715  1.00 20.00     0.036 C 
ENDBRANCH   8   9
ENDBRANCH   7   8
ENDBRANCH   5   7
TORSDOF 3
ENDMDL
MODEL 8
REMARK VINA RESULT:      -3.9     11.098     12.561
REMARK  3 active torsions:
REMARK  status: ('A' for Active; 'I' for Inactive)
REMARK    1  A    between atoms: C3_3  and  C9_9 
REMARK    2  A    between atoms: C7_7  and  O11_11 
REMARK    3  A    between atoms: C9_9  and  O11_11 
ROOT
HETATM    1  C1  UNL     1     -33.771  17.573  -1.424  1.00 20.00     0.129 C 
HETATM    2  C4  UNL     1     -33.868  18.127  -2.821  1.00 20.00     0.081 C 
HETATM    3  C5  UNL     1     -34.610  16.332  -1.238  1.00 20.00     0.110 C 
HETATM    4  C6  UNL     1     -35.056  17.352  -3.384  1.00 20.00     0.040 C 
HETATM    5  C7  UNL     1     -35.008  16.004  -2.674  1.00 20.00     0.129 C 
HETATM    6  O10 UNL     1     -33.085  18.071  -0.539  1.00 20.00    -0.298 OA
ENDROOT
BRANCH   5   7
HETATM    7  O11 UNL     1     -34.015  15.187  -3.284  1.00 20.00    -0.382 OA
BRANCH   7   8
HETATM    8  C9  UNL     1     -34.528  13.905  -3.614  1.00 20.00     0.195 C 
BRANCH   8   9
HETATM    9  C3  UNL     1     -35.058  13.945  -5.011  1.00 20.00    -0.005 C 
HETATM   10  C2  UNL     1     -34.463  14.606  -6.014  1.00 20.00    -0.033 C 
HETATM   11  C8  UNL     1     -34.993  14.651  -7.409  1.00 20.00     0.036 C 
ENDBRANCH   8   9
ENDBRANCH   7   8
ENDBRANCH   5   7
TORSDOF 3
ENDMDL
MODEL 9
REMARK VINA RESULT:      -3.9      9.477     10.863
REMARK  3 active torsions:
REMARK  status: ('A' for Active; 'I' for Inactive)
REMARK    1  A    between atoms: C3_3  and  C9_9 
REMARK    2  A    between atoms: C7_7  and  O11_11 
REMARK    3  A    between atoms: C9_9  and  O11_11 
ROOT
HETATM    1  C1  UNL     1     -42.299   5.605   0.285  1.00 20.00     0.129 C 
HETATM    2  C4  UNL     1     -40.853   5.874  -0.037  1.00 20.00     0.081 C 
HETATM    3  C5  UNL     1     -43.237   6.492  -0.496  1.00 20.00     0.110 C 
HETATM    4  C6  UNL     1     -40.944   7.187  -0.811  1.00 20.00     0.040 C 
HETATM    5  C7  UNL     1     -42.295   7.128  -1.514  1.00 20.00     0.129 C 
HETATM    6  O10 UNL     1     -42.672   4.758   1.088  1.00 20.00    -0.298 OA
ENDROOT
BRANCH   5   7
HETATM    7  O11 UNL     1     -42.189   6.301  -2.667  1.00 20.00    -0.382 OA
BRANCH   7   8
HETATM    8  C9  UNL     1     -43.417   5.649  -2.954  1.00 20.00     0.195 C 
BRANCH   8   9
HETATM    9  C3  UNL     1     -43.136   4.221  -3.291  1.00 20.00    -0.005 C 
HETATM   10  C2  UNL     1     -42.059   3.552  -2.856  1.00 20.00    -0.033 C 
HETATM   11  C8  UNL     1     -41.774   2.126  -3.194  1.00 20.00     0.036 C 
ENDBRANCH   8   9
ENDBRANCH   7   8
ENDBRANCH   5   7
TORSDOF 3
ENDMDL
