MODEL 1
REMARK VINA RESULT:      -4.5      0.000      0.000
REMARK  3 active torsions:
REMARK  status: ('A' for Active; 'I' for Inactive)
REMARK    1  A    between atoms: C4_4  and  C9_9 
REMARK    2  A    between atoms: C7_7  and  C8_8 
REMARK    3  A    between atoms: C8_8  and  N11_11 
ROOT
HETATM    1  C1  UNL     1     -34.774  13.714  -5.166  1.00 20.00     0.060 C 
HETATM    2  C7  UNL     1     -34.707  15.030  -5.817  1.00 20.00     0.151 C 
HETATM    3  N10 UNL     1     -34.827  12.674  -4.654  1.00 20.00    -0.197 NA
ENDROOT
BRANCH   2   4
HETATM    4  C8  UNL     1     -34.759  16.173  -4.814  1.00 20.00     0.249 C 
BRANCH   4   5
HETATM    5  N11 UNL     1     -34.685  15.645  -3.434  1.00 20.00    -0.069 N 
HETATM    6  C2  UNL     1     -35.685  16.275  -2.549  1.00 20.00     0.241 C 
HETATM    7  C4  UNL     1     -34.582  16.369  -1.473  1.00 20.00     0.041 C 
HETATM    8  C3  UNL     1     -33.599  16.279  -2.659  1.00 20.00     0.241 C 
HETATM    9  H28 UNL     1     -34.681  14.617  -3.384  1.00 20.00     0.279 HD
BRANCH   7  10
HETATM   10  C9  UNL     1     -34.539  17.634  -0.644  1.00 20.00    -0.015 C 
HETATM   11  C5  UNL     1     -35.164  17.408   0.736  1.00 20.00     0.010 C 
HETATM   12  C6  UNL     1     -33.103  18.144  -0.494  1.00 20.00     0.010 C 
ENDBRANCH   7  10
ENDBRANCH   4   5
ENDBRANCH   2   4
TORSDOF 3
ENDMDL
MODEL 2
REMARK VINA RESULT:      -4.0      1.276      2.052
REMARK  3 active torsions:
REMARK  status: ('A' for Active; 'I' for Inactive)
REMARK    1  A    between atoms: C4_4  and  C9_9 
REMARK    2  A    between atoms: C7_7  and  C8_8 
REMARK    3  A    between atoms: C8_8  and  N11_11 
ROOT
HETATM    1  C1  UNL     1     -35.263  14.247  -5.884  1.00 20.00     0.060 C 
HETATM    2  C7  UNL     1     -34.773  13.231  -4.942  1.00 20.00     0.151 C 
HETATM    3  N10 UNL     1     -35.651  15.049  -6.629  1.00 20.00    -0.197 NA
ENDROOT
BRANCH   2   4
HETATM    4  C8  UNL     1     -34.195  13.848  -3.678  1.00 20.00     0.249 C 
BRANCH   4   5
HETATM    5  N11 UNL     1     -34.500  15.295  -3.630  1.00 20.00    -0.069 N 
HETATM    6  C2  UNL     1     -33.336  16.090  -3.190  1.00 20.00     0.241 C 
HETATM    7  C4  UNL     1     -34.304  16.904  -2.306  1.00 20.00     0.041 C 
HETATM    8  C3  UNL     1     -35.221  15.665  -2.394  1.00 20.00     0.241 C 
HETATM    9  H28 UNL     1     -34.942  15.653  -4.487  1.00 20.00     0.279 HD
BRANCH   7  10
HETATM   10  C9  UNL     1     -33.812  17.294  -0.929  1.00 20.00    -0.015 C 
HETATM   11  C5  UNL     1     -33.162  18.681  -0.950  1.00 20.00     0.010 C 
HETATM   12  C6  UNL     1     -34.953  17.264   0.091  1.00 20.00     0.010 C 
ENDBRANCH   7  10
ENDBRANCH   4   5
ENDBRANCH   2   4
TORSDOF 3
ENDMDL
MODEL 3
REMARK VINA RESULT:      -4.0      1.114      1.796
REMARK  3 active torsions:
REMARK  status: ('A' for Active; 'I' for Inactive)
REMARK    1  A    between atoms: C4_4  and  C9_9 
REMARK    2  A    between atoms: C7_7  and  C8_8 
REMARK    3  A    between atoms: C8_8  and  N11_11 
ROOT
HETATM    1  C1  UNL     1     -34.343  13.631  -4.111  1.00 20.00     0.060 C 
HETATM    2  C7  UNL     1     -33.718  14.798  -3.471  1.00 20.00     0.151 C 
HETATM    3  N10 UNL     1     -34.836  12.709  -4.616  1.00 20.00    -0.197 NA
ENDROOT
BRANCH   2   4
HETATM    4  C8  UNL     1     -33.934  16.077  -4.266  1.00 20.00     0.249 C 
BRANCH   4   5
HETATM    5  N11 UNL     1     -34.677  17.064  -3.452  1.00 20.00    -0.069 N 
HETATM    6  C2  UNL     1     -33.770  17.905  -2.644  1.00 20.00     0.241 C 
HETATM    7  C4  UNL     1     -34.756  17.731  -1.470  1.00 20.00     0.041 C 
HETATM    8  C3  UNL     1     -35.219  16.462  -2.216  1.00 20.00     0.241 C 
HETATM    9  H28 UNL     1     -35.371  17.603  -3.987  1.00 20.00     0.279 HD
BRANCH   7  10
HETATM   10  C9  UNL     1     -34.155  17.534  -0.094  1.00 20.00    -0.015 C 
HETATM   11  C5  UNL     1     -33.096  18.601   0.201  1.00 20.00     0.010 C 
HETATM   12  C6  UNL     1     -35.239  17.556   0.987  1.00 20.00     0.010 C 
ENDBRANCH   7  10
ENDBRANCH   4   5
ENDBRANCH   2   4
TORSDOF 3
ENDMDL
MODEL 4
REMARK VINA RESULT:      -4.0     10.775     11.487
REMARK  3 active torsions:
REMARK  status: ('A' for Active; 'I' for Inactive)
REMARK    1  A    between atoms: C4_4  and  C9_9 
REMARK    2  A    between atoms: C7_7  and  C8_8 
REMARK    3  A    between atoms: C8_8  and  N11_11 
ROOT
HETATM    1  C1  UNL     1     -32.557   9.126   0.644  1.00 20.00     0.060 C 
HETATM    2  C7  UNL     1     -32.243   9.167   2.079  1.00 20.00     0.151 C 
HETATM    3  N10 UNL     1     -32.805   9.095  -0.489  1.00 20.00    -0.197 NA
ENDROOT
BRANCH   2   4
HETATM    4  C8  UNL     1     -31.814   7.809   2.615  1.00 20.00     0.249 C 
BRANCH   4   5
HETATM    5  N11 UNL     1     -32.975   6.893   2.671  1.00 20.00    -0.069 N 
HETATM    6  C2  UNL     1     -33.875   7.213   3.798  1.00 20.00     0.241 C 
HETATM    7  C4  UNL     1     -33.972   5.697   4.070  1.00 20.00     0.041 C 
HETATM    8  C3  UNL     1     -32.630   5.607   3.311  1.00 20.00     0.241 C 
HETATM    9  H28 UNL     1     -33.463   6.788   1.772  1.00 20.00     0.279 HD
BRANCH   7  10
HETATM   10  C9  UNL     1     -33.968   5.259   5.519  1.00 20.00    -0.015 C 
HETATM   11  C5  UNL     1     -34.192   6.451   6.454  1.00 20.00     0.010 C 
HETATM   12  C6  UNL     1     -35.032   4.186   5.771  1.00 20.00     0.010 C 
ENDBRANCH   7  10
ENDBRANCH   4   5
ENDBRANCH   2   4
TORSDOF 3
ENDMDL
MODEL 5
REMARK VINA RESULT:      -4.0      1.956      2.494
REMARK  3 active torsions:
REMARK  status: ('A' for Active; 'I' for Inactive)
REMARK    1  A    between atoms: C4_4  and  C9_9 
REMARK    2  A    between atoms: C7_7  and  C8_8 
REMARK    3  A    between atoms: C8_8  and  N11_11 
ROOT
HETATM    1  C1  UNL     1     -36.224  14.859  -7.319  1.00 20.00     0.060 C 
HETATM    2  C7  UNL     1     -34.834  14.690  -6.873  1.00 20.00     0.151 C 
HETATM    3  N10 UNL     1     -37.322  14.993  -7.672  1.00 20.00    -0.197 NA
ENDROOT
BRANCH   2   4
HETATM    4  C8  UNL     1     -34.727  13.803  -5.642  1.00 20.00     0.249 C 
BRANCH   4   5
HETATM    5  N11 UNL     1     -33.731  14.358  -4.699  1.00 20.00    -0.069 N 
HETATM    6  C2  UNL     1     -34.258  14.432  -3.321  1.00 20.00     0.241 C 
HETATM    7  C4  UNL     1     -33.614  15.831  -3.216  1.00 20.00     0.041 C 
HETATM    8  C3  UNL     1     -33.678  15.834  -4.759  1.00 20.00     0.241 C 
HETATM    9  H28 UNL     1     -32.807  13.911  -4.762  1.00 20.00     0.279 HD
BRANCH   7  10
HETATM   10  C9  UNL     1     -34.410  16.899  -2.497  1.00 20.00    -0.015 C 
HETATM   11  C5  UNL     1     -34.614  16.533  -1.024  1.00 20.00     0.010 C 
HETATM   12  C6  UNL     1     -33.724  18.264  -2.609  1.00 20.00     0.010 C 
ENDBRANCH   7  10
ENDBRANCH   4   5
ENDBRANCH   2   4
TORSDOF 3
ENDMDL
MODEL 6
REMARK VINA RESULT:      -3.9      1.852      5.155
REMARK  3 active torsions:
REMARK  status: ('A' for Active; 'I' for Inactive)
REMARK    1  A    between atoms: C4_4  and  C9_9 
REMARK    2  A    between atoms: C7_7  and  C8_8 
REMARK    3  A    between atoms: C8_8  and  N11_11 
ROOT
HETATM    1  C1  UNL     1     -34.769  17.005  -0.263  1.00 20.00     0.060 C 
HETATM    2  C7  UNL     1     -34.374  16.516  -1.591  1.00 20.00     0.151 C 
HETATM    3  N10 UNL     1     -35.081  17.390   0.787  1.00 20.00    -0.197 NA
ENDROOT
BRANCH   2   4
HETATM    4  C8  UNL     1     -34.036  17.651  -2.547  1.00 20.00     0.249 C 
BRANCH   4   5
HETATM    5  N11 UNL     1     -33.523  17.107  -3.824  1.00 20.00    -0.069 N 
HETATM    6  C2  UNL     1     -34.577  17.037  -4.856  1.00 20.00     0.241 C 
HETATM    7  C4  UNL     1     -34.032  15.643  -5.231  1.00 20.00     0.041 C 
HETATM    8  C3  UNL     1     -33.447  15.631  -3.802  1.00 20.00     0.241 C 
HETATM    9  H28 UNL     1     -32.658  17.559  -4.148  1.00 20.00     0.279 HD
BRANCH   7  10
HETATM   10  C9  UNL     1     -35.052  14.574  -5.560  1.00 20.00    -0.015 C 
HETATM   11  C5  UNL     1     -35.210  14.415  -7.075  1.00 20.00     0.010 C 
HETATM   12  C6  UNL     1     -34.667  13.234  -4.927  1.00 20.00     0.010 C 
ENDBRANCH   7  10
ENDBRANCH   4   5
ENDBRANCH   2   4
TORSDOF 3
ENDMDL
MODEL 7
REMARK VINA RESULT:      -3.8      1.887      5.314
REMARK  3 active torsions:
REMARK  status: ('A' for Active; 'I' for Inactive)
REMARK    1  A    between atoms: C4_4  and  C9_9 
REMARK    2  A    between atoms: C7_7  and  C8_8 
REMARK    3  A    between atoms: C8_8  and  N11_11 
ROOT
HETATM    1  C1  UNL     1     -34.672  16.249  -1.504  1.00 20.00     0.060 C 
HETATM    2  C7  UNL     1     -34.548  15.563  -2.798  1.00 20.00     0.151 C 
HETATM    3  N10 UNL     1     -34.771  16.791  -0.482  1.00 20.00    -0.197 NA
ENDROOT
BRANCH   2   4
HETATM    4  C8  UNL     1     -33.122  15.587  -3.329  1.00 20.00     0.249 C 
BRANCH   4   5
HETATM    5  N11 UNL     1     -33.110  15.265  -4.773  1.00 20.00    -0.069 N 
HETATM    6  C2  UNL     1     -33.560  16.407  -5.595  1.00 20.00     0.241 C 
HETATM    7  C4  UNL     1     -34.384  15.402  -6.428  1.00 20.00     0.041 C 
HETATM    8  C3  UNL     1     -34.310  14.502  -5.177  1.00 20.00     0.241 C 
HETATM    9  H28 UNL     1     -32.228  14.847  -5.097  1.00 20.00     0.279 HD
BRANCH   7  10
HETATM   10  C9  UNL     1     -35.762  15.847  -6.870  1.00 20.00    -0.015 C 
HETATM   11  C5  UNL     1     -35.705  17.213  -7.560  1.00 20.00     0.010 C 
HETATM   12  C6  UNL     1     -36.400  14.813  -7.803  1.00 20.00     0.010 C 
ENDBRANCH   7  10
ENDBRANCH   4   5
ENDBRANCH   2   4
TORSDOF 3
ENDMDL
MODEL 8
REMARK VINA RESULT:      -3.7      2.280      5.056
REMARK  3 active torsions:
REMARK  status: ('A' for Active; 'I' for Inactive)
REMARK    1  A    between atoms: C4_4  and  C9_9 
REMARK    2  A    between atoms: C7_7  and  C8_8 
REMARK    3  A    between atoms: C8_8  and  N11_11 
ROOT
HETATM    1  C1  UNL     1     -35.236  17.489   1.208  1.00 20.00     0.060 C 
HETATM    2  C7  UNL     1     -34.827  17.097  -0.148  1.00 20.00     0.151 C 
HETATM    3  N10 UNL     1     -35.558  17.798   2.280  1.00 20.00    -0.197 NA
ENDROOT
BRANCH   2   4
HETATM    4  C8  UNL     1     -35.415  18.009  -1.214  1.00 20.00     0.249 C 
BRANCH   4   5
HETATM    5  N11 UNL     1     -35.003  17.553  -2.560  1.00 20.00    -0.069 N 
HETATM    6  C2  UNL     1     -35.856  16.453  -3.054  1.00 20.00     0.241 C 
HETATM    7  C4  UNL     1     -34.570  15.761  -3.552  1.00 20.00     0.041 C 
HETATM    8  C3  UNL     1     -33.850  16.631  -2.499  1.00 20.00     0.241 C 
HETATM    9  H28 UNL     1     -34.883  18.317  -3.238  1.00 20.00     0.279 HD
BRANCH   7  10
HETATM   10  C9  UNL     1     -34.485  14.261  -3.373  1.00 20.00    -0.015 C 
HETATM   11  C5  UNL     1     -35.466  13.540  -4.303  1.00 20.00     0.010 C 
HETATM   12  C6  UNL     1     -33.060  13.758  -3.618  1.00 20.00     0.010 C 
ENDBRANCH   7  10
ENDBRANCH   4   5
ENDBRANCH   2   4
TORSDOF 3
ENDMDL
MODEL 9
REMARK VINA RESULT:      -3.7      2.196      5.266
REMARK  3 active torsions:
REMARK  status: ('A' for Active; 'I' for Inactive)
REMARK    1  A    between atoms: C4_4  and  C9_9 
REMARK    2  A    between atoms: C7_7  and  C8_8 
REMARK    3  A    between atoms: C8_8  and  N11_11 
ROOT
HETATM    1  C1  UNL     1     -32.360  18.692  -0.055  1.00 20.00     0.060 C 
HETATM    2  C7  UNL     1     -33.572  17.968  -0.464  1.00 20.00     0.151 C 
HETATM    3  N10 UNL     1     -31.403  19.263   0.269  1.00 20.00    -0.197 NA
ENDROOT
BRANCH   2   4
HETATM    4  C8  UNL     1     -34.053  18.381  -1.847  1.00 20.00     0.249 C 
BRANCH   4   5
HETATM    5  N11 UNL     1     -35.085  17.439  -2.332  1.00 20.00    -0.069 N 
HETATM    6  C2  UNL     1     -34.710  16.033  -2.076  1.00 20.00     0.241 C 
HETATM    7  C4  UNL     1     -35.212  15.705  -3.498  1.00 20.00     0.041 C 
HETATM    8  C3  UNL     1     -34.976  17.203  -3.786  1.00 20.00     0.241 C 
HETATM    9  H28 UNL     1     -36.038  17.673  -2.023  1.00 20.00     0.279 HD
BRANCH   7  10
HETATM   10  C9  UNL     1     -34.395  14.717  -4.303  1.00 20.00    -0.015 C 
HETATM   11  C5  UNL     1     -34.978  13.305  -4.193  1.00 20.00     0.010 C 
HETATM   12  C6  UNL     1     -34.313  15.140  -5.772  1.00 20.00     0.010 C 
ENDBRANCH   7  10
ENDBRANCH   4   5
ENDBRANCH   2   4
TORSDOF 3
ENDMDL
