MODEL 1
REMARK VINA RESULT:      -4.7      0.000      0.000
REMARK  4 active torsions:
REMARK  status: ('A' for Active; 'I' for Inactive)
REMARK    1  A    between atoms: C2_2  and  C7_7 
REMARK    2  A    between atoms: C2_2  and  O11_11 
REMARK    3  A    between atoms: C6_6  and  C7_7 
REMARK    4  A    between atoms: C6_6  and  C8_8 
ROOT
HETATM    1  C1  UNL     1     -36.875  14.547  -3.962  1.00 20.00     0.074 C 
HETATM    2  C7  UNL     1     -35.450  14.734  -4.295  1.00 20.00     0.192 C 
HETATM    3  N9  UNL     1     -37.996  14.402  -3.703  1.00 20.00    -0.196 NA
ENDROOT
BRANCH   2   4
HETATM    4  C2  UNL     1     -34.988  13.650  -5.257  1.00 20.00     0.276 C 
HETATM    5  O10 UNL     1     -34.517  12.570  -4.927  1.00 20.00    -0.264 OA
BRANCH   4   6
HETATM    6  O11 UNL     1     -35.186  14.071  -6.543  1.00 20.00    -0.325 OA
HETATM    7  C5  UNL     1     -34.358  15.157  -6.972  1.00 20.00     0.213 C 
ENDBRANCH   4   6
ENDBRANCH   2   4
BRANCH   2   8
HETATM    8  C6  UNL     1     -34.570  14.695  -3.032  1.00 20.00     0.033 C 
BRANCH   8   9
HETATM    9  C8  UNL     1     -33.981  16.053  -2.598  1.00 20.00    -0.021 C 
HETATM   10  C3  UNL     1     -34.623  16.496  -1.279  1.00 20.00     0.009 C 
HETATM   11  C4  UNL     1     -34.179  17.140  -3.656  1.00 20.00     0.009 C 
ENDBRANCH   8   9
ENDBRANCH   2   8
TORSDOF 4
ENDMDL
MODEL 2
REMARK VINA RESULT:      -4.5      2.277      2.454
REMARK  4 active torsions:
REMARK  status: ('A' for Active; 'I' for Inactive)
REMARK    1  A    between atoms: C2_2  and  C7_7 
REMARK    2  A    between atoms: C2_2  and  O11_11 
REMARK    3  A    between atoms: C6_6  and  C7_7 
REMARK    4  A    between atoms: C6_6  and  C8_8 
ROOT
HETATM    1  C1  UNL     1     -34.817  13.802  -4.139  1.00 20.00     0.074 C 
HETATM    2  C7  UNL     1     -34.489  15.195  -3.777  1.00 20.00     0.192 C 
HETATM    3  N9  UNL     1     -35.075  12.708  -4.426  1.00 20.00    -0.196 NA
ENDROOT
BRANCH   2   4
HETATM    4  C2  UNL     1     -33.005  15.456  -3.986  1.00 20.00     0.276 C 
HETATM    5  O10 UNL     1     -32.099  14.757  -3.553  1.00 20.00    -0.264 OA
BRANCH   4   6
HETATM    6  O11 UNL     1     -32.845  16.589  -4.735  1.00 20.00    -0.325 OA
HETATM    7  C5  UNL     1     -33.812  16.785  -5.772  1.00 20.00     0.213 C 
ENDBRANCH   4   6
ENDBRANCH   2   4
BRANCH   2   8
HETATM    8  C6  UNL     1     -34.852  15.493  -2.312  1.00 20.00     0.033 C 
BRANCH   8   9
HETATM    9  C8  UNL     1     -34.479  16.907  -1.816  1.00 20.00    -0.021 C 
HETATM   10  C3  UNL     1     -34.693  16.995  -0.302  1.00 20.00     0.009 C 
HETATM   11  C4  UNL     1     -35.288  18.002  -2.514  1.00 20.00     0.009 C 
ENDBRANCH   8   9
ENDBRANCH   2   8
TORSDOF 4
ENDMDL
MODEL 3
REMARK VINA RESULT:      -4.3      2.288      2.700
REMARK  4 active torsions:
REMARK  status: ('A' for Active; 'I' for Inactive)
REMARK    1  A    between atoms: C2_2  and  C7_7 
REMARK    2  A    between atoms: C2_2  and  O11_11 
REMARK    3  A    between atoms: C6_6  and  C7_7 
REMARK    4  A    between atoms: C6_6  and  C8_8 
ROOT
HETATM    1  C1  UNL     1     -33.461  15.769  -4.228  1.00 20.00     0.074 C 
HETATM    2  C7  UNL     1     -34.179  15.028  -3.174  1.00 20.00     0.192 C 
HETATM    3  N9  UNL     1     -32.894  16.350  -5.057  1.00 20.00    -0.196 NA
ENDROOT
BRANCH   2   4
HETATM    4  C2  UNL     1     -35.151  14.038  -3.797  1.00 20.00     0.276 C 
HETATM    5  O10 UNL     1     -34.863  12.908  -4.168  1.00 20.00    -0.264 OA
BRANCH   4   6
HETATM    6  O11 UNL     1     -36.393  14.607  -3.872  1.00 20.00    -0.325 OA
HETATM    7  C5  UNL     1     -36.842  14.935  -5.191  1.00 20.00     0.213 C 
ENDBRANCH   4   6
ENDBRANCH   2   4
BRANCH   2   8
HETATM    8  C6  UNL     1     -34.955  15.982  -2.248  1.00 20.00     0.033 C 
BRANCH   8   9
HETATM    9  C8  UNL     1     -34.082  16.857  -1.323  1.00 20.00    -0.021 C 
HETATM   10  C3  UNL     1     -34.801  17.073   0.012  1.00 20.00     0.009 C 
HETATM   11  C4  UNL     1     -33.744  18.211  -1.949  1.00 20.00     0.009 C 
ENDBRANCH   8   9
ENDBRANCH   2   8
TORSDOF 4
ENDMDL
MODEL 4
REMARK VINA RESULT:      -4.3      2.092      2.711
REMARK  4 active torsions:
REMARK  status: ('A' for Active; 'I' for Inactive)
REMARK    1  A    between atoms: C2_2  and  C7_7 
REMARK    2  A    between atoms: C2_2  and  O11_11 
REMARK    3  A    between atoms: C6_6  and  C7_7 
REMARK    4  A    between atoms: C6_6  and  C8_8 
ROOT
HETATM    1  C1  UNL     1     -34.717  13.867  -4.420  1.00 20.00     0.074 C 
HETATM    2  C7  UNL     1     -34.571  15.317  -4.192  1.00 20.00     0.192 C 
HETATM    3  N9  UNL     1     -34.835  12.727  -4.602  1.00 20.00    -0.196 NA
ENDROOT
BRANCH   2   4
HETATM    4  C2  UNL     1     -33.840  15.963  -5.359  1.00 20.00     0.276 C 
HETATM    5  O10 UNL     1     -33.926  15.606  -6.527  1.00 20.00    -0.264 OA
BRANCH   4   6
HETATM    6  O11 UNL     1     -33.078  17.001  -4.899  1.00 20.00    -0.325 OA
HETATM    7  C5  UNL     1     -33.525  18.308  -5.276  1.00 20.00     0.213 C 
ENDBRANCH   4   6
ENDBRANCH   2   4
BRANCH   2   8
HETATM    8  C6  UNL     1     -33.797  15.604  -2.892  1.00 20.00     0.033 C 
BRANCH   8   9
HETATM    9  C8  UNL     1     -34.616  16.286  -1.775  1.00 20.00    -0.021 C 
HETATM   10  C3  UNL     1     -35.854  16.956  -2.379  1.00 20.00     0.009 C 
HETATM   11  C4  UNL     1     -33.798  17.321  -1.001  1.00 20.00     0.009 C 
ENDBRANCH   8   9
ENDBRANCH   2   8
TORSDOF 4
ENDMDL
MODEL 5
REMARK VINA RESULT:      -4.3      2.548      3.983
REMARK  4 active torsions:
REMARK  status: ('A' for Active; 'I' for Inactive)
REMARK    1  A    between atoms: C2_2  and  C7_7 
REMARK    2  A    between atoms: C2_2  and  O11_11 
REMARK    3  A    between atoms: C6_6  and  C7_7 
REMARK    4  A    between atoms: C6_6  and  C8_8 
ROOT
HETATM    1  C1  UNL     1     -34.395  13.692  -3.958  1.00 20.00     0.074 C 
HETATM    2  C7  UNL     1     -33.693  14.850  -3.371  1.00 20.00     0.192 C 
HETATM    3  N9  UNL     1     -34.946  12.780  -4.416  1.00 20.00    -0.196 NA
ENDROOT
BRANCH   2   4
HETATM    4  C2  UNL     1     -34.666  15.705  -2.573  1.00 20.00     0.276 C 
HETATM    5  O10 UNL     1     -35.885  15.663  -2.674  1.00 20.00    -0.264 OA
BRANCH   4   6
HETATM    6  O11 UNL     1     -33.965  16.520  -1.727  1.00 20.00    -0.325 OA
HETATM    7  C5  UNL     1     -34.639  16.877  -0.516  1.00 20.00     0.213 C 
ENDBRANCH   4   6
ENDBRANCH   2   4
BRANCH   2   8
HETATM    8  C6  UNL     1     -33.036  15.717  -4.460  1.00 20.00     0.033 C 
BRANCH   8   9
HETATM    9  C8  UNL     1     -34.015  16.529  -5.335  1.00 20.00    -0.021 C 
HETATM   10  C3  UNL     1     -34.096  15.906  -6.732  1.00 20.00     0.009 C 
HETATM   11  C4  UNL     1     -33.611  18.000  -5.450  1.00 20.00     0.009 C 
ENDBRANCH   8   9
ENDBRANCH   2   8
TORSDOF 4
ENDMDL
MODEL 6
REMARK VINA RESULT:      -4.2      2.126      2.374
REMARK  4 active torsions:
REMARK  status: ('A' for Active; 'I' for Inactive)
REMARK    1  A    between atoms: C2_2  and  C7_7 
REMARK    2  A    between atoms: C2_2  and  O11_11 
REMARK    3  A    between atoms: C6_6  and  C7_7 
REMARK    4  A    between atoms: C6_6  and  C8_8 
ROOT
HETATM    1  C1  UNL     1     -33.385  16.034  -4.545  1.00 20.00     0.074 C 
HETATM    2  C7  UNL     1     -33.828  14.811  -3.848  1.00 20.00     0.192 C 
HETATM    3  N9  UNL     1     -33.035  16.994  -5.094  1.00 20.00    -0.196 NA
ENDROOT
BRANCH   2   4
HETATM    4  C2  UNL     1     -34.437  13.831  -4.840  1.00 20.00     0.276 C 
HETATM    5  O10 UNL     1     -34.926  12.748  -4.548  1.00 20.00    -0.264 OA
BRANCH   4   6
HETATM    6  O11 UNL     1     -34.354  14.353  -6.101  1.00 20.00    -0.325 OA
HETATM    7  C5  UNL     1     -35.568  14.328  -6.859  1.00 20.00     0.213 C 
ENDBRANCH   4   6
ENDBRANCH   2   4
BRANCH   2   8
HETATM    8  C6  UNL     1     -34.865  15.133  -2.757  1.00 20.00     0.033 C 
BRANCH   8   9
HETATM    9  C8  UNL     1     -34.881  16.600  -2.275  1.00 20.00    -0.021 C 
HETATM   10  C3  UNL     1     -34.588  16.653  -0.773  1.00 20.00     0.009 C 
HETATM   11  C4  UNL     1     -36.213  17.294  -2.564  1.00 20.00     0.009 C 
ENDBRANCH   8   9
ENDBRANCH   2   8
TORSDOF 4
ENDMDL
MODEL 7
REMARK VINA RESULT:      -4.2      2.402      2.917
REMARK  4 active torsions:
REMARK  status: ('A' for Active; 'I' for Inactive)
REMARK    1  A    between atoms: C2_2  and  C7_7 
REMARK    2  A    between atoms: C2_2  and  O11_11 
REMARK    3  A    between atoms: C6_6  and  C7_7 
REMARK    4  A    between atoms: C6_6  and  C8_8 
ROOT
HETATM    1  C1  UNL     1     -35.152  13.685  -4.063  1.00 20.00     0.074 C 
HETATM    2  C7  UNL     1     -35.625  14.857  -3.302  1.00 20.00     0.192 C 
HETATM    3  N9  UNL     1     -34.782  12.762  -4.660  1.00 20.00    -0.196 NA
ENDROOT
BRANCH   2   4
HETATM    4  C2  UNL     1     -37.105  15.093  -3.564  1.00 20.00     0.276 C 
HETATM    5  O10 UNL     1     -37.934  14.213  -3.755  1.00 20.00    -0.264 OA
BRANCH   4   6
HETATM    6  O11 UNL     1     -37.360  16.436  -3.549  1.00 20.00    -0.325 OA
HETATM    7  C5  UNL     1     -38.355  16.886  -4.474  1.00 20.00     0.213 C 
ENDBRANCH   4   6
ENDBRANCH   2   4
BRANCH   2   8
HETATM    8  C6  UNL     1     -34.838  16.125  -3.680  1.00 20.00     0.033 C 
BRANCH   8   9
HETATM    9  C8  UNL     1     -33.975  16.725  -2.550  1.00 20.00    -0.021 C 
HETATM   10  C3  UNL     1     -34.629  16.443  -1.195  1.00 20.00     0.009 C 
HETATM   11  C4  UNL     1     -33.762  18.231  -2.716  1.00 20.00     0.009 C 
ENDBRANCH   8   9
ENDBRANCH   2   8
TORSDOF 4
ENDMDL
MODEL 8
REMARK VINA RESULT:      -4.2      1.867      2.240
REMARK  4 active torsions:
REMARK  status: ('A' for Active; 'I' for Inactive)
REMARK    1  A    between atoms: C2_2  and  C7_7 
REMARK    2  A    between atoms: C2_2  and  O11_11 
REMARK    3  A    between atoms: C6_6  and  C7_7 
REMARK    4  A    between atoms: C6_6  and  C8_8 
ROOT
HETATM    1  C1  UNL     1     -34.244  13.743  -3.801  1.00 20.00     0.074 C 
HETATM    2  C7  UNL     1     -35.525  14.451  -3.981  1.00 20.00     0.192 C 
HETATM    3  N9  UNL     1     -33.237  13.183  -3.660  1.00 20.00    -0.196 NA
ENDROOT
BRANCH   2   4
HETATM    4  C2  UNL     1     -35.604  15.047  -5.378  1.00 20.00     0.276 C 
HETATM    5  O10 UNL     1     -36.006  16.172  -5.642  1.00 20.00    -0.264 OA
BRANCH   4   6
HETATM    6  O11 UNL     1     -35.153  14.131  -6.288  1.00 20.00    -0.325 OA
HETATM    7  C5  UNL     1     -35.466  14.414  -7.656  1.00 20.00     0.213 C 
ENDBRANCH   4   6
ENDBRANCH   2   4
BRANCH   2   8
HETATM    8  C6  UNL     1     -35.694  15.576  -2.943  1.00 20.00     0.033 C 
BRANCH   8   9
HETATM    9  C8  UNL     1     -34.382  16.106  -2.327  1.00 20.00    -0.021 C 
HETATM   10  C3  UNL     1     -34.631  16.543  -0.881  1.00 20.00     0.009 C 
HETATM   11  C4  UNL     1     -33.794  17.273  -3.123  1.00 20.00     0.009 C 
ENDBRANCH   8   9
ENDBRANCH   2   8
TORSDOF 4
ENDMDL
MODEL 9
REMARK VINA RESULT:      -4.1      2.330      2.683
REMARK  4 active torsions:
REMARK  status: ('A' for Active; 'I' for Inactive)
REMARK    1  A    between atoms: C2_2  and  C7_7 
REMARK    2  A    between atoms: C2_2  and  O11_11 
REMARK    3  A    between atoms: C6_6  and  C7_7 
REMARK    4  A    between atoms: C6_6  and  C8_8 
ROOT
HETATM    1  C1  UNL     1     -34.115  14.112  -3.473  1.00 20.00     0.074 C 
HETATM    2  C7  UNL     1     -34.972  15.191  -2.946  1.00 20.00     0.192 C 
HETATM    3  N9  UNL     1     -33.443  13.261  -3.886  1.00 20.00    -0.196 NA
ENDROOT
BRANCH   2   4
HETATM    4  C2  UNL     1     -36.284  15.244  -3.713  1.00 20.00     0.276 C 
HETATM    5  O10 UNL     1     -37.300  14.633  -3.412  1.00 20.00    -0.264 OA
BRANCH   4   6
HETATM    6  O11 UNL     1     -36.148  16.082  -4.786  1.00 20.00    -0.325 OA
HETATM    7  C5  UNL     1     -36.479  15.515  -6.057  1.00 20.00     0.213 C 
ENDBRANCH   4   6
ENDBRANCH   2   4
BRANCH   2   8
HETATM    8  C6  UNL     1     -34.274  16.559  -3.045  1.00 20.00     0.033 C 
BRANCH   8   9
HETATM    9  C8  UNL     1     -33.733  17.122  -1.713  1.00 20.00    -0.021 C 
HETATM   10  C3  UNL     1     -34.689  16.756  -0.574  1.00 20.00     0.009 C 
HETATM   11  C4  UNL     1     -33.540  18.639  -1.756  1.00 20.00     0.009 C 
ENDBRANCH   8   9
ENDBRANCH   2   8
TORSDOF 4
ENDMDL
