MODEL 1
REMARK VINA RESULT:      -5.1      0.000      0.000
REMARK  2 active torsions:
REMARK  status: ('A' for Active; 'I' for Inactive)
REMARK    1  A    between atoms: C2_2  and  C8_8 
REMARK    2  A    between atoms: C2_2  and  C9_9 
ROOT
HETATM    1  C1  UNL     1     -34.661  13.580  -3.984  1.00 20.00     0.127 C 
HETATM    2  C3  UNL     1     -33.190  13.793  -3.757  1.00 20.00     0.079 C 
HETATM    3  C4  UNL     1     -35.495  14.717  -3.455  1.00 20.00     0.090 C 
HETATM    4  C5  UNL     1     -33.141  15.277  -3.425  1.00 20.00     0.020 C 
HETATM    5  C8  UNL     1     -34.462  15.566  -2.717  1.00 20.00     0.063 C 
HETATM    6  O10 UNL     1     -35.131  12.584  -4.521  1.00 20.00    -0.298 OA
ENDROOT
BRANCH   5   7
HETATM    7  C2  UNL     1     -34.807  17.019  -2.798  1.00 20.00     0.135 C 
HETATM    8  O11 UNL     1     -35.059  17.563  -3.872  1.00 20.00    -0.297 OA
BRANCH   7   9
HETATM    9  C9  UNL     1     -34.828  17.783  -1.502  1.00 20.00     0.056 A 
HETATM   10  C6  UNL     1     -34.741  17.013  -0.233  1.00 20.00     0.013 A 
HETATM   11  C7  UNL     1     -33.577  17.833  -0.701  1.00 20.00     0.013 A 
ENDBRANCH   7   9
ENDBRANCH   5   7
TORSDOF 2
ENDMDL
MODEL 2
REMARK VINA RESULT:      -5.0     10.331     11.436
REMARK  2 active torsions:
REMARK  status: ('A' for Active; 'I' for Inactive)
REMARK    1  A    between atoms: C2_2  and  C8_8 
REMARK    2  A    between atoms: C2_2  and  C9_9 
ROOT
HETATM    1  C1  UNL     1     -34.512   5.542   5.203  1.00 20.00     0.127 C 
HETATM    2  C3  UNL     1     -34.906   5.038   3.843  1.00 20.00     0.079 C 
HETATM    3  C4  UNL     1     -33.250   6.364   5.167  1.00 20.00     0.090 C 
HETATM    4  C5  UNL     1     -34.056   5.910   2.931  1.00 20.00     0.020 C 
HETATM    5  C8  UNL     1     -32.781   6.184   3.725  1.00 20.00     0.063 C 
HETATM    6  O10 UNL     1     -35.135   5.297   6.229  1.00 20.00    -0.298 OA
ENDROOT
BRANCH   5   7
HETATM    7  C2  UNL     1     -32.094   7.415   3.228  1.00 20.00     0.135 C 
HETATM    8  O11 UNL     1     -31.124   7.894   3.814  1.00 20.00    -0.297 OA
BRANCH   7   9
HETATM    9  C9  UNL     1     -32.648   8.041   1.977  1.00 20.00     0.056 A 
HETATM   10  C6  UNL     1     -32.515   9.513   1.812  1.00 20.00     0.013 A 
HETATM   11  C7  UNL     1     -31.687   8.581   0.980  1.00 20.00     0.013 A 
ENDBRANCH   7   9
ENDBRANCH   5   7
TORSDOF 2
ENDMDL
MODEL 3
REMARK VINA RESULT:      -4.9     10.775     11.899
REMARK  2 active torsions:
REMARK  status: ('A' for Active; 'I' for Inactive)
REMARK    1  A    between atoms: C2_2  and  C8_8 
REMARK    2  A    between atoms: C2_2  and  C9_9 
ROOT
HETATM    1  C1  UNL     1     -34.752   5.069   5.491  1.00 20.00     0.127 C 
HETATM    2  C3  UNL     1     -34.271   6.215   6.337  1.00 20.00     0.079 C 
HETATM    3  C4  UNL     1     -34.330   5.202   4.050  1.00 20.00     0.090 C 
HETATM    4  C5  UNL     1     -33.215   6.841   5.438  1.00 20.00     0.020 C 
HETATM    5  C8  UNL     1     -33.714   6.598   4.016  1.00 20.00     0.063 C 
HETATM    6  O10 UNL     1     -35.428   4.141   5.919  1.00 20.00    -0.298 OA
ENDROOT
BRANCH   5   7
HETATM    7  C2  UNL     1     -32.588   6.662   3.035  1.00 20.00     0.135 C 
HETATM    8  O11 UNL     1     -32.146   5.650   2.493  1.00 20.00    -0.297 OA
BRANCH   7   9
HETATM    9  C9  UNL     1     -32.020   8.025   2.744  1.00 20.00     0.056 A 
HETATM   10  C6  UNL     1     -31.748   8.384   1.328  1.00 20.00     0.013 A 
HETATM   11  C7  UNL     1     -32.893   9.015   2.061  1.00 20.00     0.013 A 
ENDBRANCH   7   9
ENDBRANCH   5   7
TORSDOF 2
ENDMDL
MODEL 4
REMARK VINA RESULT:      -4.9      1.359      1.643
REMARK  2 active torsions:
REMARK  status: ('A' for Active; 'I' for Inactive)
REMARK    1  A    between atoms: C2_2  and  C8_8 
REMARK    2  A    between atoms: C2_2  and  C9_9 
ROOT
HETATM    1  C1  UNL     1     -34.521  13.737  -4.795  1.00 20.00     0.127 C 
HETATM    2  C3  UNL     1     -34.458  14.576  -6.041  1.00 20.00     0.079 C 
HETATM    3  C4  UNL     1     -34.056  14.485  -3.573  1.00 20.00     0.090 C 
HETATM    4  C5  UNL     1     -34.309  15.976  -5.464  1.00 20.00     0.020 C 
HETATM    5  C8  UNL     1     -33.521  15.786  -4.169  1.00 20.00     0.063 C 
HETATM    6  O10 UNL     1     -34.892  12.569  -4.777  1.00 20.00    -0.298 OA
ENDROOT
BRANCH   5   7
HETATM    7  C2  UNL     1     -33.741  16.932  -3.235  1.00 20.00     0.135 C 
HETATM    8  O11 UNL     1     -33.873  18.084  -3.647  1.00 20.00    -0.297 OA
BRANCH   7   9
HETATM    9  C9  UNL     1     -33.787  16.609  -1.766  1.00 20.00     0.056 A 
HETATM   10  C6  UNL     1     -33.643  17.728  -0.798  1.00 20.00     0.013 A 
HETATM   11  C7  UNL     1     -34.971  17.061  -0.989  1.00 20.00     0.013 A 
ENDBRANCH   7   9
ENDBRANCH   5   7
TORSDOF 2
ENDMDL
MODEL 5
REMARK VINA RESULT:      -4.6      1.844      4.707
REMARK  2 active torsions:
REMARK  status: ('A' for Active; 'I' for Inactive)
REMARK    1  A    between atoms: C2_2  and  C8_8 
REMARK    2  A    between atoms: C2_2  and  C9_9 
ROOT
HETATM    1  C1  UNL     1     -33.856  16.927  -2.687  1.00 20.00     0.127 C 
HETATM    2  C3  UNL     1     -34.871  16.221  -1.832  1.00 20.00     0.079 C 
HETATM    3  C4  UNL     1     -33.382  16.077  -3.837  1.00 20.00     0.090 C 
HETATM    4  C5  UNL     1     -35.281  15.064  -2.730  1.00 20.00     0.020 C 
HETATM    5  C8  UNL     1     -34.028  14.727  -3.535  1.00 20.00     0.063 C 
HETATM    6  O10 UNL     1     -33.446  18.060  -2.465  1.00 20.00    -0.298 OA
ENDROOT
BRANCH   5   7
HETATM    7  C2  UNL     1     -34.379  14.007  -4.797  1.00 20.00     0.135 C 
HETATM    8  O11 UNL     1     -34.522  12.786  -4.825  1.00 20.00    -0.297 OA
BRANCH   7   9
HETATM    9  C9  UNL     1     -34.544  14.849  -6.033  1.00 20.00     0.056 A 
HETATM   10  C6  UNL     1     -35.215  14.241  -7.212  1.00 20.00     0.013 A 
HETATM   11  C7  UNL     1     -35.915  15.289  -6.401  1.00 20.00     0.013 A 
ENDBRANCH   7   9
ENDBRANCH   5   7
TORSDOF 2
ENDMDL
MODEL 6
REMARK VINA RESULT:      -4.4      1.765      2.638
REMARK  2 active torsions:
REMARK  status: ('A' for Active; 'I' for Inactive)
REMARK    1  A    between atoms: C2_2  and  C8_8 
REMARK    2  A    between atoms: C2_2  and  C9_9 
ROOT
HETATM    1  C1  UNL     1     -34.565  13.620  -4.007  1.00 20.00     0.127 C 
HETATM    2  C3  UNL     1     -33.103  13.684  -3.662  1.00 20.00     0.079 C 
HETATM    3  C4  UNL     1     -35.248  14.955  -3.864  1.00 20.00     0.090 C 
HETATM    4  C5  UNL     1     -32.846  15.183  -3.683  1.00 20.00     0.020 C 
HETATM    5  C8  UNL     1     -34.159  15.814  -3.227  1.00 20.00     0.063 C 
HETATM    6  O10 UNL     1     -35.141  12.594  -4.349  1.00 20.00    -0.298 OA
ENDROOT
BRANCH   5   7
HETATM    7  C2  UNL     1     -34.260  17.233  -3.687  1.00 20.00     0.135 C 
HETATM    8  O11 UNL     1     -34.954  18.056  -3.092  1.00 20.00    -0.297 OA
BRANCH   7   9
HETATM    9  C9  UNL     1     -33.475  17.604  -4.915  1.00 20.00     0.056 A 
HETATM   10  C6  UNL     1     -34.220  17.837  -6.180  1.00 20.00     0.013 A 
HETATM   11  C7  UNL     1     -33.610  18.989  -5.439  1.00 20.00     0.013 A 
ENDBRANCH   7   9
ENDBRANCH   5   7
TORSDOF 2
ENDMDL
MODEL 7
REMARK VINA RESULT:      -4.3      1.824      4.574
REMARK  2 active torsions:
REMARK  status: ('A' for Active; 'I' for Inactive)
REMARK    1  A    between atoms: C2_2  and  C8_8 
REMARK    2  A    between atoms: C2_2  and  C9_9 
ROOT
HETATM    1  C1  UNL     1     -34.402  18.161  -1.286  1.00 20.00     0.127 C 
HETATM    2  C3  UNL     1     -34.850  16.866  -0.666  1.00 20.00     0.079 C 
HETATM    3  C4  UNL     1     -33.686  17.953  -2.595  1.00 20.00     0.090 C 
HETATM    4  C5  UNL     1     -34.724  15.903  -1.837  1.00 20.00     0.020 C 
HETATM    5  C8  UNL     1     -33.552  16.434  -2.659  1.00 20.00     0.063 C 
HETATM    6  O10 UNL     1     -34.582  19.260  -0.775  1.00 20.00    -0.298 OA
ENDROOT
BRANCH   5   7
HETATM    7  C2  UNL     1     -33.625  15.949  -4.071  1.00 20.00     0.135 C 
HETATM    8  O11 UNL     1     -32.880  16.391  -4.945  1.00 20.00    -0.297 OA
BRANCH   7   9
HETATM    9  C9  UNL     1     -34.658  14.898  -4.374  1.00 20.00     0.056 A 
HETATM   10  C6  UNL     1     -34.668  14.295  -5.733  1.00 20.00     0.013 A 
HETATM   11  C7  UNL     1     -34.196  13.496  -4.555  1.00 20.00     0.013 A 
ENDBRANCH   7   9
ENDBRANCH   5   7
TORSDOF 2
ENDMDL
MODEL 8
REMARK VINA RESULT:      -4.2     10.804     11.956
REMARK  2 active torsions:
REMARK  status: ('A' for Active; 'I' for Inactive)
REMARK    1  A    between atoms: C2_2  and  C8_8 
REMARK    2  A    between atoms: C2_2  and  C9_9 
ROOT
HETATM    1  C1  UNL     1     -32.142   8.006   2.197  1.00 20.00     0.127 C 
HETATM    2  C3  UNL     1     -31.311   7.926   3.448  1.00 20.00     0.079 C 
HETATM    3  C4  UNL     1     -33.226   6.961   2.159  1.00 20.00     0.090 C 
HETATM    4  C5  UNL     1     -32.178   7.050   4.339  1.00 20.00     0.020 C 
HETATM    5  C8  UNL     1     -32.899   6.105   3.381  1.00 20.00     0.063 C 
HETATM    6  O10 UNL     1     -31.948   8.818   1.300  1.00 20.00    -0.298 OA
ENDROOT
BRANCH   5   7
HETATM    7  C2  UNL     1     -34.145   5.560   4.001  1.00 20.00     0.135 C 
HETATM    8  O11 UNL     1     -35.232   5.622   3.427  1.00 20.00    -0.297 OA
BRANCH   7   9
HETATM    9  C9  UNL     1     -34.007   4.936   5.363  1.00 20.00     0.056 A 
HETATM   10  C6  UNL     1     -34.718   5.573   6.502  1.00 20.00     0.013 A 
HETATM   11  C7  UNL     1     -35.197   4.265   5.949  1.00 20.00     0.013 A 
ENDBRANCH   7   9
ENDBRANCH   5   7
TORSDOF 2
ENDMDL
MODEL 9
REMARK VINA RESULT:      -4.2      2.413      4.083
REMARK  2 active torsions:
REMARK  status: ('A' for Active; 'I' for Inactive)
REMARK    1  A    between atoms: C2_2  and  C8_8 
REMARK    2  A    between atoms: C2_2  and  C9_9 
ROOT
HETATM    1  C1  UNL     1     -37.546  15.171  -6.381  1.00 20.00     0.127 C 
HETATM    2  C3  UNL     1     -38.281  15.307  -5.077  1.00 20.00     0.079 C 
HETATM    3  C4  UNL     1     -36.096  14.811  -6.189  1.00 20.00     0.090 C 
HETATM    4  C5  UNL     1     -37.320  14.632  -4.109  1.00 20.00     0.020 C 
HETATM    5  C8  UNL     1     -35.930  14.913  -4.675  1.00 20.00     0.063 C 
HETATM    6  O10 UNL     1     -38.062  15.352  -7.477  1.00 20.00    -0.298 OA
ENDROOT
BRANCH   5   7
HETATM    7  C2  UNL     1     -34.936  13.914  -4.176  1.00 20.00     0.135 C 
HETATM    8  O11 UNL     1     -35.096  12.706  -4.346  1.00 20.00    -0.297 OA
BRANCH   7   9
HETATM    9  C9  UNL     1     -33.734  14.457  -3.453  1.00 20.00     0.056 A 
HETATM   10  C6  UNL     1     -33.047  15.644  -4.028  1.00 20.00     0.013 A 
HETATM   11  C7  UNL     1     -33.862  15.775  -2.777  1.00 20.00     0.013 A 
ENDBRANCH   7   9
ENDBRANCH   5   7
TORSDOF 2
ENDMDL
