MODEL 1
REMARK VINA RESULT:      -4.6      0.000      0.000
REMARK  0 active torsions:
REMARK  status: ('A' for Active; 'I' for Inactive)
ROOT
HETATM    1  C1  UNL     1     -35.255  14.331  -3.751  1.00 20.00     0.009 A 
HETATM    2  C2  UNL     1     -35.344  14.153  -5.133  1.00 20.00     0.019 A 
HETATM    3  C3  UNL     1     -34.368  16.348  -5.521  1.00 20.00     0.028 A 
HETATM    4  C4  UNL     1     -34.736  15.523  -3.275  1.00 20.00    -0.050 A 
HETATM    5  C5  UNL     1     -34.301  16.529  -4.148  1.00 20.00    -0.032 A 
HETATM    6  C6  UNL     1     -34.903  15.154  -6.011  1.00 20.00     0.011 A 
HETATM    7  C7  UNL     1     -34.500  15.909  -1.847  1.00 20.00     0.045 C 
HETATM    8  C8  UNL     1     -33.731  17.681  -3.376  1.00 20.00     0.119 C 
HETATM    9  C9  UNL     1     -34.336  17.438  -1.971  1.00 20.00     0.009 C 
HETATM   10  C10 UNL     1     -33.489  18.022  -0.849  1.00 20.00     0.012 C 
HETATM   11 CL11 UNL     1     -34.202  19.263  -4.015  1.00 20.00    -0.119 Cl
HETATM   12 BR12 UNL     1     -35.040  14.886  -7.879  1.00 20.00    -0.051 Br
ENDROOT
TORSDOF 0
ENDMDL
MODEL 2
REMARK VINA RESULT:      -4.6      3.090      4.909
REMARK  0 active torsions:
REMARK  status: ('A' for Active; 'I' for Inactive)
ROOT
HETATM    1  C1  UNL     1     -33.670  18.350  -3.409  1.00 20.00     0.009 A 
HETATM    2  C2  UNL     1     -33.922  18.422  -2.038  1.00 20.00     0.019 A 
HETATM    3  C3  UNL     1     -34.908  16.198  -2.061  1.00 20.00     0.028 A 
HETATM    4  C4  UNL     1     -34.055  17.207  -4.089  1.00 20.00    -0.050 A 
HETATM    5  C5  UNL     1     -34.675  16.140  -3.426  1.00 20.00    -0.032 A 
HETATM    6  C6  UNL     1     -34.535  17.353  -1.368  1.00 20.00     0.011 A 
HETATM    7  C7  UNL     1     -33.841  16.892  -5.537  1.00 20.00     0.045 C 
HETATM    8  C8  UNL     1     -34.930  15.011  -4.379  1.00 20.00     0.119 C 
HETATM    9  C9  UNL     1     -34.839  15.735  -5.745  1.00 20.00     0.009 C 
HETATM   10  C10 UNL     1     -34.427  14.811  -6.882  1.00 20.00     0.012 C 
HETATM   11 CL11 UNL     1     -36.509  14.243  -4.160  1.00 20.00    -0.119 Cl
HETATM   12 BR12 UNL     1     -34.868  17.480   0.489  1.00 20.00    -0.051 Br
ENDROOT
TORSDOF 0
ENDMDL
MODEL 3
REMARK VINA RESULT:      -4.6      2.654      4.438
REMARK  0 active torsions:
REMARK  status: ('A' for Active; 'I' for Inactive)
ROOT
HETATM    1  C1  UNL     1     -33.915  15.171  -3.243  1.00 20.00     0.009 A 
HETATM    2  C2  UNL     1     -33.669  16.313  -2.479  1.00 20.00     0.019 A 
HETATM    3  C3  UNL     1     -34.312  17.746  -4.336  1.00 20.00     0.028 A 
HETATM    4  C4  UNL     1     -34.342  15.335  -4.550  1.00 20.00    -0.050 A 
HETATM    5  C5  UNL     1     -34.534  16.610  -5.099  1.00 20.00    -0.032 A 
HETATM    6  C6  UNL     1     -33.868  17.591  -3.021  1.00 20.00     0.011 A 
HETATM    7  C7  UNL     1     -34.712  14.264  -5.530  1.00 20.00     0.045 C 
HETATM    8  C8  UNL     1     -35.055  16.502  -6.501  1.00 20.00     0.119 C 
HETATM    9  C9  UNL     1     -34.672  15.045  -6.860  1.00 20.00     0.009 C 
HETATM   10  C10 UNL     1     -35.580  14.434  -7.918  1.00 20.00     0.012 C 
HETATM   11 CL11 UNL     1     -34.317  17.657  -7.620  1.00 20.00    -0.119 Cl
HETATM   12 BR12 UNL     1     -33.522  19.120  -1.962  1.00 20.00    -0.051 Br
ENDROOT
TORSDOF 0
ENDMDL
MODEL 4
REMARK VINA RESULT:      -4.6      3.272      4.784
REMARK  0 active torsions:
REMARK  status: ('A' for Active; 'I' for Inactive)
ROOT
HETATM    1  C1  UNL     1     -36.615  17.522  -3.326  1.00 20.00     0.009 A 
HETATM    2  C2  UNL     1     -36.309  17.761  -1.985  1.00 20.00     0.019 A 
HETATM    3  C3  UNL     1     -34.361  16.310  -2.128  1.00 20.00     0.028 A 
HETATM    4  C4  UNL     1     -35.795  16.668  -4.045  1.00 20.00    -0.050 A 
HETATM    5  C5  UNL     1     -34.680  16.059  -3.453  1.00 20.00    -0.032 A 
HETATM    6  C6  UNL     1     -35.189  17.160  -1.391  1.00 20.00     0.011 A 
HETATM    7  C7  UNL     1     -35.900  16.309  -5.495  1.00 20.00     0.045 C 
HETATM    8  C8  UNL     1     -33.937  15.238  -4.463  1.00 20.00     0.119 C 
HETATM    9  C9  UNL     1     -35.015  15.048  -5.559  1.00 20.00     0.009 C 
HETATM   10  C10 UNL     1     -34.423  14.824  -6.944  1.00 20.00     0.012 C 
HETATM   11 CL11 UNL     1     -33.375  13.682  -3.834  1.00 20.00    -0.119 Cl
HETATM   12 BR12 UNL     1     -34.802  17.499   0.429  1.00 20.00    -0.051 Br
ENDROOT
TORSDOF 0
ENDMDL
MODEL 5
REMARK VINA RESULT:      -4.5      1.724      1.830
REMARK  0 active torsions:
REMARK  status: ('A' for Active; 'I' for Inactive)
ROOT
HETATM    1  C1  UNL     1     -34.375  14.132  -4.987  1.00 20.00     0.009 A 
HETATM    2  C2  UNL     1     -35.152  14.140  -6.148  1.00 20.00     0.019 A 
HETATM    3  C3  UNL     1     -36.373  16.094  -5.367  1.00 20.00     0.028 A 
HETATM    4  C4  UNL     1     -34.621  15.098  -4.026  1.00 20.00    -0.050 A 
HETATM    5  C5  UNL     1     -35.615  16.069  -4.207  1.00 20.00    -0.032 A 
HETATM    6  C6  UNL     1     -36.142  15.115  -6.336  1.00 20.00     0.011 A 
HETATM    7  C7  UNL     1     -33.885  15.311  -2.739  1.00 20.00     0.045 C 
HETATM    8  C8  UNL     1     -35.629  17.023  -3.050  1.00 20.00     0.119 C 
HETATM    9  C9  UNL     1     -34.877  16.207  -1.969  1.00 20.00     0.009 C 
HETATM   10  C10 UNL     1     -34.185  17.084  -0.936  1.00 20.00     0.012 C 
HETATM   11 CL11 UNL     1     -37.258  17.458  -2.512  1.00 20.00    -0.119 Cl
HETATM   12 BR12 UNL     1     -37.181  15.098  -7.917  1.00 20.00    -0.051 Br
ENDROOT
TORSDOF 0
ENDMDL
MODEL 6
REMARK VINA RESULT:      -4.5      5.002      7.092
REMARK  0 active torsions:
REMARK  status: ('A' for Active; 'I' for Inactive)
ROOT
HETATM    1  C1  UNL     1     -31.799  19.030   0.415  1.00 20.00     0.009 A 
HETATM    2  C2  UNL     1     -31.536  19.254   1.768  1.00 20.00     0.019 A 
HETATM    3  C3  UNL     1     -33.736  18.411   2.376  1.00 20.00     0.028 A 
HETATM    4  C4  UNL     1     -33.034  18.513   0.062  1.00 20.00    -0.050 A 
HETATM    5  C5  UNL     1     -34.000  18.211   1.030  1.00 20.00    -0.032 A 
HETATM    6  C6  UNL     1     -32.498  18.945   2.741  1.00 20.00     0.011 A 
HETATM    7  C7  UNL     1     -33.511  18.148  -1.310  1.00 20.00     0.045 C 
HETATM    8  C8  UNL     1     -35.215  17.611   0.387  1.00 20.00     0.119 C 
HETATM    9  C9  UNL     1     -35.034  18.058  -1.086  1.00 20.00     0.009 C 
HETATM   10  C10 UNL     1     -35.712  17.124  -2.078  1.00 20.00     0.012 C 
HETATM   11 CL11 UNL     1     -36.739  18.207   1.059  1.00 20.00    -0.119 Cl
HETATM   12 BR12 UNL     1     -32.116  19.263   4.567  1.00 20.00    -0.051 Br
ENDROOT
TORSDOF 0
ENDMDL
MODEL 7
REMARK VINA RESULT:      -4.4      2.900      4.672
REMARK  0 active torsions:
REMARK  status: ('A' for Active; 'I' for Inactive)
ROOT
HETATM    1  C1  UNL     1     -33.249  15.444  -4.194  1.00 20.00     0.009 A 
HETATM    2  C2  UNL     1     -33.365  15.894  -2.878  1.00 20.00     0.019 A 
HETATM    3  C3  UNL     1     -35.754  16.249  -3.165  1.00 20.00     0.028 A 
HETATM    4  C4  UNL     1     -34.388  15.417  -4.982  1.00 20.00    -0.050 A 
HETATM    5  C5  UNL     1     -35.631  15.822  -4.478  1.00 20.00    -0.032 A 
HETATM    6  C6  UNL     1     -34.609  16.292  -2.367  1.00 20.00     0.011 A 
HETATM    7  C7  UNL     1     -34.509  14.930  -6.393  1.00 20.00     0.045 C 
HETATM    8  C8  UNL     1     -36.699  15.637  -5.514  1.00 20.00     0.119 C 
HETATM    9  C9  UNL     1     -35.858  15.551  -6.811  1.00 20.00     0.009 C 
HETATM   10  C10 UNL     1     -36.545  14.756  -7.914  1.00 20.00     0.012 C 
HETATM   11 CL11 UNL     1     -37.857  16.974  -5.583  1.00 20.00    -0.119 Cl
HETATM   12 BR12 UNL     1     -34.734  16.902  -0.580  1.00 20.00    -0.051 Br
ENDROOT
TORSDOF 0
ENDMDL
MODEL 8
REMARK VINA RESULT:      -4.3      5.933      7.719
REMARK  0 active torsions:
REMARK  status: ('A' for Active; 'I' for Inactive)
ROOT
HETATM    1  C1  UNL     1     -34.239  18.191   4.076  1.00 20.00     0.009 A 
HETATM    2  C2  UNL     1     -32.936  18.494   4.475  1.00 20.00     0.019 A 
HETATM    3  C3  UNL     1     -32.287  18.930   2.171  1.00 20.00     0.028 A 
HETATM    4  C4  UNL     1     -34.543  18.249   2.726  1.00 20.00    -0.050 A 
HETATM    5  C5  UNL     1     -33.577  18.608   1.777  1.00 20.00    -0.032 A 
HETATM    6  C6  UNL     1     -31.968  18.862   3.529  1.00 20.00     0.011 A 
HETATM    7  C7  UNL     1     -35.874  18.017   2.081  1.00 20.00     0.045 C 
HETATM    8  C8  UNL     1     -34.182  18.651   0.406  1.00 20.00     0.119 C 
HETATM    9  C9  UNL     1     -35.463  17.804   0.609  1.00 20.00     0.009 C 
HETATM   10  C10 UNL     1     -36.577  18.167  -0.363  1.00 20.00     0.012 C 
HETATM   11 CL11 UNL     1     -33.143  17.958  -0.848  1.00 20.00    -0.119 Cl
HETATM   12 BR12 UNL     1     -30.209  19.263   4.099  1.00 20.00    -0.051 Br
ENDROOT
TORSDOF 0
ENDMDL
MODEL 9
REMARK VINA RESULT:      -4.3      3.322      4.080
REMARK  0 active torsions:
REMARK  status: ('A' for Active; 'I' for Inactive)
ROOT
HETATM    1  C1  UNL     1     -38.149  14.705  -4.111  1.00 20.00     0.009 A 
HETATM    2  C2  UNL     1     -38.985  15.772  -3.775  1.00 20.00     0.019 A 
HETATM    3  C3  UNL     1     -37.090  17.050  -2.942  1.00 20.00     0.028 A 
HETATM    4  C4  UNL     1     -36.795  14.822  -3.843  1.00 20.00    -0.050 A 
HETATM    5  C5  UNL     1     -36.266  15.980  -3.257  1.00 20.00    -0.032 A 
HETATM    6  C6  UNL     1     -38.458  16.936  -3.196  1.00 20.00     0.011 A 
HETATM    7  C7  UNL     1     -35.715  13.835  -4.161  1.00 20.00     0.045 C 
HETATM    8  C8  UNL     1     -34.776  15.869  -3.134  1.00 20.00     0.119 C 
HETATM    9  C9  UNL     1     -34.571  14.338  -3.256  1.00 20.00     0.009 C 
HETATM   10  C10 UNL     1     -33.198  13.962  -3.794  1.00 20.00     0.012 C 
HETATM   11 CL11 UNL     1     -34.145  16.484  -1.599  1.00 20.00    -0.119 Cl
HETATM   12 BR12 UNL     1     -39.616  18.364  -2.748  1.00 20.00    -0.051 Br
ENDROOT
TORSDOF 0
ENDMDL
