MODEL 1
REMARK VINA RESULT:      -5.0      0.000      0.000
REMARK  0 active torsions:
REMARK  status: ('A' for Active; 'I' for Inactive)
ROOT
HETATM    1  C1  UNL     1     -33.662  18.302  -3.081  1.00 20.00     0.009 A 
HETATM    2  C2  UNL     1     -33.918  18.350  -1.709  1.00 20.00     0.024 A 
HETATM    3  C3  UNL     1     -34.778  16.075  -1.740  1.00 20.00     0.033 A 
HETATM    4  C4  UNL     1     -33.980  17.141  -3.767  1.00 20.00    -0.050 A 
HETATM    5  C5  UNL     1     -34.527  16.035  -3.103  1.00 20.00    -0.031 A 
HETATM    6  C6  UNL     1     -34.472  17.246  -1.044  1.00 20.00     0.034 A 
HETATM    7  C7  UNL     1     -33.777  16.849  -5.221  1.00 20.00     0.045 C 
HETATM    8  C8  UNL     1     -34.738  14.890  -4.051  1.00 20.00     0.119 C 
HETATM    9  C9  UNL     1     -34.721  15.639  -5.409  1.00 20.00     0.009 C 
HETATM   10  C10 UNL     1     -34.370  14.805  -6.632  1.00 20.00     0.012 C 
HETATM   11 CL11 UNL     1     -34.772  17.334   0.650  1.00 20.00    -0.084 Cl
HETATM   12 CL12 UNL     1     -33.420  13.714  -3.851  1.00 20.00    -0.119 Cl
ENDROOT
TORSDOF 0
ENDMDL
MODEL 2
REMARK VINA RESULT:      -4.7      2.005      4.626
REMARK  0 active torsions:
REMARK  status: ('A' for Active; 'I' for Inactive)
ROOT
HETATM    1  C1  UNL     1     -33.334  16.541  -5.335  1.00 20.00     0.009 A 
HETATM    2  C2  UNL     1     -33.893  15.924  -6.456  1.00 20.00     0.024 A 
HETATM    3  C3  UNL     1     -35.816  15.196  -5.157  1.00 20.00     0.033 A 
HETATM    4  C4  UNL     1     -34.021  16.467  -4.135  1.00 20.00    -0.050 A 
HETATM    5  C5  UNL     1     -35.254  15.807  -4.047  1.00 20.00    -0.031 A 
HETATM    6  C6  UNL     1     -35.123  15.255  -6.367  1.00 20.00     0.034 A 
HETATM    7  C7  UNL     1     -33.636  17.066  -2.817  1.00 20.00     0.045 C 
HETATM    8  C8  UNL     1     -35.818  15.905  -2.658  1.00 20.00     0.119 C 
HETATM    9  C9  UNL     1     -34.537  16.258  -1.856  1.00 20.00     0.009 C 
HETATM   10  C10 UNL     1     -34.752  16.959  -0.523  1.00 20.00     0.012 C 
HETATM   11 CL11 UNL     1     -35.789  14.507  -7.769  1.00 20.00    -0.084 Cl
HETATM   12 CL12 UNL     1     -37.070  17.167  -2.623  1.00 20.00    -0.119 Cl
ENDROOT
TORSDOF 0
ENDMDL
MODEL 3
REMARK VINA RESULT:      -4.7      1.684      1.797
REMARK  0 active torsions:
REMARK  status: ('A' for Active; 'I' for Inactive)
ROOT
HETATM    1  C1  UNL     1     -36.504  17.623  -2.790  1.00 20.00     0.009 A 
HETATM    2  C2  UNL     1     -36.194  18.167  -1.541  1.00 20.00     0.024 A 
HETATM    3  C3  UNL     1     -34.558  16.415  -1.130  1.00 20.00     0.033 A 
HETATM    4  C4  UNL     1     -35.842  16.473  -3.187  1.00 20.00    -0.050 A 
HETATM    5  C5  UNL     1     -34.873  15.877  -2.369  1.00 20.00    -0.031 A 
HETATM    6  C6  UNL     1     -35.230  17.566  -0.718  1.00 20.00     0.034 A 
HETATM    7  C7  UNL     1     -35.988  15.729  -4.478  1.00 20.00     0.045 C 
HETATM    8  C8  UNL     1     -34.270  14.676  -3.039  1.00 20.00     0.119 C 
HETATM    9  C9  UNL     1     -35.356  14.369  -4.103  1.00 20.00     0.009 C 
HETATM   10  C10 UNL     1     -34.900  13.577  -5.319  1.00 20.00     0.012 C 
HETATM   11 CL11 UNL     1     -34.866  18.263   0.816  1.00 20.00    -0.084 Cl
HETATM   12 CL12 UNL     1     -32.688  15.118  -3.719  1.00 20.00    -0.119 Cl
ENDROOT
TORSDOF 0
ENDMDL
MODEL 4
REMARK VINA RESULT:      -4.6      2.117      4.843
REMARK  0 active torsions:
REMARK  status: ('A' for Active; 'I' for Inactive)
ROOT
HETATM    1  C1  UNL     1     -34.432  14.062  -3.561  1.00 20.00     0.009 A 
HETATM    2  C2  UNL     1     -34.648  13.716  -4.897  1.00 20.00     0.024 A 
HETATM    3  C3  UNL     1     -35.269  16.006  -5.438  1.00 20.00     0.033 A 
HETATM    4  C4  UNL     1     -34.649  15.375  -3.180  1.00 20.00    -0.050 A 
HETATM    5  C5  UNL     1     -35.057  16.341  -4.110  1.00 20.00    -0.031 A 
HETATM    6  C6  UNL     1     -35.065  14.681  -5.828  1.00 20.00     0.034 A 
HETATM    7  C7  UNL     1     -34.463  15.981  -1.823  1.00 20.00     0.045 C 
HETATM    8  C8  UNL     1     -35.178  17.691  -3.464  1.00 20.00     0.119 C 
HETATM    9  C9  UNL     1     -35.281  17.284  -1.971  1.00 20.00     0.009 C 
HETATM   10  C10 UNL     1     -34.884  18.345  -0.956  1.00 20.00     0.012 C 
HETATM   11 CL11 UNL     1     -35.319  14.225  -7.470  1.00 20.00    -0.084 Cl
HETATM   12 CL12 UNL     1     -33.740  18.659  -3.858  1.00 20.00    -0.119 Cl
ENDROOT
TORSDOF 0
ENDMDL
MODEL 5
REMARK VINA RESULT:      -4.5      1.861      2.554
REMARK  0 active torsions:
REMARK  status: ('A' for Active; 'I' for Inactive)
ROOT
HETATM    1  C1  UNL     1     -34.791  15.543  -2.291  1.00 20.00     0.009 A 
HETATM    2  C2  UNL     1     -34.290  16.638  -1.584  1.00 20.00     0.024 A 
HETATM    3  C3  UNL     1     -33.667  17.751  -3.655  1.00 20.00     0.033 A 
HETATM    4  C4  UNL     1     -34.713  15.563  -3.674  1.00 20.00    -0.050 A 
HETATM    5  C5  UNL     1     -34.163  16.659  -4.351  1.00 20.00    -0.031 A 
HETATM    6  C6  UNL     1     -33.731  17.733  -2.261  1.00 20.00     0.034 A 
HETATM    7  C7  UNL     1     -35.201  14.525  -4.637  1.00 20.00     0.045 C 
HETATM    8  C8  UNL     1     -34.234  16.462  -5.838  1.00 20.00     0.119 C 
HETATM    9  C9  UNL     1     -34.425  14.925  -5.912  1.00 20.00     0.009 C 
HETATM   10  C10 UNL     1     -35.067  14.388  -7.183  1.00 20.00     0.012 C 
HETATM   11 CL11 UNL     1     -33.125  19.071  -1.361  1.00 20.00    -0.084 Cl
HETATM   12 CL12 UNL     1     -35.600  17.398  -6.487  1.00 20.00    -0.119 Cl
ENDROOT
TORSDOF 0
ENDMDL
MODEL 6
REMARK VINA RESULT:      -4.4      2.059      2.424
REMARK  0 active torsions:
REMARK  status: ('A' for Active; 'I' for Inactive)
ROOT
HETATM    1  C1  UNL     1     -34.421  16.645  -0.967  1.00 20.00     0.009 A 
HETATM    2  C2  UNL     1     -35.248  17.621  -0.406  1.00 20.00     0.024 A 
HETATM    3  C3  UNL     1     -36.736  17.531  -2.328  1.00 20.00     0.033 A 
HETATM    4  C4  UNL     1     -34.758  16.133  -2.209  1.00 20.00    -0.050 A 
HETATM    5  C5  UNL     1     -35.909  16.567  -2.882  1.00 20.00    -0.031 A 
HETATM    6  C6  UNL     1     -36.396  18.061  -1.083  1.00 20.00     0.034 A 
HETATM    7  C7  UNL     1     -34.045  15.074  -2.991  1.00 20.00     0.045 C 
HETATM    8  C8  UNL     1     -36.080  15.832  -4.180  1.00 20.00     0.119 C 
HETATM    9  C9  UNL     1     -34.638  15.303  -4.400  1.00 20.00     0.009 C 
HETATM   10  C10 UNL     1     -34.500  14.085  -5.301  1.00 20.00     0.012 C 
HETATM   11 CL11 UNL     1     -37.399  19.263  -0.363  1.00 20.00    -0.084 Cl
HETATM   12 CL12 UNL     1     -37.301  14.557  -3.974  1.00 20.00    -0.119 Cl
ENDROOT
TORSDOF 0
ENDMDL
MODEL 7
REMARK VINA RESULT:      -4.4      2.320      2.998
REMARK  0 active torsions:
REMARK  status: ('A' for Active; 'I' for Inactive)
ROOT
HETATM    1  C1  UNL     1     -33.925  14.813  -4.263  1.00 20.00     0.009 A 
HETATM    2  C2  UNL     1     -33.743  15.304  -2.968  1.00 20.00     0.024 A 
HETATM    3  C3  UNL     1     -35.977  16.266  -2.967  1.00 20.00     0.033 A 
HETATM    4  C4  UNL     1     -35.130  15.066  -4.897  1.00 20.00    -0.050 A 
HETATM    5  C5  UNL     1     -36.150  15.780  -4.254  1.00 20.00    -0.031 A 
HETATM    6  C6  UNL     1     -34.761  16.026  -2.326  1.00 20.00     0.034 A 
HETATM    7  C7  UNL     1     -35.560  14.626  -6.262  1.00 20.00     0.045 C 
HETATM    8  C8  UNL     1     -37.367  15.882  -5.128  1.00 20.00     0.119 C 
HETATM    9  C9  UNL     1     -36.745  15.584  -6.517  1.00 20.00     0.009 C 
HETATM   10  C10 UNL     1     -37.700  15.068  -7.584  1.00 20.00     0.012 C 
HETATM   11 CL11 UNL     1     -34.508  16.615  -0.727  1.00 20.00    -0.084 Cl
HETATM   12 CL12 UNL     1     -38.570  14.685  -4.597  1.00 20.00    -0.119 Cl
ENDROOT
TORSDOF 0
ENDMDL
MODEL 8
REMARK VINA RESULT:      -4.3      2.649      4.670
REMARK  0 active torsions:
REMARK  status: ('A' for Active; 'I' for Inactive)
ROOT
HETATM    1  C1  UNL     1     -35.128  14.446  -3.668  1.00 20.00     0.009 A 
HETATM    2  C2  UNL     1     -36.375  14.187  -4.240  1.00 20.00     0.024 A 
HETATM    3  C3  UNL     1     -37.292  16.227  -3.283  1.00 20.00     0.033 A 
HETATM    4  C4  UNL     1     -34.983  15.590  -2.900  1.00 20.00    -0.050 A 
HETATM    5  C5  UNL     1     -36.053  16.476  -2.714  1.00 20.00    -0.031 A 
HETATM    6  C6  UNL     1     -37.449  15.070  -4.048  1.00 20.00     0.034 A 
HETATM    7  C7  UNL     1     -33.749  16.085  -2.213  1.00 20.00     0.045 C 
HETATM    8  C8  UNL     1     -35.634  17.657  -1.887  1.00 20.00     0.119 C 
HETATM    9  C9  UNL     1     -34.357  17.091  -1.210  1.00 20.00     0.009 C 
HETATM   10  C10 UNL     1     -33.346  18.117  -0.719  1.00 20.00     0.012 C 
HETATM   11 CL11 UNL     1     -38.975  14.725  -4.771  1.00 20.00    -0.084 Cl
HETATM   12 CL12 UNL     1     -35.336  19.045  -2.957  1.00 20.00    -0.119 Cl
ENDROOT
TORSDOF 0
ENDMDL
MODEL 9
REMARK VINA RESULT:      -4.3     13.134     15.000
REMARK  0 active torsions:
REMARK  status: ('A' for Active; 'I' for Inactive)
ROOT
HETATM    1  C1  UNL     1     -43.417   4.051  -3.819  1.00 20.00     0.009 A 
HETATM    2  C2  UNL     1     -43.050   2.731  -4.089  1.00 20.00     0.024 A 
HETATM    3  C3  UNL     1     -41.222   2.862  -2.489  1.00 20.00     0.033 A 
HETATM    4  C4  UNL     1     -42.673   4.763  -2.893  1.00 20.00    -0.050 A 
HETATM    5  C5  UNL     1     -41.589   4.173  -2.229  1.00 20.00    -0.031 A 
HETATM    6  C6  UNL     1     -41.961   2.142  -3.430  1.00 20.00     0.034 A 
HETATM    7  C7  UNL     1     -42.888   6.170  -2.428  1.00 20.00     0.045 C 
HETATM    8  C8  UNL     1     -40.976   5.129  -1.247  1.00 20.00     0.119 C 
HETATM    9  C9  UNL     1     -41.514   6.479  -1.791  1.00 20.00     0.009 C 
HETATM   10  C10 UNL     1     -41.572   7.629  -0.797  1.00 20.00     0.012 C 
HETATM   11 CL11 UNL     1     -41.534   0.509  -3.781  1.00 20.00    -0.084 Cl
HETATM   12 CL12 UNL     1     -41.541   4.728   0.390  1.00 20.00    -0.119 Cl
ENDROOT
TORSDOF 0
ENDMDL
