MODEL 1
REMARK VINA RESULT:      -5.1      0.000      0.000
REMARK  1 active torsions:
REMARK  status: ('A' for Active; 'I' for Inactive)
REMARK    1  A    between atoms: C2_2  and  C3_3 
ROOT
HETATM    1  C1  UNL     1     -34.160  15.537  -5.069  1.00 20.00    -0.034 C 
HETATM    2  C2  UNL     1     -34.636  14.868  -4.008  1.00 20.00     0.194 C 
HETATM    3  C4  UNL     1     -33.262  16.736  -4.931  1.00 20.00     0.038 C 
HETATM    4  C5  UNL     1     -34.498  15.154  -6.486  1.00 20.00     0.042 C 
HETATM    5  C6  UNL     1     -33.817  17.932  -5.708  1.00 20.00     0.009 C 
HETATM    6  C7  UNL     1     -35.087  16.342  -7.271  1.00 20.00    -0.011 C 
HETATM    7  C8  UNL     1     -34.142  17.570  -7.170  1.00 20.00    -0.014 C 
HETATM    8  C9  UNL     1     -36.527  16.629  -6.822  1.00 20.00     0.010 C 
HETATM    9  C10 UNL     1     -34.673  18.794  -7.918  1.00 20.00     0.010 C 
HETATM   10  F13 UNL     1     -34.289  15.299  -2.776  1.00 20.00    -0.199 F 
ENDROOT
BRANCH   2  11
HETATM   11  C3  UNL     1     -35.551  13.646  -4.143  1.00 20.00     0.239 C 
HETATM   12  O11 UNL     1     -36.776  13.898  -3.945  1.00 20.00    -0.642 OA
HETATM   13  O12 UNL     1     -35.000  12.548  -4.429  1.00 20.00    -0.642 OA
ENDBRANCH   2  11
TORSDOF 1
ENDMDL
MODEL 2
REMARK VINA RESULT:      -5.1      2.431      3.538
REMARK  1 active torsions:
REMARK  status: ('A' for Active; 'I' for Inactive)
REMARK    1  A    between atoms: C2_2  and  C3_3 
ROOT
HETATM    1  C1  UNL     1     -35.278  15.676  -4.545  1.00 20.00    -0.034 C 
HETATM    2  C2  UNL     1     -34.512  14.729  -5.106  1.00 20.00     0.194 C 
HETATM    3  C4  UNL     1     -35.585  16.979  -5.231  1.00 20.00     0.038 C 
HETATM    4  C5  UNL     1     -35.882  15.521  -3.174  1.00 20.00     0.042 C 
HETATM    5  C6  UNL     1     -35.233  18.169  -4.336  1.00 20.00     0.009 C 
HETATM    6  C7  UNL     1     -35.510  16.699  -2.251  1.00 20.00    -0.011 C 
HETATM    7  C8  UNL     1     -35.865  18.046  -2.937  1.00 20.00    -0.014 C 
HETATM    8  C9  UNL     1     -34.044  16.598  -1.807  1.00 20.00     0.010 C 
HETATM    9  C10 UNL     1     -35.509  19.262  -2.080  1.00 20.00     0.010 C 
HETATM   10  F13 UNL     1     -34.001  14.968  -6.332  1.00 20.00    -0.199 F 
ENDROOT
BRANCH   2  11
HETATM   11  C3  UNL     1     -34.197  13.400  -4.410  1.00 20.00     0.239 C 
HETATM   12  O11 UNL     1     -35.100  12.523  -4.546  1.00 20.00    -0.642 OA
HETATM   13  O12 UNL     1     -33.099  13.325  -3.791  1.00 20.00    -0.642 OA
ENDBRANCH   2  11
TORSDOF 1
ENDMDL
MODEL 3
REMARK VINA RESULT:      -4.8      1.153      1.486
REMARK  1 active torsions:
REMARK  status: ('A' for Active; 'I' for Inactive)
REMARK    1  A    between atoms: C2_2  and  C3_3 
ROOT
HETATM    1  C1  UNL     1     -34.012  15.744  -4.970  1.00 20.00    -0.034 C 
HETATM    2  C2  UNL     1     -34.016  14.964  -3.879  1.00 20.00     0.194 C 
HETATM    3  C4  UNL     1     -33.980  17.246  -4.889  1.00 20.00     0.038 C 
HETATM    4  C5  UNL     1     -34.057  15.183  -6.367  1.00 20.00     0.042 C 
HETATM    5  C6  UNL     1     -35.123  17.865  -5.696  1.00 20.00     0.009 C 
HETATM    6  C7  UNL     1     -35.224  15.776  -7.181  1.00 20.00    -0.011 C 
HETATM    7  C8  UNL     1     -35.170  17.327  -7.138  1.00 20.00    -0.014 C 
HETATM    8  C9  UNL     1     -36.564  15.189  -6.716  1.00 20.00     0.010 C 
HETATM    9  C10 UNL     1     -36.310  17.984  -7.918  1.00 20.00     0.010 C 
HETATM   10  F13 UNL     1     -33.991  15.562  -2.669  1.00 20.00    -0.199 F 
ENDROOT
BRANCH   2  11
HETATM   11  C3  UNL     1     -34.049  13.434  -3.956  1.00 20.00     0.239 C 
HETATM   12  O11 UNL     1     -32.918  12.887  -3.793  1.00 20.00    -0.642 OA
HETATM   13  O12 UNL     1     -35.170  12.896  -4.170  1.00 20.00    -0.642 OA
ENDBRANCH   2  11
TORSDOF 1
ENDMDL
MODEL 4
REMARK VINA RESULT:      -4.7      2.797      3.765
REMARK  1 active torsions:
REMARK  status: ('A' for Active; 'I' for Inactive)
REMARK    1  A    between atoms: C2_2  and  C3_3 
ROOT
HETATM    1  C1  UNL     1     -33.672  17.003  -3.817  1.00 20.00    -0.034 C 
HETATM    2  C2  UNL     1     -33.961  17.759  -2.747  1.00 20.00     0.194 C 
HETATM    3  C4  UNL     1     -33.736  17.534  -5.223  1.00 20.00     0.038 C 
HETATM    4  C5  UNL     1     -33.278  15.554  -3.701  1.00 20.00     0.042 C 
HETATM    5  C6  UNL     1     -34.618  16.650  -6.106  1.00 20.00     0.009 C 
HETATM    6  C7  UNL     1     -34.179  14.648  -4.563  1.00 20.00    -0.011 C 
HETATM    7  C8  UNL     1     -34.212  15.166  -6.027  1.00 20.00    -0.014 C 
HETATM    8  C9  UNL     1     -35.568  14.500  -3.926  1.00 20.00     0.010 C 
HETATM    9  C10 UNL     1     -35.102  14.319  -6.938  1.00 20.00     0.010 C 
HETATM   10  F13 UNL     1     -34.321  19.043  -2.955  1.00 20.00    -0.199 F 
ENDROOT
BRANCH   2  11
HETATM   11  C3  UNL     1     -33.898  17.222  -1.314  1.00 20.00     0.239 C 
HETATM   12  O11 UNL     1     -33.005  17.767  -0.599  1.00 20.00    -0.642 OA
HETATM   13  O12 UNL     1     -34.721  16.316  -1.005  1.00 20.00    -0.642 OA
ENDBRANCH   2  11
TORSDOF 1
ENDMDL
MODEL 5
REMARK VINA RESULT:      -4.6      2.157      3.281
REMARK  1 active torsions:
REMARK  status: ('A' for Active; 'I' for Inactive)
REMARK    1  A    between atoms: C2_2  and  C3_3 
ROOT
HETATM    1  C1  UNL     1     -35.109  15.227  -3.412  1.00 20.00    -0.034 C 
HETATM    2  C2  UNL     1     -35.828  14.378  -4.161  1.00 20.00     0.194 C 
HETATM    3  C4  UNL     1     -35.727  16.074  -2.332  1.00 20.00     0.038 C 
HETATM    4  C5  UNL     1     -33.627  15.417  -3.599  1.00 20.00     0.042 C 
HETATM    5  C6  UNL     1     -35.380  17.551  -2.524  1.00 20.00     0.009 C 
HETATM    6  C7  UNL     1     -33.266  16.899  -3.824  1.00 20.00    -0.011 C 
HETATM    7  C8  UNL     1     -33.864  17.772  -2.688  1.00 20.00    -0.014 C 
HETATM    8  C9  UNL     1     -33.677  17.349  -5.233  1.00 20.00     0.010 C 
HETATM    9  C10 UNL     1     -33.555  19.260  -2.856  1.00 20.00     0.010 C 
HETATM   10  F13 UNL     1     -37.155  14.292  -3.929  1.00 20.00    -0.199 F 
ENDROOT
BRANCH   2  11
HETATM   11  C3  UNL     1     -35.203  13.515  -5.262  1.00 20.00     0.239 C 
HETATM   12  O11 UNL     1     -34.665  12.450  -4.837  1.00 20.00    -0.642 OA
HETATM   13  O12 UNL     1     -35.288  13.947  -6.445  1.00 20.00    -0.642 OA
ENDBRANCH   2  11
TORSDOF 1
ENDMDL
MODEL 6
REMARK VINA RESULT:      -4.6      2.524      3.355
REMARK  1 active torsions:
REMARK  status: ('A' for Active; 'I' for Inactive)
REMARK    1  A    between atoms: C2_2  and  C3_3 
ROOT
HETATM    1  C1  UNL     1     -34.707  15.026  -3.944  1.00 20.00    -0.034 C 
HETATM    2  C2  UNL     1     -33.753  15.515  -3.138  1.00 20.00     0.194 C 
HETATM    3  C4  UNL     1     -34.443  13.926  -4.936  1.00 20.00     0.038 C 
HETATM    4  C5  UNL     1     -36.120  15.550  -3.937  1.00 20.00     0.042 C 
HETATM    5  C6  UNL     1     -34.888  14.332  -6.342  1.00 20.00     0.009 C 
HETATM    6  C7  UNL     1     -36.570  15.993  -5.344  1.00 20.00    -0.011 C 
HETATM    7  C8  UNL     1     -36.340  14.844  -6.363  1.00 20.00    -0.014 C 
HETATM    8  C9  UNL     1     -35.897  17.315  -5.738  1.00 20.00     0.010 C 
HETATM    9  C10 UNL     1     -36.754  15.220  -7.787  1.00 20.00     0.010 C 
HETATM   10  F13 UNL     1     -32.512  14.991  -3.232  1.00 20.00    -0.199 F 
ENDROOT
BRANCH   2  11
HETATM   11  C3  UNL     1     -34.018  16.636  -2.128  1.00 20.00     0.239 C 
HETATM   12  O11 UNL     1     -33.699  17.789  -2.544  1.00 20.00    -0.642 OA
HETATM   13  O12 UNL     1     -34.511  16.299  -1.016  1.00 20.00    -0.642 OA
ENDBRANCH   2  11
TORSDOF 1
ENDMDL
MODEL 7
REMARK VINA RESULT:      -4.5      3.110      4.502
REMARK  1 active torsions:
REMARK  status: ('A' for Active; 'I' for Inactive)
REMARK    1  A    between atoms: C2_2  and  C3_3 
ROOT
HETATM    1  C1  UNL     1     -33.691  16.547  -5.111  1.00 20.00    -0.034 C 
HETATM    2  C2  UNL     1     -34.117  16.273  -6.353  1.00 20.00     0.194 C 
HETATM    3  C4  UNL     1     -33.048  15.510  -4.230  1.00 20.00     0.038 C 
HETATM    4  C5  UNL     1     -33.834  17.910  -4.487  1.00 20.00     0.042 C 
HETATM    5  C6  UNL     1     -33.753  15.425  -2.875  1.00 20.00     0.009 C 
HETATM    6  C7  UNL     1     -34.571  17.843  -3.134  1.00 20.00    -0.011 C 
HETATM    7  C8  UNL     1     -33.885  16.806  -2.205  1.00 20.00    -0.014 C 
HETATM    8  C9  UNL     1     -36.071  17.590  -3.345  1.00 20.00     0.010 C 
HETATM    9  C10 UNL     1     -34.574  16.677  -0.845  1.00 20.00     0.010 C 
HETATM   10  F13 UNL     1     -33.959  15.016  -6.817  1.00 20.00    -0.199 F 
ENDROOT
BRANCH   2  11
HETATM   11  C3  UNL     1     -34.772  17.326  -7.252  1.00 20.00     0.239 C 
HETATM   12  O11 UNL     1     -33.946  18.032  -7.903  1.00 20.00    -0.642 OA
HETATM   13  O12 UNL     1     -36.033  17.378  -7.248  1.00 20.00    -0.642 OA
ENDBRANCH   2  11
TORSDOF 1
ENDMDL
MODEL 8
REMARK VINA RESULT:      -4.4      2.742      4.283
REMARK  1 active torsions:
REMARK  status: ('A' for Active; 'I' for Inactive)
REMARK    1  A    between atoms: C2_2  and  C3_3 
ROOT
HETATM    1  C1  UNL     1     -36.080  15.614  -4.931  1.00 20.00    -0.034 C 
HETATM    2  C2  UNL     1     -36.043  15.802  -6.258  1.00 20.00     0.194 C 
HETATM    3  C4  UNL     1     -36.931  16.457  -4.019  1.00 20.00     0.038 C 
HETATM    4  C5  UNL     1     -35.262  14.556  -4.239  1.00 20.00     0.042 C 
HETATM    5  C6  UNL     1     -36.096  17.058  -2.887  1.00 20.00     0.009 C 
HETATM    6  C7  UNL     1     -34.392  15.154  -3.115  1.00 20.00    -0.011 C 
HETATM    7  C8  UNL     1     -35.272  15.988  -2.146  1.00 20.00    -0.014 C 
HETATM    8  C9  UNL     1     -33.207  15.933  -3.702  1.00 20.00     0.010 C 
HETATM    9  C10 UNL     1     -34.469  16.623  -1.010  1.00 20.00     0.010 C 
HETATM   10  F13 UNL     1     -36.801  16.789  -6.783  1.00 20.00    -0.199 F 
ENDROOT
BRANCH   2  11
HETATM   11  C3  UNL     1     -35.178  14.947  -7.190  1.00 20.00     0.239 C 
HETATM   12  O11 UNL     1     -33.945  15.233  -7.153  1.00 20.00    -0.642 OA
HETATM   13  O12 UNL     1     -35.773  14.072  -7.879  1.00 20.00    -0.642 OA
ENDBRANCH   2  11
TORSDOF 1
ENDMDL
MODEL 9
REMARK VINA RESULT:      -4.4      2.602      4.023
REMARK  1 active torsions:
REMARK  status: ('A' for Active; 'I' for Inactive)
REMARK    1  A    between atoms: C2_2  and  C3_3 
ROOT
HETATM    1  C1  UNL     1     -34.356  15.413  -4.417  1.00 20.00    -0.034 C 
HETATM    2  C2  UNL     1     -35.091  14.955  -5.441  1.00 20.00     0.194 C 
HETATM    3  C4  UNL     1     -34.430  14.817  -3.038  1.00 20.00     0.038 C 
HETATM    4  C5  UNL     1     -33.407  16.575  -4.558  1.00 20.00     0.042 C 
HETATM    5  C6  UNL     1     -34.715  15.892  -1.987  1.00 20.00     0.009 C 
HETATM    6  C7  UNL     1     -33.703  17.680  -3.524  1.00 20.00    -0.011 C 
HETATM    7  C8  UNL     1     -33.737  17.077  -2.094  1.00 20.00    -0.014 C 
HETATM    8  C9  UNL     1     -34.976  18.450  -3.902  1.00 20.00     0.010 C 
HETATM    9  C10 UNL     1     -34.040  18.118  -1.016  1.00 20.00     0.010 C 
HETATM   10  F13 UNL     1     -35.926  13.919  -5.211  1.00 20.00    -0.199 F 
ENDROOT
BRANCH   2  11
HETATM   11  C3  UNL     1     -35.019  15.560  -6.847  1.00 20.00     0.239 C 
HETATM   12  O11 UNL     1     -34.238  14.945  -7.632  1.00 20.00    -0.642 OA
HETATM   13  O12 UNL     1     -35.726  16.582  -7.067  1.00 20.00    -0.642 OA
ENDBRANCH   2  11
TORSDOF 1
ENDMDL
