MODEL 1
REMARK VINA RESULT:      -5.0      0.000      0.000
REMARK  0 active torsions:
REMARK  status: ('A' for Active; 'I' for Inactive)
ROOT
HETATM    1  C1  UNL     1     -33.641  18.163  -3.479  1.00 20.00     0.009 A 
HETATM    2  C2  UNL     1     -33.894  18.143  -2.107  1.00 20.00     0.024 A 
HETATM    3  C3  UNL     1     -34.922  15.946  -2.287  1.00 20.00     0.033 A 
HETATM    4  C4  UNL     1     -34.020  17.066  -4.235  1.00 20.00    -0.050 A 
HETATM    5  C5  UNL     1     -34.649  15.960  -3.647  1.00 20.00    -0.031 A 
HETATM    6  C6  UNL     1     -34.531  17.042  -1.515  1.00 20.00     0.034 A 
HETATM    7  C7  UNL     1     -33.894  16.892  -5.717  1.00 20.00     0.045 C 
HETATM    8  C8  UNL     1     -35.004  14.946  -4.692  1.00 20.00     0.119 C 
HETATM    9  C9  UNL     1     -34.074  15.366  -5.857  1.00 20.00     0.009 C 
HETATM   10  C10 UNL     1     -34.614  14.968  -7.223  1.00 20.00     0.012 C 
HETATM   11 CL11 UNL     1     -34.830  17.041   0.182  1.00 20.00    -0.084 Cl
HETATM   12 CL12 UNL     1     -34.697  13.277  -4.191  1.00 20.00    -0.119 Cl
ENDROOT
TORSDOF 0
ENDMDL
MODEL 2
REMARK VINA RESULT:      -4.8      1.955      4.849
REMARK  0 active torsions:
REMARK  status: ('A' for Active; 'I' for Inactive)
ROOT
HETATM    1  C1  UNL     1     -34.425  14.368  -3.407  1.00 20.00     0.009 A 
HETATM    2  C2  UNL     1     -34.433  14.111  -4.779  1.00 20.00     0.024 A 
HETATM    3  C3  UNL     1     -34.384  16.494  -5.267  1.00 20.00     0.033 A 
HETATM    4  C4  UNL     1     -34.382  15.686  -2.984  1.00 20.00    -0.050 A 
HETATM    5  C5  UNL     1     -34.354  16.744  -3.903  1.00 20.00    -0.031 A 
HETATM    6  C6  UNL     1     -34.414  15.167  -5.702  1.00 20.00     0.034 A 
HETATM    7  C7  UNL     1     -34.416  16.193  -1.576  1.00 20.00     0.045 C 
HETATM    8  C8  UNL     1     -34.370  18.060  -3.184  1.00 20.00     0.119 C 
HETATM    9  C9  UNL     1     -33.913  17.640  -1.765  1.00 20.00     0.009 C 
HETATM   10  C10 UNL     1     -34.416  18.577  -0.676  1.00 20.00     0.012 C 
HETATM   11 CL11 UNL     1     -34.423  14.823  -7.391  1.00 20.00    -0.084 Cl
HETATM   12 CL12 UNL     1     -33.278  19.262  -3.885  1.00 20.00    -0.119 Cl
ENDROOT
TORSDOF 0
ENDMDL
MODEL 3
REMARK VINA RESULT:      -4.8      4.667      6.719
REMARK  0 active torsions:
REMARK  status: ('A' for Active; 'I' for Inactive)
ROOT
HETATM    1  C1  UNL     1     -30.948  19.227   2.867  1.00 20.00     0.009 A 
HETATM    2  C2  UNL     1     -31.345  19.105   4.199  1.00 20.00     0.024 A 
HETATM    3  C3  UNL     1     -33.631  18.629   3.516  1.00 20.00     0.033 A 
HETATM    4  C4  UNL     1     -31.896  19.033   1.877  1.00 20.00    -0.050 A 
HETATM    5  C5  UNL     1     -33.227  18.728   2.193  1.00 20.00    -0.031 A 
HETATM    6  C6  UNL     1     -32.679  18.810   4.521  1.00 20.00     0.034 A 
HETATM    7  C7  UNL     1     -31.708  19.161   0.397  1.00 20.00     0.045 C 
HETATM    8  C8  UNL     1     -34.051  18.630   0.945  1.00 20.00     0.119 C 
HETATM    9  C9  UNL     1     -32.955  18.421  -0.130  1.00 20.00     0.009 C 
HETATM   10  C10 UNL     1     -33.377  18.903  -1.511  1.00 20.00     0.012 C 
HETATM   11 CL11 UNL     1     -33.143  18.664   6.174  1.00 20.00    -0.084 Cl
HETATM   12 CL12 UNL     1     -35.203  17.287   0.962  1.00 20.00    -0.119 Cl
ENDROOT
TORSDOF 0
ENDMDL
MODEL 4
REMARK VINA RESULT:      -4.6      1.761      2.118
REMARK  0 active torsions:
REMARK  status: ('A' for Active; 'I' for Inactive)
ROOT
HETATM    1  C1  UNL     1     -33.256  15.506  -4.147  1.00 20.00     0.009 A 
HETATM    2  C2  UNL     1     -33.372  15.877  -2.807  1.00 20.00     0.024 A 
HETATM    3  C3  UNL     1     -35.782  16.112  -3.038  1.00 20.00     0.033 A 
HETATM    4  C4  UNL     1     -34.408  15.429  -4.911  1.00 20.00    -0.050 A 
HETATM    5  C5  UNL     1     -35.665  15.722  -4.364  1.00 20.00    -0.031 A 
HETATM    6  C6  UNL     1     -34.627  16.180  -2.257  1.00 20.00     0.034 A 
HETATM    7  C7  UNL     1     -34.516  15.103  -6.369  1.00 20.00     0.045 C 
HETATM    8  C8  UNL     1     -36.728  15.620  -5.416  1.00 20.00     0.119 C 
HETATM    9  C9  UNL     1     -36.016  14.763  -6.491  1.00 20.00     0.009 C 
HETATM   10  C10 UNL     1     -36.553  15.002  -7.895  1.00 20.00     0.012 C 
HETATM   11 CL11 UNL     1     -34.743  16.634  -0.599  1.00 20.00    -0.084 Cl
HETATM   12 CL12 UNL     1     -38.212  14.841  -4.848  1.00 20.00    -0.119 Cl
ENDROOT
TORSDOF 0
ENDMDL
MODEL 5
REMARK VINA RESULT:      -4.6      0.851      4.225
REMARK  0 active torsions:
REMARK  status: ('A' for Active; 'I' for Inactive)
ROOT
HETATM    1  C1  UNL     1     -34.161  16.732  -5.608  1.00 20.00     0.009 A 
HETATM    2  C2  UNL     1     -34.480  15.399  -5.870  1.00 20.00     0.024 A 
HETATM    3  C3  UNL     1     -34.324  14.854  -3.504  1.00 20.00     0.033 A 
HETATM    4  C4  UNL     1     -33.942  17.111  -4.294  1.00 20.00    -0.050 A 
HETATM    5  C5  UNL     1     -34.029  16.184  -3.246  1.00 20.00    -0.031 A 
HETATM    6  C6  UNL     1     -34.559  14.466  -4.825  1.00 20.00     0.034 A 
HETATM    7  C7  UNL     1     -33.543  18.463  -3.789  1.00 20.00     0.045 C 
HETATM    8  C8  UNL     1     -33.689  16.840  -1.941  1.00 20.00     0.119 C 
HETATM    9  C9  UNL     1     -33.883  18.336  -2.289  1.00 20.00     0.009 C 
HETATM   10  C10 UNL     1     -33.042  19.263  -1.422  1.00 20.00     0.012 C 
HETATM   11 CL11 UNL     1     -34.957  12.826  -5.175  1.00 20.00    -0.084 Cl
HETATM   12 CL12 UNL     1     -34.741  16.346  -0.607  1.00 20.00    -0.119 Cl
ENDROOT
TORSDOF 0
ENDMDL
MODEL 6
REMARK VINA RESULT:      -4.5      1.817      2.507
REMARK  0 active torsions:
REMARK  status: ('A' for Active; 'I' for Inactive)
ROOT
HETATM    1  C1  UNL     1     -34.794  15.587  -2.245  1.00 20.00     0.009 A 
HETATM    2  C2  UNL     1     -34.433  16.602  -1.358  1.00 20.00     0.024 A 
HETATM    3  C3  UNL     1     -33.583  17.958  -3.189  1.00 20.00     0.033 A 
HETATM    4  C4  UNL     1     -34.556  15.779  -3.596  1.00 20.00    -0.050 A 
HETATM    5  C5  UNL     1     -33.963  16.957  -4.070  1.00 20.00    -0.031 A 
HETATM    6  C6  UNL     1     -33.830  17.778  -1.827  1.00 20.00     0.034 A 
HETATM    7  C7  UNL     1     -34.813  14.815  -4.713  1.00 20.00     0.045 C 
HETATM    8  C8  UNL     1     -33.766  16.880  -5.555  1.00 20.00     0.119 C 
HETATM    9  C9  UNL     1     -34.755  15.752  -5.938  1.00 20.00     0.009 C 
HETATM   10  C10 UNL     1     -34.356  15.018  -7.211  1.00 20.00     0.012 C 
HETATM   11 CL11 UNL     1     -33.396  19.017  -0.710  1.00 20.00    -0.084 Cl
HETATM   12 CL12 UNL     1     -34.150  18.388  -6.397  1.00 20.00    -0.119 Cl
ENDROOT
TORSDOF 0
ENDMDL
MODEL 7
REMARK VINA RESULT:      -4.5      4.656      7.829
REMARK  0 active torsions:
REMARK  status: ('A' for Active; 'I' for Inactive)
ROOT
HETATM    1  C1  UNL     1     -35.401  17.523   1.468  1.00 20.00     0.009 A 
HETATM    2  C2  UNL     1     -35.049  17.602   0.120  1.00 20.00     0.024 A 
HETATM    3  C3  UNL     1     -32.983  18.756   0.685  1.00 20.00     0.033 A 
HETATM    4  C4  UNL     1     -34.530  18.049   2.408  1.00 20.00    -0.050 A 
HETATM    5  C5  UNL     1     -33.326  18.655   2.025  1.00 20.00    -0.031 A 
HETATM    6  C6  UNL     1     -33.849  18.216  -0.269  1.00 20.00     0.034 A 
HETATM    7  C7  UNL     1     -34.723  18.119   3.891  1.00 20.00     0.045 C 
HETATM    8  C8  UNL     1     -32.606  19.190   3.226  1.00 20.00     0.119 C 
HETATM    9  C9  UNL     1     -33.282  18.393   4.369  1.00 20.00     0.009 C 
HETATM   10  C10 UNL     1     -33.242  19.120   5.706  1.00 20.00     0.012 C 
HETATM   11 CL11 UNL     1     -33.437  18.299  -1.940  1.00 20.00    -0.084 Cl
HETATM   12 CL12 UNL     1     -30.860  18.909   3.188  1.00 20.00    -0.119 Cl
ENDROOT
TORSDOF 0
ENDMDL
MODEL 8
REMARK VINA RESULT:      -4.4      2.019      4.615
REMARK  0 active torsions:
REMARK  status: ('A' for Active; 'I' for Inactive)
ROOT
HETATM    1  C1  UNL     1     -37.171  15.976  -4.495  1.00 20.00     0.009 A 
HETATM    2  C2  UNL     1     -37.138  15.399  -5.765  1.00 20.00     0.024 A 
HETATM    3  C3  UNL     1     -34.714  15.220  -5.665  1.00 20.00     0.033 A 
HETATM    4  C4  UNL     1     -35.974  16.155  -3.821  1.00 20.00    -0.050 A 
HETATM    5  C5  UNL     1     -34.753  15.774  -4.394  1.00 20.00    -0.031 A 
HETATM    6  C6  UNL     1     -35.917  15.025  -6.347  1.00 20.00     0.034 A 
HETATM    7  C7  UNL     1     -35.768  16.792  -2.482  1.00 20.00     0.045 C 
HETATM    8  C8  UNL     1     -33.616  16.130  -3.484  1.00 20.00     0.119 C 
HETATM    9  C9  UNL     1     -34.349  16.300  -2.130  1.00 20.00     0.009 C 
HETATM   10  C10 UNL     1     -33.627  17.242  -1.176  1.00 20.00     0.012 C 
HETATM   11 CL11 UNL     1     -35.903  14.312  -7.915  1.00 20.00    -0.084 Cl
HETATM   12 CL12 UNL     1     -32.367  14.881  -3.390  1.00 20.00    -0.119 Cl
ENDROOT
TORSDOF 0
ENDMDL
MODEL 9
REMARK VINA RESULT:      -4.3      4.820      7.896
REMARK  0 active torsions:
REMARK  status: ('A' for Active; 'I' for Inactive)
ROOT
HETATM    1  C1  UNL     1     -31.837  19.001   0.879  1.00 20.00     0.009 A 
HETATM    2  C2  UNL     1     -32.683  18.625  -0.165  1.00 20.00     0.024 A 
HETATM    3  C3  UNL     1     -34.421  17.994   1.415  1.00 20.00     0.033 A 
HETATM    4  C4  UNL     1     -32.302  18.881   2.178  1.00 20.00    -0.050 A 
HETATM    5  C5  UNL     1     -33.586  18.389   2.449  1.00 20.00    -0.031 A 
HETATM    6  C6  UNL     1     -33.965  18.123   0.101  1.00 20.00     0.034 A 
HETATM    7  C7  UNL     1     -31.558  19.175   3.444  1.00 20.00     0.045 C 
HETATM    8  C8  UNL     1     -33.812  18.307   3.929  1.00 20.00     0.119 C 
HETATM    9  C9  UNL     1     -32.716  19.263   4.461  1.00 20.00     0.009 C 
HETATM   10  C10 UNL     1     -32.271  18.929   5.878  1.00 20.00     0.012 C 
HETATM   11 CL11 UNL     1     -34.991  17.667  -1.207  1.00 20.00    -0.084 Cl
HETATM   12 CL12 UNL     1     -35.426  18.834   4.428  1.00 20.00    -0.119 Cl
ENDROOT
TORSDOF 0
ENDMDL
