MODEL 1
REMARK VINA RESULT:      -4.9      0.000      0.000
REMARK  0 active torsions:
REMARK  status: ('A' for Active; 'I' for Inactive)
ROOT
HETATM    1  C1  UNL     1     -33.553  18.273  -2.976  1.00 20.00     0.009 A 
HETATM    2  C2  UNL     1     -33.880  18.292  -1.618  1.00 20.00     0.024 A 
HETATM    3  C3  UNL     1     -34.955  16.117  -1.797  1.00 20.00     0.032 A 
HETATM    4  C4  UNL     1     -33.942  17.177  -3.728  1.00 20.00    -0.050 A 
HETATM    5  C5  UNL     1     -34.629  16.103  -3.144  1.00 20.00    -0.035 A 
HETATM    6  C6  UNL     1     -34.577  17.223  -1.033  1.00 20.00     0.034 A 
HETATM    7  C7  UNL     1     -33.690  16.927  -5.184  1.00 20.00     0.045 C 
HETATM    8  C8  UNL     1     -34.898  15.030  -4.153  1.00 20.00     0.095 C 
HETATM    9  C9  UNL     1     -34.725  15.816  -5.473  1.00 20.00     0.005 C 
HETATM   10  C10 UNL     1     -34.399  15.011  -6.723  1.00 20.00     0.011 C 
HETATM   11 CL11 UNL     1     -34.963  17.275   0.644  1.00 20.00    -0.084 Cl
HETATM   12 BR12 UNL     1     -33.591  13.615  -3.898  1.00 20.00    -0.086 Br
ENDROOT
TORSDOF 0
ENDMDL
MODEL 2
REMARK VINA RESULT:      -4.8      3.058      5.313
REMARK  0 active torsions:
REMARK  status: ('A' for Active; 'I' for Inactive)
ROOT
HETATM    1  C1  UNL     1     -34.770  15.922  -1.911  1.00 20.00     0.009 A 
HETATM    2  C2  UNL     1     -34.381  16.053  -3.246  1.00 20.00     0.024 A 
HETATM    3  C3  UNL     1     -33.650  18.341  -2.857  1.00 20.00     0.032 A 
HETATM    4  C4  UNL     1     -34.602  17.008  -1.069  1.00 20.00    -0.050 A 
HETATM    5  C5  UNL     1     -34.039  18.205  -1.533  1.00 20.00    -0.035 A 
HETATM    6  C6  UNL     1     -33.827  17.255  -3.716  1.00 20.00     0.034 A 
HETATM    7  C7  UNL     1     -34.923  17.096   0.391  1.00 20.00     0.045 C 
HETATM    8  C8  UNL     1     -33.927  19.207  -0.425  1.00 20.00     0.095 C 
HETATM    9  C9  UNL     1     -34.929  18.627   0.599  1.00 20.00     0.005 C 
HETATM   10  C10 UNL     1     -34.746  19.031   2.055  1.00 20.00     0.011 C 
HETATM   11 CL11 UNL     1     -33.355  17.385  -5.367  1.00 20.00    -0.084 Cl
HETATM   12 BR12 UNL     1     -32.084  19.224   0.194  1.00 20.00    -0.086 Br
ENDROOT
TORSDOF 0
ENDMDL
MODEL 3
REMARK VINA RESULT:      -4.7      3.161      4.658
REMARK  0 active torsions:
REMARK  status: ('A' for Active; 'I' for Inactive)
ROOT
HETATM    1  C1  UNL     1     -33.330  16.389  -5.330  1.00 20.00     0.009 A 
HETATM    2  C2  UNL     1     -33.927  15.837  -6.466  1.00 20.00     0.024 A 
HETATM    3  C3  UNL     1     -35.926  15.272  -5.199  1.00 20.00     0.032 A 
HETATM    4  C4  UNL     1     -34.038  16.365  -4.140  1.00 20.00    -0.050 A 
HETATM    5  C5  UNL     1     -35.328  15.821  -4.074  1.00 20.00    -0.035 A 
HETATM    6  C6  UNL     1     -35.214  15.282  -6.400  1.00 20.00     0.034 A 
HETATM    7  C7  UNL     1     -33.615  16.909  -2.809  1.00 20.00     0.045 C 
HETATM    8  C8  UNL     1     -35.893  15.952  -2.693  1.00 20.00     0.095 C 
HETATM    9  C9  UNL     1     -34.607  16.186  -1.869  1.00 20.00     0.005 C 
HETATM   10  C10 UNL     1     -34.761  16.878  -0.522  1.00 20.00     0.011 C 
HETATM   11 CL11 UNL     1     -35.925  14.611  -7.819  1.00 20.00    -0.084 Cl
HETATM   12 BR12 UNL     1     -37.124  17.456  -2.682  1.00 20.00    -0.086 Br
ENDROOT
TORSDOF 0
ENDMDL
MODEL 4
REMARK VINA RESULT:      -4.6      3.364      4.981
REMARK  0 active torsions:
REMARK  status: ('A' for Active; 'I' for Inactive)
ROOT
HETATM    1  C1  UNL     1     -34.380  14.383  -5.465  1.00 20.00     0.009 A 
HETATM    2  C2  UNL     1     -35.269  14.337  -6.541  1.00 20.00     0.024 A 
HETATM    3  C3  UNL     1     -36.802  15.845  -5.402  1.00 20.00     0.032 A 
HETATM    4  C4  UNL     1     -34.721  15.154  -4.366  1.00 20.00    -0.050 A 
HETATM    5  C5  UNL     1     -35.916  15.886  -4.336  1.00 20.00    -0.035 A 
HETATM    6  C6  UNL     1     -36.471  15.061  -6.509  1.00 20.00     0.034 A 
HETATM    7  C7  UNL     1     -33.927  15.371  -3.114  1.00 20.00     0.045 C 
HETATM    8  C8  UNL     1     -36.034  16.666  -3.062  1.00 20.00     0.095 C 
HETATM    9  C9  UNL     1     -35.017  15.922  -2.167  1.00 20.00     0.005 C 
HETATM   10  C10 UNL     1     -34.443  16.688  -0.983  1.00 20.00     0.011 C 
HETATM   11 CL11 UNL     1     -37.545  14.985  -7.853  1.00 20.00    -0.084 Cl
HETATM   12 BR12 UNL     1     -35.556  18.513  -3.436  1.00 20.00    -0.086 Br
ENDROOT
TORSDOF 0
ENDMDL
MODEL 5
REMARK VINA RESULT:      -4.6      3.072      4.798
REMARK  0 active torsions:
REMARK  status: ('A' for Active; 'I' for Inactive)
ROOT
HETATM    1  C1  UNL     1     -34.144  14.508  -3.242  1.00 20.00     0.009 A 
HETATM    2  C2  UNL     1     -34.110  14.259  -4.616  1.00 20.00     0.024 A 
HETATM    3  C3  UNL     1     -34.831  16.533  -5.094  1.00 20.00     0.032 A 
HETATM    4  C4  UNL     1     -34.532  15.766  -2.813  1.00 20.00    -0.050 A 
HETATM    5  C5  UNL     1     -34.864  16.774  -3.729  1.00 20.00    -0.035 A 
HETATM    6  C6  UNL     1     -34.453  15.263  -5.535  1.00 20.00     0.034 A 
HETATM    7  C7  UNL     1     -34.625  16.268  -1.405  1.00 20.00     0.045 C 
HETATM    8  C8  UNL     1     -35.208  18.048  -3.020  1.00 20.00     0.095 C 
HETATM    9  C9  UNL     1     -35.507  17.522  -1.598  1.00 20.00     0.005 C 
HETATM   10  C10 UNL     1     -35.388  18.515  -0.450  1.00 20.00     0.011 C 
HETATM   11 CL11 UNL     1     -34.398  14.926  -7.223  1.00 20.00    -0.084 Cl
HETATM   12 BR12 UNL     1     -33.669  19.231  -3.118  1.00 20.00    -0.086 Br
ENDROOT
TORSDOF 0
ENDMDL
MODEL 6
REMARK VINA RESULT:      -4.6      1.941      2.714
REMARK  0 active torsions:
REMARK  status: ('A' for Active; 'I' for Inactive)
ROOT
HETATM    1  C1  UNL     1     -35.176  15.170  -2.836  1.00 20.00     0.009 A 
HETATM    2  C2  UNL     1     -34.660  16.073  -1.905  1.00 20.00     0.024 A 
HETATM    3  C3  UNL     1     -33.678  17.418  -3.679  1.00 20.00     0.032 A 
HETATM    4  C4  UNL     1     -34.926  15.399  -4.179  1.00 20.00    -0.050 A 
HETATM    5  C5  UNL     1     -34.192  16.517  -4.600  1.00 20.00    -0.035 A 
HETATM    6  C6  UNL     1     -33.915  17.188  -2.323  1.00 20.00     0.034 A 
HETATM    7  C7  UNL     1     -35.387  14.587  -5.351  1.00 20.00     0.045 C 
HETATM    8  C8  UNL     1     -34.095  16.561  -6.094  1.00 20.00     0.095 C 
HETATM    9  C9  UNL     1     -34.433  15.096  -6.455  1.00 20.00     0.005 C 
HETATM   10  C10 UNL     1     -34.953  14.829  -7.860  1.00 20.00     0.011 C 
HETATM   11 CL11 UNL     1     -33.295  18.285  -1.149  1.00 20.00    -0.084 Cl
HETATM   12 BR12 UNL     1     -35.390  17.855  -6.747  1.00 20.00    -0.086 Br
ENDROOT
TORSDOF 0
ENDMDL
MODEL 7
REMARK VINA RESULT:      -4.5      1.826      2.004
REMARK  0 active torsions:
REMARK  status: ('A' for Active; 'I' for Inactive)
ROOT
HETATM    1  C1  UNL     1     -36.494  18.176  -2.085  1.00 20.00     0.009 A 
HETATM    2  C2  UNL     1     -35.991  18.516  -0.827  1.00 20.00     0.024 A 
HETATM    3  C3  UNL     1     -34.542  16.561  -0.827  1.00 20.00     0.032 A 
HETATM    4  C4  UNL     1     -36.020  17.027  -2.693  1.00 20.00    -0.050 A 
HETATM    5  C5  UNL     1     -35.046  16.230  -2.076  1.00 20.00    -0.035 A 
HETATM    6  C6  UNL     1     -35.024  17.713  -0.203  1.00 20.00     0.034 A 
HETATM    7  C7  UNL     1     -36.393  16.476  -4.036  1.00 20.00     0.045 C 
HETATM    8  C8  UNL     1     -34.671  15.071  -2.949  1.00 20.00     0.095 C 
HETATM    9  C9  UNL     1     -35.882  15.023  -3.910  1.00 20.00     0.005 C 
HETATM   10  C10 UNL     1     -35.672  14.347  -5.258  1.00 20.00     0.011 C 
HETATM   11 CL11 UNL     1     -34.421  18.159   1.348  1.00 20.00    -0.084 Cl
HETATM   12 BR12 UNL     1     -32.985  15.490  -3.822  1.00 20.00    -0.086 Br
ENDROOT
TORSDOF 0
ENDMDL
MODEL 8
REMARK VINA RESULT:      -4.4      2.011      2.361
REMARK  0 active torsions:
REMARK  status: ('A' for Active; 'I' for Inactive)
ROOT
HETATM    1  C1  UNL     1     -34.417  16.582  -0.953  1.00 20.00     0.009 A 
HETATM    2  C2  UNL     1     -35.200  17.537  -0.302  1.00 20.00     0.024 A 
HETATM    3  C3  UNL     1     -36.691  17.691  -2.219  1.00 20.00     0.032 A 
HETATM    4  C4  UNL     1     -34.777  16.202  -2.235  1.00 20.00    -0.050 A 
HETATM    5  C5  UNL     1     -35.909  16.743  -2.861  1.00 20.00    -0.035 A 
HETATM    6  C6  UNL     1     -36.328  18.089  -0.931  1.00 20.00     0.034 A 
HETATM    7  C7  UNL     1     -34.108  15.191  -3.116  1.00 20.00     0.045 C 
HETATM    8  C8  UNL     1     -36.107  16.143  -4.219  1.00 20.00     0.095 C 
HETATM    9  C9  UNL     1     -34.699  15.566  -4.494  1.00 20.00     0.005 C 
HETATM   10  C10 UNL     1     -34.598  14.437  -5.511  1.00 20.00     0.011 C 
HETATM   11 CL11 UNL     1     -37.275  19.263  -0.100  1.00 20.00    -0.084 Cl
HETATM   12 BR12 UNL     1     -37.503  14.797  -4.090  1.00 20.00    -0.086 Br
ENDROOT
TORSDOF 0
ENDMDL
MODEL 9
REMARK VINA RESULT:      -4.3      2.341      3.015
REMARK  0 active torsions:
REMARK  status: ('A' for Active; 'I' for Inactive)
ROOT
HETATM    1  C1  UNL     1     -34.001  14.756  -4.269  1.00 20.00     0.009 A 
HETATM    2  C2  UNL     1     -33.752  15.276  -2.996  1.00 20.00     0.024 A 
HETATM    3  C3  UNL     1     -35.922  16.377  -2.969  1.00 20.00     0.032 A 
HETATM    4  C4  UNL     1     -35.206  15.064  -4.878  1.00 20.00    -0.050 A 
HETATM    5  C5  UNL     1     -36.163  15.858  -4.232  1.00 20.00    -0.035 A 
HETATM    6  C6  UNL     1     -34.704  16.081  -2.352  1.00 20.00     0.034 A 
HETATM    7  C7  UNL     1     -35.699  14.610  -6.218  1.00 20.00     0.045 C 
HETATM    8  C8  UNL     1     -37.390  16.010  -5.078  1.00 20.00     0.095 C 
HETATM    9  C9  UNL     1     -36.838  15.624  -6.470  1.00 20.00     0.005 C 
HETATM   10  C10 UNL     1     -37.843  15.144  -7.507  1.00 20.00     0.011 C 
HETATM   11 CL11 UNL     1     -34.368  16.705  -0.782  1.00 20.00    -0.084 Cl
HETATM   12 BR12 UNL     1     -38.747  14.795  -4.401  1.00 20.00    -0.086 Br
ENDROOT
TORSDOF 0
ENDMDL
