MODEL 1
REMARK VINA RESULT:      -4.7      0.000      0.000
REMARK  1 active torsions:
REMARK  status: ('A' for Active; 'I' for Inactive)
REMARK    1  A    between atoms: C2_2  and  C5_5 
ROOT
HETATM    1  C1  UNL     1     -33.400   6.577   5.147  1.00 20.00     0.075 A 
HETATM    2  C2  UNL     1     -33.250   6.460   3.822  1.00 20.00     0.039 A 
HETATM    3  C3  UNL     1     -34.485   5.733   5.670  1.00 20.00     0.209 A 
HETATM    4  C4  UNL     1     -34.168   5.527   3.099  1.00 20.00     0.126 A 
HETATM    5  O6  UNL     1     -34.808   5.671   6.844  1.00 20.00    -0.281 OA
HETATM    6  S10 UNL     1     -35.251   4.829   4.379  1.00 20.00    -0.084 SA
ENDROOT
BRANCH   2   7
HETATM    7  C5  UNL     1     -32.225   7.203   3.031  1.00 20.00     0.414 C 
HETATM    8  F7  UNL     1     -31.236   7.665   3.827  1.00 20.00    -0.166 F 
HETATM    9  F8  UNL     1     -31.661   6.409   2.096  1.00 20.00    -0.166 F 
HETATM   10  F9  UNL     1     -32.769   8.263   2.395  1.00 20.00    -0.166 F 
ENDBRANCH   2   7
TORSDOF 1
ENDMDL
MODEL 2
REMARK VINA RESULT:      -4.6     11.242     11.811
REMARK  1 active torsions:
REMARK  status: ('A' for Active; 'I' for Inactive)
REMARK    1  A    between atoms: C2_2  and  C5_5 
ROOT
HETATM    1  C1  UNL     1     -34.406  14.471  -3.195  1.00 20.00     0.075 A 
HETATM    2  C2  UNL     1     -35.045  15.566  -2.767  1.00 20.00     0.039 A 
HETATM    3  C3  UNL     1     -35.199  13.695  -4.159  1.00 20.00     0.209 A 
HETATM    4  C4  UNL     1     -36.413  15.829  -3.310  1.00 20.00     0.126 A 
HETATM    5  O6  UNL     1     -34.827  12.659  -4.687  1.00 20.00    -0.281 OA
HETATM    6  S10 UNL     1     -36.750  14.455  -4.449  1.00 20.00    -0.084 SA
ENDROOT
BRANCH   2   7
HETATM    7  C5  UNL     1     -34.472  16.534  -1.785  1.00 20.00     0.414 C 
HETATM    8  F7  UNL     1     -34.965  17.776  -1.981  1.00 20.00    -0.166 F 
HETATM    9  F8  UNL     1     -34.766  16.173  -0.517  1.00 20.00    -0.166 F 
HETATM   10  F9  UNL     1     -33.128  16.605  -1.890  1.00 20.00    -0.166 F 
ENDBRANCH   2   7
TORSDOF 1
ENDMDL
MODEL 3
REMARK VINA RESULT:      -4.6     11.230     11.799
REMARK  1 active torsions:
REMARK  status: ('A' for Active; 'I' for Inactive)
REMARK    1  A    between atoms: C2_2  and  C5_5 
ROOT
HETATM    1  C1  UNL     1     -34.416  14.474  -3.161  1.00 20.00     0.075 A 
HETATM    2  C2  UNL     1     -35.047  15.579  -2.745  1.00 20.00     0.039 A 
HETATM    3  C3  UNL     1     -35.205  13.705  -4.133  1.00 20.00     0.209 A 
HETATM    4  C4  UNL     1     -36.405  15.857  -3.307  1.00 20.00     0.126 A 
HETATM    5  O6  UNL     1     -34.839  12.664  -4.652  1.00 20.00    -0.281 OA
HETATM    6  S10 UNL     1     -36.743  14.483  -4.446  1.00 20.00    -0.084 SA
ENDROOT
BRANCH   2   7
HETATM    7  C5  UNL     1     -34.476  16.543  -1.758  1.00 20.00     0.414 C 
HETATM    8  F7  UNL     1     -33.132  16.615  -1.868  1.00 20.00    -0.166 F 
HETATM    9  F8  UNL     1     -34.969  17.786  -1.949  1.00 20.00    -0.166 F 
HETATM   10  F9  UNL     1     -34.765  16.178  -0.491  1.00 20.00    -0.166 F 
ENDBRANCH   2   7
TORSDOF 1
ENDMDL
MODEL 4
REMARK VINA RESULT:      -4.6      1.275      1.667
REMARK  1 active torsions:
REMARK  status: ('A' for Active; 'I' for Inactive)
REMARK    1  A    between atoms: C2_2  and  C5_5 
ROOT
HETATM    1  C1  UNL     1     -33.987   5.319   3.730  1.00 20.00     0.075 A 
HETATM    2  C2  UNL     1     -33.251   6.367   4.118  1.00 20.00     0.039 A 
HETATM    3  C3  UNL     1     -34.793   4.758   4.825  1.00 20.00     0.209 A 
HETATM    4  C4  UNL     1     -33.352   6.797   5.547  1.00 20.00     0.126 A 
HETATM    5  O6  UNL     1     -35.541   3.802   4.713  1.00 20.00    -0.281 OA
HETATM    6  S10 UNL     1     -34.533   5.648   6.311  1.00 20.00    -0.084 SA
ENDROOT
BRANCH   2   7
HETATM    7  C5  UNL     1     -32.340   7.127   3.211  1.00 20.00     0.414 C 
HETATM    8  F7  UNL     1     -31.329   7.697   3.902  1.00 20.00    -0.166 F 
HETATM    9  F8  UNL     1     -31.793   6.316   2.279  1.00 20.00    -0.166 F 
HETATM   10  F9  UNL     1     -33.000   8.110   2.563  1.00 20.00    -0.166 F 
ENDBRANCH   2   7
TORSDOF 1
ENDMDL
MODEL 5
REMARK VINA RESULT:      -4.5      3.478      4.050
REMARK  1 active torsions:
REMARK  status: ('A' for Active; 'I' for Inactive)
REMARK    1  A    between atoms: C2_2  and  C5_5 
ROOT
HETATM    1  C1  UNL     1     -33.166   6.500   4.594  1.00 20.00     0.075 A 
HETATM    2  C2  UNL     1     -34.141   5.661   4.963  1.00 20.00     0.039 A 
HETATM    3  C3  UNL     1     -33.004   6.572   3.135  1.00 20.00     0.209 A 
HETATM    4  C4  UNL     1     -34.892   4.951   3.882  1.00 20.00     0.126 A 
HETATM    5  O6  UNL     1     -32.180   7.267   2.564  1.00 20.00    -0.281 OA
HETATM    6  S10 UNL     1     -34.151   5.524   2.326  1.00 20.00    -0.084 SA
ENDROOT
BRANCH   2   7
HETATM    7  C5  UNL     1     -34.520   5.396   6.382  1.00 20.00     0.414 C 
HETATM    8  F7  UNL     1     -34.559   6.540   7.099  1.00 20.00    -0.166 F 
HETATM    9  F8  UNL     1     -35.740   4.821   6.463  1.00 20.00    -0.166 F 
HETATM   10  F9  UNL     1     -33.637   4.568   6.980  1.00 20.00    -0.166 F 
ENDBRANCH   2   7
TORSDOF 1
ENDMDL
MODEL 6
REMARK VINA RESULT:      -4.3     11.605     12.236
REMARK  1 active torsions:
REMARK  status: ('A' for Active; 'I' for Inactive)
REMARK    1  A    between atoms: C2_2  and  C5_5 
ROOT
HETATM    1  C1  UNL     1     -35.660  14.663  -3.472  1.00 20.00     0.075 A 
HETATM    2  C2  UNL     1     -34.668  15.159  -4.221  1.00 20.00     0.039 A 
HETATM    3  C3  UNL     1     -36.944  14.626  -4.187  1.00 20.00     0.209 A 
HETATM    4  C4  UNL     1     -34.997  15.583  -5.617  1.00 20.00     0.126 A 
HETATM    5  O6  UNL     1     -37.989  14.216  -3.710  1.00 20.00    -0.281 OA
HETATM    6  S10 UNL     1     -36.772  15.250  -5.814  1.00 20.00    -0.084 SA
ENDROOT
BRANCH   2   7
HETATM    7  C5  UNL     1     -33.261  15.311  -3.746  1.00 20.00     0.414 C 
HETATM    8  F7  UNL     1     -32.536  16.064  -4.602  1.00 20.00    -0.166 F 
HETATM    9  F8  UNL     1     -33.217  15.910  -2.536  1.00 20.00    -0.166 F 
HETATM   10  F9  UNL     1     -32.648  14.114  -3.633  1.00 20.00    -0.166 F 
ENDBRANCH   2   7
TORSDOF 1
ENDMDL
MODEL 7
REMARK VINA RESULT:      -4.2     12.175     13.088
REMARK  1 active torsions:
REMARK  status: ('A' for Active; 'I' for Inactive)
REMARK    1  A    between atoms: C2_2  and  C5_5 
ROOT
HETATM    1  C1  UNL     1     -33.456  16.248  -4.461  1.00 20.00     0.075 A 
HETATM    2  C2  UNL     1     -33.923  15.077  -4.911  1.00 20.00     0.039 A 
HETATM    3  C3  UNL     1     -33.668  17.346  -5.415  1.00 20.00     0.209 A 
HETATM    4  C4  UNL     1     -34.566  15.059  -6.262  1.00 20.00     0.126 A 
HETATM    5  O6  UNL     1     -33.328  18.502  -5.226  1.00 20.00    -0.281 OA
HETATM    6  S10 UNL     1     -34.474  16.772  -6.860  1.00 20.00    -0.084 SA
ENDROOT
BRANCH   2   7
HETATM    7  C5  UNL     1     -33.840  13.797  -4.147  1.00 20.00     0.414 C 
HETATM    8  F7  UNL     1     -32.596  13.602  -3.659  1.00 20.00    -0.166 F 
HETATM    9  F8  UNL     1     -34.695  13.796  -3.102  1.00 20.00    -0.166 F 
HETATM   10  F9  UNL     1     -34.145  12.739  -4.928  1.00 20.00    -0.166 F 
ENDBRANCH   2   7
TORSDOF 1
ENDMDL
MODEL 8
REMARK VINA RESULT:      -4.2     12.031     12.977
REMARK  1 active torsions:
REMARK  status: ('A' for Active; 'I' for Inactive)
REMARK    1  A    between atoms: C2_2  and  C5_5 
ROOT
HETATM    1  C1  UNL     1     -34.619  14.141  -5.738  1.00 20.00     0.075 A 
HETATM    2  C2  UNL     1     -33.999  14.973  -4.892  1.00 20.00     0.039 A 
HETATM    3  C3  UNL     1     -35.003  14.797  -6.996  1.00 20.00     0.209 A 
HETATM    4  C4  UNL     1     -33.796  16.388  -5.333  1.00 20.00     0.126 A 
HETATM    5  O6  UNL     1     -35.578  14.243  -7.917  1.00 20.00    -0.281 OA
HETATM    6  S10 UNL     1     -34.525  16.483  -6.994  1.00 20.00    -0.084 SA
ENDROOT
BRANCH   2   7
HETATM    7  C5  UNL     1     -33.502  14.572  -3.543  1.00 20.00     0.414 C 
HETATM    8  F7  UNL     1     -32.168  14.358  -3.559  1.00 20.00    -0.166 F 
HETATM    9  F8  UNL     1     -33.751  15.532  -2.626  1.00 20.00    -0.166 F 
HETATM   10  F9  UNL     1     -34.095  13.436  -3.118  1.00 20.00    -0.166 F 
ENDBRANCH   2   7
TORSDOF 1
ENDMDL
MODEL 9
REMARK VINA RESULT:      -4.2     12.281     13.234
REMARK  1 active torsions:
REMARK  status: ('A' for Active; 'I' for Inactive)
REMARK    1  A    between atoms: C2_2  and  C5_5 
ROOT
HETATM    1  C1  UNL     1     -34.386  15.156  -6.184  1.00 20.00     0.075 A 
HETATM    2  C2  UNL     1     -33.940  15.034  -4.928  1.00 20.00     0.039 A 
HETATM    3  C3  UNL     1     -34.314  16.539  -6.676  1.00 20.00     0.209 A 
HETATM    4  C4  UNL     1     -33.454  16.269  -4.239  1.00 20.00     0.126 A 
HETATM    5  O6  UNL     1     -34.664  16.896  -7.789  1.00 20.00    -0.281 OA
HETATM    6  S10 UNL     1     -33.662  17.607  -5.450  1.00 20.00    -0.084 SA
ENDROOT
BRANCH   2   7
HETATM    7  C5  UNL     1     -33.900  13.742  -4.180  1.00 20.00     0.414 C 
HETATM    8  F7  UNL     1     -34.762  13.754  -3.140  1.00 20.00    -0.166 F 
HETATM    9  F8  UNL     1     -34.236  12.705  -4.978  1.00 20.00    -0.166 F 
HETATM   10  F9  UNL     1     -32.667  13.497  -3.688  1.00 20.00    -0.166 F 
ENDBRANCH   2   7
TORSDOF 1
ENDMDL
