MODEL 1
REMARK VINA RESULT:      -4.7      0.000      0.000
REMARK  2 active torsions:
REMARK  status: ('A' for Active; 'I' for Inactive)
REMARK    1  A    between atoms: C2_2  and  C6_6 
REMARK    2  A    between atoms: C6_6  and  O10_10 
ROOT
HETATM    1  C3  UNL     1     -34.768  13.300  -4.737  1.00 20.00     0.004 C 
HETATM    2  C4  UNL     1     -34.380  13.986  -3.422  1.00 20.00     0.043 C 
HETATM    3  C5  UNL     1     -34.564  14.331  -5.850  1.00 20.00     0.012 C 
HETATM    4  C6  UNL     1     -33.764  15.334  -3.827  1.00 20.00     0.082 C 
HETATM    5  C7  UNL     1     -34.522  15.698  -5.138  1.00 20.00    -0.013 C 
HETATM    6  C8  UNL     1     -33.793  16.735  -6.005  1.00 20.00     0.018 C 
HETATM    7  C9  UNL     1     -35.962  16.198  -4.894  1.00 20.00     0.018 C 
ENDROOT
BRANCH   4   8
HETATM    8  C2  UNL     1     -33.830  16.339  -2.719  1.00 20.00     0.001 C 
HETATM    9  C1  UNL     1     -34.560  16.184  -1.610  1.00 20.00     0.010 C 
ENDBRANCH   4   8
BRANCH   4  10
HETATM   10  O10 UNL     1     -32.382  15.078  -4.113  1.00 20.00    -0.385 OA
HETATM   11  H26 UNL     1     -31.873  15.608  -3.484  1.00 20.00     0.211 HD
ENDBRANCH   4  10
TORSDOF 2
ENDMDL
MODEL 2
REMARK VINA RESULT:      -4.5      1.103      1.951
REMARK  2 active torsions:
REMARK  status: ('A' for Active; 'I' for Inactive)
REMARK    1  A    between atoms: C2_2  and  C6_6 
REMARK    2  A    between atoms: C6_6  and  O10_10 
ROOT
HETATM    1  C3  UNL     1     -34.229  13.809  -3.496  1.00 20.00     0.004 C 
HETATM    2  C4  UNL     1     -34.036  15.310  -3.247  1.00 20.00     0.043 C 
HETATM    3  C5  UNL     1     -34.364  13.626  -5.009  1.00 20.00     0.012 C 
HETATM    4  C6  UNL     1     -33.858  15.938  -4.638  1.00 20.00     0.082 C 
HETATM    5  C7  UNL     1     -34.717  15.023  -5.560  1.00 20.00    -0.013 C 
HETATM    6  C8  UNL     1     -34.348  15.124  -7.047  1.00 20.00     0.018 C 
HETATM    7  C9  UNL     1     -36.236  15.265  -5.421  1.00 20.00     0.018 C 
ENDROOT
BRANCH   4   8
HETATM    8  C2  UNL     1     -34.197  17.396  -4.646  1.00 20.00     0.001 C 
HETATM    9  C1  UNL     1     -33.543  18.314  -5.366  1.00 20.00     0.010 C 
ENDBRANCH   4   8
BRANCH   4  10
HETATM   10  O10 UNL     1     -32.468  15.803  -4.968  1.00 20.00    -0.385 OA
HETATM   11  H26 UNL     1     -32.287  16.466  -5.648  1.00 20.00     0.211 HD
ENDBRANCH   4  10
TORSDOF 2
ENDMDL
MODEL 3
REMARK VINA RESULT:      -4.3      1.635      2.738
REMARK  2 active torsions:
REMARK  status: ('A' for Active; 'I' for Inactive)
REMARK    1  A    between atoms: C2_2  and  C6_6 
REMARK    2  A    between atoms: C6_6  and  O10_10 
ROOT
HETATM    1  C3  UNL     1     -33.373  16.607  -5.336  1.00 20.00     0.004 C 
HETATM    2  C4  UNL     1     -33.634  17.010  -3.880  1.00 20.00     0.043 C 
HETATM    3  C5  UNL     1     -34.165  15.321  -5.586  1.00 20.00     0.012 C 
HETATM    4  C6  UNL     1     -34.735  16.061  -3.380  1.00 20.00     0.082 C 
HETATM    5  C7  UNL     1     -34.479  14.754  -4.187  1.00 20.00    -0.013 C 
HETATM    6  C8  UNL     1     -35.693  13.816  -4.246  1.00 20.00     0.018 C 
HETATM    7  C9  UNL     1     -33.267  13.946  -3.674  1.00 20.00     0.018 C 
ENDROOT
BRANCH   4   8
HETATM    8  C2  UNL     1     -34.737  15.934  -1.889  1.00 20.00     0.001 C 
HETATM    9  C1  UNL     1     -34.284  16.878  -1.057  1.00 20.00     0.010 C 
ENDBRANCH   4   8
BRANCH   4  10
HETATM   10  O10 UNL     1     -35.984  16.647  -3.778  1.00 20.00    -0.385 OA
HETATM   11  H26 UNL     1     -36.531  15.919  -4.104  1.00 20.00     0.211 HD
ENDBRANCH   4  10
TORSDOF 2
ENDMDL
MODEL 4
REMARK VINA RESULT:      -4.3      1.238      3.359
REMARK  2 active torsions:
REMARK  status: ('A' for Active; 'I' for Inactive)
REMARK    1  A    between atoms: C2_2  and  C6_6 
REMARK    2  A    between atoms: C6_6  and  O10_10 
ROOT
HETATM    1  C3  UNL     1     -34.680  17.071  -3.117  1.00 20.00     0.004 C 
HETATM    2  C4  UNL     1     -34.581  17.097  -4.647  1.00 20.00     0.043 C 
HETATM    3  C5  UNL     1     -34.284  15.661  -2.674  1.00 20.00     0.012 C 
HETATM    4  C6  UNL     1     -33.931  15.762  -5.041  1.00 20.00     0.082 C 
HETATM    5  C7  UNL     1     -34.420  14.782  -3.934  1.00 20.00    -0.013 C 
HETATM    6  C8  UNL     1     -33.559  13.517  -3.804  1.00 20.00     0.018 C 
HETATM    7  C9  UNL     1     -35.892  14.349  -4.105  1.00 20.00     0.018 C 
ENDROOT
BRANCH   4   8
HETATM    8  C2  UNL     1     -34.243  15.378  -6.454  1.00 20.00     0.001 C 
HETATM    9  C1  UNL     1     -34.791  16.205  -7.351  1.00 20.00     0.010 C 
ENDBRANCH   4   8
BRANCH   4  10
HETATM   10  O10 UNL     1     -32.514  15.956  -4.935  1.00 20.00    -0.385 OA
HETATM   11  H26 UNL     1     -32.171  15.941  -5.840  1.00 20.00     0.211 HD
ENDBRANCH   4  10
TORSDOF 2
ENDMDL
MODEL 5
REMARK VINA RESULT:      -4.3      0.940      2.905
REMARK  2 active torsions:
REMARK  status: ('A' for Active; 'I' for Inactive)
REMARK    1  A    between atoms: C2_2  and  C6_6 
REMARK    2  A    between atoms: C6_6  and  O10_10 
ROOT
HETATM    1  C3  UNL     1     -33.805  17.034  -5.720  1.00 20.00     0.004 C 
HETATM    2  C4  UNL     1     -33.989  15.520  -5.563  1.00 20.00     0.043 C 
HETATM    3  C5  UNL     1     -33.684  17.612  -4.308  1.00 20.00     0.012 C 
HETATM    4  C6  UNL     1     -33.765  15.230  -4.071  1.00 20.00     0.082 C 
HETATM    5  C7  UNL     1     -34.261  16.530  -3.372  1.00 20.00    -0.013 C 
HETATM    6  C8  UNL     1     -33.721  16.710  -1.946  1.00 20.00     0.018 C 
HETATM    7  C9  UNL     1     -35.799  16.653  -3.326  1.00 20.00     0.018 C 
ENDROOT
BRANCH   4   8
HETATM    8  C2  UNL     1     -34.418  13.953  -3.641  1.00 20.00     0.001 C 
HETATM    9  C1  UNL     1     -35.145  13.175  -4.449  1.00 20.00     0.010 C 
ENDBRANCH   4   8
BRANCH   4  10
HETATM   10  O10 UNL     1     -32.348  15.087  -3.896  1.00 20.00    -0.385 OA
HETATM   11  H26 UNL     1     -32.227  14.603  -3.067  1.00 20.00     0.211 HD
ENDBRANCH   4  10
TORSDOF 2
ENDMDL
MODEL 6
REMARK VINA RESULT:      -4.2      1.460      2.920
REMARK  2 active torsions:
REMARK  status: ('A' for Active; 'I' for Inactive)
REMARK    1  A    between atoms: C2_2  and  C6_6 
REMARK    2  A    between atoms: C6_6  and  O10_10 
ROOT
HETATM    1  C3  UNL     1     -34.912  13.527  -5.318  1.00 20.00     0.004 C 
HETATM    2  C4  UNL     1     -34.414  14.791  -6.030  1.00 20.00     0.043 C 
HETATM    3  C5  UNL     1     -34.932  13.843  -3.821  1.00 20.00     0.012 C 
HETATM    4  C6  UNL     1     -34.352  15.877  -4.945  1.00 20.00     0.082 C 
HETATM    5  C7  UNL     1     -34.022  15.077  -3.651  1.00 20.00    -0.013 C 
HETATM    6  C8  UNL     1     -34.368  15.826  -2.356  1.00 20.00     0.018 C 
HETATM    7  C9  UNL     1     -32.548  14.624  -3.569  1.00 20.00     0.018 C 
ENDROOT
BRANCH   4   8
HETATM    8  C2  UNL     1     -33.405  16.980  -5.305  1.00 20.00     0.001 C 
HETATM    9  C1  UNL     1     -33.649  18.276  -5.088  1.00 20.00     0.010 C 
ENDBRANCH   4   8
BRANCH   4  10
HETATM   10  O10 UNL     1     -35.671  16.435  -4.856  1.00 20.00    -0.385 OA
HETATM   11  H26 UNL     1     -35.632  17.109  -4.165  1.00 20.00     0.211 HD
ENDBRANCH   4  10
TORSDOF 2
ENDMDL
MODEL 7
REMARK VINA RESULT:      -4.1      1.775      2.913
REMARK  2 active torsions:
REMARK  status: ('A' for Active; 'I' for Inactive)
REMARK    1  A    between atoms: C2_2  and  C6_6 
REMARK    2  A    between atoms: C6_6  and  O10_10 
ROOT
HETATM    1  C3  UNL     1     -35.590  17.187  -5.016  1.00 20.00     0.004 C 
HETATM    2  C4  UNL     1     -35.417  17.486  -3.522  1.00 20.00     0.043 C 
HETATM    3  C5  UNL     1     -35.273  15.702  -5.208  1.00 20.00     0.012 C 
HETATM    4  C6  UNL     1     -35.203  16.121  -2.850  1.00 20.00     0.082 C 
HETATM    5  C7  UNL     1     -34.483  15.286  -3.950  1.00 20.00    -0.013 C 
HETATM    6  C8  UNL     1     -34.575  13.769  -3.734  1.00 20.00     0.018 C 
HETATM    7  C9  UNL     1     -32.995  15.660  -4.128  1.00 20.00     0.018 C 
ENDROOT
BRANCH   4   8
HETATM    8  C2  UNL     1     -34.494  16.244  -1.538  1.00 20.00     0.001 C 
HETATM    9  C1  UNL     1     -34.883  17.057  -0.550  1.00 20.00     0.010 C 
ENDBRANCH   4   8
BRANCH   4  10
HETATM   10  O10 UNL     1     -36.510  15.584  -2.602  1.00 20.00    -0.385 OA
HETATM   11  H26 UNL     1     -36.844  15.282  -3.458  1.00 20.00     0.211 HD
ENDBRANCH   4  10
TORSDOF 2
ENDMDL
MODEL 8
REMARK VINA RESULT:      -4.1      1.710      3.063
REMARK  2 active torsions:
REMARK  status: ('A' for Active; 'I' for Inactive)
REMARK    1  A    between atoms: C2_2  and  C6_6 
REMARK    2  A    between atoms: C6_6  and  O10_10 
ROOT
HETATM    1  C3  UNL     1     -34.799  13.374  -4.609  1.00 20.00     0.004 C 
HETATM    2  C4  UNL     1     -35.777  14.442  -5.114  1.00 20.00     0.043 C 
HETATM    3  C5  UNL     1     -34.089  13.968  -3.391  1.00 20.00     0.012 C 
HETATM    4  C6  UNL     1     -35.759  15.553  -4.053  1.00 20.00     0.082 C 
HETATM    5  C7  UNL     1     -34.307  15.491  -3.492  1.00 20.00    -0.013 C 
HETATM    6  C8  UNL     1     -34.150  16.150  -2.113  1.00 20.00     0.018 C 
HETATM    7  C9  UNL     1     -33.256  16.102  -4.443  1.00 20.00     0.018 C 
ENDROOT
BRANCH   4   8
HETATM    8  C2  UNL     1     -36.202  16.871  -4.608  1.00 20.00     0.001 C 
HETATM    9  C1  UNL     1     -36.611  17.053  -5.869  1.00 20.00     0.010 C 
ENDBRANCH   4   8
BRANCH   4  10
HETATM   10  O10 UNL     1     -36.695  15.159  -3.040  1.00 20.00    -0.385 OA
HETATM   11  H26 UNL     1     -37.560  15.126  -3.471  1.00 20.00     0.211 HD
ENDBRANCH   4  10
TORSDOF 2
ENDMDL
MODEL 9
REMARK VINA RESULT:      -4.0      1.830      3.086
REMARK  2 active torsions:
REMARK  status: ('A' for Active; 'I' for Inactive)
REMARK    1  A    between atoms: C2_2  and  C6_6 
REMARK    2  A    between atoms: C6_6  and  O10_10 
ROOT
HETATM    1  C3  UNL     1     -33.661  16.212  -2.637  1.00 20.00     0.004 C 
HETATM    2  C4  UNL     1     -35.119  15.763  -2.474  1.00 20.00     0.043 C 
HETATM    3  C5  UNL     1     -33.283  15.962  -4.098  1.00 20.00     0.012 C 
HETATM    4  C6  UNL     1     -35.616  15.454  -3.895  1.00 20.00     0.082 C 
HETATM    5  C7  UNL     1     -34.332  14.962  -4.627  1.00 20.00    -0.013 C 
HETATM    6  C8  UNL     1     -34.426  15.040  -6.158  1.00 20.00     0.018 C 
HETATM    7  C9  UNL     1     -33.918  13.526  -4.240  1.00 20.00     0.018 C 
ENDROOT
BRANCH   4   8
HETATM    8  C2  UNL     1     -36.781  14.515  -3.893  1.00 20.00     0.001 C 
HETATM    9  C1  UNL     1     -38.042  14.887  -4.138  1.00 20.00     0.010 C 
ENDBRANCH   4   8
BRANCH   4  10
HETATM   10  O10 UNL     1     -36.051  16.703  -4.451  1.00 20.00    -0.385 OA
HETATM   11  H26 UNL     1     -36.438  17.203  -3.720  1.00 20.00     0.211 HD
ENDBRANCH   4  10
TORSDOF 2
ENDMDL
