MODEL 1
REMARK VINA RESULT:      -3.9      0.000      0.000
REMARK  0 active torsions:
REMARK  status: ('A' for Active; 'I' for Inactive)
ROOT
HETATM    1  C1  UNL     1     -32.908   6.770   3.467  1.00 20.00     0.098 C 
HETATM    2  C2  UNL     1     -34.692   5.187   4.019  1.00 20.00     0.160 A 
HETATM    3  C3  UNL     1     -33.778   6.095   4.344  1.00 20.00     0.063 A 
HETATM    4  C4  UNL     1     -33.874   6.240   5.813  1.00 20.00     0.225 A 
HETATM    5  N5  UNL     1     -32.191   7.325   2.743  1.00 20.00    -0.192 NA
HETATM    6  N6  UNL     1     -35.380   4.717   5.106  1.00 20.00    -0.166 NA
HETATM    7  N7  UNL     1     -34.959   5.280   6.158  1.00 20.00    -0.188 NA
ENDROOT
TORSDOF 0
ENDMDL
MODEL 2
REMARK VINA RESULT:      -3.8     11.508     11.979
REMARK  0 active torsions:
REMARK  status: ('A' for Active; 'I' for Inactive)
ROOT
HETATM    1  C1  UNL     1     -34.104  15.889  -2.634  1.00 20.00     0.098 C 
HETATM    2  C2  UNL     1     -33.738  13.765  -3.796  1.00 20.00     0.160 A 
HETATM    3  C3  UNL     1     -34.512  14.754  -3.359  1.00 20.00     0.063 A 
HETATM    4  C4  UNL     1     -35.881  14.403  -3.798  1.00 20.00     0.225 A 
HETATM    5  N5  UNL     1     -33.768  16.825  -2.037  1.00 20.00    -0.192 NA
HETATM    6  N6  UNL     1     -34.440  12.803  -4.472  1.00 20.00    -0.166 NA
HETATM    7  N7  UNL     1     -35.667  13.111  -4.507  1.00 20.00    -0.188 NA
ENDROOT
TORSDOF 0
ENDMDL
MODEL 3
REMARK VINA RESULT:      -3.7     11.498     12.846
REMARK  0 active torsions:
REMARK  status: ('A' for Active; 'I' for Inactive)
ROOT
HETATM    1  C1  UNL     1     -33.739  16.268  -5.241  1.00 20.00     0.098 C 
HETATM    2  C2  UNL     1     -33.679  14.364  -3.703  1.00 20.00     0.160 A 
HETATM    3  C3  UNL     1     -34.062  14.962  -4.827  1.00 20.00     0.063 A 
HETATM    4  C4  UNL     1     -34.890  13.964  -5.540  1.00 20.00     0.225 A 
HETATM    5  N5  UNL     1     -33.473  17.344  -5.582  1.00 20.00    -0.192 NA
HETATM    6  N6  UNL     1     -34.162  13.086  -3.594  1.00 20.00    -0.166 NA
HETATM    7  N7  UNL     1     -34.858  12.801  -4.611  1.00 20.00    -0.188 NA
ENDROOT
TORSDOF 0
ENDMDL
MODEL 4
REMARK VINA RESULT:      -3.6     11.648     12.208
REMARK  0 active torsions:
REMARK  status: ('A' for Active; 'I' for Inactive)
ROOT
HETATM    1  C1  UNL     1     -35.747  16.025  -3.135  1.00 20.00     0.098 C 
HETATM    2  C2  UNL     1     -35.767  13.796  -4.150  1.00 20.00     0.160 A 
HETATM    3  C3  UNL     1     -35.150  14.834  -3.592  1.00 20.00     0.063 A 
HETATM    4  C4  UNL     1     -33.718  14.467  -3.556  1.00 20.00     0.225 A 
HETATM    5  N5  UNL     1     -36.238  17.005  -2.758  1.00 20.00    -0.192 NA
HETATM    6  N6  UNL     1     -34.903  12.788  -4.486  1.00 20.00    -0.166 NA
HETATM    7  N7  UNL     1     -33.721  13.111  -4.171  1.00 20.00    -0.188 NA
ENDROOT
TORSDOF 0
ENDMDL
MODEL 5
REMARK VINA RESULT:      -3.5      1.923      2.477
REMARK  0 active torsions:
REMARK  status: ('A' for Active; 'I' for Inactive)
ROOT
HETATM    1  C1  UNL     1     -33.727   6.817   6.495  1.00 20.00     0.098 C 
HETATM    2  C2  UNL     1     -34.409   5.839   4.356  1.00 20.00     0.160 A 
HETATM    3  C3  UNL     1     -34.282   5.812   5.680  1.00 20.00     0.063 A 
HETATM    4  C4  UNL     1     -34.845   4.511   6.102  1.00 20.00     0.225 A 
HETATM    5  N5  UNL     1     -33.271   7.645   7.166  1.00 20.00    -0.192 NA
HETATM    6  N6  UNL     1     -34.992   4.703   3.859  1.00 20.00    -0.166 NA
HETATM    7  N7  UNL     1     -35.263   3.909   4.806  1.00 20.00    -0.188 NA
ENDROOT
TORSDOF 0
ENDMDL
MODEL 6
REMARK VINA RESULT:      -3.3     11.953     13.800
REMARK  0 active torsions:
REMARK  status: ('A' for Active; 'I' for Inactive)
ROOT
HETATM    1  C1  UNL     1     -34.570  13.786  -4.732  1.00 20.00     0.098 C 
HETATM    2  C2  UNL     1     -34.337  15.805  -6.098  1.00 20.00     0.160 A 
HETATM    3  C3  UNL     1     -34.122  15.095  -4.995  1.00 20.00     0.063 A 
HETATM    4  C4  UNL     1     -33.319  15.971  -4.114  1.00 20.00     0.225 A 
HETATM    5  N5  UNL     1     -34.939  12.708  -4.517  1.00 20.00    -0.192 NA
HETATM    6  N6  UNL     1     -33.767  17.050  -6.044  1.00 20.00    -0.166 NA
HETATM    7  N7  UNL     1     -33.172  17.202  -4.938  1.00 20.00    -0.188 NA
ENDROOT
TORSDOF 0
ENDMDL
MODEL 7
REMARK VINA RESULT:      -3.3     11.670     12.610
REMARK  0 active torsions:
REMARK  status: ('A' for Active; 'I' for Inactive)
ROOT
HETATM    1  C1  UNL     1     -36.678  14.487  -3.845  1.00 20.00     0.098 C 
HETATM    2  C2  UNL     1     -34.338  13.811  -3.591  1.00 20.00     0.160 A 
HETATM    3  C3  UNL     1     -35.287  14.694  -3.890  1.00 20.00     0.063 A 
HETATM    4  C4  UNL     1     -34.566  15.928  -4.276  1.00 20.00     0.225 A 
HETATM    5  N5  UNL     1     -37.825  14.316  -3.807  1.00 20.00    -0.192 NA
HETATM    6  N6  UNL     1     -33.076  14.322  -3.736  1.00 20.00    -0.166 NA
HETATM    7  N7  UNL     1     -33.141  15.525  -4.123  1.00 20.00    -0.188 NA
ENDROOT
TORSDOF 0
ENDMDL
MODEL 8
REMARK VINA RESULT:      -3.3     11.543     12.680
REMARK  0 active torsions:
REMARK  status: ('A' for Active; 'I' for Inactive)
ROOT
HETATM    1  C1  UNL     1     -34.674  13.835  -3.923  1.00 20.00     0.098 C 
HETATM    2  C2  UNL     1     -34.785  15.700  -2.341  1.00 20.00     0.160 A 
HETATM    3  C3  UNL     1     -34.382  15.137  -3.476  1.00 20.00     0.063 A 
HETATM    4  C4  UNL     1     -33.569  16.168  -4.158  1.00 20.00     0.225 A 
HETATM    5  N5  UNL     1     -34.915  12.762  -4.292  1.00 20.00    -0.192 NA
HETATM    6  N6  UNL     1     -34.330  16.984  -2.198  1.00 20.00    -0.166 NA
HETATM    7  N7  UNL     1     -33.632  17.308  -3.202  1.00 20.00    -0.188 NA
ENDROOT
TORSDOF 0
ENDMDL
MODEL 9
REMARK VINA RESULT:      -3.2     16.053     16.914
REMARK  0 active torsions:
REMARK  status: ('A' for Active; 'I' for Inactive)
ROOT
HETATM    1  C1  UNL     1     -23.554  15.821  11.780  1.00 20.00     0.098 C 
HETATM    2  C2  UNL     1     -24.866  17.813  12.331  1.00 20.00     0.160 A 
HETATM    3  C3  UNL     1     -24.018  17.132  11.566  1.00 20.00     0.063 A 
HETATM    4  C4  UNL     1     -23.673  18.045  10.454  1.00 20.00     0.225 A 
HETATM    5  N5  UNL     1     -23.172  14.740  11.957  1.00 20.00    -0.192 NA
HETATM    6  N6  UNL     1     -25.119  19.070  11.850  1.00 20.00    -0.166 NA
HETATM    7  N7  UNL     1     -24.469  19.261  10.781  1.00 20.00    -0.188 NA
ENDROOT
TORSDOF 0
ENDMDL
