MODEL 1
REMARK VINA RESULT:      -5.2      0.000      0.000
REMARK  2 active torsions:
REMARK  status: ('A' for Active; 'I' for Inactive)
REMARK    1  A    between atoms: C6_6  and  N11_11 
REMARK    2  A    between atoms: C10_10  and  N11_11 
ROOT
HETATM    1  C1  UNL     1     -32.163   9.154   1.094  1.00 20.00     0.013 C 
HETATM    2  C2  UNL     1     -32.138   8.313   1.950  1.00 20.00    -0.087 C 
HETATM    3  C10 UNL     1     -32.103   7.285   2.993  1.00 20.00     0.362 C 
ENDROOT
BRANCH   3   4
HETATM    4  N11 UNL     1     -33.274   7.386   3.854  1.00 20.00     0.099 N 
HETATM    5  H28 UNL     1     -33.098   8.080   4.579  1.00 20.00     0.317 HD
BRANCH   4   6
HETATM    6  C6  UNL     1     -33.577   6.105   4.475  1.00 20.00     0.229 C 
HETATM    7  C4  UNL     1     -34.062   6.256   5.918  1.00 20.00     0.036 C 
HETATM    8  C3  UNL     1     -34.838   4.970   6.212  1.00 20.00     0.003 C 
HETATM    9  C5  UNL     1     -34.975   4.228   4.878  1.00 20.00     0.011 C 
HETATM   10  C7  UNL     1     -34.687   5.279   3.789  1.00 20.00    -0.017 C 
HETATM   11  C8  UNL     1     -35.959   6.094   3.485  1.00 20.00     0.017 C 
HETATM   12  C9  UNL     1     -34.200   4.620   2.495  1.00 20.00     0.017 C 
ENDBRANCH   4   6
ENDBRANCH   3   4
TORSDOF 2
ENDMDL
MODEL 2
REMARK VINA RESULT:      -4.7     10.890     12.331
REMARK  2 active torsions:
REMARK  status: ('A' for Active; 'I' for Inactive)
REMARK    1  A    between atoms: C6_6  and  N11_11 
REMARK    2  A    between atoms: C10_10  and  N11_11 
ROOT
HETATM    1  C1  UNL     1     -35.294  17.582   0.968  1.00 20.00     0.013 C 
HETATM    2  C2  UNL     1     -34.774  17.211  -0.049  1.00 20.00    -0.087 C 
HETATM    3  C10 UNL     1     -34.137  16.759  -1.288  1.00 20.00     0.362 C 
ENDROOT
BRANCH   3   4
HETATM    4  N11 UNL     1     -35.003  15.831  -2.003  1.00 20.00     0.099 N 
HETATM    5  H28 UNL     1     -34.745  14.876  -1.759  1.00 20.00     0.317 HD
BRANCH   4   6
HETATM    6  C6  UNL     1     -34.883  16.010  -3.442  1.00 20.00     0.229 C 
HETATM    7  C4  UNL     1     -33.724  16.933  -3.822  1.00 20.00     0.036 C 
HETATM    8  C3  UNL     1     -33.391  16.575  -5.273  1.00 20.00     0.003 C 
HETATM    9  C5  UNL     1     -34.199  15.318  -5.609  1.00 20.00     0.011 C 
HETATM   10  C7  UNL     1     -34.619  14.721  -4.253  1.00 20.00    -0.017 C 
HETATM   11  C8  UNL     1     -33.481  13.856  -3.676  1.00 20.00     0.017 C 
HETATM   12  C9  UNL     1     -35.877  13.858  -4.389  1.00 20.00     0.017 C 
ENDBRANCH   4   6
ENDBRANCH   3   4
TORSDOF 2
ENDMDL
MODEL 3
REMARK VINA RESULT:      -4.6     11.303     12.820
REMARK  2 active torsions:
REMARK  status: ('A' for Active; 'I' for Inactive)
REMARK    1  A    between atoms: C6_6  and  N11_11 
REMARK    2  A    between atoms: C10_10  and  N11_11 
ROOT
HETATM    1  C1  UNL     1     -34.721  16.783  -0.487  1.00 20.00     0.013 C 
HETATM    2  C2  UNL     1     -34.292  16.995  -1.589  1.00 20.00    -0.087 C 
HETATM    3  C10 UNL     1     -33.769  17.258  -2.932  1.00 20.00     0.362 C 
ENDROOT
BRANCH   3   4
HETATM    4  N11 UNL     1     -33.606  16.015  -3.673  1.00 20.00     0.099 N 
HETATM    5  H28 UNL     1     -32.650  15.957  -4.024  1.00 20.00     0.317 HD
BRANCH   4   6
HETATM    6  C6  UNL     1     -34.535  15.948  -4.791  1.00 20.00     0.229 C 
HETATM    7  C4  UNL     1     -33.824  15.998  -6.145  1.00 20.00     0.036 C 
HETATM    8  C3  UNL     1     -34.811  15.373  -7.133  1.00 20.00     0.003 C 
HETATM    9  C5  UNL     1     -35.949  14.779  -6.298  1.00 20.00     0.011 C 
HETATM   10  C7  UNL     1     -35.396  14.668  -4.865  1.00 20.00    -0.017 C 
HETATM   11  C8  UNL     1     -34.581  13.370  -4.707  1.00 20.00     0.017 C 
HETATM   12  C9  UNL     1     -36.526  14.672  -3.830  1.00 20.00     0.017 C 
ENDBRANCH   4   6
ENDBRANCH   3   4
TORSDOF 2
ENDMDL
MODEL 4
REMARK VINA RESULT:      -4.6     11.062     12.478
REMARK  2 active torsions:
REMARK  status: ('A' for Active; 'I' for Inactive)
REMARK    1  A    between atoms: C6_6  and  N11_11 
REMARK    2  A    between atoms: C10_10  and  N11_11 
ROOT
HETATM    1  C1  UNL     1     -34.440  17.763   0.091  1.00 20.00     0.013 C 
HETATM    2  C2  UNL     1     -34.542  16.972  -0.807  1.00 20.00    -0.087 C 
HETATM    3  C10 UNL     1     -34.668  16.005  -1.900  1.00 20.00     0.362 C 
ENDROOT
BRANCH   3   4
HETATM    4  N11 UNL     1     -34.017  16.503  -3.105  1.00 20.00     0.099 N 
HETATM    5  H28 UNL     1     -34.569  17.268  -3.492  1.00 20.00     0.317 HD
BRANCH   4   6
HETATM    6  C6  UNL     1     -33.888  15.450  -4.100  1.00 20.00     0.229 C 
HETATM    7  C4  UNL     1     -34.305  14.080  -3.560  1.00 20.00     0.036 C 
HETATM    8  C3  UNL     1     -34.647  13.252  -4.801  1.00 20.00     0.003 C 
HETATM    9  C5  UNL     1     -34.641  14.221  -5.988  1.00 20.00     0.011 C 
HETATM   10  C7  UNL     1     -34.745  15.629  -5.373  1.00 20.00    -0.017 C 
HETATM   11  C8  UNL     1     -36.218  15.974  -5.078  1.00 20.00     0.017 C 
HETATM   12  C9  UNL     1     -34.166  16.692  -6.313  1.00 20.00     0.017 C 
ENDBRANCH   4   6
ENDBRANCH   3   4
TORSDOF 2
ENDMDL
MODEL 5
REMARK VINA RESULT:      -4.5     11.265     11.966
REMARK  2 active torsions:
REMARK  status: ('A' for Active; 'I' for Inactive)
REMARK    1  A    between atoms: C6_6  and  N11_11 
REMARK    2  A    between atoms: C10_10  and  N11_11 
ROOT
HETATM    1  C1  UNL     1     -32.920  18.606  -0.230  1.00 20.00     0.013 C 
HETATM    2  C2  UNL     1     -33.648  17.714  -0.572  1.00 20.00    -0.087 C 
HETATM    3  C10 UNL     1     -34.537  16.626  -0.986  1.00 20.00     0.362 C 
ENDROOT
BRANCH   3   4
HETATM    4  N11 UNL     1     -34.689  16.608  -2.435  1.00 20.00     0.099 N 
HETATM    5  H28 UNL     1     -35.542  17.105  -2.688  1.00 20.00     0.317 HD
BRANCH   4   6
HETATM    6  C6  UNL     1     -34.759  15.244  -2.935  1.00 20.00     0.229 C 
HETATM    7  C4  UNL     1     -36.129  14.909  -3.529  1.00 20.00     0.036 C 
HETATM    8  C3  UNL     1     -35.874  13.728  -4.469  1.00 20.00     0.003 C 
HETATM    9  C5  UNL     1     -34.354  13.566  -4.567  1.00 20.00     0.011 C 
HETATM   10  C7  UNL     1     -33.764  14.897  -4.064  1.00 20.00    -0.017 C 
HETATM   11  C8  UNL     1     -33.743  15.935  -5.204  1.00 20.00     0.017 C 
HETATM   12  C9  UNL     1     -32.337  14.710  -3.539  1.00 20.00     0.017 C 
ENDBRANCH   4   6
ENDBRANCH   3   4
TORSDOF 2
ENDMDL
MODEL 6
REMARK VINA RESULT:      -4.4     11.745     13.815
REMARK  2 active torsions:
REMARK  status: ('A' for Active; 'I' for Inactive)
REMARK    1  A    between atoms: C6_6  and  N11_11 
REMARK    2  A    between atoms: C10_10  and  N11_11 
ROOT
HETATM    1  C1  UNL     1     -34.750  16.895  -0.447  1.00 20.00     0.013 C 
HETATM    2  C2  UNL     1     -34.372  16.446  -1.494  1.00 20.00    -0.087 C 
HETATM    3  C10 UNL     1     -33.911  15.895  -2.771  1.00 20.00     0.362 C 
ENDROOT
BRANCH   3   4
HETATM    4  N11 UNL     1     -33.568  16.964  -3.699  1.00 20.00     0.099 N 
HETATM    5  H28 UNL     1     -34.245  17.720  -3.604  1.00 20.00     0.317 HD
BRANCH   4   6
HETATM    6  C6  UNL     1     -33.572  16.483  -5.073  1.00 20.00     0.229 C 
HETATM    7  C4  UNL     1     -34.102  15.052  -5.189  1.00 20.00     0.036 C 
HETATM    8  C3  UNL     1     -34.560  14.917  -6.643  1.00 20.00     0.003 C 
HETATM    9  C5  UNL     1     -34.499  16.321  -7.253  1.00 20.00     0.011 C 
HETATM   10  C7  UNL     1     -34.448  17.290  -6.057  1.00 20.00    -0.017 C 
HETATM   11  C8  UNL     1     -35.871  17.563  -5.531  1.00 20.00     0.017 C 
HETATM   12  C9  UNL     1     -33.800  18.622  -6.447  1.00 20.00     0.017 C 
ENDBRANCH   4   6
ENDBRANCH   3   4
TORSDOF 2
ENDMDL
MODEL 7
REMARK VINA RESULT:      -4.3     10.983     12.615
REMARK  2 active torsions:
REMARK  status: ('A' for Active; 'I' for Inactive)
REMARK    1  A    between atoms: C6_6  and  N11_11 
REMARK    2  A    between atoms: C10_10  and  N11_11 
ROOT
HETATM    1  C1  UNL     1     -38.092  15.622  -6.674  1.00 20.00     0.013 C 
HETATM    2  C2  UNL     1     -38.011  15.319  -5.515  1.00 20.00    -0.087 C 
HETATM    3  C10 UNL     1     -37.916  14.950  -4.100  1.00 20.00     0.362 C 
ENDROOT
BRANCH   3   4
HETATM    4  N11 UNL     1     -36.616  14.360  -3.809  1.00 20.00     0.099 N 
HETATM    5  H28 UNL     1     -36.643  13.929  -2.886  1.00 20.00     0.317 HD
BRANCH   4   6
HETATM    6  C6  UNL     1     -35.567  15.368  -3.841  1.00 20.00     0.229 C 
HETATM    7  C4  UNL     1     -35.133  15.803  -2.440  1.00 20.00     0.036 C 
HETATM    8  C3  UNL     1     -33.728  16.384  -2.623  1.00 20.00     0.003 C 
HETATM    9  C5  UNL     1     -33.306  16.061  -4.059  1.00 20.00     0.011 C 
HETATM   10  C7  UNL     1     -34.251  14.938  -4.526  1.00 20.00    -0.017 C 
HETATM   11  C8  UNL     1     -33.729  13.569  -4.048  1.00 20.00     0.017 C 
HETATM   12  C9  UNL     1     -34.377  14.915  -6.053  1.00 20.00     0.017 C 
ENDBRANCH   4   6
ENDBRANCH   3   4
TORSDOF 2
ENDMDL
MODEL 8
REMARK VINA RESULT:      -4.2     11.098     12.490
REMARK  2 active torsions:
REMARK  status: ('A' for Active; 'I' for Inactive)
REMARK    1  A    between atoms: C6_6  and  N11_11 
REMARK    2  A    between atoms: C10_10  and  N11_11 
ROOT
HETATM    1  C1  UNL     1     -38.286  16.290  -6.021  1.00 20.00     0.013 C 
HETATM    2  C2  UNL     1     -37.943  15.637  -5.073  1.00 20.00    -0.087 C 
HETATM    3  C10 UNL     1     -37.526  14.836  -3.919  1.00 20.00     0.362 C 
ENDROOT
BRANCH   3   4
HETATM    4  N11 UNL     1     -36.637  15.603  -3.057  1.00 20.00     0.099 N 
HETATM    5  H28 UNL     1     -36.539  16.546  -3.430  1.00 20.00     0.317 HD
BRANCH   4   6
HETATM    6  C6  UNL     1     -35.325  14.979  -2.974  1.00 20.00     0.229 C 
HETATM    7  C4  UNL     1     -35.164  13.824  -3.964  1.00 20.00     0.036 C 
HETATM    8  C3  UNL     1     -33.652  13.669  -4.150  1.00 20.00     0.003 C 
HETATM    9  C5  UNL     1     -33.001  14.869  -3.454  1.00 20.00     0.011 C 
HETATM   10  C7  UNL     1     -34.127  15.905  -3.278  1.00 20.00    -0.017 C 
HETATM   11  C8  UNL     1     -34.300  16.728  -4.570  1.00 20.00     0.017 C 
HETATM   12  C9  UNL     1     -33.828  16.861  -2.118  1.00 20.00     0.017 C 
ENDBRANCH   4   6
ENDBRANCH   3   4
TORSDOF 2
ENDMDL
MODEL 9
REMARK VINA RESULT:      -4.2     10.970     13.011
REMARK  2 active torsions:
REMARK  status: ('A' for Active; 'I' for Inactive)
REMARK    1  A    between atoms: C6_6  and  N11_11 
REMARK    2  A    between atoms: C10_10  and  N11_11 
ROOT
HETATM    1  C1  UNL     1     -34.316  18.572  -7.629  1.00 20.00     0.013 C 
HETATM    2  C2  UNL     1     -33.979  18.275  -6.515  1.00 20.00    -0.087 C 
HETATM    3  C10 UNL     1     -33.565  17.916  -5.156  1.00 20.00     0.362 C 
ENDROOT
BRANCH   3   4
HETATM    4  N11 UNL     1     -34.503  16.971  -4.566  1.00 20.00     0.099 N 
HETATM    5  H28 UNL     1     -34.560  17.138  -3.561  1.00 20.00     0.317 HD
BRANCH   4   6
HETATM    6  C6  UNL     1     -34.079  15.599  -4.802  1.00 20.00     0.229 C 
HETATM    7  C4  UNL     1     -33.270  15.028  -3.635  1.00 20.00     0.036 C 
HETATM    8  C3  UNL     1     -33.395  13.509  -3.773  1.00 20.00     0.003 C 
HETATM    9  C5  UNL     1     -34.444  13.253  -4.860  1.00 20.00     0.011 C 
HETATM   10  C7  UNL     1     -35.218  14.576  -5.007  1.00 20.00    -0.017 C 
HETATM   11  C8  UNL     1     -36.324  14.668  -3.938  1.00 20.00     0.017 C 
HETATM   12  C9  UNL     1     -35.858  14.696  -6.394  1.00 20.00     0.017 C 
ENDBRANCH   4   6
ENDBRANCH   3   4
TORSDOF 2
ENDMDL
