MODEL 1
REMARK VINA RESULT:      -4.5      0.000      0.000
REMARK  2 active torsions:
REMARK  status: ('A' for Active; 'I' for Inactive)
REMARK    1  A    between atoms: C3_3  and  C9_9 
REMARK    2  A    between atoms: C7_7  and  C9_9 
ROOT
HETATM    1  C4  UNL     1     -34.353  13.764  -3.629  1.00 20.00     0.006 C 
HETATM    2  C5  UNL     1     -34.738  13.249  -5.019  1.00 20.00     0.020 C 
HETATM    3  C6  UNL     1     -34.656  15.630  -5.153  1.00 20.00     0.025 C 
HETATM    4  C7  UNL     1     -34.544  15.289  -3.667  1.00 20.00    -0.007 C 
HETATM    5  C8  UNL     1     -35.416  14.431  -5.702  1.00 20.00     0.082 C 
HETATM    6 CL12 UNL     1     -35.333  14.330  -7.466  1.00 20.00    -0.125 Cl
ENDROOT
BRANCH   4   7
HETATM    7  C9  UNL     1     -33.432  16.050  -2.966  1.00 20.00     0.071 C 
BRANCH   7   8
HETATM    8  C3  UNL     1     -33.961  16.904  -1.844  1.00 20.00     0.074 A 
HETATM    9  N10 UNL     1     -34.613  16.442  -0.800  1.00 20.00    -0.258 NA
HETATM   10  C1  UNL     1     -34.945  17.499   0.023  1.00 20.00     0.124 A 
HETATM   11  C2  UNL     1     -34.541  18.747  -0.405  1.00 20.00     0.070 A 
HETATM   12  S11 UNL     1     -33.710  18.601  -1.898  1.00 20.00    -0.085 SA
ENDBRANCH   7   8
ENDBRANCH   4   7
TORSDOF 2
ENDMDL
MODEL 2
REMARK VINA RESULT:      -4.5      3.512      5.651
REMARK  2 active torsions:
REMARK  status: ('A' for Active; 'I' for Inactive)
REMARK    1  A    between atoms: C3_3  and  C9_9 
REMARK    2  A    between atoms: C7_7  and  C9_9 
ROOT
HETATM    1  C4  UNL     1     -33.507  18.501  -1.365  1.00 20.00     0.006 C 
HETATM    2  C5  UNL     1     -33.876  18.766   0.097  1.00 20.00     0.020 C 
HETATM    3  C6  UNL     1     -34.794  16.641  -0.480  1.00 20.00     0.025 C 
HETATM    4  C7  UNL     1     -34.305  17.258  -1.791  1.00 20.00    -0.007 C 
HETATM    5  C8  UNL     1     -35.080  17.873   0.368  1.00 20.00     0.082 C 
HETATM    6 CL12 UNL     1     -35.261  17.483   2.083  1.00 20.00    -0.125 Cl
ENDROOT
BRANCH   4   7
HETATM    7  C9  UNL     1     -33.499  16.289  -2.638  1.00 20.00     0.071 C 
BRANCH   7   8
HETATM    8  C3  UNL     1     -34.379  15.270  -3.313  1.00 20.00     0.074 A 
HETATM    9  N10 UNL     1     -35.660  15.435  -3.552  1.00 20.00    -0.258 NA
HETATM   10  C1  UNL     1     -36.148  14.307  -4.180  1.00 20.00     0.124 A 
HETATM   11  C2  UNL     1     -35.231  13.302  -4.410  1.00 20.00     0.070 A 
HETATM   12  S11 UNL     1     -33.694  13.780  -3.819  1.00 20.00    -0.085 SA
ENDBRANCH   7   8
ENDBRANCH   4   7
TORSDOF 2
ENDMDL
MODEL 3
REMARK VINA RESULT:      -4.4      3.924      5.934
REMARK  2 active torsions:
REMARK  status: ('A' for Active; 'I' for Inactive)
REMARK    1  A    between atoms: C3_3  and  C9_9 
REMARK    2  A    between atoms: C7_7  and  C9_9 
ROOT
HETATM    1  C4  UNL     1     -33.221  18.148  -0.600  1.00 20.00     0.006 C 
HETATM    2  C5  UNL     1     -33.068  18.628   0.846  1.00 20.00     0.020 C 
HETATM    3  C6  UNL     1     -35.078  17.347   0.746  1.00 20.00     0.025 C 
HETATM    4  C7  UNL     1     -34.630  17.539  -0.703  1.00 20.00    -0.007 C 
HETATM    5  C8  UNL     1     -34.472  18.562   1.434  1.00 20.00     0.082 C 
HETATM    6 CL12 UNL     1     -34.460  18.403   3.196  1.00 20.00    -0.125 Cl
ENDROOT
BRANCH   4   7
HETATM    7  C9  UNL     1     -34.670  16.255  -1.512  1.00 20.00     0.071 C 
BRANCH   7   8
HETATM    8  C3  UNL     1     -34.242  16.479  -2.938  1.00 20.00     0.074 A 
HETATM    9  N10 UNL     1     -33.284  15.810  -3.541  1.00 20.00    -0.258 NA
HETATM   10  C1  UNL     1     -33.161  16.274  -4.836  1.00 20.00     0.124 A 
HETATM   11  C2  UNL     1     -34.025  17.286  -5.198  1.00 20.00     0.070 A 
HETATM   12  S11 UNL     1     -35.038  17.679  -3.871  1.00 20.00    -0.085 SA
ENDBRANCH   7   8
ENDBRANCH   4   7
TORSDOF 2
ENDMDL
MODEL 4
REMARK VINA RESULT:      -4.4      3.474      5.533
REMARK  2 active torsions:
REMARK  status: ('A' for Active; 'I' for Inactive)
REMARK    1  A    between atoms: C3_3  and  C9_9 
REMARK    2  A    between atoms: C7_7  and  C9_9 
ROOT
HETATM    1  C4  UNL     1     -35.886  17.365  -2.258  1.00 20.00     0.006 C 
HETATM    2  C5  UNL     1     -36.221  18.369  -1.152  1.00 20.00     0.020 C 
HETATM    3  C6  UNL     1     -34.299  17.152  -0.432  1.00 20.00     0.025 C 
HETATM    4  C7  UNL     1     -34.810  16.432  -1.680  1.00 20.00    -0.007 C 
HETATM    5  C8  UNL     1     -35.566  17.806   0.103  1.00 20.00     0.082 C 
HETATM    6 CL12 UNL     1     -35.222  19.056   1.306  1.00 20.00    -0.125 Cl
ENDROOT
BRANCH   4   7
HETATM    7  C9  UNL     1     -33.706  16.104  -2.670  1.00 20.00     0.071 C 
BRANCH   7   8
HETATM    8  C3  UNL     1     -34.165  15.121  -3.715  1.00 20.00     0.074 A 
HETATM    9  N10 UNL     1     -34.445  13.859  -3.477  1.00 20.00    -0.258 NA
HETATM   10  C1  UNL     1     -34.833  13.257  -4.657  1.00 20.00     0.124 A 
HETATM   11  C2  UNL     1     -34.842  14.069  -5.773  1.00 20.00     0.070 A 
HETATM   12  S11 UNL     1     -34.347  15.651  -5.337  1.00 20.00    -0.085 SA
ENDBRANCH   7   8
ENDBRANCH   4   7
TORSDOF 2
ENDMDL
MODEL 5
REMARK VINA RESULT:      -4.4      3.613      5.669
REMARK  2 active torsions:
REMARK  status: ('A' for Active; 'I' for Inactive)
REMARK    1  A    between atoms: C3_3  and  C9_9 
REMARK    2  A    between atoms: C7_7  and  C9_9 
ROOT
HETATM    1  C4  UNL     1     -33.623  18.083  -2.462  1.00 20.00     0.006 C 
HETATM    2  C5  UNL     1     -33.955  18.604  -1.061  1.00 20.00     0.020 C 
HETATM    3  C6  UNL     1     -34.665  16.327  -1.146  1.00 20.00     0.025 C 
HETATM    4  C7  UNL     1     -34.301  16.708  -2.582  1.00 20.00    -0.007 C 
HETATM    5  C8  UNL     1     -35.044  17.672  -0.543  1.00 20.00     0.082 C 
HETATM    6 CL12 UNL     1     -35.107  17.623   1.224  1.00 20.00    -0.125 Cl
ENDROOT
BRANCH   4   7
HETATM    7  C9  UNL     1     -33.434  15.669  -3.270  1.00 20.00     0.071 C 
BRANCH   7   8
HETATM    8  C3  UNL     1     -33.922  15.366  -4.662  1.00 20.00     0.074 A 
HETATM    9  N10 UNL     1     -33.724  16.140  -5.706  1.00 20.00    -0.258 NA
HETATM   10  C1  UNL     1     -34.305  15.556  -6.813  1.00 20.00     0.124 A 
HETATM   11  C2  UNL     1     -34.936  14.348  -6.596  1.00 20.00     0.070 A 
HETATM   12  S11 UNL     1     -34.800  13.918  -4.942  1.00 20.00    -0.085 SA
ENDBRANCH   7   8
ENDBRANCH   4   7
TORSDOF 2
ENDMDL
MODEL 6
REMARK VINA RESULT:      -4.3      1.880      2.565
REMARK  2 active torsions:
REMARK  status: ('A' for Active; 'I' for Inactive)
REMARK    1  A    between atoms: C3_3  and  C9_9 
REMARK    2  A    between atoms: C7_7  and  C9_9 
ROOT
HETATM    1  C4  UNL     1     -33.664  16.951  -3.694  1.00 20.00     0.006 C 
HETATM    2  C5  UNL     1     -33.656  15.881  -4.791  1.00 20.00     0.020 C 
HETATM    3  C6  UNL     1     -34.597  14.877  -2.842  1.00 20.00     0.025 C 
HETATM    4  C7  UNL     1     -34.039  16.227  -2.391  1.00 20.00    -0.007 C 
HETATM    5  C8  UNL     1     -33.724  14.554  -4.046  1.00 20.00     0.082 C 
HETATM    6 CL12 UNL     1     -34.400  13.255  -5.039  1.00 20.00    -0.125 Cl
ENDROOT
BRANCH   4   7
HETATM    7  C9  UNL     1     -35.011  17.013  -1.527  1.00 20.00     0.071 C 
BRANCH   7   8
HETATM    8  C3  UNL     1     -34.316  17.684  -0.372  1.00 20.00     0.074 A 
HETATM    9  N10 UNL     1     -33.111  18.207  -0.431  1.00 20.00    -0.258 NA
HETATM   10  C1  UNL     1     -32.792  18.735   0.804  1.00 20.00     0.124 A 
HETATM   11  C2  UNL     1     -33.757  18.606   1.782  1.00 20.00     0.070 A 
HETATM   12  S11 UNL     1     -35.123  17.793   1.138  1.00 20.00    -0.085 SA
ENDBRANCH   7   8
ENDBRANCH   4   7
TORSDOF 2
ENDMDL
MODEL 7
REMARK VINA RESULT:      -4.3      2.900      4.166
REMARK  2 active torsions:
REMARK  status: ('A' for Active; 'I' for Inactive)
REMARK    1  A    between atoms: C3_3  and  C9_9 
REMARK    2  A    between atoms: C7_7  and  C9_9 
ROOT
HETATM    1  C4  UNL     1     -33.622  18.303  -2.123  1.00 20.00     0.006 C 
HETATM    2  C5  UNL     1     -34.096  17.321  -3.198  1.00 20.00     0.020 C 
HETATM    3  C6  UNL     1     -34.694  16.386  -1.086  1.00 20.00     0.025 C 
HETATM    4  C7  UNL     1     -33.792  17.581  -0.776  1.00 20.00    -0.007 C 
HETATM    5  C8  UNL     1     -34.229  15.985  -2.479  1.00 20.00     0.082 C 
HETATM    6 CL12 UNL     1     -35.368  14.896  -3.282  1.00 20.00    -0.125 Cl
ENDROOT
BRANCH   4   7
HETATM    7  C9  UNL     1     -34.346  18.475   0.319  1.00 20.00     0.071 C 
BRANCH   7   8
HETATM    8  C3  UNL     1     -33.379  18.623   1.463  1.00 20.00     0.074 A 
HETATM    9  N10 UNL     1     -33.674  18.389   2.723  1.00 20.00    -0.258 NA
HETATM   10  C1  UNL     1     -32.554  18.625   3.496  1.00 20.00     0.124 A 
HETATM   11  C2  UNL     1     -31.427  19.034   2.814  1.00 20.00     0.070 A 
HETATM   12  S11 UNL     1     -31.771  19.129   1.137  1.00 20.00    -0.085 SA
ENDBRANCH   7   8
ENDBRANCH   4   7
TORSDOF 2
ENDMDL
MODEL 8
REMARK VINA RESULT:      -4.1      1.916      2.516
REMARK  2 active torsions:
REMARK  status: ('A' for Active; 'I' for Inactive)
REMARK    1  A    between atoms: C3_3  and  C9_9 
REMARK    2  A    between atoms: C7_7  and  C9_9 
ROOT
HETATM    1  C4  UNL     1     -33.395  16.189  -2.733  1.00 20.00     0.006 C 
HETATM    2  C5  UNL     1     -33.205  15.076  -3.767  1.00 20.00     0.020 C 
HETATM    3  C6  UNL     1     -35.508  15.063  -3.143  1.00 20.00     0.025 C 
HETATM    4  C7  UNL     1     -34.812  16.010  -2.165  1.00 20.00    -0.007 C 
HETATM    5  C8  UNL     1     -34.376  14.127  -3.544  1.00 20.00     0.082 C 
HETATM    6 CL12 UNL     1     -34.764  13.181  -4.987  1.00 20.00    -0.125 Cl
ENDROOT
BRANCH   4   7
HETATM    7  C9  UNL     1     -35.554  17.322  -1.979  1.00 20.00     0.071 C 
BRANCH   7   8
HETATM    8  C3  UNL     1     -35.725  17.667  -0.523  1.00 20.00     0.074 A 
HETATM    9  N10 UNL     1     -34.965  17.206   0.445  1.00 20.00    -0.258 NA
HETATM   10  C1  UNL     1     -35.405  17.727   1.646  1.00 20.00     0.124 A 
HETATM   11  C2  UNL     1     -36.491  18.575   1.573  1.00 20.00     0.070 A 
HETATM   12  S11 UNL     1     -36.988  18.734  -0.060  1.00 20.00    -0.085 SA
ENDBRANCH   7   8
ENDBRANCH   4   7
TORSDOF 2
ENDMDL
MODEL 9
REMARK VINA RESULT:      -4.1      3.554      5.591
REMARK  2 active torsions:
REMARK  status: ('A' for Active; 'I' for Inactive)
REMARK    1  A    between atoms: C3_3  and  C9_9 
REMARK    2  A    between atoms: C7_7  and  C9_9 
ROOT
HETATM    1  C4  UNL     1     -35.480  16.795  -1.785  1.00 20.00     0.006 C 
HETATM    2  C5  UNL     1     -35.592  17.693  -0.550  1.00 20.00     0.020 C 
HETATM    3  C6  UNL     1     -33.291  17.654  -1.177  1.00 20.00     0.025 C 
HETATM    4  C7  UNL     1     -33.976  16.583  -2.027  1.00 20.00    -0.007 C 
HETATM    5  C8  UNL     1     -34.191  17.718   0.048  1.00 20.00     0.082 C 
HETATM    6 CL12 UNL     1     -33.898  19.163   1.025  1.00 20.00    -0.125 Cl
ENDROOT
BRANCH   4   7
HETATM    7  C9  UNL     1     -33.589  16.651  -3.494  1.00 20.00     0.071 C 
BRANCH   7   8
HETATM    8  C3  UNL     1     -34.136  15.484  -4.271  1.00 20.00     0.074 A 
HETATM    9  N10 UNL     1     -34.859  15.590  -5.364  1.00 20.00    -0.258 NA
HETATM   10  C1  UNL     1     -35.186  14.324  -5.809  1.00 20.00     0.124 A 
HETATM   11  C2  UNL     1     -34.709  13.277  -5.049  1.00 20.00     0.070 A 
HETATM   12  S11 UNL     1     -33.811  13.890  -3.723  1.00 20.00    -0.085 SA
ENDBRANCH   7   8
ENDBRANCH   4   7
TORSDOF 2
ENDMDL
