MODEL 1
REMARK VINA RESULT:      -4.8      0.000      0.000
REMARK  1 active torsions:
REMARK  status: ('A' for Active; 'I' for Inactive)
REMARK    1  A    between atoms: C1_1  and  C4_4 
ROOT
HETATM    1  C1  UNL     1     -32.464   7.304   3.143  1.00 20.00    -0.079 C 
HETATM    2  C2  UNL     1     -32.193   7.940   2.161  1.00 20.00    -0.106 C 
HETATM    3  C7  UNL     1     -31.864   8.714   0.964  1.00 20.00     0.112 C 
ENDROOT
BRANCH   1   4
HETATM    4  C4  UNL     1     -32.783   6.554   4.308  1.00 20.00     0.070 C 
HETATM    5  C3  UNL     1     -33.859   5.772   4.371  1.00 20.00    -0.017 C 
HETATM    6  C5  UNL     1     -34.458   4.879   5.422  1.00 20.00     0.306 C 
HETATM    7  C6  UNL     1     -34.967   5.417   3.418  1.00 20.00     0.306 C 
HETATM    8  N8  UNL     1     -35.668   4.860   4.585  1.00 20.00     0.091 N 
HETATM    9  H17 UNL     1     -36.076   3.938   4.441  1.00 20.00     0.316 HD
ENDBRANCH   1   4
TORSDOF 1
ENDMDL
MODEL 2
REMARK VINA RESULT:      -4.1     11.087     11.716
REMARK  1 active torsions:
REMARK  status: ('A' for Active; 'I' for Inactive)
REMARK    1  A    between atoms: C1_1  and  C4_4 
ROOT
HETATM    1  C1  UNL     1     -34.070  16.933  -1.334  1.00 20.00    -0.079 C 
HETATM    2  C2  UNL     1     -33.419  17.783  -0.790  1.00 20.00    -0.106 C 
HETATM    3  C7  UNL     1     -32.627  18.819  -0.128  1.00 20.00     0.112 C 
ENDROOT
BRANCH   1   4
HETATM    4  C4  UNL     1     -34.839  15.925  -1.979  1.00 20.00     0.070 C 
HETATM    5  C3  UNL     1     -34.343  15.185  -2.969  1.00 20.00    -0.017 C 
HETATM    6  C5  UNL     1     -34.879  14.076  -3.831  1.00 20.00     0.306 C 
HETATM    7  C6  UNL     1     -33.017  15.112  -3.675  1.00 20.00     0.306 C 
HETATM    8  N8  UNL     1     -33.707  14.302  -4.691  1.00 20.00     0.091 N 
HETATM    9  H17 UNL     1     -33.214  13.458  -4.975  1.00 20.00     0.316 HD
ENDBRANCH   1   4
TORSDOF 1
ENDMDL
MODEL 3
REMARK VINA RESULT:      -4.0     11.577     12.268
REMARK  1 active torsions:
REMARK  status: ('A' for Active; 'I' for Inactive)
REMARK    1  A    between atoms: C1_1  and  C4_4 
ROOT
HETATM    1  C1  UNL     1     -34.730  16.034  -1.874  1.00 20.00    -0.079 C 
HETATM    2  C2  UNL     1     -34.522  16.792  -0.967  1.00 20.00    -0.106 C 
HETATM    3  C7  UNL     1     -34.270  17.715   0.139  1.00 20.00     0.112 C 
ENDROOT
BRANCH   1   4
HETATM    4  C4  UNL     1     -34.974  15.137  -2.951  1.00 20.00     0.070 C 
HETATM    5  C3  UNL     1     -34.328  15.235  -4.112  1.00 20.00    -0.017 C 
HETATM    6  C5  UNL     1     -34.356  14.470  -5.405  1.00 20.00     0.306 C 
HETATM    7  C6  UNL     1     -33.267  16.150  -4.659  1.00 20.00     0.306 C 
HETATM    8  N8  UNL     1     -33.600  15.594  -5.980  1.00 20.00     0.091 N 
HETATM    9  H17 UNL     1     -32.798  15.326  -6.547  1.00 20.00     0.316 HD
ENDBRANCH   1   4
TORSDOF 1
ENDMDL
MODEL 4
REMARK VINA RESULT:      -3.9     11.384     11.654
REMARK  1 active torsions:
REMARK  status: ('A' for Active; 'I' for Inactive)
REMARK    1  A    between atoms: C1_1  and  C4_4 
ROOT
HETATM    1  C1  UNL     1     -34.273  16.502  -1.492  1.00 20.00    -0.079 C 
HETATM    2  C2  UNL     1     -34.691  16.956  -0.462  1.00 20.00    -0.106 C 
HETATM    3  C7  UNL     1     -35.199  17.511   0.792  1.00 20.00     0.112 C 
ENDROOT
BRANCH   1   4
HETATM    4  C4  UNL     1     -33.778  15.961  -2.711  1.00 20.00     0.070 C 
HETATM    5  C3  UNL     1     -34.549  15.249  -3.532  1.00 20.00    -0.017 C 
HETATM    6  C5  UNL     1     -34.336  14.561  -4.851  1.00 20.00     0.306 C 
HETATM    7  C6  UNL     1     -35.988  14.813  -3.520  1.00 20.00     0.306 C 
HETATM    8  N8  UNL     1     -35.620  13.887  -4.602  1.00 20.00     0.091 N 
HETATM    9  H17 UNL     1     -36.260  13.877  -5.394  1.00 20.00     0.316 HD
ENDBRANCH   1   4
TORSDOF 1
ENDMDL
MODEL 5
REMARK VINA RESULT:      -3.9      2.626      4.739
REMARK  1 active torsions:
REMARK  status: ('A' for Active; 'I' for Inactive)
REMARK    1  A    between atoms: C1_1  and  C4_4 
ROOT
HETATM    1  C1  UNL     1     -33.005   6.537   3.865  1.00 20.00    -0.079 C 
HETATM    2  C2  UNL     1     -33.597   6.324   4.889  1.00 20.00    -0.106 C 
HETATM    3  C7  UNL     1     -34.317   6.068   6.135  1.00 20.00     0.112 C 
ENDROOT
BRANCH   1   4
HETATM    4  C4  UNL     1     -32.305   6.784   2.653  1.00 20.00     0.070 C 
HETATM    5  C3  UNL     1     -32.221   8.002   2.121  1.00 20.00    -0.017 C 
HETATM    6  C5  UNL     1     -31.576   8.578   0.891  1.00 20.00     0.306 C 
HETATM    7  C6  UNL     1     -32.727   9.364   2.511  1.00 20.00     0.306 C 
HETATM    8  N8  UNL     1     -32.386   9.781   1.142  1.00 20.00     0.091 N 
HETATM    9  H17 UNL     1     -31.879  10.661   1.075  1.00 20.00     0.316 HD
ENDBRANCH   1   4
TORSDOF 1
ENDMDL
MODEL 6
REMARK VINA RESULT:      -3.8      9.305     10.644
REMARK  1 active torsions:
REMARK  status: ('A' for Active; 'I' for Inactive)
REMARK    1  A    between atoms: C1_1  and  C4_4 
ROOT
HETATM    1  C1  UNL     1     -41.331   3.511  -2.298  1.00 20.00    -0.079 C 
HETATM    2  C2  UNL     1     -41.600   2.643  -3.082  1.00 20.00    -0.106 C 
HETATM    3  C7  UNL     1     -41.927   1.585  -4.037  1.00 20.00     0.112 C 
ENDROOT
BRANCH   1   4
HETATM    4  C4  UNL     1     -41.013   4.542  -1.371  1.00 20.00     0.070 C 
HETATM    5  C3  UNL     1     -41.384   5.806  -1.565  1.00 20.00    -0.017 C 
HETATM    6  C5  UNL     1     -41.210   7.089  -0.801  1.00 20.00     0.306 C 
HETATM    7  C6  UNL     1     -42.154   6.530  -2.635  1.00 20.00     0.306 C 
HETATM    8  N8  UNL     1     -41.648   7.772  -2.029  1.00 20.00     0.091 N 
HETATM    9  H17 UNL     1     -42.349   8.497  -1.889  1.00 20.00     0.316 HD
ENDBRANCH   1   4
TORSDOF 1
ENDMDL
MODEL 7
REMARK VINA RESULT:      -3.6     11.611     12.256
REMARK  1 active torsions:
REMARK  status: ('A' for Active; 'I' for Inactive)
REMARK    1  A    between atoms: C1_1  and  C4_4 
ROOT
HETATM    1  C1  UNL     1     -34.640  16.519  -1.066  1.00 20.00    -0.079 C 
HETATM    2  C2  UNL     1     -34.507  15.890  -2.080  1.00 20.00    -0.106 C 
HETATM    3  C7  UNL     1     -34.343  15.123  -3.314  1.00 20.00     0.112 C 
ENDROOT
BRANCH   1   4
HETATM    4  C4  UNL     1     -34.800  17.266   0.134  1.00 20.00     0.070 C 
HETATM    5  C3  UNL     1     -33.898  18.161   0.534  1.00 20.00    -0.017 C 
HETATM    6  C5  UNL     1     -33.775  19.084   1.713  1.00 20.00     0.306 C 
HETATM    7  C6  UNL     1     -32.591  18.663  -0.014  1.00 20.00     0.306 C 
HETATM    8  N8  UNL     1     -32.370  19.261   1.312  1.00 20.00     0.091 N 
HETATM    9  H17 UNL     1     -32.046  20.226   1.299  1.00 20.00     0.316 HD
ENDBRANCH   1   4
TORSDOF 1
ENDMDL
MODEL 8
REMARK VINA RESULT:      -3.6     11.478     12.197
REMARK  1 active torsions:
REMARK  status: ('A' for Active; 'I' for Inactive)
REMARK    1  A    between atoms: C1_1  and  C4_4 
ROOT
HETATM    1  C1  UNL     1     -34.472  15.678  -2.324  1.00 20.00    -0.079 C 
HETATM    2  C2  UNL     1     -34.658  16.377  -1.365  1.00 20.00    -0.106 C 
HETATM    3  C7  UNL     1     -34.884  17.230  -0.199  1.00 20.00     0.112 C 
ENDROOT
BRANCH   1   4
HETATM    4  C4  UNL     1     -34.251  14.847  -3.457  1.00 20.00     0.070 C 
HETATM    5  C3  UNL     1     -34.960  14.977  -4.577  1.00 20.00    -0.017 C 
HETATM    6  C5  UNL     1     -34.973  14.278  -5.908  1.00 20.00     0.306 C 
HETATM    7  C6  UNL     1     -36.070  15.886  -5.027  1.00 20.00     0.306 C 
HETATM    8  N8  UNL     1     -36.262  14.946  -6.143  1.00 20.00     0.091 N 
HETATM    9  H17 UNL     1     -36.360  15.382  -7.058  1.00 20.00     0.316 HD
ENDBRANCH   1   4
TORSDOF 1
ENDMDL
MODEL 9
REMARK VINA RESULT:      -3.5     11.667     12.180
REMARK  1 active torsions:
REMARK  status: ('A' for Active; 'I' for Inactive)
REMARK    1  A    between atoms: C1_1  and  C4_4 
ROOT
HETATM    1  C1  UNL     1     -34.835  17.015  -0.187  1.00 20.00    -0.079 C 
HETATM    2  C2  UNL     1     -34.544  16.522  -1.242  1.00 20.00    -0.106 C 
HETATM    3  C7  UNL     1     -34.189  15.921  -2.528  1.00 20.00     0.112 C 
ENDROOT
BRANCH   1   4
HETATM    4  C4  UNL     1     -35.180  17.601   1.062  1.00 20.00     0.070 C 
HETATM    5  C3  UNL     1     -34.325  18.357   1.748  1.00 20.00    -0.017 C 
HETATM    6  C5  UNL     1     -34.381  19.097   3.055  1.00 20.00     0.306 C 
HETATM    7  C6  UNL     1     -32.913  18.825   1.526  1.00 20.00     0.306 C 
HETATM    8  N8  UNL     1     -32.918  19.216   2.945  1.00 20.00     0.091 N 
HETATM    9  H17 UNL     1     -32.547  20.145   3.135  1.00 20.00     0.316 HD
ENDBRANCH   1   4
TORSDOF 1
ENDMDL
