MODEL 1
REMARK VINA RESULT:      -4.2      0.000      0.000
REMARK  3 active torsions:
REMARK  status: ('A' for Active; 'I' for Inactive)
REMARK    1  A    between atoms: C1_1  and  C2_2 
REMARK    2  A    between atoms: C1_1  and  C3_3 
REMARK    3  A    between atoms: C3_3  and  O4_4 
ROOT
HETATM    1  C3  UNL     1     -35.276   4.929   4.990  1.00 20.00     0.216 C 
HETATM    2 CL6  UNL     1     -34.427   5.521   3.544  1.00 20.00    -0.096 Cl
ENDROOT
BRANCH   1   3
HETATM    3  C1  UNL     1     -34.597   5.383   6.277  1.00 20.00     0.079 C 
BRANCH   3   4
HETATM    4  C2  UNL     1     -33.716   6.608   6.110  1.00 20.00     0.226 C 
HETATM    5  F5  UNL     1     -33.959   7.458   7.145  1.00 20.00    -0.255 F 
ENDBRANCH   3   4
ENDBRANCH   1   3
BRANCH   1   6
HETATM    6  O4  UNL     1     -35.285   3.508   4.953  1.00 20.00    -0.380 OA
HETATM    7  H12 UNL     1     -36.104   3.223   5.392  1.00 20.00     0.211 HD
ENDBRANCH   1   6
TORSDOF 3
ENDMDL
MODEL 2
REMARK VINA RESULT:      -4.1      2.649      2.767
REMARK  3 active torsions:
REMARK  status: ('A' for Active; 'I' for Inactive)
REMARK    1  A    between atoms: C1_1  and  C2_2 
REMARK    2  A    between atoms: C1_1  and  C3_3 
REMARK    3  A    between atoms: C3_3  and  O4_4 
ROOT
HETATM    1  C3  UNL     1     -34.446   4.725   5.099  1.00 20.00     0.216 C 
HETATM    2 CL6  UNL     1     -34.589   5.769   6.531  1.00 20.00    -0.096 Cl
ENDROOT
BRANCH   1   3
HETATM    3  C1  UNL     1     -34.525   5.521   3.802  1.00 20.00     0.079 C 
BRANCH   3   4
HETATM    4  C2  UNL     1     -33.348   6.453   3.578  1.00 20.00     0.226 C 
HETATM    5  F5  UNL     1     -32.380   5.770   2.906  1.00 20.00    -0.255 F 
ENDBRANCH   3   4
ENDBRANCH   1   3
BRANCH   1   6
HETATM    6  O4  UNL     1     -35.509   3.783   5.124  1.00 20.00    -0.380 OA
HETATM    7  H12 UNL     1     -36.061   4.005   5.893  1.00 20.00     0.211 HD
ENDBRANCH   1   6
TORSDOF 3
ENDMDL
MODEL 3
REMARK VINA RESULT:      -3.7      2.218      2.381
REMARK  3 active torsions:
REMARK  status: ('A' for Active; 'I' for Inactive)
REMARK    1  A    between atoms: C1_1  and  C2_2 
REMARK    2  A    between atoms: C1_1  and  C3_3 
REMARK    3  A    between atoms: C3_3  and  O4_4 
ROOT
HETATM    1  C3  UNL     1     -34.024   6.337   3.991  1.00 20.00     0.216 C 
HETATM    2 CL6  UNL     1     -32.385   6.175   3.320  1.00 20.00    -0.096 Cl
ENDROOT
BRANCH   1   3
HETATM    3  C1  UNL     1     -34.037   6.181   5.507  1.00 20.00     0.079 C 
BRANCH   3   4
HETATM    4  C2  UNL     1     -34.882   5.020   5.999  1.00 20.00     0.226 C 
HETATM    5  F5  UNL     1     -34.081   3.926   6.121  1.00 20.00    -0.255 F 
ENDBRANCH   3   4
ENDBRANCH   1   3
BRANCH   1   6
HETATM    6  O4  UNL     1     -34.844   5.327   3.419  1.00 20.00    -0.380 OA
HETATM    7  H12 UNL     1     -34.549   5.216   2.500  1.00 20.00     0.211 HD
ENDBRANCH   1   6
TORSDOF 3
ENDMDL
MODEL 4
REMARK VINA RESULT:      -3.7      2.960      3.055
REMARK  3 active torsions:
REMARK  status: ('A' for Active; 'I' for Inactive)
REMARK    1  A    between atoms: C1_1  and  C2_2 
REMARK    2  A    between atoms: C1_1  and  C3_3 
REMARK    3  A    between atoms: C3_3  and  O4_4 
ROOT
HETATM    1  C3  UNL     1     -34.810   5.576   5.125  1.00 20.00     0.216 C 
HETATM    2 CL6  UNL     1     -34.840   3.893   5.697  1.00 20.00    -0.096 Cl
ENDROOT
BRANCH   1   3
HETATM    3  C1  UNL     1     -34.211   5.694   3.728  1.00 20.00     0.079 C 
BRANCH   3   4
HETATM    4  C2  UNL     1     -32.924   6.497   3.676  1.00 20.00     0.226 C 
HETATM    5  F5  UNL     1     -31.986   5.765   3.015  1.00 20.00    -0.255 F 
ENDBRANCH   3   4
ENDBRANCH   1   3
BRANCH   1   6
HETATM    6  O4  UNL     1     -34.023   6.342   6.027  1.00 20.00    -0.380 OA
HETATM    7  H12 UNL     1     -34.251   7.274   5.875  1.00 20.00     0.211 HD
ENDBRANCH   1   6
TORSDOF 3
ENDMDL
MODEL 5
REMARK VINA RESULT:      -3.6      2.636      2.929
REMARK  3 active torsions:
REMARK  status: ('A' for Active; 'I' for Inactive)
REMARK    1  A    between atoms: C1_1  and  C2_2 
REMARK    2  A    between atoms: C1_1  and  C3_3 
REMARK    3  A    between atoms: C3_3  and  O4_4 
ROOT
HETATM    1  C3  UNL     1     -34.194   6.269   4.574  1.00 20.00     0.216 C 
HETATM    2 CL6  UNL     1     -33.822   6.633   6.274  1.00 20.00    -0.096 Cl
ENDROOT
BRANCH   1   3
HETATM    3  C1  UNL     1     -35.110   5.059   4.436  1.00 20.00     0.079 C 
BRANCH   3   4
HETATM    4  C2  UNL     1     -34.825   3.953   5.436  1.00 20.00     0.226 C 
HETATM    5  F5  UNL     1     -35.619   4.142   6.526  1.00 20.00    -0.255 F 
ENDBRANCH   3   4
ENDBRANCH   1   3
BRANCH   1   6
HETATM    6  O4  UNL     1     -32.973   5.998   3.897  1.00 20.00    -0.380 OA
HETATM    7  H12 UNL     1     -33.174   6.005   2.946  1.00 20.00     0.211 HD
ENDBRANCH   1   6
TORSDOF 3
ENDMDL
MODEL 6
REMARK VINA RESULT:      -3.5      2.995      3.263
REMARK  3 active torsions:
REMARK  status: ('A' for Active; 'I' for Inactive)
REMARK    1  A    between atoms: C1_1  and  C2_2 
REMARK    2  A    between atoms: C1_1  and  C3_3 
REMARK    3  A    between atoms: C3_3  and  O4_4 
ROOT
HETATM    1  C3  UNL     1     -34.378   6.096   5.706  1.00 20.00     0.216 C 
HETATM    2 CL6  UNL     1     -34.495   4.403   6.238  1.00 20.00    -0.096 Cl
ENDROOT
BRANCH   1   3
HETATM    3  C1  UNL     1     -33.789   6.215   4.305  1.00 20.00     0.079 C 
BRANCH   3   4
HETATM    4  C2  UNL     1     -34.553   5.438   3.248  1.00 20.00     0.226 C 
HETATM    5  F5  UNL     1     -35.886   5.585   3.485  1.00 20.00    -0.255 F 
ENDBRANCH   3   4
ENDBRANCH   1   3
BRANCH   1   6
HETATM    6  O4  UNL     1     -33.539   6.794   6.617  1.00 20.00    -0.380 OA
HETATM    7  H12 UNL     1     -33.068   6.120   7.135  1.00 20.00     0.211 HD
ENDBRANCH   1   6
TORSDOF 3
ENDMDL
MODEL 7
REMARK VINA RESULT:      -3.5      2.724      2.798
REMARK  3 active torsions:
REMARK  status: ('A' for Active; 'I' for Inactive)
REMARK    1  A    between atoms: C1_1  and  C2_2 
REMARK    2  A    between atoms: C1_1  and  C3_3 
REMARK    3  A    between atoms: C3_3  and  O4_4 
ROOT
HETATM    1  C3  UNL     1     -34.615   5.210   4.515  1.00 20.00     0.216 C 
HETATM    2 CL6  UNL     1     -34.971   4.940   6.235  1.00 20.00    -0.096 Cl
ENDROOT
BRANCH   1   3
HETATM    3  C1  UNL     1     -33.740   6.439   4.299  1.00 20.00     0.079 C 
BRANCH   3   4
HETATM    4  C2  UNL     1     -32.609   6.225   3.310  1.00 20.00     0.226 C 
HETATM    5  F5  UNL     1     -31.616   7.112   3.592  1.00 20.00    -0.255 F 
ENDBRANCH   3   4
ENDBRANCH   1   3
BRANCH   1   6
HETATM    6  O4  UNL     1     -35.845   5.397   3.827  1.00 20.00    -0.380 OA
HETATM    7  H12 UNL     1     -36.551   5.165   4.452  1.00 20.00     0.211 HD
ENDBRANCH   1   6
TORSDOF 3
ENDMDL
MODEL 8
REMARK VINA RESULT:      -3.4      2.413      2.545
REMARK  3 active torsions:
REMARK  status: ('A' for Active; 'I' for Inactive)
REMARK    1  A    between atoms: C1_1  and  C2_2 
REMARK    2  A    between atoms: C1_1  and  C3_3 
REMARK    3  A    between atoms: C3_3  and  O4_4 
ROOT
HETATM    1  C3  UNL     1     -33.702   5.873   4.152  1.00 20.00     0.216 C 
HETATM    2 CL6  UNL     1     -35.295   5.495   3.458  1.00 20.00    -0.096 Cl
ENDROOT
BRANCH   1   3
HETATM    3  C1  UNL     1     -33.811   6.399   5.578  1.00 20.00     0.079 C 
BRANCH   3   4
HETATM    4  C2  UNL     1     -34.642   5.522   6.496  1.00 20.00     0.226 C 
HETATM    5  F5  UNL     1     -34.200   4.239   6.383  1.00 20.00    -0.255 F 
ENDBRANCH   3   4
ENDBRANCH   1   3
BRANCH   1   6
HETATM    6  O4  UNL     1     -33.086   6.867   3.343  1.00 20.00    -0.380 OA
HETATM    7  H12 UNL     1     -33.272   6.629   2.419  1.00 20.00     0.211 HD
ENDBRANCH   1   6
TORSDOF 3
ENDMDL
MODEL 9
REMARK VINA RESULT:      -3.4      3.210      3.297
REMARK  3 active torsions:
REMARK  status: ('A' for Active; 'I' for Inactive)
REMARK    1  A    between atoms: C1_1  and  C2_2 
REMARK    2  A    between atoms: C1_1  and  C3_3 
REMARK    3  A    between atoms: C3_3  and  O4_4 
ROOT
HETATM    1  C3  UNL     1     -34.388   6.018   4.313  1.00 20.00     0.216 C 
HETATM    2 CL6  UNL     1     -35.148   4.448   4.656  1.00 20.00    -0.096 Cl
ENDROOT
BRANCH   1   3
HETATM    3  C1  UNL     1     -33.341   5.916   3.210  1.00 20.00     0.079 C 
BRANCH   3   4
HETATM    4  C2  UNL     1     -32.166   6.860   3.387  1.00 20.00     0.226 C 
HETATM    5  F5  UNL     1     -32.074   7.646   2.279  1.00 20.00    -0.255 F 
ENDBRANCH   3   4
ENDBRANCH   1   3
BRANCH   1   6
HETATM    6  O4  UNL     1     -33.757   6.479   5.501  1.00 20.00    -0.380 OA
HETATM    7  H12 UNL     1     -33.875   5.782   6.167  1.00 20.00     0.211 HD
ENDBRANCH   1   6
TORSDOF 3
ENDMDL
