MODEL 1
REMARK VINA RESULT:      -4.4      0.000      0.000
REMARK  0 active torsions:
REMARK  status: ('A' for Active; 'I' for Inactive)
ROOT
HETATM    1  C1  UNL     1     -33.743  17.367  -4.009  1.00 20.00     0.021 C 
HETATM    2  C2  UNL     1     -34.117  16.978  -5.237  1.00 20.00     0.001 C 
HETATM    3  C3  UNL     1     -34.095  15.168  -3.045  1.00 20.00     0.003 C 
HETATM    4  C4  UNL     1     -33.871  16.481  -2.878  1.00 20.00     0.030 C 
HETATM    5  C5  UNL     1     -34.230  14.558  -4.427  1.00 20.00     0.033 C 
HETATM    6  C6  UNL     1     -34.688  15.598  -5.510  1.00 20.00     0.058 C 
HETATM    7  C7  UNL     1     -35.084  13.284  -4.365  1.00 20.00     0.016 C 
HETATM    8  C8  UNL     1     -34.274  15.130  -6.913  1.00 20.00     0.037 C 
HETATM    9 CL9  UNL     1     -33.662  17.146  -1.299  1.00 20.00    -0.085 Cl
HETATM   10 CL10 UNL     1     -36.487  15.807  -5.509  1.00 20.00    -0.115 Cl
ENDROOT
TORSDOF 0
ENDMDL
MODEL 2
REMARK VINA RESULT:      -4.2      1.702      3.380
REMARK  0 active torsions:
REMARK  status: ('A' for Active; 'I' for Inactive)
ROOT
HETATM    1  C1  UNL     1     -34.379  15.487  -6.793  1.00 20.00     0.021 C 
HETATM    2  C2  UNL     1     -34.488  14.462  -5.933  1.00 20.00     0.001 C 
HETATM    3  C3  UNL     1     -33.708  17.055  -5.067  1.00 20.00     0.003 C 
HETATM    4  C4  UNL     1     -34.122  16.827  -6.323  1.00 20.00     0.030 C 
HETATM    5  C5  UNL     1     -33.498  15.920  -4.083  1.00 20.00     0.033 C 
HETATM    6  C6  UNL     1     -34.347  14.647  -4.433  1.00 20.00     0.058 C 
HETATM    7  C7  UNL     1     -33.669  16.424  -2.644  1.00 20.00     0.016 C 
HETATM    8  C8  UNL     1     -33.716  13.393  -3.811  1.00 20.00     0.037 C 
HETATM    9 CL9  UNL     1     -34.298  18.127  -7.444  1.00 20.00    -0.085 Cl
HETATM   10 CL10 UNL     1     -36.038  14.783  -3.799  1.00 20.00    -0.115 Cl
ENDROOT
TORSDOF 0
ENDMDL
MODEL 3
REMARK VINA RESULT:      -4.2      1.472      1.601
REMARK  0 active torsions:
REMARK  status: ('A' for Active; 'I' for Inactive)
ROOT
HETATM    1  C1  UNL     1     -33.444  16.115  -3.286  1.00 20.00     0.021 C 
HETATM    2  C2  UNL     1     -33.448  16.015  -4.624  1.00 20.00     0.001 C 
HETATM    3  C3  UNL     1     -35.787  15.514  -3.089  1.00 20.00     0.003 C 
HETATM    4  C4  UNL     1     -34.667  15.999  -2.529  1.00 20.00     0.030 C 
HETATM    5  C5  UNL     1     -35.821  15.075  -4.539  1.00 20.00     0.033 C 
HETATM    6  C6  UNL     1     -34.721  15.774  -5.414  1.00 20.00     0.058 C 
HETATM    7  C7  UNL     1     -37.247  15.189  -5.097  1.00 20.00     0.016 C 
HETATM    8  C8  UNL     1     -34.411  14.933  -6.660  1.00 20.00     0.037 C 
HETATM    9 CL9  UNL     1     -34.633  16.439  -0.861  1.00 20.00    -0.085 Cl
HETATM   10 CL10 UNL     1     -35.262  17.409  -5.976  1.00 20.00    -0.115 Cl
ENDROOT
TORSDOF 0
ENDMDL
MODEL 4
REMARK VINA RESULT:      -4.1      1.729      2.752
REMARK  0 active torsions:
REMARK  status: ('A' for Active; 'I' for Inactive)
ROOT
HETATM    1  C1  UNL     1     -34.505  16.705  -1.893  1.00 20.00     0.021 C 
HETATM    2  C2  UNL     1     -34.849  15.480  -2.320  1.00 20.00     0.001 C 
HETATM    3  C3  UNL     1     -33.930  17.479  -4.120  1.00 20.00     0.003 C 
HETATM    4  C4  UNL     1     -33.908  17.663  -2.791  1.00 20.00     0.030 C 
HETATM    5  C5  UNL     1     -34.577  16.254  -4.738  1.00 20.00     0.033 C 
HETATM    6  C6  UNL     1     -34.634  15.033  -3.754  1.00 20.00     0.058 C 
HETATM    7  C7  UNL     1     -33.940  15.946  -6.100  1.00 20.00     0.016 C 
HETATM    8  C8  UNL     1     -35.747  14.060  -4.169  1.00 20.00     0.037 C 
HETATM    9 CL9  UNL     1     -33.218  19.092  -2.110  1.00 20.00    -0.085 Cl
HETATM   10 CL10 UNL     1     -33.075  14.113  -3.749  1.00 20.00    -0.115 Cl
ENDROOT
TORSDOF 0
ENDMDL
MODEL 5
REMARK VINA RESULT:      -4.1     11.538     13.317
REMARK  0 active torsions:
REMARK  status: ('A' for Active; 'I' for Inactive)
ROOT
HETATM    1  C1  UNL     1     -41.841   7.493  -1.611  1.00 20.00     0.021 C 
HETATM    2  C2  UNL     1     -41.684   6.598  -0.623  1.00 20.00     0.001 C 
HETATM    3  C3  UNL     1     -42.961   5.906  -3.067  1.00 20.00     0.003 C 
HETATM    4  C4  UNL     1     -42.361   7.095  -2.897  1.00 20.00     0.030 C 
HETATM    5  C5  UNL     1     -43.113   4.925  -1.921  1.00 20.00     0.033 C 
HETATM    6  C6  UNL     1     -42.039   5.133  -0.795  1.00 20.00     0.058 C 
HETATM    7  C7  UNL     1     -43.205   3.490  -2.456  1.00 20.00     0.016 C 
HETATM    8  C8  UNL     1     -42.540   4.559   0.538  1.00 20.00     0.037 C 
HETATM    9 CL9  UNL     1     -42.250   8.221  -4.200  1.00 20.00    -0.085 Cl
HETATM   10 CL10 UNL     1     -40.483   4.300  -1.201  1.00 20.00    -0.115 Cl
ENDROOT
TORSDOF 0
ENDMDL
MODEL 6
REMARK VINA RESULT:      -4.1      1.625      2.188
REMARK  0 active torsions:
REMARK  status: ('A' for Active; 'I' for Inactive)
ROOT
HETATM    1  C1  UNL     1     -33.803  18.358  -1.781  1.00 20.00     0.021 C 
HETATM    2  C2  UNL     1     -33.707  18.268  -3.116  1.00 20.00     0.001 C 
HETATM    3  C3  UNL     1     -34.624  16.087  -1.539  1.00 20.00     0.003 C 
HETATM    4  C4  UNL     1     -34.402  17.299  -1.006  1.00 20.00     0.030 C 
HETATM    5  C5  UNL     1     -34.264  15.778  -2.980  1.00 20.00     0.033 C 
HETATM    6  C6  UNL     1     -34.215  17.061  -3.884  1.00 20.00     0.058 C 
HETATM    7  C7  UNL     1     -35.153  14.651  -3.521  1.00 20.00     0.016 C 
HETATM    8  C8  UNL     1     -33.331  16.816  -5.115  1.00 20.00     0.037 C 
HETATM    9 CL9  UNL     1     -34.765  17.613   0.652  1.00 20.00    -0.085 Cl
HETATM   10 CL10 UNL     1     -35.864  17.518  -4.474  1.00 20.00    -0.115 Cl
ENDROOT
TORSDOF 0
ENDMDL
MODEL 7
REMARK VINA RESULT:      -4.1     12.280     13.898
REMARK  0 active torsions:
REMARK  status: ('A' for Active; 'I' for Inactive)
ROOT
HETATM    1  C1  UNL     1     -41.503   3.680  -2.311  1.00 20.00     0.021 C 
HETATM    2  C2  UNL     1     -41.010   4.433  -1.316  1.00 20.00     0.001 C 
HETATM    3  C3  UNL     1     -43.102   5.372  -2.996  1.00 20.00     0.003 C 
HETATM    4  C4  UNL     1     -42.657   4.107  -3.064  1.00 20.00     0.030 C 
HETATM    5  C5  UNL     1     -42.419   6.406  -2.121  1.00 20.00     0.033 C 
HETATM    6  C6  UNL     1     -41.626   5.765  -0.928  1.00 20.00     0.058 C 
HETATM    7  C7  UNL     1     -43.416   7.498  -1.710  1.00 20.00     0.016 C 
HETATM    8  C8  UNL     1     -40.531   6.722  -0.436  1.00 20.00     0.037 C 
HETATM    9 CL9  UNL     1     -43.413   2.962  -4.110  1.00 20.00    -0.085 Cl
HETATM   10 CL10 UNL     1     -42.713   5.407   0.475  1.00 20.00    -0.115 Cl
ENDROOT
TORSDOF 0
ENDMDL
MODEL 8
REMARK VINA RESULT:      -4.0      1.718      2.070
REMARK  0 active torsions:
REMARK  status: ('A' for Active; 'I' for Inactive)
ROOT
HETATM    1  C1  UNL     1     -36.061  16.737  -3.012  1.00 20.00     0.021 C 
HETATM    2  C2  UNL     1     -35.964  16.046  -4.158  1.00 20.00     0.001 C 
HETATM    3  C3  UNL     1     -33.795  16.204  -2.328  1.00 20.00     0.003 C 
HETATM    4  C4  UNL     1     -35.008  16.694  -2.027  1.00 20.00     0.030 C 
HETATM    5  C5  UNL     1     -33.478  15.669  -3.711  1.00 20.00     0.033 C 
HETATM    6  C6  UNL     1     -34.756  15.189  -4.486  1.00 20.00     0.058 C 
HETATM    7  C7  UNL     1     -32.351  14.629  -3.634  1.00 20.00     0.016 C 
HETATM    8  C8  UNL     1     -34.502  15.202  -6.000  1.00 20.00     0.037 C 
HETATM    9 CL9  UNL     1     -35.331  17.352  -0.465  1.00 20.00    -0.085 Cl
HETATM   10 CL10 UNL     1     -35.217  13.500  -4.022  1.00 20.00    -0.115 Cl
ENDROOT
TORSDOF 0
ENDMDL
MODEL 9
REMARK VINA RESULT:      -4.0      1.730      3.456
REMARK  0 active torsions:
REMARK  status: ('A' for Active; 'I' for Inactive)
ROOT
HETATM    1  C1  UNL     1     -33.887  17.651  -5.279  1.00 20.00     0.021 C 
HETATM    2  C2  UNL     1     -33.668  17.267  -4.012  1.00 20.00     0.001 C 
HETATM    3  C3  UNL     1     -35.190  15.673  -5.807  1.00 20.00     0.003 C 
HETATM    4  C4  UNL     1     -34.537  16.771  -6.220  1.00 20.00     0.030 C 
HETATM    5  C5  UNL     1     -35.267  15.303  -4.339  1.00 20.00     0.033 C 
HETATM    6  C6  UNL     1     -34.087  15.903  -3.496  1.00 20.00     0.058 C 
HETATM    7  C7  UNL     1     -35.458  13.788  -4.180  1.00 20.00     0.016 C 
HETATM    8  C8  UNL     1     -34.481  16.004  -2.015  1.00 20.00     0.037 C 
HETATM    9 CL9  UNL     1     -34.510  17.206  -7.890  1.00 20.00    -0.085 Cl
HETATM   10 CL10 UNL     1     -32.605  14.868  -3.600  1.00 20.00    -0.115 Cl
ENDROOT
TORSDOF 0
ENDMDL
