MODEL 1
REMARK VINA RESULT:      -3.9      0.000      0.000
REMARK  0 active torsions:
REMARK  status: ('A' for Active; 'I' for Inactive)
ROOT
HETATM    1  C1  UNL     1     -35.033   4.330   6.154  1.00 20.00     0.035 C 
HETATM    2  C2  UNL     1     -34.473   4.161   4.731  1.00 20.00     0.014 C 
HETATM    3  C3  UNL     1     -34.674   5.732   6.537  1.00 20.00     0.152 A 
HETATM    4  C4  UNL     1     -34.346   6.499   5.307  1.00 20.00     0.158 A 
HETATM    5  C5  UNL     1     -34.501   5.584   4.110  1.00 20.00    -0.019 C 
HETATM    6  C6  UNL     1     -35.849   5.846   3.423  1.00 20.00     0.017 C 
HETATM    7  C7  UNL     1     -33.362   5.780   3.110  1.00 20.00     0.017 C 
HETATM    8  O8  UNL     1     -33.331   6.140   6.256  1.00 20.00    -0.375 OA
ENDROOT
TORSDOF 0
ENDMDL
MODEL 2
REMARK VINA RESULT:      -3.9     11.943     13.120
REMARK  0 active torsions:
REMARK  status: ('A' for Active; 'I' for Inactive)
ROOT
HETATM    1  C1  UNL     1     -34.589  14.352  -5.837  1.00 20.00     0.035 C 
HETATM    2  C2  UNL     1     -34.264  15.621  -5.030  1.00 20.00     0.014 C 
HETATM    3  C3  UNL     1     -34.482  13.236  -4.845  1.00 20.00     0.152 A 
HETATM    4  C4  UNL     1     -34.551  13.803  -3.473  1.00 20.00     0.158 A 
HETATM    5  C5  UNL     1     -34.710  15.305  -3.576  1.00 20.00    -0.019 C 
HETATM    6  C6  UNL     1     -36.182  15.690  -3.368  1.00 20.00     0.017 C 
HETATM    7  C7  UNL     1     -33.834  16.029  -2.554  1.00 20.00     0.017 C 
HETATM    8  O8  UNL     1     -33.331  13.254  -3.994  1.00 20.00    -0.375 OA
ENDROOT
TORSDOF 0
ENDMDL
MODEL 3
REMARK VINA RESULT:      -3.8      1.348      2.878
REMARK  0 active torsions:
REMARK  status: ('A' for Active; 'I' for Inactive)
ROOT
HETATM    1  C1  UNL     1     -34.812   5.478   2.808  1.00 20.00     0.035 C 
HETATM    2  C2  UNL     1     -35.398   5.830   4.186  1.00 20.00     0.014 C 
HETATM    3  C3  UNL     1     -33.341   5.715   2.950  1.00 20.00     0.152 A 
HETATM    4  C4  UNL     1     -32.997   5.753   4.396  1.00 20.00     0.158 A 
HETATM    5  C5  UNL     1     -34.260   5.530   5.200  1.00 20.00    -0.019 C 
HETATM    6  C6  UNL     1     -34.329   4.071   5.673  1.00 20.00     0.017 C 
HETATM    7  C7  UNL     1     -34.324   6.469   6.405  1.00 20.00     0.017 C 
HETATM    8  O8  UNL     1     -32.957   6.938   3.587  1.00 20.00    -0.375 OA
ENDROOT
TORSDOF 0
ENDMDL
MODEL 4
REMARK VINA RESULT:      -3.8     12.270     13.499
REMARK  0 active torsions:
REMARK  status: ('A' for Active; 'I' for Inactive)
ROOT
HETATM    1  C1  UNL     1     -34.323  14.872  -3.172  1.00 20.00     0.035 C 
HETATM    2  C2  UNL     1     -35.368  15.543  -4.081  1.00 20.00     0.014 C 
HETATM    3  C3  UNL     1     -34.023  13.566  -3.840  1.00 20.00     0.152 A 
HETATM    4  C4  UNL     1     -34.479  13.633  -5.253  1.00 20.00     0.158 A 
HETATM    5  C5  UNL     1     -35.075  15.001  -5.507  1.00 20.00    -0.019 C 
HETATM    6  C6  UNL     1     -34.050  15.893  -6.222  1.00 20.00     0.017 C 
HETATM    7  C7  UNL     1     -36.352  14.905  -6.341  1.00 20.00     0.017 C 
HETATM    8  O8  UNL     1     -35.154  12.812  -4.289  1.00 20.00    -0.375 OA
ENDROOT
TORSDOF 0
ENDMDL
MODEL 5
REMARK VINA RESULT:      -3.8     12.066     13.028
REMARK  0 active torsions:
REMARK  status: ('A' for Active; 'I' for Inactive)
ROOT
HETATM    1  C1  UNL     1     -34.808  13.324  -4.515  1.00 20.00     0.035 C 
HETATM    2  C2  UNL     1     -34.061  13.953  -3.325  1.00 20.00     0.014 C 
HETATM    3  C3  UNL     1     -36.031  14.170  -4.684  1.00 20.00     0.152 A 
HETATM    4  C4  UNL     1     -35.822  15.464  -3.981  1.00 20.00     0.158 A 
HETATM    5  C5  UNL     1     -34.444  15.458  -3.354  1.00 20.00    -0.019 C 
HETATM    6  C6  UNL     1     -33.466  16.247  -4.236  1.00 20.00     0.017 C 
HETATM    7  C7  UNL     1     -34.472  16.054  -1.947  1.00 20.00     0.017 C 
HETATM    8  O8  UNL     1     -36.751  14.486  -3.487  1.00 20.00    -0.375 OA
ENDROOT
TORSDOF 0
ENDMDL
MODEL 6
REMARK VINA RESULT:      -3.7      8.585      9.851
REMARK  0 active torsions:
REMARK  status: ('A' for Active; 'I' for Inactive)
ROOT
HETATM    1  C1  UNL     1     -40.665   6.174  -0.152  1.00 20.00     0.035 C 
HETATM    2  C2  UNL     1     -40.640   4.750  -0.735  1.00 20.00     0.014 C 
HETATM    3  C3  UNL     1     -41.580   6.938  -1.058  1.00 20.00     0.152 A 
HETATM    4  C4  UNL     1     -42.402   5.974  -1.835  1.00 20.00     0.158 A 
HETATM    5  C5  UNL     1     -42.020   4.568  -1.422  1.00 20.00    -0.019 C 
HETATM    6  C6  UNL     1     -43.050   4.017  -0.426  1.00 20.00     0.017 C 
HETATM    7  C7  UNL     1     -41.923   3.641  -2.634  1.00 20.00     0.017 C 
HETATM    8  O8  UNL     1     -41.375   6.755  -2.463  1.00 20.00    -0.375 OA
ENDROOT
TORSDOF 0
ENDMDL
MODEL 7
REMARK VINA RESULT:      -3.7     12.589     13.749
REMARK  0 active torsions:
REMARK  status: ('A' for Active; 'I' for Inactive)
ROOT
HETATM    1  C1  UNL     1     -33.917  17.419  -2.879  1.00 20.00     0.035 C 
HETATM    2  C2  UNL     1     -34.027  15.964  -2.390  1.00 20.00     0.014 C 
HETATM    3  C3  UNL     1     -33.740  17.307  -4.362  1.00 20.00     0.152 A 
HETATM    4  C4  UNL     1     -34.171  15.953  -4.797  1.00 20.00     0.158 A 
HETATM    5  C5  UNL     1     -34.639  15.179  -3.583  1.00 20.00    -0.019 C 
HETATM    6  C6  UNL     1     -36.172  15.197  -3.510  1.00 20.00     0.017 C 
HETATM    7  C7  UNL     1     -34.138  13.735  -3.617  1.00 20.00     0.017 C 
HETATM    8  O8  UNL     1     -32.788  16.338  -4.813  1.00 20.00    -0.375 OA
ENDROOT
TORSDOF 0
ENDMDL
MODEL 8
REMARK VINA RESULT:      -3.6     12.697     13.816
REMARK  0 active torsions:
REMARK  status: ('A' for Active; 'I' for Inactive)
ROOT
HETATM    1  C1  UNL     1     -34.012  14.128  -3.491  1.00 20.00     0.035 C 
HETATM    2  C2  UNL     1     -34.289  13.707  -4.944  1.00 20.00     0.014 C 
HETATM    3  C3  UNL     1     -33.650  15.578  -3.579  1.00 20.00     0.152 A 
HETATM    4  C4  UNL     1     -34.116  16.111  -4.886  1.00 20.00     0.158 A 
HETATM    5  C5  UNL     1     -34.794  14.995  -5.651  1.00 20.00    -0.019 C 
HETATM    6  C6  UNL     1     -36.318  15.121  -5.519  1.00 20.00     0.017 C 
HETATM    7  C7  UNL     1     -34.398  15.014  -7.127  1.00 20.00     0.017 C 
HETATM    8  O8  UNL     1     -32.719  15.935  -4.606  1.00 20.00    -0.375 OA
ENDROOT
TORSDOF 0
ENDMDL
MODEL 9
REMARK VINA RESULT:      -3.6     12.535     13.556
REMARK  0 active torsions:
REMARK  status: ('A' for Active; 'I' for Inactive)
ROOT
HETATM    1  C1  UNL     1     -34.876  13.507  -5.397  1.00 20.00     0.035 C 
HETATM    2  C2  UNL     1     -34.818  13.711  -3.874  1.00 20.00     0.014 C 
HETATM    3  C3  UNL     1     -34.819  14.890  -5.967  1.00 20.00     0.152 A 
HETATM    4  C4  UNL     1     -34.303  15.818  -4.926  1.00 20.00     0.158 A 
HETATM    5  C5  UNL     1     -34.016  15.025  -3.669  1.00 20.00    -0.019 C 
HETATM    6  C6  UNL     1     -32.512  14.729  -3.570  1.00 20.00     0.017 C 
HETATM    7  C7  UNL     1     -34.480  15.775  -2.421  1.00 20.00     0.017 C 
HETATM    8  O8  UNL     1     -35.673  15.861  -5.353  1.00 20.00    -0.375 OA
ENDROOT
TORSDOF 0
ENDMDL
