MODEL 1
REMARK VINA RESULT:      -4.9      0.000      0.000
REMARK  2 active torsions:
REMARK  status: ('A' for Active; 'I' for Inactive)
REMARK    1  A    between atoms: C3_3  and  C9_9 
REMARK    2  A    between atoms: C7_7  and  C9_9 
ROOT
HETATM    1  C4  UNL     1     -35.271  17.368   0.227  1.00 20.00     0.006 C 
HETATM    2  C5  UNL     1     -34.187  18.093   1.012  1.00 20.00     0.020 C 
HETATM    3  C6  UNL     1     -33.273  17.638  -1.167  1.00 20.00     0.025 C 
HETATM    4  C7  UNL     1     -34.524  16.763  -0.968  1.00 20.00    -0.007 C 
HETATM    5  C8  UNL     1     -33.364  18.726  -0.098  1.00 20.00     0.082 C 
HETATM    6 CL12 UNL     1     -31.774  19.262   0.465  1.00 20.00    -0.125 Cl
ENDROOT
BRANCH   4   7
HETATM    7  C9  UNL     1     -35.393  16.677  -2.213  1.00 20.00     0.071 C 
BRANCH   7   8
HETATM    8  C3  UNL     1     -35.100  15.437  -3.016  1.00 20.00     0.074 A 
HETATM    9  N10 UNL     1     -33.918  14.868  -3.100  1.00 20.00    -0.258 NA
HETATM   10  C1  UNL     1     -34.014  13.757  -3.916  1.00 20.00     0.124 A 
HETATM   11  C2  UNL     1     -35.264  13.499  -4.438  1.00 20.00     0.070 A 
HETATM   12  S11 UNL     1     -36.373  14.688  -3.891  1.00 20.00    -0.085 SA
ENDBRANCH   7   8
ENDBRANCH   4   7
TORSDOF 2
ENDMDL
MODEL 2
REMARK VINA RESULT:      -4.6      1.081      1.198
REMARK  2 active torsions:
REMARK  status: ('A' for Active; 'I' for Inactive)
REMARK    1  A    between atoms: C3_3  and  C9_9 
REMARK    2  A    between atoms: C7_7  and  C9_9 
ROOT
HETATM    1  C4  UNL     1     -35.254  17.398   0.052  1.00 20.00     0.006 C 
HETATM    2  C5  UNL     1     -34.241  18.072   0.967  1.00 20.00     0.020 C 
HETATM    3  C6  UNL     1     -33.145  17.742  -1.150  1.00 20.00     0.025 C 
HETATM    4  C7  UNL     1     -34.407  16.861  -1.109  1.00 20.00    -0.007 C 
HETATM    5  C8  UNL     1     -33.328  18.766  -0.031  1.00 20.00     0.082 C 
HETATM    6 CL12 UNL     1     -31.792  19.263   0.695  1.00 20.00    -0.125 Cl
ENDROOT
BRANCH   4   7
HETATM    7  C9  UNL     1     -35.168  16.852  -2.426  1.00 20.00     0.071 C 
BRANCH   7   8
HETATM    8  C3  UNL     1     -34.973  15.560  -3.176  1.00 20.00     0.074 A 
HETATM    9  N10 UNL     1     -35.940  14.718  -3.470  1.00 20.00    -0.258 NA
HETATM   10  C1  UNL     1     -35.404  13.646  -4.159  1.00 20.00     0.124 A 
HETATM   11  C2  UNL     1     -34.043  13.691  -4.377  1.00 20.00     0.070 A 
HETATM   12  S11 UNL     1     -33.397  15.127  -3.698  1.00 20.00    -0.085 SA
ENDBRANCH   7   8
ENDBRANCH   4   7
TORSDOF 2
ENDMDL
MODEL 3
REMARK VINA RESULT:      -4.6      3.526      5.707
REMARK  2 active torsions:
REMARK  status: ('A' for Active; 'I' for Inactive)
REMARK    1  A    between atoms: C3_3  and  C9_9 
REMARK    2  A    between atoms: C7_7  and  C9_9 
ROOT
HETATM    1  C4  UNL     1     -34.195  13.765  -3.596  1.00 20.00     0.006 C 
HETATM    2  C5  UNL     1     -34.850  13.264  -4.876  1.00 20.00     0.020 C 
HETATM    3  C6  UNL     1     -34.768  15.663  -5.037  1.00 20.00     0.025 C 
HETATM    4  C7  UNL     1     -34.526  15.262  -3.570  1.00 20.00    -0.007 C 
HETATM    5  C8  UNL     1     -34.540  14.389  -5.849  1.00 20.00     0.082 C 
HETATM    6 CL12 UNL     1     -35.549  14.318  -7.302  1.00 20.00    -0.125 Cl
ENDROOT
BRANCH   4   7
HETATM    7  C9  UNL     1     -33.436  16.086  -2.901  1.00 20.00     0.071 C 
BRANCH   7   8
HETATM    8  C3  UNL     1     -33.978  16.914  -1.765  1.00 20.00     0.074 A 
HETATM    9  N10 UNL     1     -34.677  16.431  -0.762  1.00 20.00    -0.258 NA
HETATM   10  C1  UNL     1     -35.007  17.467   0.091  1.00 20.00     0.124 A 
HETATM   11  C2  UNL     1     -34.556  18.717  -0.277  1.00 20.00     0.070 A 
HETATM   12  S11 UNL     1     -33.680  18.604  -1.746  1.00 20.00    -0.085 SA
ENDBRANCH   7   8
ENDBRANCH   4   7
TORSDOF 2
ENDMDL
MODEL 4
REMARK VINA RESULT:      -4.6      1.806      2.232
REMARK  2 active torsions:
REMARK  status: ('A' for Active; 'I' for Inactive)
REMARK    1  A    between atoms: C3_3  and  C9_9 
REMARK    2  A    between atoms: C7_7  and  C9_9 
ROOT
HETATM    1  C4  UNL     1     -33.653  18.246  -2.210  1.00 20.00     0.006 C 
HETATM    2  C5  UNL     1     -34.348  18.786  -0.968  1.00 20.00     0.020 C 
HETATM    3  C6  UNL     1     -34.719  16.408  -0.987  1.00 20.00     0.025 C 
HETATM    4  C7  UNL     1     -34.244  16.841  -2.386  1.00 20.00    -0.007 C 
HETATM    5  C8  UNL     1     -34.360  17.568  -0.059  1.00 20.00     0.082 C 
HETATM    6 CL12 UNL     1     -35.498  17.742   1.285  1.00 20.00    -0.125 Cl
ENDROOT
BRANCH   4   7
HETATM    7  C9  UNL     1     -33.250  15.868  -3.004  1.00 20.00     0.071 C 
BRANCH   7   8
HETATM    8  C3  UNL     1     -33.918  14.927  -3.972  1.00 20.00     0.074 A 
HETATM    9  N10 UNL     1     -34.068  13.636  -3.771  1.00 20.00    -0.258 NA
HETATM   10  C1  UNL     1     -34.720  13.087  -4.859  1.00 20.00     0.124 A 
HETATM   11  C2  UNL     1     -35.054  13.967  -5.867  1.00 20.00     0.070 A 
HETATM   12  S11 UNL     1     -34.538  15.548  -5.447  1.00 20.00    -0.085 SA
ENDBRANCH   7   8
ENDBRANCH   4   7
TORSDOF 2
ENDMDL
MODEL 5
REMARK VINA RESULT:      -4.4      2.223      2.622
REMARK  2 active torsions:
REMARK  status: ('A' for Active; 'I' for Inactive)
REMARK    1  A    between atoms: C3_3  and  C9_9 
REMARK    2  A    between atoms: C7_7  and  C9_9 
ROOT
HETATM    1  C4  UNL     1     -33.666  18.123  -2.518  1.00 20.00     0.006 C 
HETATM    2  C5  UNL     1     -34.236  18.669  -1.216  1.00 20.00     0.020 C 
HETATM    3  C6  UNL     1     -34.679  16.304  -1.224  1.00 20.00     0.025 C 
HETATM    4  C7  UNL     1     -34.312  16.738  -2.654  1.00 20.00    -0.007 C 
HETATM    5  C8  UNL     1     -34.206  17.442  -0.320  1.00 20.00     0.082 C 
HETATM    6 CL12 UNL     1     -35.220  17.634   1.119  1.00 20.00    -0.125 Cl
ENDROOT
BRANCH   4   7
HETATM    7  C9  UNL     1     -33.406  15.743  -3.364  1.00 20.00     0.071 C 
BRANCH   7   8
HETATM    8  C3  UNL     1     -33.899  15.427  -4.751  1.00 20.00     0.074 A 
HETATM    9  N10 UNL     1     -33.726  16.206  -5.797  1.00 20.00    -0.258 NA
HETATM   10  C1  UNL     1     -34.305  15.607  -6.900  1.00 20.00     0.124 A 
HETATM   11  C2  UNL     1     -34.906  14.386  -6.676  1.00 20.00     0.070 A 
HETATM   12  S11 UNL     1     -34.747  13.960  -5.023  1.00 20.00    -0.085 SA
ENDBRANCH   7   8
ENDBRANCH   4   7
TORSDOF 2
ENDMDL
MODEL 6
REMARK VINA RESULT:      -4.4      1.765      2.147
REMARK  2 active torsions:
REMARK  status: ('A' for Active; 'I' for Inactive)
REMARK    1  A    between atoms: C3_3  and  C9_9 
REMARK    2  A    between atoms: C7_7  and  C9_9 
ROOT
HETATM    1  C4  UNL     1     -35.865  17.428  -2.351  1.00 20.00     0.006 C 
HETATM    2  C5  UNL     1     -36.378  18.203  -1.145  1.00 20.00     0.020 C 
HETATM    3  C6  UNL     1     -34.417  17.013  -0.416  1.00 20.00     0.025 C 
HETATM    4  C7  UNL     1     -34.892  16.406  -1.750  1.00 20.00    -0.007 C 
HETATM    5  C8  UNL     1     -35.115  18.369  -0.316  1.00 20.00     0.082 C 
HETATM    6 CL12 UNL     1     -35.462  18.834   1.356  1.00 20.00    -0.125 Cl
ENDROOT
BRANCH   4   7
HETATM    7  C9  UNL     1     -33.745  16.074  -2.693  1.00 20.00     0.071 C 
BRANCH   7   8
HETATM    8  C3  UNL     1     -34.168  15.110  -3.770  1.00 20.00     0.074 A 
HETATM    9  N10 UNL     1     -34.423  13.836  -3.569  1.00 20.00    -0.258 NA
HETATM   10  C1  UNL     1     -34.781  13.257  -4.772  1.00 20.00     0.124 A 
HETATM   11  C2  UNL     1     -34.792  14.098  -5.865  1.00 20.00     0.070 A 
HETATM   12  S11 UNL     1     -34.339  15.679  -5.380  1.00 20.00    -0.085 SA
ENDBRANCH   7   8
ENDBRANCH   4   7
TORSDOF 2
ENDMDL
MODEL 7
REMARK VINA RESULT:      -4.3      2.202      2.612
REMARK  2 active torsions:
REMARK  status: ('A' for Active; 'I' for Inactive)
REMARK    1  A    between atoms: C3_3  and  C9_9 
REMARK    2  A    between atoms: C7_7  and  C9_9 
ROOT
HETATM    1  C4  UNL     1     -33.140  18.178  -0.148  1.00 20.00     0.006 C 
HETATM    2  C5  UNL     1     -33.322  18.970   1.139  1.00 20.00     0.020 C 
HETATM    3  C6  UNL     1     -35.359  17.734   0.797  1.00 20.00     0.025 C 
HETATM    4  C7  UNL     1     -34.563  17.743  -0.522  1.00 20.00    -0.007 C 
HETATM    5  C8  UNL     1     -34.357  18.138   1.878  1.00 20.00     0.082 C 
HETATM    6 CL12 UNL     1     -35.113  19.028   3.208  1.00 20.00    -0.125 Cl
ENDROOT
BRANCH   4   7
HETATM    7  C9  UNL     1     -34.590  16.402  -1.240  1.00 20.00     0.071 C 
BRANCH   7   8
HETATM    8  C3  UNL     1     -34.109  16.520  -2.663  1.00 20.00     0.074 A 
HETATM    9  N10 UNL     1     -33.315  15.654  -3.254  1.00 20.00    -0.258 NA
HETATM   10  C1  UNL     1     -33.080  16.075  -4.549  1.00 20.00     0.124 A 
HETATM   11  C2  UNL     1     -33.697  17.251  -4.921  1.00 20.00     0.070 A 
HETATM   12  S11 UNL     1     -34.611  17.863  -3.606  1.00 20.00    -0.085 SA
ENDBRANCH   7   8
ENDBRANCH   4   7
TORSDOF 2
ENDMDL
MODEL 8
REMARK VINA RESULT:      -4.2      3.553      5.591
REMARK  2 active torsions:
REMARK  status: ('A' for Active; 'I' for Inactive)
REMARK    1  A    between atoms: C3_3  and  C9_9 
REMARK    2  A    between atoms: C7_7  and  C9_9 
ROOT
HETATM    1  C4  UNL     1     -33.333  15.752  -3.014  1.00 20.00     0.006 C 
HETATM    2  C5  UNL     1     -34.330  14.713  -3.509  1.00 20.00     0.020 C 
HETATM    3  C6  UNL     1     -35.615  16.457  -2.462  1.00 20.00     0.025 C 
HETATM    4  C7  UNL     1     -34.144  16.608  -2.033  1.00 20.00    -0.007 C 
HETATM    5  C8  UNL     1     -35.589  15.544  -3.687  1.00 20.00     0.082 C 
HETATM    6 CL12 UNL     1     -37.043  14.542  -3.820  1.00 20.00    -0.125 Cl
ENDROOT
BRANCH   4   7
HETATM    7  C9  UNL     1     -33.679  18.056  -2.005  1.00 20.00     0.071 C 
BRANCH   7   8
HETATM    8  C3  UNL     1     -33.195  18.462  -0.637  1.00 20.00     0.074 A 
HETATM    9  N10 UNL     1     -32.034  19.029  -0.398  1.00 20.00    -0.258 NA
HETATM   10  C1  UNL     1     -31.922  19.263   0.960  1.00 20.00     0.124 A 
HETATM   11  C2  UNL     1     -32.998  18.870   1.728  1.00 20.00     0.070 A 
HETATM   12  S11 UNL     1     -34.204  18.181   0.723  1.00 20.00    -0.085 SA
ENDBRANCH   7   8
ENDBRANCH   4   7
TORSDOF 2
ENDMDL
MODEL 9
REMARK VINA RESULT:      -4.2      4.065      6.083
REMARK  2 active torsions:
REMARK  status: ('A' for Active; 'I' for Inactive)
REMARK    1  A    between atoms: C3_3  and  C9_9 
REMARK    2  A    between atoms: C7_7  and  C9_9 
ROOT
HETATM    1  C4  UNL     1     -33.636  18.626  -1.782  1.00 20.00     0.006 C 
HETATM    2  C5  UNL     1     -33.884  17.597  -2.876  1.00 20.00     0.020 C 
HETATM    3  C6  UNL     1     -34.604  16.594  -0.811  1.00 20.00     0.025 C 
HETATM    4  C7  UNL     1     -33.728  17.817  -0.482  1.00 20.00    -0.007 C 
HETATM    5  C8  UNL     1     -35.003  16.762  -2.277  1.00 20.00     0.082 C 
HETATM    6 CL12 UNL     1     -35.206  15.213  -3.108  1.00 20.00    -0.125 Cl
ENDROOT
BRANCH   4   7
HETATM    7  C9  UNL     1     -34.269  18.640   0.677  1.00 20.00     0.071 C 
BRANCH   7   8
HETATM    8  C3  UNL     1     -33.288  18.711   1.818  1.00 20.00     0.074 A 
HETATM    9  N10 UNL     1     -33.571  18.393   3.062  1.00 20.00    -0.258 NA
HETATM   10  C1  UNL     1     -32.442  18.576   3.838  1.00 20.00     0.124 A 
HETATM   11  C2  UNL     1     -31.322  19.028   3.173  1.00 20.00     0.070 A 
HETATM   12  S11 UNL     1     -31.684  19.236   1.510  1.00 20.00    -0.085 SA
ENDBRANCH   7   8
ENDBRANCH   4   7
TORSDOF 2
ENDMDL
