MODEL 1
REMARK VINA RESULT:      -4.6      0.000      0.000
REMARK  2 active torsions:
REMARK  status: ('A' for Active; 'I' for Inactive)
REMARK    1  A    between atoms: C1_1  and  C5_5 
REMARK    2  A    between atoms: C1_1  and  C10_10 
ROOT
HETATM    1  C2  UNL     1     -34.777  13.498  -5.217  1.00 20.00     0.002 C 
HETATM    2  C3  UNL     1     -34.416  13.622  -3.735  1.00 20.00     0.013 C 
HETATM    3  C4  UNL     1     -35.463  14.805  -5.607  1.00 20.00     0.010 C 
HETATM    4  C5  UNL     1     -34.919  14.996  -3.278  1.00 20.00     0.063 C 
HETATM    5  C6  UNL     1     -36.019  15.373  -4.293  1.00 20.00    -0.037 C 
HETATM    6  C7  UNL     1     -36.286  16.879  -4.402  1.00 20.00     0.015 C 
HETATM    7  C8  UNL     1     -37.345  14.677  -3.922  1.00 20.00     0.015 C 
ENDROOT
BRANCH   4   8
HETATM    8  C1  UNL     1     -33.769  15.964  -3.261  1.00 20.00     0.131 C 
HETATM    9  O11 UNL     1     -32.939  15.980  -4.168  1.00 20.00    -0.298 OA
BRANCH   8  10
HETATM   10  C10 UNL     1     -33.704  16.903  -2.069  1.00 20.00     0.074 C 
HETATM   11  C9  UNL     1     -34.678  16.522  -0.970  1.00 20.00     0.013 C 
ENDBRANCH   8  10
ENDBRANCH   4   8
TORSDOF 2
ENDMDL
MODEL 2
REMARK VINA RESULT:      -4.4      1.734      3.271
REMARK  2 active torsions:
REMARK  status: ('A' for Active; 'I' for Inactive)
REMARK    1  A    between atoms: C1_1  and  C5_5 
REMARK    2  A    between atoms: C1_1  and  C10_10 
ROOT
HETATM    1  C2  UNL     1     -34.556  13.255  -4.932  1.00 20.00     0.002 C 
HETATM    2  C3  UNL     1     -35.428  14.318  -5.606  1.00 20.00     0.013 C 
HETATM    3  C4  UNL     1     -34.288  13.749  -3.513  1.00 20.00     0.010 C 
HETATM    4  C5  UNL     1     -35.636  15.429  -4.571  1.00 20.00     0.063 C 
HETATM    5  C6  UNL     1     -34.462  15.275  -3.581  1.00 20.00    -0.037 C 
HETATM    6  C7  UNL     1     -34.727  15.870  -2.194  1.00 20.00     0.015 C 
HETATM    7  C8  UNL     1     -33.193  15.938  -4.154  1.00 20.00     0.015 C 
ENDROOT
BRANCH   4   8
HETATM    8  C1  UNL     1     -36.984  15.260  -3.926  1.00 20.00     0.131 C 
HETATM    9  O11 UNL     1     -37.450  14.141  -3.715  1.00 20.00    -0.298 OA
BRANCH   8  10
HETATM   10  C10 UNL     1     -37.715  16.539  -3.561  1.00 20.00     0.074 C 
HETATM   11  C9  UNL     1     -37.227  17.738  -4.353  1.00 20.00     0.013 C 
ENDBRANCH   8  10
ENDBRANCH   4   8
TORSDOF 2
ENDMDL
MODEL 3
REMARK VINA RESULT:      -4.3      1.489      3.747
REMARK  2 active torsions:
REMARK  status: ('A' for Active; 'I' for Inactive)
REMARK    1  A    between atoms: C1_1  and  C5_5 
REMARK    2  A    between atoms: C1_1  and  C10_10 
ROOT
HETATM    1  C2  UNL     1     -36.303  16.975  -4.145  1.00 20.00     0.002 C 
HETATM    2  C3  UNL     1     -36.808  15.580  -3.770  1.00 20.00     0.013 C 
HETATM    3  C4  UNL     1     -34.779  16.896  -4.155  1.00 20.00     0.010 C 
HETATM    4  C5  UNL     1     -35.564  14.713  -3.546  1.00 20.00     0.063 C 
HETATM    5  C6  UNL     1     -34.432  15.715  -3.235  1.00 20.00    -0.037 C 
HETATM    6  C7  UNL     1     -33.024  15.180  -3.516  1.00 20.00     0.015 C 
HETATM    7  C8  UNL     1     -34.495  16.147  -1.756  1.00 20.00     0.015 C 
ENDROOT
BRANCH   4   8
HETATM    8  C1  UNL     1     -35.307  13.887  -4.775  1.00 20.00     0.131 C 
HETATM    9  O11 UNL     1     -34.799  12.770  -4.694  1.00 20.00    -0.298 OA
BRANCH   8  10
HETATM   10  C10 UNL     1     -35.710  14.514  -6.098  1.00 20.00     0.074 C 
HETATM   11  C9  UNL     1     -34.527  14.742  -7.020  1.00 20.00     0.013 C 
ENDBRANCH   8  10
ENDBRANCH   4   8
TORSDOF 2
ENDMDL
MODEL 4
REMARK VINA RESULT:      -4.3      1.378      1.957
REMARK  2 active torsions:
REMARK  status: ('A' for Active; 'I' for Inactive)
REMARK    1  A    between atoms: C1_1  and  C5_5 
REMARK    2  A    between atoms: C1_1  and  C10_10 
ROOT
HETATM    1  C2  UNL     1     -33.595  15.841  -5.416  1.00 20.00     0.002 C 
HETATM    2  C3  UNL     1     -33.013  15.667  -4.011  1.00 20.00     0.013 C 
HETATM    3  C4  UNL     1     -35.106  15.680  -5.283  1.00 20.00     0.010 C 
HETATM    4  C5  UNL     1     -34.199  15.384  -3.082  1.00 20.00     0.063 C 
HETATM    5  C6  UNL     1     -35.310  14.846  -4.009  1.00 20.00    -0.037 C 
HETATM    6  C7  UNL     1     -36.728  15.011  -3.452  1.00 20.00     0.015 C 
HETATM    7  C8  UNL     1     -35.080  13.349  -4.300  1.00 20.00     0.015 C 
ENDROOT
BRANCH   4   8
HETATM    8  C1  UNL     1     -34.582  16.650  -2.368  1.00 20.00     0.131 C 
HETATM    9  O11 UNL     1     -34.798  17.689  -2.990  1.00 20.00    -0.298 OA
BRANCH   8  10
HETATM   10  C10 UNL     1     -34.681  16.560  -0.855  1.00 20.00     0.074 C 
HETATM   11  C9  UNL     1     -34.086  17.769  -0.158  1.00 20.00     0.013 C 
ENDBRANCH   8  10
ENDBRANCH   4   8
TORSDOF 2
ENDMDL
MODEL 5
REMARK VINA RESULT:      -4.2      1.850      2.711
REMARK  2 active torsions:
REMARK  status: ('A' for Active; 'I' for Inactive)
REMARK    1  A    between atoms: C1_1  and  C5_5 
REMARK    2  A    between atoms: C1_1  and  C10_10 
ROOT
HETATM    1  C2  UNL     1     -33.699  13.872  -3.559  1.00 20.00     0.002 C 
HETATM    2  C3  UNL     1     -32.733  15.031  -3.817  1.00 20.00     0.013 C 
HETATM    3  C4  UNL     1     -35.104  14.468  -3.565  1.00 20.00     0.010 C 
HETATM    4  C5  UNL     1     -33.594  16.292  -3.948  1.00 20.00     0.063 C 
HETATM    5  C6  UNL     1     -34.910  15.952  -3.218  1.00 20.00    -0.037 C 
HETATM    6  C7  UNL     1     -36.112  16.793  -3.664  1.00 20.00     0.015 C 
HETATM    7  C8  UNL     1     -34.736  16.133  -1.696  1.00 20.00     0.015 C 
ENDROOT
BRANCH   4   8
HETATM    8  C1  UNL     1     -33.786  16.613  -5.404  1.00 20.00     0.131 C 
HETATM    9  O11 UNL     1     -34.041  15.728  -6.220  1.00 20.00    -0.298 OA
BRANCH   8  10
HETATM   10  C10 UNL     1     -33.647  18.074  -5.791  1.00 20.00     0.074 C 
HETATM   11  C9  UNL     1     -33.405  18.975  -4.595  1.00 20.00     0.013 C 
ENDBRANCH   8  10
ENDBRANCH   4   8
TORSDOF 2
ENDMDL
MODEL 6
REMARK VINA RESULT:      -4.1      1.160      2.544
REMARK  2 active torsions:
REMARK  status: ('A' for Active; 'I' for Inactive)
REMARK    1  A    between atoms: C1_1  and  C5_5 
REMARK    2  A    between atoms: C1_1  and  C10_10 
ROOT
HETATM    1  C2  UNL     1     -36.144  16.763  -5.184  1.00 20.00     0.002 C 
HETATM    2  C3  UNL     1     -34.660  17.067  -5.403  1.00 20.00     0.013 C 
HETATM    3  C4  UNL     1     -36.240  15.272  -4.877  1.00 20.00     0.010 C 
HETATM    4  C5  UNL     1     -33.915  15.738  -5.240  1.00 20.00     0.063 C 
HETATM    5  C6  UNL     1     -34.981  14.652  -5.501  1.00 20.00    -0.037 C 
HETATM    6  C7  UNL     1     -34.657  13.290  -4.876  1.00 20.00     0.015 C 
HETATM    7  C8  UNL     1     -35.173  14.449  -7.018  1.00 20.00     0.015 C 
ENDROOT
BRANCH   4   8
HETATM    8  C1  UNL     1     -33.320  15.668  -3.862  1.00 20.00     0.131 C 
HETATM    9  O11 UNL     1     -32.514  14.787  -3.562  1.00 20.00    -0.298 OA
BRANCH   8  10
HETATM   10  C10 UNL     1     -33.772  16.737  -2.883  1.00 20.00     0.074 C 
HETATM   11  C9  UNL     1     -34.585  16.171  -1.734  1.00 20.00     0.013 C 
ENDBRANCH   8  10
ENDBRANCH   4   8
TORSDOF 2
ENDMDL
MODEL 7
REMARK VINA RESULT:      -4.1      1.793      2.490
REMARK  2 active torsions:
REMARK  status: ('A' for Active; 'I' for Inactive)
REMARK    1  A    between atoms: C1_1  and  C5_5 
REMARK    2  A    between atoms: C1_1  and  C10_10 
ROOT
HETATM    1  C2  UNL     1     -33.621  14.109  -3.665  1.00 20.00     0.002 C 
HETATM    2  C3  UNL     1     -35.118  14.430  -3.644  1.00 20.00     0.013 C 
HETATM    3  C4  UNL     1     -32.909  15.393  -4.082  1.00 20.00     0.010 C 
HETATM    4  C5  UNL     1     -35.255  15.896  -4.071  1.00 20.00     0.063 C 
HETATM    5  C6  UNL     1     -33.961  16.202  -4.856  1.00 20.00    -0.037 C 
HETATM    6  C7  UNL     1     -33.596  17.690  -4.909  1.00 20.00     0.015 C 
HETATM    7  C8  UNL     1     -34.082  15.686  -6.304  1.00 20.00     0.015 C 
ENDROOT
BRANCH   4   8
HETATM    8  C1  UNL     1     -35.428  16.755  -2.851  1.00 20.00     0.131 C 
HETATM    9  O11 UNL     1     -36.095  17.788  -2.891  1.00 20.00    -0.298 OA
BRANCH   8  10
HETATM   10  C10 UNL     1     -34.738  16.270  -1.588  1.00 20.00     0.074 C 
HETATM   11  C9  UNL     1     -33.840  17.326  -0.970  1.00 20.00     0.013 C 
ENDBRANCH   8  10
ENDBRANCH   4   8
TORSDOF 2
ENDMDL
MODEL 8
REMARK VINA RESULT:      -4.1      1.877      3.118
REMARK  2 active torsions:
REMARK  status: ('A' for Active; 'I' for Inactive)
REMARK    1  A    between atoms: C1_1  and  C5_5 
REMARK    2  A    between atoms: C1_1  and  C10_10 
ROOT
HETATM    1  C2  UNL     1     -34.871  13.468  -5.250  1.00 20.00     0.002 C 
HETATM    2  C3  UNL     1     -34.415  14.694  -6.047  1.00 20.00     0.013 C 
HETATM    3  C4  UNL     1     -34.923  13.897  -3.786  1.00 20.00     0.010 C 
HETATM    4  C5  UNL     1     -34.187  15.815  -5.027  1.00 20.00     0.063 C 
HETATM    5  C6  UNL     1     -33.958  15.089  -3.684  1.00 20.00    -0.037 C 
HETATM    6  C7  UNL     1     -34.254  15.945  -2.448  1.00 20.00     0.015 C 
HETATM    7  C8  UNL     1     -32.499  14.596  -3.588  1.00 20.00     0.015 C 
ENDROOT
BRANCH   4   8
HETATM    8  C1  UNL     1     -35.382  16.726  -5.014  1.00 20.00     0.131 C 
HETATM    9  O11 UNL     1     -36.525  16.272  -5.047  1.00 20.00    -0.298 OA
BRANCH   8  10
HETATM   10  C10 UNL     1     -35.087  18.214  -4.960  1.00 20.00     0.074 C 
HETATM   11  C9  UNL     1     -33.616  18.526  -5.157  1.00 20.00     0.013 C 
ENDBRANCH   8  10
ENDBRANCH   4   8
TORSDOF 2
ENDMDL
MODEL 9
REMARK VINA RESULT:      -4.0      1.756      3.491
REMARK  2 active torsions:
REMARK  status: ('A' for Active; 'I' for Inactive)
REMARK    1  A    between atoms: C1_1  and  C5_5 
REMARK    2  A    between atoms: C1_1  and  C10_10 
ROOT
HETATM    1  C2  UNL     1     -33.689  16.724  -3.638  1.00 20.00     0.002 C 
HETATM    2  C3  UNL     1     -34.565  16.158  -2.517  1.00 20.00     0.013 C 
HETATM    3  C4  UNL     1     -33.808  15.755  -4.811  1.00 20.00     0.010 C 
HETATM    4  C5  UNL     1     -35.165  14.852  -3.050  1.00 20.00     0.063 C 
HETATM    5  C6  UNL     1     -34.213  14.413  -4.183  1.00 20.00    -0.037 C 
HETATM    6  C7  UNL     1     -34.854  13.481  -5.217  1.00 20.00     0.015 C 
HETATM    7  C8  UNL     1     -32.980  13.698  -3.594  1.00 20.00     0.015 C 
ENDROOT
BRANCH   4   8
HETATM    8  C1  UNL     1     -36.570  15.107  -3.519  1.00 20.00     0.131 C 
HETATM    9  O11 UNL     1     -37.336  14.175  -3.763  1.00 20.00    -0.298 OA
BRANCH   8  10
HETATM   10  C10 UNL     1     -36.971  16.563  -3.669  1.00 20.00     0.074 C 
HETATM   11  C9  UNL     1     -37.348  16.922  -5.095  1.00 20.00     0.013 C 
ENDBRANCH   8  10
ENDBRANCH   4   8
TORSDOF 2
ENDMDL
