MODEL 1
REMARK VINA RESULT:      -5.0      0.000      0.000
REMARK  0 active torsions:
REMARK  status: ('A' for Active; 'I' for Inactive)
ROOT
HETATM    1  C1  UNL     1     -34.276  16.807  -1.353  1.00 20.00     0.088 C 
HETATM    2  C2  UNL     1     -34.678  15.541  -3.362  1.00 20.00    -0.062 C 
HETATM    3  C3  UNL     1     -35.103  16.003  -2.174  1.00 20.00     0.097 C 
HETATM    4  C4  UNL     1     -33.281  15.886  -3.837  1.00 20.00     0.036 C 
HETATM    5  C5  UNL     1     -33.306  16.517  -5.226  1.00 20.00     0.004 C 
HETATM    6  C6  UNL     1     -34.055  15.645  -6.229  1.00 20.00     0.001 C 
HETATM    7  C7  UNL     1     -35.467  15.321  -5.737  1.00 20.00     0.013 C 
HETATM    8  C8  UNL     1     -35.515  14.684  -4.323  1.00 20.00    -0.024 C 
HETATM    9  C9  UNL     1     -37.005  14.571  -3.923  1.00 20.00     0.019 C 
HETATM   10  C10 UNL     1     -34.947  13.248  -4.358  1.00 20.00     0.019 C 
HETATM   11  N11 UNL     1     -33.604  17.466  -0.673  1.00 20.00    -0.192 NA
ENDROOT
TORSDOF 0
ENDMDL
MODEL 2
REMARK VINA RESULT:      -4.8      2.338      3.707
REMARK  0 active torsions:
REMARK  status: ('A' for Active; 'I' for Inactive)
ROOT
HETATM    1  C1  UNL     1     -34.710  13.550  -4.077  1.00 20.00     0.088 C 
HETATM    2  C2  UNL     1     -34.793  15.871  -3.438  1.00 20.00    -0.062 C 
HETATM    3  C3  UNL     1     -34.765  14.572  -3.098  1.00 20.00     0.097 C 
HETATM    4  C4  UNL     1     -34.764  16.256  -4.904  1.00 20.00     0.036 C 
HETATM    5  C5  UNL     1     -33.635  17.241  -5.198  1.00 20.00     0.004 C 
HETATM    6  C6  UNL     1     -33.698  18.461  -4.285  1.00 20.00     0.001 C 
HETATM    7  C7  UNL     1     -33.711  18.051  -2.811  1.00 20.00     0.013 C 
HETATM    8  C8  UNL     1     -34.831  17.041  -2.444  1.00 20.00    -0.024 C 
HETATM    9  C9  UNL     1     -34.600  16.619  -0.973  1.00 20.00     0.019 C 
HETATM   10  C10 UNL     1     -36.214  17.724  -2.506  1.00 20.00     0.019 C 
HETATM   11  N11 UNL     1     -34.664  12.706  -4.872  1.00 20.00    -0.192 NA
ENDROOT
TORSDOF 0
ENDMDL
MODEL 3
REMARK VINA RESULT:      -4.6      2.247      3.501
REMARK  0 active torsions:
REMARK  status: ('A' for Active; 'I' for Inactive)
ROOT
HETATM    1  C1  UNL     1     -33.711  18.423  -6.024  1.00 20.00     0.088 C 
HETATM    2  C2  UNL     1     -33.767  16.309  -4.870  1.00 20.00    -0.062 C 
HETATM    3  C3  UNL     1     -33.699  17.651  -4.838  1.00 20.00     0.097 C 
HETATM    4  C4  UNL     1     -33.860  15.603  -6.208  1.00 20.00     0.036 C 
HETATM    5  C5  UNL     1     -35.058  14.660  -6.258  1.00 20.00     0.004 C 
HETATM    6  C6  UNL     1     -35.054  13.680  -5.089  1.00 20.00     0.001 C 
HETATM    7  C7  UNL     1     -34.975  14.413  -3.749  1.00 20.00     0.013 C 
HETATM    8  C8  UNL     1     -33.781  15.398  -3.635  1.00 20.00    -0.024 C 
HETATM    9  C9  UNL     1     -33.945  16.160  -2.298  1.00 20.00     0.019 C 
HETATM   10  C10 UNL     1     -32.449  14.623  -3.552  1.00 20.00     0.019 C 
HETATM   11  N11 UNL     1     -33.721  19.064  -6.992  1.00 20.00    -0.192 NA
ENDROOT
TORSDOF 0
ENDMDL
MODEL 4
REMARK VINA RESULT:      -4.6      1.060      2.702
REMARK  0 active torsions:
REMARK  status: ('A' for Active; 'I' for Inactive)
ROOT
HETATM    1  C1  UNL     1     -34.751  17.016  -0.672  1.00 20.00     0.088 C 
HETATM    2  C2  UNL     1     -34.563  15.964  -2.831  1.00 20.00    -0.062 C 
HETATM    3  C3  UNL     1     -34.006  16.336  -1.665  1.00 20.00     0.097 C 
HETATM    4  C4  UNL     1     -36.022  16.279  -3.090  1.00 20.00     0.036 C 
HETATM    5  C5  UNL     1     -36.802  15.025  -3.475  1.00 20.00     0.004 C 
HETATM    6  C6  UNL     1     -36.154  14.295  -4.648  1.00 20.00     0.001 C 
HETATM    7  C7  UNL     1     -34.687  13.973  -4.359  1.00 20.00     0.013 C 
HETATM    8  C8  UNL     1     -33.836  15.206  -3.951  1.00 20.00    -0.024 C 
HETATM    9  C9  UNL     1     -32.438  14.681  -3.546  1.00 20.00     0.019 C 
HETATM   10  C10 UNL     1     -33.633  16.145  -5.160  1.00 20.00     0.019 C 
HETATM   11  N11 UNL     1     -35.353  17.574   0.148  1.00 20.00    -0.192 NA
ENDROOT
TORSDOF 0
ENDMDL
MODEL 5
REMARK VINA RESULT:      -4.6     11.784     13.298
REMARK  0 active torsions:
REMARK  status: ('A' for Active; 'I' for Inactive)
ROOT
HETATM    1  C1  UNL     1     -41.540   2.986  -2.871  1.00 20.00     0.088 C 
HETATM    2  C2  UNL     1     -42.073   5.082  -1.810  1.00 20.00    -0.062 C 
HETATM    3  C3  UNL     1     -41.332   3.962  -1.867  1.00 20.00     0.097 C 
HETATM    4  C4  UNL     1     -43.158   5.308  -2.843  1.00 20.00     0.036 C 
HETATM    5  C5  UNL     1     -42.993   6.657  -3.537  1.00 20.00     0.004 C 
HETATM    6  C6  UNL     1     -42.910   7.801  -2.533  1.00 20.00     0.001 C 
HETATM    7  C7  UNL     1     -41.799   7.561  -1.509  1.00 20.00     0.013 C 
HETATM    8  C8  UNL     1     -41.901   6.200  -0.771  1.00 20.00    -0.024 C 
HETATM    9  C9  UNL     1     -40.628   6.054   0.098  1.00 20.00     0.019 C 
HETATM   10  C10 UNL     1     -43.107   6.197   0.192  1.00 20.00     0.019 C 
HETATM   11  N11 UNL     1     -41.703   2.180  -3.691  1.00 20.00    -0.192 NA
ENDROOT
TORSDOF 0
ENDMDL
MODEL 6
REMARK VINA RESULT:      -4.6      2.590      3.765
REMARK  0 active torsions:
REMARK  status: ('A' for Active; 'I' for Inactive)
ROOT
HETATM    1  C1  UNL     1     -38.025  14.917  -4.313  1.00 20.00     0.088 C 
HETATM    2  C2  UNL     1     -35.716  15.257  -4.910  1.00 20.00    -0.062 C 
HETATM    3  C3  UNL     1     -36.979  15.711  -4.841  1.00 20.00     0.097 C 
HETATM    4  C4  UNL     1     -35.401  13.862  -4.410  1.00 20.00     0.036 C 
HETATM    5  C5  UNL     1     -34.271  13.880  -3.384  1.00 20.00     0.004 C 
HETATM    6  C6  UNL     1     -33.033  14.591  -3.921  1.00 20.00     0.001 C 
HETATM    7  C7  UNL     1     -33.370  16.003  -4.405  1.00 20.00     0.013 C 
HETATM    8  C8  UNL     1     -34.520  16.058  -5.446  1.00 20.00    -0.024 C 
HETATM    9  C9  UNL     1     -34.832  17.552  -5.702  1.00 20.00     0.019 C 
HETATM   10  C10 UNL     1     -34.060  15.456  -6.791  1.00 20.00     0.019 C 
HETATM   11  N11 UNL     1     -38.889  14.273  -3.882  1.00 20.00    -0.192 NA
ENDROOT
TORSDOF 0
ENDMDL
MODEL 7
REMARK VINA RESULT:      -4.5      2.457      3.747
REMARK  0 active torsions:
REMARK  status: ('A' for Active; 'I' for Inactive)
ROOT
HETATM    1  C1  UNL     1     -37.913  15.013  -3.893  1.00 20.00     0.088 C 
HETATM    2  C2  UNL     1     -35.569  15.486  -4.182  1.00 20.00    -0.062 C 
HETATM    3  C3  UNL     1     -36.810  15.902  -3.881  1.00 20.00     0.097 C 
HETATM    4  C4  UNL     1     -35.339  14.032  -4.542  1.00 20.00     0.036 C 
HETATM    5  C5  UNL     1     -34.252  13.408  -3.672  1.00 20.00     0.004 C 
HETATM    6  C6  UNL     1     -32.961  14.220  -3.713  1.00 20.00     0.001 C 
HETATM    7  C7  UNL     1     -33.212  15.680  -3.331  1.00 20.00     0.013 C 
HETATM    8  C8  UNL     1     -34.316  16.374  -4.172  1.00 20.00    -0.024 C 
HETATM    9  C9  UNL     1     -34.548  17.774  -3.555  1.00 20.00     0.019 C 
HETATM   10  C10 UNL     1     -33.831  16.595  -5.621  1.00 20.00     0.019 C 
HETATM   11  N11 UNL     1     -38.822  14.292  -3.900  1.00 20.00    -0.192 NA
ENDROOT
TORSDOF 0
ENDMDL
MODEL 8
REMARK VINA RESULT:      -4.5      3.004      4.393
REMARK  0 active torsions:
REMARK  status: ('A' for Active; 'I' for Inactive)
ROOT
HETATM    1  C1  UNL     1     -37.296  15.299  -7.044  1.00 20.00     0.088 C 
HETATM    2  C2  UNL     1     -35.475  15.477  -5.478  1.00 20.00    -0.062 C 
HETATM    3  C3  UNL     1     -36.600  15.978  -6.015  1.00 20.00     0.097 C 
HETATM    4  C4  UNL     1     -34.936  14.153  -5.983  1.00 20.00     0.036 C 
HETATM    5  C5  UNL     1     -34.724  13.165  -4.839  1.00 20.00     0.004 C 
HETATM    6  C6  UNL     1     -33.852  13.758  -3.737  1.00 20.00     0.001 C 
HETATM    7  C7  UNL     1     -34.420  15.084  -3.231  1.00 20.00     0.013 C 
HETATM    8  C8  UNL     1     -34.670  16.134  -4.347  1.00 20.00    -0.024 C 
HETATM    9  C9  UNL     1     -35.385  17.338  -3.690  1.00 20.00     0.019 C 
HETATM   10  C10 UNL     1     -33.329  16.656  -4.906  1.00 20.00     0.019 C 
HETATM   11  N11 UNL     1     -37.874  14.750  -7.888  1.00 20.00    -0.192 NA
ENDROOT
TORSDOF 0
ENDMDL
MODEL 9
REMARK VINA RESULT:      -4.5      2.377      3.974
REMARK  0 active torsions:
REMARK  status: ('A' for Active; 'I' for Inactive)
ROOT
HETATM    1  C1  UNL     1     -37.565  15.085  -4.103  1.00 20.00     0.088 C 
HETATM    2  C2  UNL     1     -35.453  16.232  -3.954  1.00 20.00    -0.062 C 
HETATM    3  C3  UNL     1     -36.631  16.041  -4.570  1.00 20.00     0.097 C 
HETATM    4  C4  UNL     1     -35.112  15.406  -2.730  1.00 20.00     0.036 C 
HETATM    5  C5  UNL     1     -34.729  16.293  -1.548  1.00 20.00     0.004 C 
HETATM    6  C6  UNL     1     -33.614  17.267  -1.913  1.00 20.00     0.001 C 
HETATM    7  C7  UNL     1     -33.984  18.101  -3.140  1.00 20.00     0.013 C 
HETATM    8  C8  UNL     1     -34.393  17.260  -4.378  1.00 20.00    -0.024 C 
HETATM    9  C9  UNL     1     -34.883  18.250  -5.461  1.00 20.00     0.019 C 
HETATM   10  C10 UNL     1     -33.167  16.524  -4.960  1.00 20.00     0.019 C 
HETATM   11  N11 UNL     1     -38.337  14.303  -3.728  1.00 20.00    -0.192 NA
ENDROOT
TORSDOF 0
ENDMDL
