MODEL 1
REMARK VINA RESULT:      -4.1      0.000      0.000
REMARK  1 active torsions:
REMARK  status: ('A' for Active; 'I' for Inactive)
REMARK    1  A    between atoms: C4_4  and  C9_9 
ROOT
HETATM    1  C1  UNL     1     -34.538  13.240  -4.917  1.00 20.00     0.001 C 
HETATM    2  C2  UNL     1     -34.547  14.458  -5.844  1.00 20.00     0.007 C 
HETATM    3  C3  UNL     1     -34.261  13.771  -3.511  1.00 20.00     0.009 C 
HETATM    4  C4  UNL     1     -34.173  15.657  -4.963  1.00 20.00     0.011 C 
HETATM    5  C5  UNL     1     -34.663  15.257  -3.551  1.00 20.00    -0.043 C 
HETATM    6  C6  UNL     1     -36.183  15.407  -3.361  1.00 20.00     0.015 C 
HETATM    7  C7  UNL     1     -33.945  16.047  -2.452  1.00 20.00     0.015 C 
ENDROOT
BRANCH   4   8
HETATM    8  C9  UNL     1     -34.706  16.972  -5.513  1.00 20.00     0.083 C 
HETATM    9  C8  UNL     1     -35.069  16.856  -6.986  1.00 20.00     0.027 C 
HETATM   10 CL10 UNL     1     -33.479  18.251  -5.297  1.00 20.00    -0.125 Cl
ENDBRANCH   4   8
TORSDOF 1
ENDMDL
MODEL 2
REMARK VINA RESULT:      -4.1      1.938      2.517
REMARK  1 active torsions:
REMARK  status: ('A' for Active; 'I' for Inactive)
REMARK    1  A    between atoms: C4_4  and  C9_9 
ROOT
HETATM    1  C1  UNL     1     -33.557  13.655  -3.746  1.00 20.00     0.001 C 
HETATM    2  C2  UNL     1     -35.013  13.868  -4.162  1.00 20.00     0.007 C 
HETATM    3  C3  UNL     1     -32.927  15.045  -3.655  1.00 20.00     0.009 C 
HETATM    4  C4  UNL     1     -35.164  15.376  -4.401  1.00 20.00     0.011 C 
HETATM    5  C5  UNL     1     -34.108  16.015  -3.469  1.00 20.00    -0.043 C 
HETATM    6  C6  UNL     1     -34.538  16.060  -1.991  1.00 20.00     0.015 C 
HETATM    7  C7  UNL     1     -33.729  17.430  -3.918  1.00 20.00     0.015 C 
ENDROOT
BRANCH   4   8
HETATM    8  C9  UNL     1     -36.598  15.853  -4.221  1.00 20.00     0.083 C 
HETATM    9  C8  UNL     1     -37.539  14.697  -3.919  1.00 20.00     0.027 C 
HETATM   10 CL10 UNL     1     -37.138  16.692  -5.702  1.00 20.00    -0.125 Cl
ENDBRANCH   4   8
TORSDOF 1
ENDMDL
MODEL 3
REMARK VINA RESULT:      -4.1      2.065      2.953
REMARK  1 active torsions:
REMARK  status: ('A' for Active; 'I' for Inactive)
REMARK    1  A    between atoms: C4_4  and  C9_9 
ROOT
HETATM    1  C1  UNL     1     -33.911  13.462  -4.378  1.00 20.00     0.001 C 
HETATM    2  C2  UNL     1     -33.593  14.608  -3.415  1.00 20.00     0.007 C 
HETATM    3  C3  UNL     1     -35.432  13.425  -4.516  1.00 20.00     0.009 C 
HETATM    4  C4  UNL     1     -34.950  15.144  -2.940  1.00 20.00     0.011 C 
HETATM    5  C5  UNL     1     -35.912  14.831  -4.110  1.00 20.00    -0.043 C 
HETATM    6  C6  UNL     1     -35.778  15.806  -5.294  1.00 20.00     0.015 C 
HETATM    7  C7  UNL     1     -37.375  14.800  -3.656  1.00 20.00     0.015 C 
ENDROOT
BRANCH   4   8
HETATM    8  C9  UNL     1     -34.878  16.598  -2.498  1.00 20.00     0.083 C 
HETATM    9  C8  UNL     1     -33.695  17.318  -3.128  1.00 20.00     0.027 C 
HETATM   10 CL10 UNL     1     -34.746  16.675  -0.719  1.00 20.00    -0.125 Cl
ENDBRANCH   4   8
TORSDOF 1
ENDMDL
MODEL 4
REMARK VINA RESULT:      -4.0      1.667      3.212
REMARK  1 active torsions:
REMARK  status: ('A' for Active; 'I' for Inactive)
REMARK    1  A    between atoms: C4_4  and  C9_9 
ROOT
HETATM    1  C1  UNL     1     -34.317  13.293  -4.659  1.00 20.00     0.001 C 
HETATM    2  C2  UNL     1     -34.519  14.159  -3.414  1.00 20.00     0.007 C 
HETATM    3  C3  UNL     1     -35.002  14.028  -5.810  1.00 20.00     0.009 C 
HETATM    4  C4  UNL     1     -35.406  15.329  -3.858  1.00 20.00     0.011 C 
HETATM    5  C5  UNL     1     -35.087  15.498  -5.362  1.00 20.00    -0.043 C 
HETATM    6  C6  UNL     1     -33.753  16.219  -5.631  1.00 20.00     0.015 C 
HETATM    7  C7  UNL     1     -36.207  16.233  -6.106  1.00 20.00     0.015 C 
ENDROOT
BRANCH   4   8
HETATM    8  C9  UNL     1     -35.220  16.563  -2.987  1.00 20.00     0.083 C 
HETATM    9  C8  UNL     1     -34.556  16.219  -1.663  1.00 20.00     0.027 C 
HETATM   10 CL10 UNL     1     -36.807  17.323  -2.681  1.00 20.00    -0.125 Cl
ENDBRANCH   4   8
TORSDOF 1
ENDMDL
MODEL 5
REMARK VINA RESULT:      -4.0      1.655      3.236
REMARK  1 active torsions:
REMARK  status: ('A' for Active; 'I' for Inactive)
REMARK    1  A    between atoms: C4_4  and  C9_9 
ROOT
HETATM    1  C1  UNL     1     -35.791  14.260  -3.986  1.00 20.00     0.001 C 
HETATM    2  C2  UNL     1     -35.637  15.218  -2.803  1.00 20.00     0.007 C 
HETATM    3  C3  UNL     1     -34.853  14.771  -5.079  1.00 20.00     0.009 C 
HETATM    4  C4  UNL     1     -34.686  16.323  -3.281  1.00 20.00     0.011 C 
HETATM    5  C5  UNL     1     -33.805  15.630  -4.347  1.00 20.00    -0.043 C 
HETATM    6  C6  UNL     1     -32.702  14.737  -3.750  1.00 20.00     0.015 C 
HETATM    7  C7  UNL     1     -33.162  16.641  -5.303  1.00 20.00     0.015 C 
ENDROOT
BRANCH   4   8
HETATM    8  C9  UNL     1     -33.947  16.992  -2.130  1.00 20.00     0.083 C 
HETATM    9  C8  UNL     1     -34.600  16.682  -0.791  1.00 20.00     0.027 C 
HETATM   10 CL10 UNL     1     -33.917  18.758  -2.387  1.00 20.00    -0.125 Cl
ENDBRANCH   4   8
TORSDOF 1
ENDMDL
MODEL 6
REMARK VINA RESULT:      -3.9      1.985      3.827
REMARK  1 active torsions:
REMARK  status: ('A' for Active; 'I' for Inactive)
REMARK    1  A    between atoms: C4_4  and  C9_9 
ROOT
HETATM    1  C1  UNL     1     -34.002  18.019  -6.383  1.00 20.00     0.001 C 
HETATM    2  C2  UNL     1     -33.606  17.413  -5.035  1.00 20.00     0.007 C 
HETATM    3  C3  UNL     1     -34.537  16.867  -7.232  1.00 20.00     0.009 C 
HETATM    4  C4  UNL     1     -33.829  15.902  -5.174  1.00 20.00     0.011 C 
HETATM    5  C5  UNL     1     -34.957  15.780  -6.226  1.00 20.00    -0.043 C 
HETATM    6  C6  UNL     1     -36.358  16.081  -5.663  1.00 20.00     0.015 C 
HETATM    7  C7  UNL     1     -34.975  14.398  -6.888  1.00 20.00     0.015 C 
ENDROOT
BRANCH   4   8
HETATM    8  C9  UNL     1     -34.082  15.225  -3.834  1.00 20.00     0.083 C 
HETATM    9  C8  UNL     1     -33.703  16.129  -2.671  1.00 20.00     0.027 C 
HETATM   10 CL10 UNL     1     -33.144  13.709  -3.745  1.00 20.00    -0.125 Cl
ENDBRANCH   4   8
TORSDOF 1
ENDMDL
MODEL 7
REMARK VINA RESULT:      -3.9      1.837      2.586
REMARK  1 active torsions:
REMARK  status: ('A' for Active; 'I' for Inactive)
REMARK    1  A    between atoms: C4_4  and  C9_9 
ROOT
HETATM    1  C1  UNL     1     -33.326  15.838  -3.675  1.00 20.00     0.001 C 
HETATM    2  C2  UNL     1     -33.688  15.892  -5.161  1.00 20.00     0.007 C 
HETATM    3  C3  UNL     1     -34.612  15.480  -2.931  1.00 20.00     0.009 C 
HETATM    4  C4  UNL     1     -35.204  15.661  -5.230  1.00 20.00     0.011 C 
HETATM    5  C5  UNL     1     -35.515  14.805  -3.981  1.00 20.00    -0.043 C 
HETATM    6  C6  UNL     1     -35.135  13.322  -4.140  1.00 20.00     0.015 C 
HETATM    7  C7  UNL     1     -36.989  14.899  -3.575  1.00 20.00     0.015 C 
ENDROOT
BRANCH   4   8
HETATM    8  C9  UNL     1     -35.643  15.084  -6.568  1.00 20.00     0.083 C 
HETATM    9  C8  UNL     1     -34.500  15.063  -7.572  1.00 20.00     0.027 C 
HETATM   10 CL10 UNL     1     -36.994  16.051  -7.221  1.00 20.00    -0.125 Cl
ENDBRANCH   4   8
TORSDOF 1
ENDMDL
MODEL 8
REMARK VINA RESULT:      -3.9     12.112     13.406
REMARK  1 active torsions:
REMARK  status: ('A' for Active; 'I' for Inactive)
REMARK    1  A    between atoms: C4_4  and  C9_9 
ROOT
HETATM    1  C1  UNL     1     -40.557   6.122   0.022  1.00 20.00     0.001 C 
HETATM    2  C2  UNL     1     -41.238   4.840  -0.460  1.00 20.00     0.007 C 
HETATM    3  C3  UNL     1     -40.894   7.201  -1.007  1.00 20.00     0.009 C 
HETATM    4  C4  UNL     1     -41.870   5.185  -1.814  1.00 20.00     0.011 C 
HETATM    5  C5  UNL     1     -42.164   6.701  -1.720  1.00 20.00    -0.043 C 
HETATM    6  C6  UNL     1     -43.414   7.036  -0.887  1.00 20.00     0.015 C 
HETATM    7  C7  UNL     1     -42.303   7.344  -3.104  1.00 20.00     0.015 C 
ENDROOT
BRANCH   4   8
HETATM    8  C9  UNL     1     -43.055   4.290  -2.148  1.00 20.00     0.083 C 
HETATM    9  C8  UNL     1     -43.413   3.377  -0.985  1.00 20.00     0.027 C 
HETATM   10 CL10 UNL     1     -42.671   3.303  -3.586  1.00 20.00    -0.125 Cl
ENDBRANCH   4   8
TORSDOF 1
ENDMDL
MODEL 9
REMARK VINA RESULT:      -3.8      1.859      2.822
REMARK  1 active torsions:
REMARK  status: ('A' for Active; 'I' for Inactive)
REMARK    1  A    between atoms: C4_4  and  C9_9 
ROOT
HETATM    1  C1  UNL     1     -35.348  17.026  -2.955  1.00 20.00     0.001 C 
HETATM    2  C2  UNL     1     -35.254  17.144  -4.477  1.00 20.00     0.007 C 
HETATM    3  C3  UNL     1     -35.168  15.544  -2.626  1.00 20.00     0.009 C 
HETATM    4  C4  UNL     1     -35.121  15.709  -5.001  1.00 20.00     0.011 C 
HETATM    5  C5  UNL     1     -34.440  14.944  -3.843  1.00 20.00    -0.043 C 
HETATM    6  C6  UNL     1     -32.925  15.201  -3.742  1.00 20.00     0.015 C 
HETATM    7  C7  UNL     1     -34.681  13.433  -3.933  1.00 20.00     0.015 C 
ENDROOT
BRANCH   4   8
HETATM    8  C9  UNL     1     -34.423  15.645  -6.352  1.00 20.00     0.083 C 
HETATM    9  C8  UNL     1     -34.428  16.997  -7.050  1.00 20.00     0.027 C 
HETATM   10 CL10 UNL     1     -35.234  14.435  -7.386  1.00 20.00    -0.125 Cl
ENDBRANCH   4   8
TORSDOF 1
ENDMDL
