MODEL 1
REMARK VINA RESULT:      -4.8      0.000      0.000
REMARK  2 active torsions:
REMARK  status: ('A' for Active; 'I' for Inactive)
REMARK    1  A    between atoms: C6_6  and  N11_11 
REMARK    2  A    between atoms: C10_10  and  N11_11 
ROOT
HETATM    1  C1  UNL     1     -32.418   9.496   1.355  1.00 20.00     0.013 C 
HETATM    2  C2  UNL     1     -32.185   8.476   1.941  1.00 20.00    -0.087 C 
HETATM    3  C10 UNL     1     -31.894   7.229   2.655  1.00 20.00     0.362 C 
ENDROOT
BRANCH   3   4
HETATM    4  N11 UNL     1     -32.686   7.138   3.875  1.00 20.00     0.099 N 
HETATM    5  H28 UNL     1     -33.511   7.732   3.784  1.00 20.00     0.317 HD
BRANCH   4   6
HETATM    6  C6  UNL     1     -33.108   5.758   4.126  1.00 20.00     0.229 C 
HETATM    7  C4  UNL     1     -33.740   5.203   2.844  1.00 20.00     0.036 C 
HETATM    8  C3  UNL     1     -35.215   5.610   2.897  1.00 20.00     0.003 C 
HETATM    9  C5  UNL     1     -35.489   6.080   4.330  1.00 20.00     0.011 C 
HETATM   10  C7  UNL     1     -34.264   5.646   5.155  1.00 20.00    -0.017 C 
HETATM   11  C8  UNL     1     -34.431   4.187   5.629  1.00 20.00     0.017 C 
HETATM   12  C9  UNL     1     -34.082   6.526   6.399  1.00 20.00     0.017 C 
ENDBRANCH   4   6
ENDBRANCH   3   4
TORSDOF 2
ENDMDL
MODEL 2
REMARK VINA RESULT:      -4.7      0.924      2.399
REMARK  2 active torsions:
REMARK  status: ('A' for Active; 'I' for Inactive)
REMARK    1  A    between atoms: C6_6  and  N11_11 
REMARK    2  A    between atoms: C10_10  and  N11_11 
ROOT
HETATM    1  C1  UNL     1     -32.164   8.475   1.442  1.00 20.00     0.013 C 
HETATM    2  C2  UNL     1     -31.942   7.992   2.518  1.00 20.00    -0.087 C 
HETATM    3  C10 UNL     1     -31.670   7.409   3.834  1.00 20.00     0.362 C 
ENDROOT
BRANCH   3   4
HETATM    4  N11 UNL     1     -32.440   6.187   4.025  1.00 20.00     0.099 N 
HETATM    5  H28 UNL     1     -32.069   5.679   4.828  1.00 20.00     0.317 HD
BRANCH   4   6
HETATM    6  C6  UNL     1     -33.856   6.486   4.252  1.00 20.00     0.229 C 
HETATM    7  C4  UNL     1     -34.141   6.368   5.754  1.00 20.00     0.036 C 
HETATM    8  C3  UNL     1     -34.467   4.893   6.001  1.00 20.00     0.003 C 
HETATM    9  C5  UNL     1     -34.699   4.258   4.625  1.00 20.00     0.011 C 
HETATM   10  C7  UNL     1     -34.814   5.433   3.636  1.00 20.00    -0.017 C 
HETATM   11  C8  UNL     1     -36.262   5.965   3.607  1.00 20.00     0.017 C 
HETATM   12  C9  UNL     1     -34.442   5.007   2.210  1.00 20.00     0.017 C 
ENDBRANCH   4   6
ENDBRANCH   3   4
TORSDOF 2
ENDMDL
MODEL 3
REMARK VINA RESULT:      -4.6     11.061     11.947
REMARK  2 active torsions:
REMARK  status: ('A' for Active; 'I' for Inactive)
REMARK    1  A    between atoms: C6_6  and  N11_11 
REMARK    2  A    between atoms: C10_10  and  N11_11 
ROOT
HETATM    1  C1  UNL     1     -35.218  17.498   0.978  1.00 20.00     0.013 C 
HETATM    2  C2  UNL     1     -34.762  17.169  -0.082  1.00 20.00    -0.087 C 
HETATM    3  C10 UNL     1     -34.199  16.768  -1.374  1.00 20.00     0.362 C 
ENDROOT
BRANCH   3   4
HETATM    4  N11 UNL     1     -35.185  16.041  -2.162  1.00 20.00     0.099 N 
HETATM    5  H28 UNL     1     -35.639  16.687  -2.808  1.00 20.00     0.317 HD
BRANCH   4   6
HETATM    6  C6  UNL     1     -34.558  14.956  -2.920  1.00 20.00     0.229 C 
HETATM    7  C4  UNL     1     -33.211  15.457  -3.457  1.00 20.00     0.036 C 
HETATM    8  C3  UNL     1     -33.522  16.140  -4.790  1.00 20.00     0.003 C 
HETATM    9  C5  UNL     1     -34.952  15.737  -5.167  1.00 20.00     0.011 C 
HETATM   10  C7  UNL     1     -35.328  14.587  -4.215  1.00 20.00    -0.017 C 
HETATM   11  C8  UNL     1     -34.826  13.241  -4.781  1.00 20.00     0.017 C 
HETATM   12  C9  UNL     1     -36.847  14.481  -4.032  1.00 20.00     0.017 C 
ENDBRANCH   4   6
ENDBRANCH   3   4
TORSDOF 2
ENDMDL
MODEL 4
REMARK VINA RESULT:      -4.3     10.914     11.922
REMARK  2 active torsions:
REMARK  status: ('A' for Active; 'I' for Inactive)
REMARK    1  A    between atoms: C6_6  and  N11_11 
REMARK    2  A    between atoms: C10_10  and  N11_11 
ROOT
HETATM    1  C1  UNL     1     -35.344  17.596   0.908  1.00 20.00     0.013 C 
HETATM    2  C2  UNL     1     -34.829  17.194  -0.098  1.00 20.00    -0.087 C 
HETATM    3  C10 UNL     1     -34.193  16.704  -1.324  1.00 20.00     0.362 C 
ENDROOT
BRANCH   3   4
HETATM    4  N11 UNL     1     -35.031  15.704  -1.974  1.00 20.00     0.099 N 
HETATM    5  H28 UNL     1     -35.972  15.751  -1.583  1.00 20.00     0.317 HD
BRANCH   4   6
HETATM    6  C6  UNL     1     -35.095  15.930  -3.420  1.00 20.00     0.229 C 
HETATM    7  C4  UNL     1     -36.569  16.026  -3.831  1.00 20.00     0.036 C 
HETATM    8  C3  UNL     1     -37.024  14.587  -4.087  1.00 20.00     0.003 C 
HETATM    9  C5  UNL     1     -35.754  13.731  -4.156  1.00 20.00     0.011 C 
HETATM   10  C7  UNL     1     -34.583  14.725  -4.253  1.00 20.00    -0.017 C 
HETATM   11  C8  UNL     1     -34.354  15.138  -5.722  1.00 20.00     0.017 C 
HETATM   12  C9  UNL     1     -33.278  14.112  -3.730  1.00 20.00     0.017 C 
ENDBRANCH   4   6
ENDBRANCH   3   4
TORSDOF 2
ENDMDL
MODEL 5
REMARK VINA RESULT:      -4.3     11.298     12.716
REMARK  2 active torsions:
REMARK  status: ('A' for Active; 'I' for Inactive)
REMARK    1  A    between atoms: C6_6  and  N11_11 
REMARK    2  A    between atoms: C10_10  and  N11_11 
ROOT
HETATM    1  C1  UNL     1     -34.611  16.587  -0.829  1.00 20.00     0.013 C 
HETATM    2  C2  UNL     1     -34.632  17.160  -1.883  1.00 20.00    -0.087 C 
HETATM    3  C10 UNL     1     -34.652  17.864  -3.168  1.00 20.00     0.362 C 
ENDROOT
BRANCH   3   4
HETATM    4  N11 UNL     1     -35.227  17.020  -4.208  1.00 20.00     0.099 N 
HETATM    5  H28 UNL     1     -35.270  17.547  -5.080  1.00 20.00     0.317 HD
BRANCH   4   6
HETATM    6  C6  UNL     1     -34.422  15.813  -4.410  1.00 20.00     0.229 C 
HETATM    7  C4  UNL     1     -33.507  16.037  -5.619  1.00 20.00     0.036 C 
HETATM    8  C3  UNL     1     -34.330  15.632  -6.845  1.00 20.00     0.003 C 
HETATM    9  C5  UNL     1     -35.554  14.873  -6.320  1.00 20.00     0.011 C 
HETATM   10  C7  UNL     1     -35.261  14.580  -4.837  1.00 20.00    -0.017 C 
HETATM   11  C8  UNL     1     -34.432  13.285  -4.704  1.00 20.00     0.017 C 
HETATM   12  C9  UNL     1     -36.555  14.393  -4.034  1.00 20.00     0.017 C 
ENDBRANCH   4   6
ENDBRANCH   3   4
TORSDOF 2
ENDMDL
MODEL 6
REMARK VINA RESULT:      -4.3     11.703     13.536
REMARK  2 active torsions:
REMARK  status: ('A' for Active; 'I' for Inactive)
REMARK    1  A    between atoms: C6_6  and  N11_11 
REMARK    2  A    between atoms: C10_10  and  N11_11 
ROOT
HETATM    1  C1  UNL     1     -34.405  16.467  -1.865  1.00 20.00     0.013 C 
HETATM    2  C2  UNL     1     -33.732  15.887  -2.672  1.00 20.00    -0.087 C 
HETATM    3  C10 UNL     1     -32.910  15.173  -3.652  1.00 20.00     0.362 C 
ENDROOT
BRANCH   3   4
HETATM    4  N11 UNL     1     -33.235  15.602  -5.006  1.00 20.00     0.099 N 
HETATM    5  H28 UNL     1     -32.735  15.013  -5.673  1.00 20.00     0.317 HD
BRANCH   4   6
HETATM    6  C6  UNL     1     -34.675  15.503  -5.258  1.00 20.00     0.229 C 
HETATM    7  C4  UNL     1     -34.923  14.318  -6.198  1.00 20.00     0.036 C 
HETATM    8  C3  UNL     1     -34.765  14.873  -7.616  1.00 20.00     0.003 C 
HETATM    9  C5  UNL     1     -34.770  16.401  -7.494  1.00 20.00     0.011 C 
HETATM   10  C7  UNL     1     -35.242  16.704  -6.060  1.00 20.00    -0.017 C 
HETATM   11  C8  UNL     1     -36.785  16.719  -5.999  1.00 20.00     0.017 C 
HETATM   12  C9  UNL     1     -34.740  18.072  -5.579  1.00 20.00     0.017 C 
ENDBRANCH   4   6
ENDBRANCH   3   4
TORSDOF 2
ENDMDL
MODEL 7
REMARK VINA RESULT:      -4.2     11.150     12.597
REMARK  2 active torsions:
REMARK  status: ('A' for Active; 'I' for Inactive)
REMARK    1  A    between atoms: C6_6  and  N11_11 
REMARK    2  A    between atoms: C10_10  and  N11_11 
ROOT
HETATM    1  C1  UNL     1     -34.826  17.013  -0.092  1.00 20.00     0.013 C 
HETATM    2  C2  UNL     1     -34.293  16.884  -1.159  1.00 20.00    -0.087 C 
HETATM    3  C10 UNL     1     -33.638  16.730  -2.460  1.00 20.00     0.362 C 
ENDROOT
BRANCH   3   4
HETATM    4  N11 UNL     1     -34.107  15.526  -3.134  1.00 20.00     0.099 N 
HETATM    5  H28 UNL     1     -35.047  15.303  -2.804  1.00 20.00     0.317 HD
BRANCH   4   6
HETATM    6  C6  UNL     1     -34.134  15.712  -4.587  1.00 20.00     0.229 C 
HETATM    7  C4  UNL     1     -34.933  16.983  -4.898  1.00 20.00     0.036 C 
HETATM    8  C3  UNL     1     -36.398  16.544  -4.979  1.00 20.00     0.003 C 
HETATM    9  C5  UNL     1     -36.394  15.013  -5.055  1.00 20.00     0.011 C 
HETATM   10  C7  UNL     1     -34.934  14.611  -5.333  1.00 20.00    -0.017 C 
HETATM   11  C8  UNL     1     -34.646  14.663  -6.848  1.00 20.00     0.017 C 
HETATM   12  C9  UNL     1     -34.640  13.186  -4.847  1.00 20.00     0.017 C 
ENDBRANCH   4   6
ENDBRANCH   3   4
TORSDOF 2
ENDMDL
MODEL 8
REMARK VINA RESULT:      -4.2     10.788     12.324
REMARK  2 active torsions:
REMARK  status: ('A' for Active; 'I' for Inactive)
REMARK    1  A    between atoms: C6_6  and  N11_11 
REMARK    2  A    between atoms: C10_10  and  N11_11 
ROOT
HETATM    1  C1  UNL     1     -39.826  14.411  -4.590  1.00 20.00     0.013 C 
HETATM    2  C2  UNL     1     -38.966  15.081  -4.089  1.00 20.00    -0.087 C 
HETATM    3  C10 UNL     1     -37.920  15.904  -3.475  1.00 20.00     0.362 C 
ENDROOT
BRANCH   3   4
HETATM    4  N11 UNL     1     -36.717  15.116  -3.242  1.00 20.00     0.099 N 
HETATM    5  H28 UNL     1     -36.940  14.126  -3.343  1.00 20.00     0.317 HD
BRANCH   4   6
HETATM    6  C6  UNL     1     -35.660  15.475  -4.191  1.00 20.00     0.229 C 
HETATM    7  C4  UNL     1     -35.593  14.390  -5.273  1.00 20.00     0.036 C 
HETATM    8  C3  UNL     1     -34.659  13.310  -4.721  1.00 20.00     0.003 C 
HETATM    9  C5  UNL     1     -33.944  13.923  -3.512  1.00 20.00     0.011 C 
HETATM   10  C7  UNL     1     -34.238  15.433  -3.573  1.00 20.00    -0.017 C 
HETATM   11  C8  UNL     1     -33.222  16.136  -4.498  1.00 20.00     0.017 C 
HETATM   12  C9  UNL     1     -34.139  16.083  -2.187  1.00 20.00     0.017 C 
ENDBRANCH   4   6
ENDBRANCH   3   4
TORSDOF 2
ENDMDL
MODEL 9
REMARK VINA RESULT:      -4.2     11.247     12.771
REMARK  2 active torsions:
REMARK  status: ('A' for Active; 'I' for Inactive)
REMARK    1  A    between atoms: C6_6  and  N11_11 
REMARK    2  A    between atoms: C10_10  and  N11_11 
ROOT
HETATM    1  C1  UNL     1     -34.610  16.720  -0.701  1.00 20.00     0.013 C 
HETATM    2  C2  UNL     1     -34.205  16.959  -1.804  1.00 20.00    -0.087 C 
HETATM    3  C10 UNL     1     -33.707  17.257  -3.150  1.00 20.00     0.362 C 
ENDROOT
BRANCH   3   4
HETATM    4  N11 UNL     1     -33.702  16.056  -3.975  1.00 20.00     0.099 N 
HETATM    5  H28 UNL     1     -33.220  15.309  -3.475  1.00 20.00     0.317 HD
BRANCH   4   6
HETATM    6  C6  UNL     1     -35.068  15.628  -4.289  1.00 20.00     0.229 C 
HETATM    7  C4  UNL     1     -35.236  14.173  -3.834  1.00 20.00     0.036 C 
HETATM    8  C3  UNL     1     -34.752  13.313  -5.005  1.00 20.00     0.003 C 
HETATM    9  C5  UNL     1     -34.638  14.245  -6.217  1.00 20.00     0.011 C 
HETATM   10  C7  UNL     1     -35.352  15.548  -5.812  1.00 20.00    -0.017 C 
HETATM   11  C8  UNL     1     -36.867  15.429  -6.077  1.00 20.00     0.017 C 
HETATM   12  C9  UNL     1     -34.828  16.749  -6.610  1.00 20.00     0.017 C 
ENDBRANCH   4   6
ENDBRANCH   3   4
TORSDOF 2
ENDMDL
