MODEL 1
REMARK VINA RESULT:      -4.4      0.000      0.000
REMARK  2 active torsions:
REMARK  status: ('A' for Active; 'I' for Inactive)
REMARK    1  A    between atoms: C5_5  and  C9_9 
REMARK    2  A    between atoms: C5_5  and  O10_10 
ROOT
HETATM    1  C1  UNL     1     -43.044   5.406   0.794  1.00 20.00     0.004 C 
HETATM    2  C2  UNL     1     -43.205   6.387  -0.370  1.00 20.00     0.012 C 
HETATM    3  C3  UNL     1     -41.915   4.449   0.411  1.00 20.00     0.038 C 
HETATM    4  C4  UNL     1     -41.938   6.226  -1.230  1.00 20.00    -0.017 C 
HETATM    5  C5  UNL     1     -41.631   4.708  -1.076  1.00 20.00     0.064 C 
HETATM    6  C6  UNL     1     -40.803   7.110  -0.664  1.00 20.00     0.018 C 
HETATM    7  C7  UNL     1     -42.194   6.669  -2.677  1.00 20.00     0.018 C 
ENDROOT
BRANCH   5   8
HETATM    8  C9  UNL     1     -42.488   3.781  -1.948  1.00 20.00     0.034 C 
HETATM    9  C8  UNL     1     -41.647   2.946  -2.858  1.00 20.00     0.008 C 
ENDBRANCH   5   8
BRANCH   5  10
HETATM   10  O10 UNL     1     -40.266   4.413  -1.349  1.00 20.00    -0.389 OA
HETATM   11  H28 UNL     1     -40.239   3.478  -1.595  1.00 20.00     0.210 HD
ENDBRANCH   5  10
TORSDOF 2
ENDMDL
MODEL 2
REMARK VINA RESULT:      -4.4     12.106     13.754
REMARK  2 active torsions:
REMARK  status: ('A' for Active; 'I' for Inactive)
REMARK    1  A    between atoms: C5_5  and  C9_9 
REMARK    2  A    between atoms: C5_5  and  O10_10 
ROOT
HETATM    1  C1  UNL     1     -35.558  14.398  -6.171  1.00 20.00     0.004 C 
HETATM    2  C2  UNL     1     -35.802  14.437  -4.660  1.00 20.00     0.012 C 
HETATM    3  C3  UNL     1     -34.251  15.149  -6.425  1.00 20.00     0.038 C 
HETATM    4  C4  UNL     1     -34.465  14.871  -4.032  1.00 20.00    -0.017 C 
HETATM    5  C5  UNL     1     -33.905  15.850  -5.104  1.00 20.00     0.064 C 
HETATM    6  C6  UNL     1     -33.553  13.639  -3.836  1.00 20.00     0.018 C 
HETATM    7  C7  UNL     1     -34.686  15.509  -2.654  1.00 20.00     0.018 C 
ENDROOT
BRANCH   5   8
HETATM    8  C9  UNL     1     -34.514  17.258  -5.077  1.00 20.00     0.034 C 
HETATM    9  C8  UNL     1     -33.620  18.259  -5.734  1.00 20.00     0.008 C 
ENDBRANCH   5   8
BRANCH   5  10
HETATM   10  O10 UNL     1     -32.493  15.993  -5.005  1.00 20.00    -0.389 OA
HETATM   11  H28 UNL     1     -32.271  15.828  -4.078  1.00 20.00     0.210 HD
ENDBRANCH   5  10
TORSDOF 2
ENDMDL
MODEL 3
REMARK VINA RESULT:      -4.3     12.104     13.562
REMARK  2 active torsions:
REMARK  status: ('A' for Active; 'I' for Inactive)
REMARK    1  A    between atoms: C5_5  and  C9_9 
REMARK    2  A    between atoms: C5_5  and  O10_10 
ROOT
HETATM    1  C1  UNL     1     -36.178  16.708  -4.895  1.00 20.00     0.004 C 
HETATM    2  C2  UNL     1     -36.206  15.188  -5.077  1.00 20.00     0.012 C 
HETATM    3  C3  UNL     1     -34.719  17.098  -4.662  1.00 20.00     0.038 C 
HETATM    4  C4  UNL     1     -34.744  14.771  -5.322  1.00 20.00    -0.017 C 
HETATM    5  C5  UNL     1     -33.963  15.781  -4.432  1.00 20.00     0.064 C 
HETATM    6  C6  UNL     1     -34.399  14.927  -6.821  1.00 20.00     0.018 C 
HETATM    7  C7  UNL     1     -34.521  13.300  -4.946  1.00 20.00     0.018 C 
ENDROOT
BRANCH   5   8
HETATM    8  C9  UNL     1     -33.936  15.441  -2.936  1.00 20.00     0.034 C 
HETATM    9  C8  UNL     1     -33.820  16.668  -2.093  1.00 20.00     0.008 C 
ENDBRANCH   5   8
BRANCH   5  10
HETATM   10  O10 UNL     1     -32.615  15.933  -4.861  1.00 20.00    -0.389 OA
HETATM   11  H28 UNL     1     -32.087  16.020  -4.056  1.00 20.00     0.210 HD
ENDBRANCH   5  10
TORSDOF 2
ENDMDL
MODEL 4
REMARK VINA RESULT:      -4.2     11.750     13.367
REMARK  2 active torsions:
REMARK  status: ('A' for Active; 'I' for Inactive)
REMARK    1  A    between atoms: C5_5  and  C9_9 
REMARK    2  A    between atoms: C5_5  and  O10_10 
ROOT
HETATM    1  C1  UNL     1     -35.493  13.947  -3.990  1.00 20.00     0.004 C 
HETATM    2  C2  UNL     1     -35.943  15.344  -3.555  1.00 20.00     0.012 C 
HETATM    3  C3  UNL     1     -34.155  14.119  -4.708  1.00 20.00     0.038 C 
HETATM    4  C4  UNL     1     -34.700  16.243  -3.688  1.00 20.00    -0.017 C 
HETATM    5  C5  UNL     1     -33.986  15.630  -4.927  1.00 20.00     0.064 C 
HETATM    6  C6  UNL     1     -33.838  16.140  -2.409  1.00 20.00     0.018 C 
HETATM    7  C7  UNL     1     -35.101  17.715  -3.861  1.00 20.00     0.018 C 
ENDROOT
BRANCH   5   8
HETATM    8  C9  UNL     1     -34.576  16.036  -6.284  1.00 20.00     0.034 C 
HETATM    9  C8  UNL     1     -34.415  14.956  -7.302  1.00 20.00     0.008 C 
ENDBRANCH   5   8
BRANCH   5  10
HETATM   10  O10 UNL     1     -32.599  15.947  -4.951  1.00 20.00    -0.389 OA
HETATM   11  H28 UNL     1     -32.167  15.301  -4.375  1.00 20.00     0.210 HD
ENDBRANCH   5  10
TORSDOF 2
ENDMDL
MODEL 5
REMARK VINA RESULT:      -4.1     11.264     12.628
REMARK  2 active torsions:
REMARK  status: ('A' for Active; 'I' for Inactive)
REMARK    1  A    between atoms: C5_5  and  C9_9 
REMARK    2  A    between atoms: C5_5  and  O10_10 
ROOT
HETATM    1  C1  UNL     1     -34.598  13.266  -4.845  1.00 20.00     0.004 C 
HETATM    2  C2  UNL     1     -34.038  13.833  -3.537  1.00 20.00     0.012 C 
HETATM    3  C3  UNL     1     -35.497  14.348  -5.445  1.00 20.00     0.038 C 
HETATM    4  C4  UNL     1     -34.310  15.348  -3.588  1.00 20.00    -0.017 C 
HETATM    5  C5  UNL     1     -35.668  15.409  -4.347  1.00 20.00     0.064 C 
HETATM    6  C6  UNL     1     -33.178  16.059  -4.363  1.00 20.00     0.018 C 
HETATM    7  C7  UNL     1     -34.355  15.947  -2.176  1.00 20.00     0.018 C 
ENDROOT
BRANCH   5   8
HETATM    8  C9  UNL     1     -36.903  15.092  -3.494  1.00 20.00     0.034 C 
HETATM    9  C8  UNL     1     -38.099  14.799  -4.340  1.00 20.00     0.008 C 
ENDBRANCH   5   8
BRANCH   5  10
HETATM   10  O10 UNL     1     -35.880  16.679  -4.953  1.00 20.00    -0.389 OA
HETATM   11  H28 UNL     1     -35.459  17.326  -4.371  1.00 20.00     0.210 HD
ENDBRANCH   5  10
TORSDOF 2
ENDMDL
MODEL 6
REMARK VINA RESULT:      -4.1     11.442     12.941
REMARK  2 active torsions:
REMARK  status: ('A' for Active; 'I' for Inactive)
REMARK    1  A    between atoms: C5_5  and  C9_9 
REMARK    2  A    between atoms: C5_5  and  O10_10 
ROOT
HETATM    1  C1  UNL     1     -34.461  13.680  -5.203  1.00 20.00     0.004 C 
HETATM    2  C2  UNL     1     -34.452  15.099  -5.777  1.00 20.00     0.012 C 
HETATM    3  C3  UNL     1     -35.217  13.745  -3.876  1.00 20.00     0.038 C 
HETATM    4  C4  UNL     1     -35.513  15.878  -4.977  1.00 20.00    -0.017 C 
HETATM    5  C5  UNL     1     -35.390  15.239  -3.564  1.00 20.00     0.064 C 
HETATM    6  C6  UNL     1     -36.910  15.653  -5.599  1.00 20.00     0.018 C 
HETATM    7  C7  UNL     1     -35.228  17.386  -5.009  1.00 20.00     0.018 C 
ENDROOT
BRANCH   5   8
HETATM    8  C9  UNL     1     -34.210  15.743  -2.723  1.00 20.00     0.034 C 
HETATM    9  C8  UNL     1     -34.667  16.342  -1.433  1.00 20.00     0.008 C 
ENDBRANCH   5   8
BRANCH   5  10
HETATM   10  O10 UNL     1     -36.573  15.422  -2.794  1.00 20.00    -0.389 OA
HETATM   11  H28 UNL     1     -37.069  16.129  -3.230  1.00 20.00     0.210 HD
ENDBRANCH   5  10
TORSDOF 2
ENDMDL
MODEL 7
REMARK VINA RESULT:      -4.0     11.484     13.309
REMARK  2 active torsions:
REMARK  status: ('A' for Active; 'I' for Inactive)
REMARK    1  A    between atoms: C5_5  and  C9_9 
REMARK    2  A    between atoms: C5_5  and  O10_10 
ROOT
HETATM    1  C1  UNL     1     -33.563  13.699  -3.661  1.00 20.00     0.004 C 
HETATM    2  C2  UNL     1     -34.438  13.449  -4.893  1.00 20.00     0.012 C 
HETATM    3  C3  UNL     1     -33.750  15.167  -3.279  1.00 20.00     0.038 C 
HETATM    4  C4  UNL     1     -35.394  14.653  -4.977  1.00 20.00    -0.017 C 
HETATM    5  C5  UNL     1     -34.503  15.815  -4.450  1.00 20.00     0.064 C 
HETATM    6  C6  UNL     1     -36.625  14.409  -4.074  1.00 20.00     0.018 C 
HETATM    7  C7  UNL     1     -35.903  14.854  -6.411  1.00 20.00     0.018 C 
ENDROOT
BRANCH   5   8
HETATM    8  C9  UNL     1     -33.506  16.381  -5.470  1.00 20.00     0.034 C 
HETATM    9  C8  UNL     1     -33.607  17.868  -5.575  1.00 20.00     0.008 C 
ENDBRANCH   5   8
BRANCH   5  10
HETATM   10  O10 UNL     1     -35.281  16.902  -3.963  1.00 20.00    -0.389 OA
HETATM   11  H28 UNL     1     -34.684  17.437  -3.423  1.00 20.00     0.210 HD
ENDBRANCH   5  10
TORSDOF 2
ENDMDL
MODEL 8
REMARK VINA RESULT:      -4.0     11.577     13.115
REMARK  2 active torsions:
REMARK  status: ('A' for Active; 'I' for Inactive)
REMARK    1  A    between atoms: C5_5  and  C9_9 
REMARK    2  A    between atoms: C5_5  and  O10_10 
ROOT
HETATM    1  C1  UNL     1     -37.048  15.134  -4.112  1.00 20.00     0.004 C 
HETATM    2  C2  UNL     1     -36.012  14.007  -4.135  1.00 20.00     0.012 C 
HETATM    3  C3  UNL     1     -36.276  16.439  -3.921  1.00 20.00     0.038 C 
HETATM    4  C4  UNL     1     -34.650  14.696  -4.337  1.00 20.00    -0.017 C 
HETATM    5  C5  UNL     1     -34.841  16.029  -3.556  1.00 20.00     0.064 C 
HETATM    6  C6  UNL     1     -34.399  14.935  -5.843  1.00 20.00     0.018 C 
HETATM    7  C7  UNL     1     -33.505  13.820  -3.809  1.00 20.00     0.018 C 
ENDROOT
BRANCH   5   8
HETATM    8  C9  UNL     1     -34.696  15.916  -2.033  1.00 20.00     0.034 C 
HETATM    9  C8  UNL     1     -33.883  17.036  -1.470  1.00 20.00     0.008 C 
ENDBRANCH   5   8
BRANCH   5  10
HETATM   10  O10 UNL     1     -33.939  17.037  -3.998  1.00 20.00    -0.389 OA
HETATM   11  H28 UNL     1     -34.403  17.525  -4.692  1.00 20.00     0.210 HD
ENDBRANCH   5  10
TORSDOF 2
ENDMDL
MODEL 9
REMARK VINA RESULT:      -4.0      1.329      2.462
REMARK  2 active torsions:
REMARK  status: ('A' for Active; 'I' for Inactive)
REMARK    1  A    between atoms: C5_5  and  C9_9 
REMARK    2  A    between atoms: C5_5  and  O10_10 
ROOT
HETATM    1  C1  UNL     1     -42.896   6.217  -3.190  1.00 20.00     0.004 C 
HETATM    2  C2  UNL     1     -41.837   6.727  -2.208  1.00 20.00     0.012 C 
HETATM    3  C3  UNL     1     -43.304   4.823  -2.714  1.00 20.00     0.038 C 
HETATM    4  C4  UNL     1     -41.922   5.797  -0.984  1.00 20.00    -0.017 C 
HETATM    5  C5  UNL     1     -42.282   4.431  -1.637  1.00 20.00     0.064 C 
HETATM    6  C6  UNL     1     -43.027   6.292  -0.024  1.00 20.00     0.018 C 
HETATM    7  C7  UNL     1     -40.599   5.789  -0.206  1.00 20.00     0.018 C 
ENDROOT
BRANCH   5   8
HETATM    8  C9  UNL     1     -41.103   3.685  -2.275  1.00 20.00     0.034 C 
HETATM    9  C8  UNL     1     -41.564   2.571  -3.157  1.00 20.00     0.008 C 
ENDBRANCH   5   8
BRANCH   5  10
HETATM   10  O10 UNL     1     -42.897   3.545  -0.709  1.00 20.00    -0.389 OA
HETATM   11  H28 UNL     1     -42.177   3.050  -0.294  1.00 20.00     0.210 HD
ENDBRANCH   5  10
TORSDOF 2
ENDMDL
