MODEL 1
REMARK VINA RESULT:      -4.3      0.000      0.000
REMARK  1 active torsions:
REMARK  status: ('A' for Active; 'I' for Inactive)
REMARK    1  A    between atoms: C4_4  and  C9_9 
ROOT
HETATM    1  C1  UNL     1     -33.664  15.929  -5.385  1.00 20.00     0.001 C 
HETATM    2  C2  UNL     1     -33.100  15.672  -3.987  1.00 20.00     0.007 C 
HETATM    3  C3  UNL     1     -35.161  15.630  -5.317  1.00 20.00     0.009 C 
HETATM    4  C4  UNL     1     -34.309  15.412  -3.075  1.00 20.00     0.011 C 
HETATM    5  C5  UNL     1     -35.364  14.804  -4.036  1.00 20.00    -0.043 C 
HETATM    6  C6  UNL     1     -36.808  14.905  -3.534  1.00 20.00     0.015 C 
HETATM    7  C7  UNL     1     -35.053  13.317  -4.308  1.00 20.00     0.015 C 
ENDROOT
BRANCH   4   8
HETATM    8  C9  UNL     1     -34.736  16.708  -2.380  1.00 20.00     0.083 C 
HETATM    9  C8  UNL     1     -34.696  16.571  -0.866  1.00 20.00     0.027 C 
HETATM   10 CL10 UNL     1     -33.659  18.040  -2.887  1.00 20.00    -0.125 Cl
ENDBRANCH   4   8
TORSDOF 1
ENDMDL
MODEL 2
REMARK VINA RESULT:      -4.2      1.540      2.163
REMARK  1 active torsions:
REMARK  status: ('A' for Active; 'I' for Inactive)
REMARK    1  A    between atoms: C4_4  and  C9_9 
ROOT
HETATM    1  C1  UNL     1     -34.874  13.466  -5.305  1.00 20.00     0.001 C 
HETATM    2  C2  UNL     1     -34.665  13.546  -3.792  1.00 20.00     0.007 C 
HETATM    3  C3  UNL     1     -35.590  14.751  -5.719  1.00 20.00     0.009 C 
HETATM    4  C4  UNL     1     -35.090  14.960  -3.372  1.00 20.00     0.011 C 
HETATM    5  C5  UNL     1     -36.166  15.343  -4.422  1.00 20.00    -0.043 C 
HETATM    6  C6  UNL     1     -36.407  16.850  -4.559  1.00 20.00     0.015 C 
HETATM    7  C7  UNL     1     -37.514  14.670  -4.083  1.00 20.00     0.015 C 
ENDROOT
BRANCH   4   8
HETATM    8  C9  UNL     1     -33.872  15.887  -3.325  1.00 20.00     0.083 C 
HETATM    9  C8  UNL     1     -33.799  16.650  -2.012  1.00 20.00     0.027 C 
HETATM   10 CL10 UNL     1     -32.382  14.926  -3.540  1.00 20.00    -0.125 Cl
ENDBRANCH   4   8
TORSDOF 1
ENDMDL
MODEL 3
REMARK VINA RESULT:      -4.2      1.568      2.740
REMARK  1 active torsions:
REMARK  status: ('A' for Active; 'I' for Inactive)
REMARK    1  A    between atoms: C4_4  and  C9_9 
ROOT
HETATM    1  C1  UNL     1     -33.640  16.688  -2.828  1.00 20.00     0.001 C 
HETATM    2  C2  UNL     1     -34.762  15.885  -2.168  1.00 20.00     0.007 C 
HETATM    3  C3  UNL     1     -33.483  16.141  -4.246  1.00 20.00     0.009 C 
HETATM    4  C4  UNL     1     -35.373  15.009  -3.272  1.00 20.00     0.011 C 
HETATM    5  C5  UNL     1     -34.189  14.774  -4.246  1.00 20.00    -0.043 C 
HETATM    6  C6  UNL     1     -34.608  14.366  -5.663  1.00 20.00     0.015 C 
HETATM    7  C7  UNL     1     -33.243  13.687  -3.693  1.00 20.00     0.015 C 
ENDROOT
BRANCH   4   8
HETATM    8  C9  UNL     1     -36.590  15.707  -3.887  1.00 20.00     0.083 C 
HETATM    9  C8  UNL     1     -37.783  14.769  -3.984  1.00 20.00     0.027 C 
HETATM   10 CL10 UNL     1     -37.028  17.127  -2.897  1.00 20.00    -0.125 Cl
ENDBRANCH   4   8
TORSDOF 1
ENDMDL
MODEL 4
REMARK VINA RESULT:      -4.1      2.062      3.206
REMARK  1 active torsions:
REMARK  status: ('A' for Active; 'I' for Inactive)
REMARK    1  A    between atoms: C4_4  and  C9_9 
ROOT
HETATM    1  C1  UNL     1     -34.710  13.286  -5.196  1.00 20.00     0.001 C 
HETATM    2  C2  UNL     1     -34.594  14.594  -5.980  1.00 20.00     0.007 C 
HETATM    3  C3  UNL     1     -34.722  13.659  -3.715  1.00 20.00     0.009 C 
HETATM    4  C4  UNL     1     -34.733  15.726  -4.951  1.00 20.00     0.011 C 
HETATM    5  C5  UNL     1     -34.184  15.098  -3.643  1.00 20.00    -0.043 C 
HETATM    6  C6  UNL     1     -34.647  15.800  -2.362  1.00 20.00     0.015 C 
HETATM    7  C7  UNL     1     -32.641  15.090  -3.656  1.00 20.00     0.015 C 
ENDROOT
BRANCH   4   8
HETATM    8  C9  UNL     1     -36.188  16.202  -4.881  1.00 20.00     0.083 C 
HETATM    9  C8  UNL     1     -36.287  17.717  -4.967  1.00 20.00     0.027 C 
HETATM   10 CL10 UNL     1     -37.121  15.467  -6.215  1.00 20.00    -0.125 Cl
ENDBRANCH   4   8
TORSDOF 1
ENDMDL
MODEL 5
REMARK VINA RESULT:      -4.1      1.787      3.085
REMARK  1 active torsions:
REMARK  status: ('A' for Active; 'I' for Inactive)
REMARK    1  A    between atoms: C4_4  and  C9_9 
ROOT
HETATM    1  C1  UNL     1     -34.380  14.315  -3.457  1.00 20.00     0.001 C 
HETATM    2  C2  UNL     1     -33.241  15.311  -3.681  1.00 20.00     0.007 C 
HETATM    3  C3  UNL     1     -35.602  15.130  -3.040  1.00 20.00     0.009 C 
HETATM    4  C4  UNL     1     -33.866  16.710  -3.578  1.00 20.00     0.011 C 
HETATM    5  C5  UNL     1     -35.061  16.503  -2.610  1.00 20.00    -0.043 C 
HETATM    6  C6  UNL     1     -36.145  17.582  -2.705  1.00 20.00     0.015 C 
HETATM    7  C7  UNL     1     -34.567  16.447  -1.149  1.00 20.00     0.015 C 
ENDROOT
BRANCH   4   8
HETATM    8  C9  UNL     1     -34.242  17.226  -4.970  1.00 20.00     0.083 C 
HETATM    9  C8  UNL     1     -33.566  18.553  -5.277  1.00 20.00     0.027 C 
HETATM   10 CL10 UNL     1     -33.772  16.019  -6.201  1.00 20.00    -0.125 Cl
ENDBRANCH   4   8
TORSDOF 1
ENDMDL
MODEL 6
REMARK VINA RESULT:      -4.0      1.648      2.916
REMARK  1 active torsions:
REMARK  status: ('A' for Active; 'I' for Inactive)
REMARK    1  A    between atoms: C4_4  and  C9_9 
ROOT
HETATM    1  C1  UNL     1     -35.407  13.545  -4.097  1.00 20.00     0.001 C 
HETATM    2  C2  UNL     1     -35.790  14.961  -3.665  1.00 20.00     0.007 C 
HETATM    3  C3  UNL     1     -34.765  13.665  -5.478  1.00 20.00     0.009 C 
HETATM    4  C4  UNL     1     -35.194  15.909  -4.716  1.00 20.00     0.011 C 
HETATM    5  C5  UNL     1     -35.171  15.050  -6.008  1.00 20.00    -0.043 C 
HETATM    6  C6  UNL     1     -34.191  15.544  -7.078  1.00 20.00     0.015 C 
HETATM    7  C7  UNL     1     -36.579  14.988  -6.639  1.00 20.00     0.015 C 
ENDROOT
BRANCH   4   8
HETATM    8  C9  UNL     1     -33.825  16.419  -4.253  1.00 20.00     0.083 C 
HETATM    9  C8  UNL     1     -33.645  17.897  -4.563  1.00 20.00     0.027 C 
HETATM   10 CL10 UNL     1     -33.653  16.153  -2.495  1.00 20.00    -0.125 Cl
ENDBRANCH   4   8
TORSDOF 1
ENDMDL
MODEL 7
REMARK VINA RESULT:      -4.0     11.478     12.478
REMARK  1 active torsions:
REMARK  status: ('A' for Active; 'I' for Inactive)
REMARK    1  A    between atoms: C4_4  and  C9_9 
ROOT
HETATM    1  C1  UNL     1     -33.881   5.022   2.555  1.00 20.00     0.001 C 
HETATM    2  C2  UNL     1     -34.822   5.861   3.420  1.00 20.00     0.007 C 
HETATM    3  C3  UNL     1     -32.476   5.588   2.756  1.00 20.00     0.009 C 
HETATM    4  C4  UNL     1     -33.927   6.784   4.261  1.00 20.00     0.011 C 
HETATM    5  C5  UNL     1     -32.673   6.984   3.370  1.00 20.00    -0.043 C 
HETATM    6  C6  UNL     1     -31.423   7.437   4.132  1.00 20.00     0.015 C 
HETATM    7  C7  UNL     1     -32.960   8.018   2.261  1.00 20.00     0.015 C 
ENDROOT
BRANCH   4   8
HETATM    8  C9  UNL     1     -33.655   6.153   5.630  1.00 20.00     0.083 C 
HETATM    9  C8  UNL     1     -33.721   7.184   6.746  1.00 20.00     0.027 C 
HETATM   10 CL10 UNL     1     -34.850   4.862   5.941  1.00 20.00    -0.125 Cl
ENDBRANCH   4   8
TORSDOF 1
ENDMDL
MODEL 8
REMARK VINA RESULT:      -4.0     12.060     13.746
REMARK  1 active torsions:
REMARK  status: ('A' for Active; 'I' for Inactive)
REMARK    1  A    between atoms: C4_4  and  C9_9 
ROOT
HETATM    1  C1  UNL     1     -43.065   5.615   0.772  1.00 20.00     0.001 C 
HETATM    2  C2  UNL     1     -41.967   4.619   0.397  1.00 20.00     0.007 C 
HETATM    3  C3  UNL     1     -43.259   6.531  -0.435  1.00 20.00     0.009 C 
HETATM    4  C4  UNL     1     -41.669   4.846  -1.093  1.00 20.00     0.011 C 
HETATM    5  C5  UNL     1     -42.005   6.346  -1.305  1.00 20.00    -0.043 C 
HETATM    6  C6  UNL     1     -42.279   6.732  -2.762  1.00 20.00     0.015 C 
HETATM    7  C7  UNL     1     -40.857   7.235  -0.781  1.00 20.00     0.015 C 
ENDROOT
BRANCH   4   8
HETATM    8  C9  UNL     1     -42.483   3.872  -1.950  1.00 20.00     0.083 C 
HETATM    9  C8  UNL     1     -41.588   3.049  -2.864  1.00 20.00     0.027 C 
HETATM   10 CL10 UNL     1     -43.417   2.780  -0.889  1.00 20.00    -0.125 Cl
ENDBRANCH   4   8
TORSDOF 1
ENDMDL
MODEL 9
REMARK VINA RESULT:      -4.0      2.328      3.846
REMARK  1 active torsions:
REMARK  status: ('A' for Active; 'I' for Inactive)
REMARK    1  A    between atoms: C4_4  and  C9_9 
ROOT
HETATM    1  C1  UNL     1     -35.451  13.603  -4.107  1.00 20.00     0.001 C 
HETATM    2  C2  UNL     1     -34.808  13.699  -5.491  1.00 20.00     0.007 C 
HETATM    3  C3  UNL     1     -35.080  14.883  -3.360  1.00 20.00     0.009 C 
HETATM    4  C4  UNL     1     -34.229  15.117  -5.601  1.00 20.00     0.011 C 
HETATM    5  C5  UNL     1     -33.896  15.488  -4.132  1.00 20.00    -0.043 C 
HETATM    6  C6  UNL     1     -33.774  16.993  -3.873  1.00 20.00     0.015 C 
HETATM    7  C7  UNL     1     -32.576  14.818  -3.693  1.00 20.00     0.015 C 
ENDROOT
BRANCH   4   8
HETATM    8  C9  UNL     1     -35.233  16.046  -6.292  1.00 20.00     0.083 C 
HETATM    9  C8  UNL     1     -34.571  16.873  -7.383  1.00 20.00     0.027 C 
HETATM   10 CL10 UNL     1     -36.556  15.075  -6.999  1.00 20.00    -0.125 Cl
ENDBRANCH   4   8
TORSDOF 1
ENDMDL
