MODEL 1
REMARK VINA RESULT:      -4.9      0.000      0.000
REMARK  0 active torsions:
REMARK  status: ('A' for Active; 'I' for Inactive)
ROOT
HETATM    1  C1  UNL     1     -34.437  15.864  -2.333  1.00 20.00     0.086 C 
HETATM    2  C2  UNL     1     -34.776  13.277  -5.157  1.00 20.00     0.003 C 
HETATM    3  C3  UNL     1     -35.057  14.231  -6.312  1.00 20.00     0.001 C 
HETATM    4  C4  UNL     1     -34.955  13.949  -3.796  1.00 20.00     0.042 C 
HETATM    5  C5  UNL     1     -34.259  15.529  -6.196  1.00 20.00     0.012 C 
HETATM    6  C6  UNL     1     -34.153  15.261  -3.651  1.00 20.00     0.132 C 
HETATM    7  C7  UNL     1     -34.449  16.255  -4.835  1.00 20.00    -0.013 C 
HETATM    8  C8  UNL     1     -35.902  16.800  -4.763  1.00 20.00     0.018 C 
HETATM    9  C9  UNL     1     -33.518  17.493  -4.822  1.00 20.00     0.018 C 
HETATM   10  N10 UNL     1     -34.661  16.337  -1.297  1.00 20.00    -0.195 NA
HETATM   11 CL11 UNL     1     -32.393  14.826  -3.578  1.00 20.00    -0.102 Cl
ENDROOT
TORSDOF 0
ENDMDL
MODEL 2
REMARK VINA RESULT:      -4.9      1.970      2.729
REMARK  0 active torsions:
REMARK  status: ('A' for Active; 'I' for Inactive)
ROOT
HETATM    1  C1  UNL     1     -37.071  14.547  -4.047  1.00 20.00     0.086 C 
HETATM    2  C2  UNL     1     -34.345  15.183  -6.681  1.00 20.00     0.003 C 
HETATM    3  C3  UNL     1     -33.650  16.365  -6.014  1.00 20.00     0.001 C 
HETATM    4  C4  UNL     1     -35.721  14.906  -6.077  1.00 20.00     0.042 C 
HETATM    5  C5  UNL     1     -33.598  16.220  -4.494  1.00 20.00     0.012 C 
HETATM    6  C6  UNL     1     -35.694  14.750  -4.541  1.00 20.00     0.132 C 
HETATM    7  C7  UNL     1     -34.989  15.974  -3.846  1.00 20.00    -0.013 C 
HETATM    8  C8  UNL     1     -35.836  17.267  -3.986  1.00 20.00     0.018 C 
HETATM    9  C9  UNL     1     -34.774  15.755  -2.328  1.00 20.00     0.018 C 
HETATM   10  N10 UNL     1     -38.153  14.388  -3.659  1.00 20.00    -0.195 NA
HETATM   11 CL11 UNL     1     -34.844  13.193  -4.159  1.00 20.00    -0.102 Cl
ENDROOT
TORSDOF 0
ENDMDL
MODEL 3
REMARK VINA RESULT:      -4.9      2.348      3.369
REMARK  0 active torsions:
REMARK  status: ('A' for Active; 'I' for Inactive)
ROOT
HETATM    1  C1  UNL     1     -37.259  14.833  -3.844  1.00 20.00     0.086 C 
HETATM    2  C2  UNL     1     -33.866  16.188  -2.648  1.00 20.00     0.003 C 
HETATM    3  C3  UNL     1     -32.967  15.487  -3.660  1.00 20.00     0.001 C 
HETATM    4  C4  UNL     1     -35.267  15.579  -2.599  1.00 20.00     0.042 C 
HETATM    5  C5  UNL     1     -33.612  15.402  -5.043  1.00 20.00     0.012 C 
HETATM    6  C6  UNL     1     -35.942  15.487  -3.985  1.00 20.00     0.132 C 
HETATM    7  C7  UNL     1     -35.024  14.752  -5.031  1.00 20.00    -0.013 C 
HETATM    8  C8  UNL     1     -34.872  13.245  -4.688  1.00 20.00     0.018 C 
HETATM    9  C9  UNL     1     -35.589  14.817  -6.471  1.00 20.00     0.018 C 
HETATM   10  N10 UNL     1     -38.293  14.318  -3.732  1.00 20.00    -0.195 NA
HETATM   11 CL11 UNL     1     -36.334  17.176  -4.520  1.00 20.00    -0.102 Cl
ENDROOT
TORSDOF 0
ENDMDL
MODEL 4
REMARK VINA RESULT:      -4.9      2.166      3.382
REMARK  0 active torsions:
REMARK  status: ('A' for Active; 'I' for Inactive)
ROOT
HETATM    1  C1  UNL     1     -36.896  14.737  -4.197  1.00 20.00     0.086 C 
HETATM    2  C2  UNL     1     -34.707  17.500  -5.729  1.00 20.00     0.003 C 
HETATM    3  C3  UNL     1     -33.496  17.371  -4.812  1.00 20.00     0.001 C 
HETATM    4  C4  UNL     1     -35.936  16.790  -5.166  1.00 20.00     0.042 C 
HETATM    5  C5  UNL     1     -33.207  15.918  -4.439  1.00 20.00     0.012 C 
HETATM    6  C6  UNL     1     -35.672  15.317  -4.785  1.00 20.00     0.132 C 
HETATM    7  C7  UNL     1     -34.430  15.179  -3.828  1.00 20.00    -0.013 C 
HETATM    8  C8  UNL     1     -34.726  15.784  -2.429  1.00 20.00     0.018 C 
HETATM    9  C9  UNL     1     -34.023  13.704  -3.588  1.00 20.00     0.018 C 
HETATM   10  N10 UNL     1     -37.858  14.282  -3.734  1.00 20.00    -0.195 NA
HETATM   11 CL11 UNL     1     -35.427  14.386  -6.324  1.00 20.00    -0.102 Cl
ENDROOT
TORSDOF 0
ENDMDL
MODEL 5
REMARK VINA RESULT:      -4.8      1.969      3.036
REMARK  0 active torsions:
REMARK  status: ('A' for Active; 'I' for Inactive)
ROOT
HETATM    1  C1  UNL     1     -33.923  17.506  -4.870  1.00 20.00     0.086 C 
HETATM    2  C2  UNL     1     -35.086  14.110  -6.244  1.00 20.00     0.003 C 
HETATM    3  C3  UNL     1     -34.670  13.231  -5.070  1.00 20.00     0.001 C 
HETATM    4  C4  UNL     1     -34.432  15.490  -6.192  1.00 20.00     0.042 C 
HETATM    5  C5  UNL     1     -34.884  13.924  -3.726  1.00 20.00     0.012 C 
HETATM    6  C6  UNL     1     -34.639  16.214  -4.844  1.00 20.00     0.132 C 
HETATM    7  C7  UNL     1     -34.199  15.316  -3.629  1.00 20.00    -0.013 C 
HETATM    8  C8  UNL     1     -32.660  15.110  -3.608  1.00 20.00     0.018 C 
HETATM    9  C9  UNL     1     -34.575  15.937  -2.261  1.00 20.00     0.018 C 
HETATM   10  N10 UNL     1     -33.360  18.521  -4.890  1.00 20.00    -0.195 NA
HETATM   11 CL11 UNL     1     -36.391  16.673  -4.728  1.00 20.00    -0.102 Cl
ENDROOT
TORSDOF 0
ENDMDL
MODEL 6
REMARK VINA RESULT:      -4.5      2.218      3.389
REMARK  0 active torsions:
REMARK  status: ('A' for Active; 'I' for Inactive)
ROOT
HETATM    1  C1  UNL     1     -34.846  13.750  -4.617  1.00 20.00     0.086 C 
HETATM    2  C2  UNL     1     -33.432  17.324  -4.670  1.00 20.00     0.003 C 
HETATM    3  C3  UNL     1     -33.893  17.734  -6.064  1.00 20.00     0.001 C 
HETATM    4  C4  UNL     1     -33.507  15.812  -4.459  1.00 20.00     0.042 C 
HETATM    5  C5  UNL     1     -35.270  17.167  -6.407  1.00 20.00     0.012 C 
HETATM    6  C6  UNL     1     -34.891  15.215  -4.793  1.00 20.00     0.132 C 
HETATM    7  C7  UNL     1     -35.367  15.625  -6.236  1.00 20.00    -0.013 C 
HETATM    8  C8  UNL     1     -34.495  14.951  -7.330  1.00 20.00     0.018 C 
HETATM    9  C9  UNL     1     -36.829  15.206  -6.524  1.00 20.00     0.018 C 
HETATM   10  N10 UNL     1     -34.810  12.598  -4.479  1.00 20.00    -0.195 NA
HETATM   11 CL11 UNL     1     -36.058  15.786  -3.525  1.00 20.00    -0.102 Cl
ENDROOT
TORSDOF 0
ENDMDL
MODEL 7
REMARK VINA RESULT:      -4.5      2.327      3.503
REMARK  0 active torsions:
REMARK  status: ('A' for Active; 'I' for Inactive)
ROOT
HETATM    1  C1  UNL     1     -35.055  13.836  -4.228  1.00 20.00     0.086 C 
HETATM    2  C2  UNL     1     -34.871  16.823  -1.816  1.00 20.00     0.003 C 
HETATM    3  C3  UNL     1     -34.485  17.905  -2.817  1.00 20.00     0.001 C 
HETATM    4  C4  UNL     1     -34.667  15.417  -2.378  1.00 20.00     0.042 C 
HETATM    5  C5  UNL     1     -35.173  17.714  -4.167  1.00 20.00     0.012 C 
HETATM    6  C6  UNL     1     -35.359  15.196  -3.741  1.00 20.00     0.132 C 
HETATM    7  C7  UNL     1     -34.953  16.304  -4.783  1.00 20.00    -0.013 C 
HETATM    8  C8  UNL     1     -33.462  16.171  -5.195  1.00 20.00     0.018 C 
HETATM    9  C9  UNL     1     -35.777  16.222  -6.091  1.00 20.00     0.018 C 
HETATM   10  N10 UNL     1     -34.815  12.767  -4.611  1.00 20.00    -0.195 NA
HETATM   11 CL11 UNL     1     -37.151  15.183  -3.454  1.00 20.00    -0.102 Cl
ENDROOT
TORSDOF 0
ENDMDL
MODEL 8
REMARK VINA RESULT:      -4.4      1.902      2.732
REMARK  0 active torsions:
REMARK  status: ('A' for Active; 'I' for Inactive)
ROOT
HETATM    1  C1  UNL     1     -34.077  17.771  -3.480  1.00 20.00     0.086 C 
HETATM    2  C2  UNL     1     -37.015  15.293  -3.425  1.00 20.00     0.003 C 
HETATM    3  C3  UNL     1     -36.369  14.151  -4.201  1.00 20.00     0.001 C 
HETATM    4  C4  UNL     1     -36.246  16.604  -3.579  1.00 20.00     0.042 C 
HETATM    5  C5  UNL     1     -34.886  13.995  -3.869  1.00 20.00     0.012 C 
HETATM    6  C6  UNL     1     -34.744  16.474  -3.244  1.00 20.00     0.132 C 
HETATM    7  C7  UNL     1     -34.068  15.304  -4.051  1.00 20.00    -0.013 C 
HETATM    8  C8  UNL     1     -33.994  15.635  -5.567  1.00 20.00     0.018 C 
HETATM    9  C9  UNL     1     -32.615  15.026  -3.594  1.00 20.00     0.018 C 
HETATM   10  N10 UNL     1     -33.554  18.790  -3.665  1.00 20.00    -0.195 NA
HETATM   11 CL11 UNL     1     -34.599  16.212  -1.454  1.00 20.00    -0.102 Cl
ENDROOT
TORSDOF 0
ENDMDL
MODEL 9
REMARK VINA RESULT:      -4.4      1.720      2.778
REMARK  0 active torsions:
REMARK  status: ('A' for Active; 'I' for Inactive)
ROOT
HETATM    1  C1  UNL     1     -34.710  16.233  -2.523  1.00 20.00     0.086 C 
HETATM    2  C2  UNL     1     -33.765  16.331  -6.248  1.00 20.00     0.003 C 
HETATM    3  C3  UNL     1     -34.422  15.029  -6.688  1.00 20.00     0.001 C 
HETATM    4  C4  UNL     1     -33.628  16.425  -4.729  1.00 20.00     0.042 C 
HETATM    5  C5  UNL     1     -35.747  14.780  -5.969  1.00 20.00     0.012 C 
HETATM    6  C6  UNL     1     -34.955  16.183  -3.979  1.00 20.00     0.132 C 
HETATM    7  C7  UNL     1     -35.633  14.832  -4.420  1.00 20.00    -0.013 C 
HETATM    8  C8  UNL     1     -34.809  13.606  -3.943  1.00 20.00     0.018 C 
HETATM    9  C9  UNL     1     -37.055  14.658  -3.832  1.00 20.00     0.018 C 
HETATM   10  N10 UNL     1     -34.517  16.272  -1.380  1.00 20.00    -0.195 NA
HETATM   11 CL11 UNL     1     -36.038  17.603  -4.303  1.00 20.00    -0.102 Cl
ENDROOT
TORSDOF 0
ENDMDL
