MODEL 1
REMARK VINA RESULT:      -4.2      0.000      0.000
REMARK  3 active torsions:
REMARK  status: ('A' for Active; 'I' for Inactive)
REMARK    1  A    between atoms: C1_1  and  C6_6 
REMARK    2  A    between atoms: C2_2  and  C7_7 
REMARK    3  A    between atoms: C5_5  and  C6_6 
ROOT
HETATM    1  C3  UNL     1     -36.349  14.299  -3.904  1.00 20.00     0.124 A 
HETATM    2  C4  UNL     1     -35.380  13.426  -4.353  1.00 20.00     0.070 A 
HETATM    3  C5  UNL     1     -34.583  15.329  -3.108  1.00 20.00     0.085 A 
HETATM    4  N8  UNL     1     -35.893  15.390  -3.190  1.00 20.00    -0.257 NA
HETATM    5  S9  UNL     1     -33.833  13.985  -3.868  1.00 20.00    -0.084 SA
ENDROOT
BRANCH   3   6
HETATM    6  C6  UNL     1     -33.724  16.345  -2.402  1.00 20.00     0.161 C 
BRANCH   6   7
HETATM    7  C1  UNL     1     -34.318  16.776  -1.130  1.00 20.00    -0.099 C 
HETATM    8  C2  UNL     1     -34.805  17.133  -0.092  1.00 20.00    -0.091 C 
BRANCH   8   9
HETATM    9  C7  UNL     1     -35.397  17.567   1.171  1.00 20.00     0.208 C 
HETATM   10 CL10 UNL     1     -34.136  18.322   2.165  1.00 20.00    -0.117 Cl
ENDBRANCH   8   9
ENDBRANCH   6   7
ENDBRANCH   3   6
TORSDOF 3
ENDMDL
MODEL 2
REMARK VINA RESULT:      -4.1      1.170      1.311
REMARK  3 active torsions:
REMARK  status: ('A' for Active; 'I' for Inactive)
REMARK    1  A    between atoms: C1_1  and  C6_6 
REMARK    2  A    between atoms: C2_2  and  C7_7 
REMARK    3  A    between atoms: C5_5  and  C6_6 
ROOT
HETATM    1  C3  UNL     1     -35.115  13.507  -4.147  1.00 20.00     0.124 A 
HETATM    2  C4  UNL     1     -36.327  14.165  -4.164  1.00 20.00     0.070 A 
HETATM    3  C5  UNL     1     -34.507  15.345  -3.115  1.00 20.00     0.085 A 
HETATM    4  N8  UNL     1     -34.070  14.183  -3.546  1.00 20.00    -0.257 NA
HETATM    5  S9  UNL     1     -36.164  15.691  -3.397  1.00 20.00    -0.084 SA
ENDROOT
BRANCH   3   6
HETATM    6  C6  UNL     1     -33.657  16.365  -2.403  1.00 20.00     0.161 C 
BRANCH   6   7
HETATM    7  C1  UNL     1     -34.261  16.793  -1.135  1.00 20.00    -0.099 C 
HETATM    8  C2  UNL     1     -34.760  17.144  -0.100  1.00 20.00    -0.091 C 
BRANCH   8   9
HETATM    9  C7  UNL     1     -35.365  17.571   1.159  1.00 20.00     0.208 C 
HETATM   10 CL10 UNL     1     -34.126  18.368   2.149  1.00 20.00    -0.117 Cl
ENDBRANCH   8   9
ENDBRANCH   6   7
ENDBRANCH   3   6
TORSDOF 3
ENDMDL
MODEL 3
REMARK VINA RESULT:      -3.9     10.779     11.113
REMARK  3 active torsions:
REMARK  status: ('A' for Active; 'I' for Inactive)
REMARK    1  A    between atoms: C1_1  and  C6_6 
REMARK    2  A    between atoms: C2_2  and  C7_7 
REMARK    3  A    between atoms: C5_5  and  C6_6 
ROOT
HETATM    1  C3  UNL     1     -35.226   5.068   3.888  1.00 20.00     0.124 A 
HETATM    2  C4  UNL     1     -35.250   5.255   5.254  1.00 20.00     0.070 A 
HETATM    3  C5  UNL     1     -33.304   6.101   4.113  1.00 20.00     0.085 A 
HETATM    4  N8  UNL     1     -34.111   5.553   3.233  1.00 20.00    -0.257 NA
HETATM    5  S9  UNL     1     -33.824   6.068   5.749  1.00 20.00    -0.084 SA
ENDROOT
BRANCH   3   6
HETATM    6  C6  UNL     1     -31.983   6.741   3.778  1.00 20.00     0.161 C 
BRANCH   6   7
HETATM    7  C1  UNL     1     -32.114   7.744   2.713  1.00 20.00    -0.099 C 
HETATM    8  C2  UNL     1     -32.217   8.565   1.842  1.00 20.00    -0.091 C 
BRANCH   8   9
HETATM    9  C7  UNL     1     -32.342   9.563   0.784  1.00 20.00     0.208 C 
HETATM   10 CL10 UNL     1     -32.878   8.758  -0.704  1.00 20.00    -0.117 Cl
ENDBRANCH   8   9
ENDBRANCH   6   7
ENDBRANCH   3   6
TORSDOF 3
ENDMDL
MODEL 4
REMARK VINA RESULT:      -3.9      2.034      2.726
REMARK  3 active torsions:
REMARK  status: ('A' for Active; 'I' for Inactive)
REMARK    1  A    between atoms: C1_1  and  C6_6 
REMARK    2  A    between atoms: C2_2  and  C7_7 
REMARK    3  A    between atoms: C5_5  and  C6_6 
ROOT
HETATM    1  C3  UNL     1     -38.761  14.764  -4.457  1.00 20.00     0.124 A 
HETATM    2  C4  UNL     1     -38.405  15.475  -5.584  1.00 20.00     0.070 A 
HETATM    3  C5  UNL     1     -36.581  14.679  -4.225  1.00 20.00     0.085 A 
HETATM    4  N8  UNL     1     -37.717  14.307  -3.677  1.00 20.00    -0.257 NA
HETATM    5  S9  UNL     1     -36.695  15.583  -5.679  1.00 20.00    -0.084 SA
ENDROOT
BRANCH   3   6
HETATM    6  C6  UNL     1     -35.220  14.366  -3.662  1.00 20.00     0.161 C 
BRANCH   6   7
HETATM    7  C1  UNL     1     -34.767  15.395  -2.718  1.00 20.00    -0.099 C 
HETATM    8  C2  UNL     1     -34.392  16.235  -1.945  1.00 20.00    -0.091 C 
BRANCH   8   9
HETATM    9  C7  UNL     1     -33.937  17.257  -1.006  1.00 20.00     0.208 C 
HETATM   10 CL10 UNL     1     -34.979  17.220   0.430  1.00 20.00    -0.117 Cl
ENDBRANCH   8   9
ENDBRANCH   6   7
ENDBRANCH   3   6
TORSDOF 3
ENDMDL
MODEL 5
REMARK VINA RESULT:      -3.8      2.072      2.360
REMARK  3 active torsions:
REMARK  status: ('A' for Active; 'I' for Inactive)
REMARK    1  A    between atoms: C1_1  and  C6_6 
REMARK    2  A    between atoms: C2_2  and  C7_7 
REMARK    3  A    between atoms: C5_5  and  C6_6 
ROOT
HETATM    1  C3  UNL     1     -33.487  16.274  -4.968  1.00 20.00     0.124 A 
HETATM    2  C4  UNL     1     -34.129  15.063  -5.120  1.00 20.00     0.070 A 
HETATM    3  C5  UNL     1     -34.285  16.066  -2.935  1.00 20.00     0.085 A 
HETATM    4  N8  UNL     1     -33.575  16.850  -3.715  1.00 20.00    -0.257 NA
HETATM    5  S9  UNL     1     -34.876  14.618  -3.642  1.00 20.00    -0.084 SA
ENDROOT
BRANCH   3   6
HETATM    6  C6  UNL     1     -34.600  16.357  -1.491  1.00 20.00     0.161 C 
BRANCH   6   7
HETATM    7  C1  UNL     1     -33.718  17.391  -0.936  1.00 20.00    -0.099 C 
HETATM    8  C2  UNL     1     -32.997  18.236  -0.477  1.00 20.00    -0.091 C 
BRANCH   8   9
HETATM    9  C7  UNL     1     -32.121  19.263   0.080  1.00 20.00     0.208 C 
HETATM   10 CL10 UNL     1     -31.818  18.891   1.789  1.00 20.00    -0.117 Cl
ENDBRANCH   8   9
ENDBRANCH   6   7
ENDBRANCH   3   6
TORSDOF 3
ENDMDL
MODEL 6
REMARK VINA RESULT:      -3.8      4.127      5.966
REMARK  3 active torsions:
REMARK  status: ('A' for Active; 'I' for Inactive)
REMARK    1  A    between atoms: C1_1  and  C6_6 
REMARK    2  A    between atoms: C2_2  and  C7_7 
REMARK    3  A    between atoms: C5_5  and  C6_6 
ROOT
HETATM    1  C3  UNL     1     -31.867  19.160   0.775  1.00 20.00     0.124 A 
HETATM    2  C4  UNL     1     -32.388  19.263   2.047  1.00 20.00     0.070 A 
HETATM    3  C5  UNL     1     -33.761  18.105   0.441  1.00 20.00     0.085 A 
HETATM    4  N8  UNL     1     -32.652  18.496  -0.147  1.00 20.00    -0.257 NA
HETATM    5  S9  UNL     1     -33.925  18.502   2.103  1.00 20.00    -0.084 SA
ENDROOT
BRANCH   3   6
HETATM    6  C6  UNL     1     -34.868  17.346  -0.243  1.00 20.00     0.161 C 
BRANCH   6   7
HETATM    7  C1  UNL     1     -34.385  16.617  -1.422  1.00 20.00    -0.099 C 
HETATM    8  C2  UNL     1     -33.987  16.018  -2.385  1.00 20.00    -0.091 C 
BRANCH   8   9
HETATM    9  C7  UNL     1     -33.503  15.291  -3.555  1.00 20.00     0.208 C 
HETATM   10 CL10 UNL     1     -34.259  13.686  -3.586  1.00 20.00    -0.117 Cl
ENDBRANCH   8   9
ENDBRANCH   6   7
ENDBRANCH   3   6
TORSDOF 3
ENDMDL
MODEL 7
REMARK VINA RESULT:      -3.8      2.457      2.881
REMARK  3 active torsions:
REMARK  status: ('A' for Active; 'I' for Inactive)
REMARK    1  A    between atoms: C1_1  and  C6_6 
REMARK    2  A    between atoms: C2_2  and  C7_7 
REMARK    3  A    between atoms: C5_5  and  C6_6 
ROOT
HETATM    1  C3  UNL     1     -35.063  14.786  -7.259  1.00 20.00     0.124 A 
HETATM    2  C4  UNL     1     -34.427  16.006  -7.159  1.00 20.00     0.070 A 
HETATM    3  C5  UNL     1     -34.411  14.648  -5.169  1.00 20.00     0.085 A 
HETATM    4  N8  UNL     1     -35.054  14.007  -6.118  1.00 20.00    -0.257 NA
HETATM    5  S9  UNL     1     -33.791  16.196  -5.578  1.00 20.00    -0.084 SA
ENDROOT
BRANCH   3   6
HETATM    6  C6  UNL     1     -34.193  14.118  -3.776  1.00 20.00     0.161 C 
BRANCH   6   7
HETATM    7  C1  UNL     1     -34.410  15.151  -2.756  1.00 20.00    -0.099 C 
HETATM    8  C2  UNL     1     -34.592  15.994  -1.919  1.00 20.00    -0.091 C 
BRANCH   8   9
HETATM    9  C7  UNL     1     -34.812  17.018  -0.902  1.00 20.00     0.208 C 
HETATM   10 CL10 UNL     1     -33.292  17.893  -0.631  1.00 20.00    -0.117 Cl
ENDBRANCH   8   9
ENDBRANCH   6   7
ENDBRANCH   3   6
TORSDOF 3
ENDMDL
MODEL 8
REMARK VINA RESULT:      -3.8     10.783     11.106
REMARK  3 active torsions:
REMARK  status: ('A' for Active; 'I' for Inactive)
REMARK    1  A    between atoms: C1_1  and  C6_6 
REMARK    2  A    between atoms: C2_2  and  C7_7 
REMARK    3  A    between atoms: C5_5  and  C6_6 
ROOT
HETATM    1  C3  UNL     1     -34.937   5.403   5.451  1.00 20.00     0.124 A 
HETATM    2  C4  UNL     1     -35.501   5.063   4.239  1.00 20.00     0.070 A 
HETATM    3  C5  UNL     1     -33.288   6.012   4.139  1.00 20.00     0.085 A 
HETATM    4  N8  UNL     1     -33.669   5.947   5.395  1.00 20.00    -0.257 NA
HETATM    5  S9  UNL     1     -34.407   5.436   2.971  1.00 20.00    -0.084 SA
ENDROOT
BRANCH   3   6
HETATM    6  C6  UNL     1     -31.959   6.549   3.676  1.00 20.00     0.161 C 
BRANCH   6   7
HETATM    7  C1  UNL     1     -32.118   7.648   2.715  1.00 20.00    -0.099 C 
HETATM    8  C2  UNL     1     -32.243   8.546   1.926  1.00 20.00    -0.091 C 
BRANCH   8   9
HETATM    9  C7  UNL     1     -32.395   9.638   0.969  1.00 20.00     0.208 C 
HETATM   10 CL10 UNL     1     -32.897   8.963  -0.594  1.00 20.00    -0.117 Cl
ENDBRANCH   8   9
ENDBRANCH   6   7
ENDBRANCH   3   6
TORSDOF 3
ENDMDL
MODEL 9
REMARK VINA RESULT:      -3.7     11.227     11.650
REMARK  3 active torsions:
REMARK  status: ('A' for Active; 'I' for Inactive)
REMARK    1  A    between atoms: C1_1  and  C6_6 
REMARK    2  A    between atoms: C2_2  and  C7_7 
REMARK    3  A    between atoms: C5_5  and  C6_6 
ROOT
HETATM    1  C3  UNL     1     -34.286   6.277   6.497  1.00 20.00     0.124 A 
HETATM    2  C4  UNL     1     -35.109   5.184   6.329  1.00 20.00     0.070 A 
HETATM    3  C5  UNL     1     -33.595   5.647   4.513  1.00 20.00     0.085 A 
HETATM    4  N8  UNL     1     -33.417   6.544   5.457  1.00 20.00    -0.257 NA
HETATM    5  S9  UNL     1     -34.792   4.454   4.809  1.00 20.00    -0.084 SA
ENDROOT
BRANCH   3   6
HETATM    6  C6  UNL     1     -32.827   5.608   3.218  1.00 20.00     0.161 C 
BRANCH   6   7
HETATM    7  C1  UNL     1     -32.600   6.953   2.675  1.00 20.00    -0.099 C 
HETATM    8  C2  UNL     1     -32.410   8.053   2.230  1.00 20.00    -0.091 C 
BRANCH   8   9
HETATM    9  C7  UNL     1     -32.179   9.390   1.691  1.00 20.00     0.208 C 
HETATM   10 CL10 UNL     1     -32.628   9.401  -0.026  1.00 20.00    -0.117 Cl
ENDBRANCH   8   9
ENDBRANCH   6   7
ENDBRANCH   3   6
TORSDOF 3
ENDMDL
