MODEL 1
REMARK VINA RESULT:      -4.7      0.000      0.000
REMARK  0 active torsions:
REMARK  status: ('A' for Active; 'I' for Inactive)
ROOT
HETATM    1  C1  UNL     1     -34.101   6.180   5.730  1.00 20.00    -0.081 C 
HETATM    2  C2  UNL     1     -33.534   7.057   6.568  1.00 20.00     0.015 C 
HETATM    3  C3  UNL     1     -34.871   4.974   6.198  1.00 20.00     0.034 C 
HETATM    4  C4  UNL     1     -34.958   4.106   4.950  1.00 20.00     0.005 C 
HETATM    5  C5  UNL     1     -35.040   5.117   3.814  1.00 20.00     0.013 C 
HETATM    6  C6  UNL     1     -34.049   6.230   4.209  1.00 20.00    -0.025 C 
HETATM    7  C7  UNL     1     -32.634   5.903   3.704  1.00 20.00     0.019 C 
HETATM    8  C8  UNL     1     -34.504   7.577   3.632  1.00 20.00     0.019 C 
ENDROOT
TORSDOF 0
ENDMDL
MODEL 2
REMARK VINA RESULT:      -4.6      1.143      2.664
REMARK  0 active torsions:
REMARK  status: ('A' for Active; 'I' for Inactive)
ROOT
HETATM    1  C1  UNL     1     -33.837   6.216   5.054  1.00 20.00    -0.081 C 
HETATM    2  C2  UNL     1     -34.100   6.565   6.320  1.00 20.00     0.015 C 
HETATM    3  C3  UNL     1     -32.672   6.765   4.274  1.00 20.00     0.034 C 
HETATM    4  C4  UNL     1     -33.015   6.412   2.834  1.00 20.00     0.005 C 
HETATM    5  C5  UNL     1     -33.758   5.088   2.956  1.00 20.00     0.013 C 
HETATM    6  C6  UNL     1     -34.653   5.255   4.200  1.00 20.00    -0.025 C 
HETATM    7  C7  UNL     1     -36.003   5.883   3.818  1.00 20.00     0.019 C 
HETATM    8  C8  UNL     1     -34.887   3.896   4.873  1.00 20.00     0.019 C 
ENDROOT
TORSDOF 0
ENDMDL
MODEL 3
REMARK VINA RESULT:      -4.1     11.745     12.727
REMARK  0 active torsions:
REMARK  status: ('A' for Active; 'I' for Inactive)
ROOT
HETATM    1  C1  UNL     1     -35.521  14.728  -3.756  1.00 20.00    -0.081 C 
HETATM    2  C2  UNL     1     -36.858  14.800  -3.724  1.00 20.00     0.015 C 
HETATM    3  C3  UNL     1     -34.774  13.487  -4.169  1.00 20.00     0.034 C 
HETATM    4  C4  UNL     1     -33.359  13.746  -3.671  1.00 20.00     0.005 C 
HETATM    5  C5  UNL     1     -33.197  15.253  -3.817  1.00 20.00     0.013 C 
HETATM    6  C6  UNL     1     -34.552  15.838  -3.372  1.00 20.00    -0.025 C 
HETATM    7  C7  UNL     1     -34.571  16.071  -1.853  1.00 20.00     0.019 C 
HETATM    8  C8  UNL     1     -34.826  17.160  -4.101  1.00 20.00     0.019 C 
ENDROOT
TORSDOF 0
ENDMDL
MODEL 4
REMARK VINA RESULT:      -3.9     12.146     12.894
REMARK  0 active torsions:
REMARK  status: ('A' for Active; 'I' for Inactive)
ROOT
HETATM    1  C1  UNL     1     -35.540  15.106  -3.485  1.00 20.00    -0.081 C 
HETATM    2  C2  UNL     1     -36.845  14.874  -3.675  1.00 20.00     0.015 C 
HETATM    3  C3  UNL     1     -35.002  15.857  -2.297  1.00 20.00     0.034 C 
HETATM    4  C4  UNL     1     -33.581  16.208  -2.715  1.00 20.00     0.005 C 
HETATM    5  C5  UNL     1     -33.160  15.027  -3.579  1.00 20.00     0.013 C 
HETATM    6  C6  UNL     1     -34.410  14.688  -4.416  1.00 20.00    -0.025 C 
HETATM    7  C7  UNL     1     -34.439  15.517  -5.710  1.00 20.00     0.019 C 
HETATM    8  C8  UNL     1     -34.430  13.193  -4.760  1.00 20.00     0.019 C 
ENDROOT
TORSDOF 0
ENDMDL
MODEL 5
REMARK VINA RESULT:      -3.9     11.859     12.609
REMARK  0 active torsions:
REMARK  status: ('A' for Active; 'I' for Inactive)
ROOT
HETATM    1  C1  UNL     1     -33.926  14.598  -3.569  1.00 20.00    -0.081 C 
HETATM    2  C2  UNL     1     -32.589  14.531  -3.522  1.00 20.00     0.015 C 
HETATM    3  C3  UNL     1     -34.788  13.483  -4.097  1.00 20.00     0.034 C 
HETATM    4  C4  UNL     1     -36.135  14.154  -4.322  1.00 20.00     0.005 C 
HETATM    5  C5  UNL     1     -36.206  15.197  -3.214  1.00 20.00     0.013 C 
HETATM    6  C6  UNL     1     -34.781  15.781  -3.135  1.00 20.00    -0.025 C 
HETATM    7  C7  UNL     1     -34.620  16.954  -4.115  1.00 20.00     0.019 C 
HETATM    8  C8  UNL     1     -34.479  16.256  -1.708  1.00 20.00     0.019 C 
ENDROOT
TORSDOF 0
ENDMDL
MODEL 6
REMARK VINA RESULT:      -3.9     11.800     12.676
REMARK  0 active torsions:
REMARK  status: ('A' for Active; 'I' for Inactive)
ROOT
HETATM    1  C1  UNL     1     -34.939  15.564  -2.925  1.00 20.00    -0.081 C 
HETATM    2  C2  UNL     1     -34.505  16.156  -1.805  1.00 20.00     0.015 C 
HETATM    3  C3  UNL     1     -36.392  15.275  -3.192  1.00 20.00     0.034 C 
HETATM    4  C4  UNL     1     -36.347  14.275  -4.338  1.00 20.00     0.005 C 
HETATM    5  C5  UNL     1     -35.122  14.700  -5.138  1.00 20.00     0.013 C 
HETATM    6  C6  UNL     1     -34.070  15.073  -4.075  1.00 20.00    -0.025 C 
HETATM    7  C7  UNL     1     -33.262  13.836  -3.653  1.00 20.00     0.019 C 
HETATM    8  C8  UNL     1     -33.121  16.148  -4.619  1.00 20.00     0.019 C 
ENDROOT
TORSDOF 0
ENDMDL
MODEL 7
REMARK VINA RESULT:      -3.9     11.755     13.443
REMARK  0 active torsions:
REMARK  status: ('A' for Active; 'I' for Inactive)
ROOT
HETATM    1  C1  UNL     1     -33.749  15.807  -4.713  1.00 20.00    -0.081 C 
HETATM    2  C2  UNL     1     -33.401  17.018  -5.167  1.00 20.00     0.015 C 
HETATM    3  C3  UNL     1     -32.943  15.049  -3.692  1.00 20.00     0.034 C 
HETATM    4  C4  UNL     1     -33.483  13.630  -3.801  1.00 20.00     0.005 C 
HETATM    5  C5  UNL     1     -34.953  13.830  -4.146  1.00 20.00     0.013 C 
HETATM    6  C6  UNL     1     -34.964  15.000  -5.150  1.00 20.00    -0.025 C 
HETATM    7  C7  UNL     1     -34.782  14.484  -6.587  1.00 20.00     0.019 C 
HETATM    8  C8  UNL     1     -36.280  15.780  -5.044  1.00 20.00     0.019 C 
ENDROOT
TORSDOF 0
ENDMDL
MODEL 8
REMARK VINA RESULT:      -3.9     12.263     13.561
REMARK  0 active torsions:
REMARK  status: ('A' for Active; 'I' for Inactive)
ROOT
HETATM    1  C1  UNL     1     -33.858  15.805  -5.298  1.00 20.00    -0.081 C 
HETATM    2  C2  UNL     1     -33.371  17.051  -5.238  1.00 20.00     0.015 C 
HETATM    3  C3  UNL     1     -34.488  15.227  -6.537  1.00 20.00     0.034 C 
HETATM    4  C4  UNL     1     -35.225  14.000  -6.018  1.00 20.00     0.005 C 
HETATM    5  C5  UNL     1     -34.347  13.511  -4.873  1.00 20.00     0.013 C 
HETATM    6  C6  UNL     1     -33.885  14.796  -4.157  1.00 20.00    -0.025 C 
HETATM    7  C7  UNL     1     -34.904  15.217  -3.086  1.00 20.00     0.019 C 
HETATM    8  C8  UNL     1     -32.512  14.580  -3.508  1.00 20.00     0.019 C 
ENDROOT
TORSDOF 0
ENDMDL
MODEL 9
REMARK VINA RESULT:      -3.8      1.027      2.604
REMARK  0 active torsions:
REMARK  status: ('A' for Active; 'I' for Inactive)
ROOT
HETATM    1  C1  UNL     1     -34.582   4.723   5.205  1.00 20.00    -0.081 C 
HETATM    2  C2  UNL     1     -35.075   3.481   5.131  1.00 20.00     0.015 C 
HETATM    3  C3  UNL     1     -34.091   5.338   6.489  1.00 20.00     0.034 C 
HETATM    4  C4  UNL     1     -34.021   6.823   6.163  1.00 20.00     0.005 C 
HETATM    5  C5  UNL     1     -33.639   6.850   4.689  1.00 20.00     0.013 C 
HETATM    6  C6  UNL     1     -34.456   5.709   4.052  1.00 20.00    -0.025 C 
HETATM    7  C7  UNL     1     -35.842   6.212   3.616  1.00 20.00     0.019 C 
HETATM    8  C8  UNL     1     -33.712   5.133   2.841  1.00 20.00     0.019 C 
ENDROOT
TORSDOF 0
ENDMDL
