MODEL 1
REMARK VINA RESULT:      -4.6      0.000      0.000
REMARK  2 active torsions:
REMARK  status: ('A' for Active; 'I' for Inactive)
REMARK    1  A    between atoms: C5_5  and  C10_10 
REMARK    2  A    between atoms: C5_5  and  O11_11 
ROOT
HETATM    1  C1  UNL     1     -34.212  13.764  -3.524  1.00 20.00     0.004 C 
HETATM    2  C2  UNL     1     -34.380  13.599  -5.035  1.00 20.00     0.012 C 
HETATM    3  C3  UNL     1     -34.054  15.266  -3.255  1.00 20.00     0.039 C 
HETATM    4  C4  UNL     1     -34.763  14.995  -5.566  1.00 20.00    -0.016 C 
HETATM    5  C5  UNL     1     -33.936  15.926  -4.636  1.00 20.00     0.068 C 
HETATM    6  C6  UNL     1     -36.285  15.199  -5.428  1.00 20.00     0.018 C 
HETATM    7  C7  UNL     1     -34.389  15.128  -7.050  1.00 20.00     0.018 C 
ENDROOT
BRANCH   5   8
HETATM    8  C10 UNL     1     -34.369  17.387  -4.611  1.00 20.00     0.012 C 
HETATM    9  C8  UNL     1     -34.286  17.950  -3.193  1.00 20.00     0.012 C 
HETATM   10  C9  UNL     1     -33.517  18.219  -5.569  1.00 20.00     0.012 C 
ENDBRANCH   5   8
BRANCH   5  11
HETATM   11  O11 UNL     1     -32.553  15.927  -5.016  1.00 20.00    -0.389 OA
HETATM   12  H31 UNL     1     -32.063  16.234  -4.240  1.00 20.00     0.210 HD
ENDBRANCH   5  11
TORSDOF 2
ENDMDL
MODEL 2
REMARK VINA RESULT:      -4.5      1.164      3.738
REMARK  2 active torsions:
REMARK  status: ('A' for Active; 'I' for Inactive)
REMARK    1  A    between atoms: C5_5  and  C10_10 
REMARK    2  A    between atoms: C5_5  and  O11_11 
ROOT
HETATM    1  C1  UNL     1     -33.668  17.939  -5.642  1.00 20.00     0.004 C 
HETATM    2  C2  UNL     1     -33.657  18.133  -4.125  1.00 20.00     0.012 C 
HETATM    3  C3  UNL     1     -33.844  16.437  -5.897  1.00 20.00     0.039 C 
HETATM    4  C4  UNL     1     -34.263  16.844  -3.535  1.00 20.00    -0.016 C 
HETATM    5  C5  UNL     1     -33.733  15.766  -4.521  1.00 20.00     0.068 C 
HETATM    6  C6  UNL     1     -35.801  16.954  -3.530  1.00 20.00     0.018 C 
HETATM    7  C7  UNL     1     -33.786  16.636  -2.091  1.00 20.00     0.018 C 
ENDROOT
BRANCH   5   8
HETATM    8  C10 UNL     1     -34.454  14.423  -4.480  1.00 20.00     0.012 C 
HETATM    9  C8  UNL     1     -34.948  14.034  -5.873  1.00 20.00     0.012 C 
HETATM   10  C9  UNL     1     -33.541  13.337  -3.913  1.00 20.00     0.012 C 
ENDBRANCH   5   8
BRANCH   5  11
HETATM   11  O11 UNL     1     -32.350  15.482  -4.270  1.00 20.00    -0.389 OA
HETATM   12  H31 UNL     1     -31.859  16.259  -4.573  1.00 20.00     0.210 HD
ENDBRANCH   5  11
TORSDOF 2
ENDMDL
MODEL 3
REMARK VINA RESULT:      -4.4      1.050      2.741
REMARK  2 active torsions:
REMARK  status: ('A' for Active; 'I' for Inactive)
REMARK    1  A    between atoms: C5_5  and  C10_10 
REMARK    2  A    between atoms: C5_5  and  O11_11 
ROOT
HETATM    1  C1  UNL     1     -33.885  17.420  -2.526  1.00 20.00     0.004 C 
HETATM    2  C2  UNL     1     -33.970  15.913  -2.285  1.00 20.00     0.012 C 
HETATM    3  C3  UNL     1     -34.049  17.640  -4.035  1.00 20.00     0.039 C 
HETATM    4  C4  UNL     1     -34.616  15.323  -3.555  1.00 20.00    -0.016 C 
HETATM    5  C5  UNL     1     -34.026  16.239  -4.664  1.00 20.00     0.068 C 
HETATM    6  C6  UNL     1     -36.151  15.418  -3.444  1.00 20.00     0.018 C 
HETATM    7  C7  UNL     1     -34.231  13.845  -3.718  1.00 20.00     0.018 C 
ENDROOT
BRANCH   5   8
HETATM    8  C10 UNL     1     -34.752  16.202  -6.004  1.00 20.00     0.012 C 
HETATM    9  C8  UNL     1     -34.697  17.569  -6.684  1.00 20.00     0.012 C 
HETATM   10  C9  UNL     1     -34.154  15.128  -6.911  1.00 20.00     0.012 C 
ENDBRANCH   5   8
BRANCH   5  11
HETATM   11  O11 UNL     1     -32.663  15.892  -4.940  1.00 20.00    -0.389 OA
HETATM   12  H31 UNL     1     -32.133  16.325  -4.255  1.00 20.00     0.210 HD
ENDBRANCH   5  11
TORSDOF 2
ENDMDL
MODEL 4
REMARK VINA RESULT:      -4.4      1.042      3.516
REMARK  2 active torsions:
REMARK  status: ('A' for Active; 'I' for Inactive)
REMARK    1  A    between atoms: C5_5  and  C10_10 
REMARK    2  A    between atoms: C5_5  and  O11_11 
ROOT
HETATM    1  C1  UNL     1     -34.623  16.801  -7.027  1.00 20.00     0.004 C 
HETATM    2  C2  UNL     1     -34.526  17.790  -5.865  1.00 20.00     0.012 C 
HETATM    3  C3  UNL     1     -34.344  15.407  -6.452  1.00 20.00     0.039 C 
HETATM    4  C4  UNL     1     -34.638  16.939  -4.584  1.00 20.00    -0.016 C 
HETATM    5  C5  UNL     1     -33.894  15.639  -5.002  1.00 20.00     0.068 C 
HETATM    6  C6  UNL     1     -36.124  16.704  -4.249  1.00 20.00     0.018 C 
HETATM    7  C7  UNL     1     -33.981  17.661  -3.398  1.00 20.00     0.018 C 
ENDROOT
BRANCH   5   8
HETATM    8  C10 UNL     1     -34.150  14.420  -4.122  1.00 20.00     0.012 C 
HETATM    9  C8  UNL     1     -34.798  13.298  -4.932  1.00 20.00     0.012 C 
HETATM   10  C9  UNL     1     -32.851  13.937  -3.480  1.00 20.00     0.012 C 
ENDBRANCH   5   8
BRANCH   5  11
HETATM   11  O11 UNL     1     -32.475  15.841  -4.998  1.00 20.00    -0.389 OA
HETATM   12  H31 UNL     1     -32.332  16.727  -4.636  1.00 20.00     0.210 HD
ENDBRANCH   5  11
TORSDOF 2
ENDMDL
MODEL 5
REMARK VINA RESULT:      -4.3      2.049      3.363
REMARK  2 active torsions:
REMARK  status: ('A' for Active; 'I' for Inactive)
REMARK    1  A    between atoms: C5_5  and  C10_10 
REMARK    2  A    between atoms: C5_5  and  O11_11 
ROOT
HETATM    1  C1  UNL     1     -34.602  13.318  -4.600  1.00 20.00     0.004 C 
HETATM    2  C2  UNL     1     -34.040  13.945  -3.323  1.00 20.00     0.012 C 
HETATM    3  C3  UNL     1     -35.679  14.274  -5.129  1.00 20.00     0.039 C 
HETATM    4  C4  UNL     1     -34.460  15.428  -3.367  1.00 20.00    -0.016 C 
HETATM    5  C5  UNL     1     -35.860  15.341  -4.039  1.00 20.00     0.068 C 
HETATM    6  C6  UNL     1     -33.439  16.229  -4.200  1.00 20.00     0.018 C 
HETATM    7  C7  UNL     1     -34.501  16.018  -1.950  1.00 20.00     0.018 C 
ENDROOT
BRANCH   5   8
HETATM    8  C10 UNL     1     -36.403  16.649  -4.604  1.00 20.00     0.012 C 
HETATM    9  C8  UNL     1     -36.757  16.492  -6.082  1.00 20.00     0.012 C 
HETATM   10  C9  UNL     1     -37.621  17.115  -3.807  1.00 20.00     0.012 C 
ENDBRANCH   5   8
BRANCH   5  11
HETATM   11  O11 UNL     1     -36.843  14.870  -3.108  1.00 20.00    -0.389 OA
HETATM   12  H31 UNL     1     -37.661  15.342  -3.322  1.00 20.00     0.210 HD
ENDBRANCH   5  11
TORSDOF 2
ENDMDL
MODEL 6
REMARK VINA RESULT:      -4.2      1.593      2.912
REMARK  2 active torsions:
REMARK  status: ('A' for Active; 'I' for Inactive)
REMARK    1  A    between atoms: C5_5  and  C10_10 
REMARK    2  A    between atoms: C5_5  and  O11_11 
ROOT
HETATM    1  C1  UNL     1     -34.621  15.568  -6.875  1.00 20.00     0.004 C 
HETATM    2  C2  UNL     1     -35.927  14.978  -6.341  1.00 20.00     0.012 C 
HETATM    3  C3  UNL     1     -33.748  15.894  -5.657  1.00 20.00     0.039 C 
HETATM    4  C4  UNL     1     -35.630  14.558  -4.887  1.00 20.00    -0.016 C 
HETATM    5  C5  UNL     1     -34.646  15.671  -4.431  1.00 20.00     0.068 C 
HETATM    6  C6  UNL     1     -35.000  13.151  -4.875  1.00 20.00     0.018 C 
HETATM    7  C7  UNL     1     -36.926  14.517  -4.064  1.00 20.00     0.018 C 
ENDROOT
BRANCH   5   8
HETATM    8  C10 UNL     1     -33.835  15.362  -3.178  1.00 20.00     0.012 C 
HETATM    9  C8  UNL     1     -32.389  15.027  -3.540  1.00 20.00     0.012 C 
HETATM   10  C9  UNL     1     -33.885  16.535  -2.200  1.00 20.00     0.012 C 
ENDBRANCH   5   8
BRANCH   5  11
HETATM   11  O11 UNL     1     -35.347  16.892  -4.160  1.00 20.00    -0.389 OA
HETATM   12  H31 UNL     1     -35.710  17.186  -5.008  1.00 20.00     0.210 HD
ENDBRANCH   5  11
TORSDOF 2
ENDMDL
MODEL 7
REMARK VINA RESULT:      -4.2      1.997      3.041
REMARK  2 active torsions:
REMARK  status: ('A' for Active; 'I' for Inactive)
REMARK    1  A    between atoms: C5_5  and  C10_10 
REMARK    2  A    between atoms: C5_5  and  O11_11 
ROOT
HETATM    1  C1  UNL     1     -37.895  15.319  -4.237  1.00 20.00     0.004 C 
HETATM    2  C2  UNL     1     -37.478  15.016  -5.676  1.00 20.00     0.012 C 
HETATM    3  C3  UNL     1     -36.644  15.153  -3.365  1.00 20.00     0.039 C 
HETATM    4  C4  UNL     1     -35.940  15.117  -5.694  1.00 20.00    -0.016 C 
HETATM    5  C5  UNL     1     -35.570  14.562  -4.290  1.00 20.00     0.068 C 
HETATM    6  C6  UNL     1     -35.522  16.588  -5.892  1.00 20.00     0.018 C 
HETATM    7  C7  UNL     1     -35.359  14.288  -6.849  1.00 20.00     0.018 C 
ENDROOT
BRANCH   5   8
HETATM    8  C10 UNL     1     -34.160  14.881  -3.805  1.00 20.00     0.012 C 
HETATM    9  C8  UNL     1     -34.204  15.624  -2.470  1.00 20.00     0.012 C 
HETATM   10  C9  UNL     1     -33.330  13.604  -3.681  1.00 20.00     0.012 C 
ENDBRANCH   5   8
BRANCH   5  11
HETATM   11  O11 UNL     1     -35.687  13.133  -4.260  1.00 20.00    -0.389 OA
HETATM   12  H31 UNL     1     -36.525  12.943  -3.816  1.00 20.00     0.210 HD
ENDBRANCH   5  11
TORSDOF 2
ENDMDL
MODEL 8
REMARK VINA RESULT:      -4.2      1.980      3.306
REMARK  2 active torsions:
REMARK  status: ('A' for Active; 'I' for Inactive)
REMARK    1  A    between atoms: C5_5  and  C10_10 
REMARK    2  A    between atoms: C5_5  and  O11_11 
ROOT
HETATM    1  C1  UNL     1     -35.909  16.994  -5.198  1.00 20.00     0.004 C 
HETATM    2  C2  UNL     1     -35.428  15.542  -5.170  1.00 20.00     0.012 C 
HETATM    3  C3  UNL     1     -35.524  17.617  -3.850  1.00 20.00     0.039 C 
HETATM    4  C4  UNL     1     -34.398  15.467  -4.024  1.00 20.00    -0.016 C 
HETATM    5  C5  UNL     1     -35.004  16.456  -2.990  1.00 20.00     0.068 C 
HETATM    6  C6  UNL     1     -33.015  15.907  -4.544  1.00 20.00     0.018 C 
HETATM    7  C7  UNL     1     -34.284  14.029  -3.497  1.00 20.00     0.018 C 
ENDROOT
BRANCH   5   8
HETATM    8  C10 UNL     1     -34.051  16.936  -1.900  1.00 20.00     0.012 C 
HETATM    9  C8  UNL     1     -33.681  18.403  -2.115  1.00 20.00     0.012 C 
HETATM   10  C9  UNL     1     -34.670  16.736  -0.517  1.00 20.00     0.012 C 
ENDBRANCH   5   8
BRANCH   5  11
HETATM   11  O11 UNL     1     -36.119  15.865  -2.311  1.00 20.00    -0.389 OA
HETATM   12  H31 UNL     1     -36.893  16.389  -2.561  1.00 20.00     0.210 HD
ENDBRANCH   5  11
TORSDOF 2
ENDMDL
MODEL 9
REMARK VINA RESULT:      -4.2      1.685      2.922
REMARK  2 active torsions:
REMARK  status: ('A' for Active; 'I' for Inactive)
REMARK    1  A    between atoms: C5_5  and  C10_10 
REMARK    2  A    between atoms: C5_5  and  O11_11 
ROOT
HETATM    1  C1  UNL     1     -34.657  13.191  -5.037  1.00 20.00     0.004 C 
HETATM    2  C2  UNL     1     -34.577  13.634  -3.575  1.00 20.00     0.012 C 
HETATM    3  C3  UNL     1     -34.835  14.460  -5.879  1.00 20.00     0.039 C 
HETATM    4  C4  UNL     1     -34.262  15.143  -3.615  1.00 20.00    -0.016 C 
HETATM    5  C5  UNL     1     -35.055  15.599  -4.872  1.00 20.00     0.068 C 
HETATM    6  C6  UNL     1     -32.741  15.350  -3.752  1.00 20.00     0.018 C 
HETATM    7  C7  UNL     1     -34.730  15.825  -2.320  1.00 20.00     0.018 C 
ENDROOT
BRANCH   5   8
HETATM    8  C10 UNL     1     -34.658  16.954  -5.447  1.00 20.00     0.012 C 
HETATM    9  C8  UNL     1     -34.414  16.851  -6.951  1.00 20.00     0.012 C 
HETATM   10  C9  UNL     1     -35.731  18.001  -5.148  1.00 20.00     0.012 C 
ENDBRANCH   5   8
BRANCH   5  11
HETATM   11  O11 UNL     1     -36.458  15.682  -4.587  1.00 20.00    -0.389 OA
HETATM   12  H31 UNL     1     -36.593  16.540  -4.159  1.00 20.00     0.210 HD
ENDBRANCH   5  11
TORSDOF 2
ENDMDL
