MODEL 1
REMARK VINA RESULT:      -4.2      0.000      0.000
REMARK  0 active torsions:
REMARK  status: ('A' for Active; 'I' for Inactive)
ROOT
HETATM    1  C1  UNL     1     -33.798  15.062  -3.813  1.00 20.00    -0.053 C 
HETATM    2  C2  UNL     1     -33.533  13.751  -3.754  1.00 20.00     0.017 C 
HETATM    3  C3  UNL     1     -32.997  16.055  -4.582  1.00 20.00     0.073 C 
HETATM    4  C4  UNL     1     -34.981  15.786  -3.228  1.00 20.00     0.077 C 
HETATM    5  C5  UNL     1     -34.083  17.038  -5.015  1.00 20.00     0.059 C 
HETATM    6  C6  UNL     1     -36.316  15.056  -3.381  1.00 20.00     0.051 C 
HETATM    7  C7  UNL     1     -34.738  16.150  -1.761  1.00 20.00     0.051 C 
HETATM    8  C8  UNL     1     -33.539  18.457  -5.150  1.00 20.00     0.046 C 
HETATM    9  C9  UNL     1     -34.762  16.617  -6.325  1.00 20.00     0.046 C 
HETATM   10  O10 UNL     1     -35.068  17.032  -3.961  1.00 20.00    -0.366 OA
ENDROOT
TORSDOF 0
ENDMDL
MODEL 2
REMARK VINA RESULT:      -4.2      1.420      2.897
REMARK  0 active torsions:
REMARK  status: ('A' for Active; 'I' for Inactive)
ROOT
HETATM    1  C1  UNL     1     -33.911  16.005  -4.471  1.00 20.00    -0.053 C 
HETATM    2  C2  UNL     1     -33.669  16.336  -5.746  1.00 20.00     0.017 C 
HETATM    3  C3  UNL     1     -33.795  16.938  -3.315  1.00 20.00     0.073 C 
HETATM    4  C4  UNL     1     -34.437  14.696  -3.947  1.00 20.00     0.077 C 
HETATM    5  C5  UNL     1     -34.904  16.418  -2.404  1.00 20.00     0.059 C 
HETATM    6  C6  UNL     1     -35.556  14.077  -4.786  1.00 20.00     0.051 C 
HETATM    7  C7  UNL     1     -33.305  13.685  -3.741  1.00 20.00     0.051 C 
HETATM    8  C8  UNL     1     -34.575  16.642  -0.930  1.00 20.00     0.046 C 
HETATM    9  C9  UNL     1     -36.268  17.041  -2.731  1.00 20.00     0.046 C 
HETATM   10  O10 UNL     1     -34.977  14.997  -2.638  1.00 20.00    -0.366 OA
ENDROOT
TORSDOF 0
ENDMDL
MODEL 3
REMARK VINA RESULT:      -4.1      1.229      2.571
REMARK  0 active torsions:
REMARK  status: ('A' for Active; 'I' for Inactive)
ROOT
HETATM    1  C1  UNL     1     -34.729  15.925  -3.092  1.00 20.00    -0.053 C 
HETATM    2  C2  UNL     1     -34.618  16.115  -1.772  1.00 20.00     0.017 C 
HETATM    3  C3  UNL     1     -35.513  16.797  -4.012  1.00 20.00     0.073 C 
HETATM    4  C4  UNL     1     -34.027  14.893  -3.933  1.00 20.00     0.077 C 
HETATM    5  C5  UNL     1     -34.671  16.717  -5.284  1.00 20.00     0.059 C 
HETATM    6  C6  UNL     1     -32.557  14.670  -3.574  1.00 20.00     0.051 C 
HETATM    7  C7  UNL     1     -34.784  13.562  -3.925  1.00 20.00     0.051 C 
HETATM    8  C8  UNL     1     -35.529  16.860  -6.538  1.00 20.00     0.046 C 
HETATM    9  C9  UNL     1     -33.546  17.760  -5.305  1.00 20.00     0.046 C 
HETATM   10  O10 UNL     1     -34.082  15.401  -5.289  1.00 20.00    -0.366 OA
ENDROOT
TORSDOF 0
ENDMDL
MODEL 4
REMARK VINA RESULT:      -4.1      1.474      2.833
REMARK  0 active torsions:
REMARK  status: ('A' for Active; 'I' for Inactive)
ROOT
HETATM    1  C1  UNL     1     -34.154  14.407  -4.377  1.00 20.00    -0.053 C 
HETATM    2  C2  UNL     1     -33.334  13.554  -3.752  1.00 20.00     0.017 C 
HETATM    3  C3  UNL     1     -35.191  14.013  -5.371  1.00 20.00     0.073 C 
HETATM    4  C4  UNL     1     -34.284  15.889  -4.148  1.00 20.00     0.077 C 
HETATM    5  C5  UNL     1     -36.277  15.050  -5.092  1.00 20.00     0.059 C 
HETATM    6  C6  UNL     1     -34.237  16.314  -2.679  1.00 20.00     0.051 C 
HETATM    7  C7  UNL     1     -33.248  16.670  -4.961  1.00 20.00     0.051 C 
HETATM    8  C8  UNL     1     -37.078  15.380  -6.349  1.00 20.00     0.046 C 
HETATM    9  C9  UNL     1     -37.228  14.612  -3.971  1.00 20.00     0.046 C 
HETATM   10  O10 UNL     1     -35.587  16.245  -4.672  1.00 20.00    -0.366 OA
ENDROOT
TORSDOF 0
ENDMDL
MODEL 5
REMARK VINA RESULT:      -4.1      1.440      2.964
REMARK  0 active torsions:
REMARK  status: ('A' for Active; 'I' for Inactive)
ROOT
HETATM    1  C1  UNL     1     -34.581  16.164  -2.591  1.00 20.00    -0.053 C 
HETATM    2  C2  UNL     1     -34.531  16.447  -1.284  1.00 20.00     0.017 C 
HETATM    3  C3  UNL     1     -34.385  14.807  -3.174  1.00 20.00     0.073 C 
HETATM    4  C4  UNL     1     -34.940  17.095  -3.718  1.00 20.00     0.077 C 
HETATM    5  C5  UNL     1     -35.327  14.862  -4.375  1.00 20.00     0.059 C 
HETATM    6  C6  UNL     1     -36.111  18.034  -3.422  1.00 20.00     0.051 C 
HETATM    7  C7  UNL     1     -33.722  17.895  -4.187  1.00 20.00     0.051 C 
HETATM    8  C8  UNL     1     -34.828  13.991  -5.524  1.00 20.00     0.046 C 
HETATM    9  C9  UNL     1     -36.763  14.464  -4.008  1.00 20.00     0.046 C 
HETATM   10  O10 UNL     1     -35.327  16.235  -4.818  1.00 20.00    -0.366 OA
ENDROOT
TORSDOF 0
ENDMDL
MODEL 6
REMARK VINA RESULT:      -4.1      1.341      3.107
REMARK  0 active torsions:
REMARK  status: ('A' for Active; 'I' for Inactive)
ROOT
HETATM    1  C1  UNL     1     -34.269  16.720  -3.989  1.00 20.00    -0.053 C 
HETATM    2  C2  UNL     1     -33.671  17.917  -3.999  1.00 20.00     0.017 C 
HETATM    3  C3  UNL     1     -34.078  15.667  -5.026  1.00 20.00     0.073 C 
HETATM    4  C4  UNL     1     -35.154  16.144  -2.916  1.00 20.00     0.077 C 
HETATM    5  C5  UNL     1     -34.202  14.399  -4.186  1.00 20.00     0.059 C 
HETATM    6  C6  UNL     1     -34.682  16.416  -1.487  1.00 20.00     0.051 C 
HETATM    7  C7  UNL     1     -36.606  16.597  -3.092  1.00 20.00     0.051 C 
HETATM    8  C8  UNL     1     -34.775  13.239  -4.996  1.00 20.00     0.046 C 
HETATM    9  C9  UNL     1     -32.865  13.981  -3.558  1.00 20.00     0.046 C 
HETATM   10  O10 UNL     1     -35.131  14.712  -3.128  1.00 20.00    -0.366 OA
ENDROOT
TORSDOF 0
ENDMDL
MODEL 7
REMARK VINA RESULT:      -4.0      1.404      2.726
REMARK  0 active torsions:
REMARK  status: ('A' for Active; 'I' for Inactive)
ROOT
HETATM    1  C1  UNL     1     -35.200  14.422  -4.357  1.00 20.00    -0.053 C 
HETATM    2  C2  UNL     1     -34.864  13.584  -5.345  1.00 20.00     0.017 C 
HETATM    3  C3  UNL     1     -34.411  14.622  -3.109  1.00 20.00     0.073 C 
HETATM    4  C4  UNL     1     -36.349  15.393  -4.328  1.00 20.00     0.077 C 
HETATM    5  C5  UNL     1     -34.669  16.102  -2.830  1.00 20.00     0.059 C 
HETATM    6  C6  UNL     1     -36.586  16.139  -5.642  1.00 20.00     0.051 C 
HETATM    7  C7  UNL     1     -37.639  14.714  -3.862  1.00 20.00     0.051 C 
HETATM    8  C8  UNL     1     -34.639  16.408  -1.336  1.00 20.00     0.046 C 
HETATM    9  C9  UNL     1     -33.681  17.015  -3.567  1.00 20.00     0.046 C 
HETATM   10  O10 UNL     1     -35.999  16.371  -3.319  1.00 20.00    -0.366 OA
ENDROOT
TORSDOF 0
ENDMDL
MODEL 8
REMARK VINA RESULT:      -4.0      1.196      3.587
REMARK  0 active torsions:
REMARK  status: ('A' for Active; 'I' for Inactive)
ROOT
HETATM    1  C1  UNL     1     -33.826  16.743  -5.488  1.00 20.00    -0.053 C 
HETATM    2  C2  UNL     1     -33.672  18.051  -5.730  1.00 20.00     0.017 C 
HETATM    3  C3  UNL     1     -32.983  15.948  -4.552  1.00 20.00     0.073 C 
HETATM    4  C4  UNL     1     -34.910  15.836  -6.005  1.00 20.00     0.077 C 
HETATM    5  C5  UNL     1     -34.000  14.941  -4.021  1.00 20.00     0.059 C 
HETATM    6  C6  UNL     1     -36.309  16.454  -6.012  1.00 20.00     0.051 C 
HETATM    7  C7  UNL     1     -34.563  15.290  -7.393  1.00 20.00     0.051 C 
HETATM    8  C8  UNL     1     -33.343  13.612  -3.658  1.00 20.00     0.046 C 
HETATM    9  C9  UNL     1     -34.779  15.480  -2.814  1.00 20.00     0.046 C 
HETATM   10  O10 UNL     1     -34.927  14.705  -5.101  1.00 20.00    -0.366 OA
ENDROOT
TORSDOF 0
ENDMDL
MODEL 9
REMARK VINA RESULT:      -4.0      1.420      3.080
REMARK  0 active torsions:
REMARK  status: ('A' for Active; 'I' for Inactive)
ROOT
HETATM    1  C1  UNL     1     -35.855  16.380  -2.942  1.00 20.00    -0.053 C 
HETATM    2  C2  UNL     1     -36.996  17.069  -3.058  1.00 20.00     0.017 C 
HETATM    3  C3  UNL     1     -35.622  15.021  -3.509  1.00 20.00     0.073 C 
HETATM    4  C4  UNL     1     -34.561  16.844  -2.330  1.00 20.00     0.077 C 
HETATM    5  C5  UNL     1     -34.137  15.098  -3.859  1.00 20.00     0.059 C 
HETATM    6  C6  UNL     1     -34.177  18.286  -2.667  1.00 20.00     0.051 C 
HETATM    7  C7  UNL     1     -34.557  16.634  -0.813  1.00 20.00     0.051 C 
HETATM    8  C8  UNL     1     -33.461  13.734  -3.753  1.00 20.00     0.046 C 
HETATM    9  C9  UNL     1     -33.896  15.689  -5.254  1.00 20.00     0.046 C 
HETATM   10  O10 UNL     1     -33.542  15.973  -2.878  1.00 20.00    -0.366 OA
ENDROOT
TORSDOF 0
ENDMDL
