MODEL 1
REMARK VINA RESULT:      -4.3      0.000      0.000
REMARK  1 active torsions:
REMARK  status: ('A' for Active; 'I' for Inactive)
REMARK    1  A    between atoms: C5_5  and  O9_9 
ROOT
HETATM    1  C1  UNL     1     -35.448  13.557  -4.427  1.00 20.00     0.098 C 
HETATM    2  C2  UNL     1     -35.867  15.569  -3.011  1.00 20.00     0.069 C 
HETATM    3  C3  UNL     1     -36.630  15.552  -5.335  1.00 20.00     0.128 C 
HETATM    4  C4  UNL     1     -34.832  16.543  -3.577  1.00 20.00     0.047 C 
HETATM    5  C5  UNL     1     -36.382  14.654  -4.126  1.00 20.00     0.157 C 
HETATM    6  C6  UNL     1     -33.398  16.031  -3.517  1.00 20.00     0.021 C 
HETATM    7  N8  UNL     1     -34.712  12.692  -4.664  1.00 20.00    -0.194 NA
HETATM    8  S10 UNL     1     -35.337  16.827  -5.303  1.00 20.00    -0.161 SA
ENDROOT
BRANCH   5   9
HETATM    9  O9  UNL     1     -37.620  14.091  -3.696  1.00 20.00    -0.369 OA
HETATM   10  C7  UNL     1     -38.644  15.072  -3.645  1.00 20.00     0.204 C 
ENDBRANCH   5   9
TORSDOF 1
ENDMDL
MODEL 2
REMARK VINA RESULT:      -4.1      2.305      2.927
REMARK  1 active torsions:
REMARK  status: ('A' for Active; 'I' for Inactive)
REMARK    1  A    between atoms: C5_5  and  O9_9 
ROOT
HETATM    1  C1  UNL     1     -36.952  14.533  -4.276  1.00 20.00     0.098 C 
HETATM    2  C2  UNL     1     -34.950  15.924  -4.813  1.00 20.00     0.069 C 
HETATM    3  C3  UNL     1     -34.851  13.500  -5.126  1.00 20.00     0.128 C 
HETATM    4  C4  UNL     1     -34.043  15.598  -3.626  1.00 20.00     0.047 C 
HETATM    5  C5  UNL     1     -35.796  14.698  -5.171  1.00 20.00     0.157 C 
HETATM    6  C6  UNL     1     -34.663  15.903  -2.267  1.00 20.00     0.021 C 
HETATM    7  N8  UNL     1     -37.863  14.403  -3.570  1.00 20.00    -0.194 NA
HETATM    8  S10 UNL     1     -33.679  13.820  -3.777  1.00 20.00    -0.161 SA
ENDROOT
BRANCH   5   9
HETATM    9  O9  UNL     1     -36.275  14.869  -6.504  1.00 20.00    -0.369 OA
HETATM   10  C7  UNL     1     -35.275  14.548  -7.459  1.00 20.00     0.204 C 
ENDBRANCH   5   9
TORSDOF 1
ENDMDL
MODEL 3
REMARK VINA RESULT:      -4.1      2.086      2.851
REMARK  1 active torsions:
REMARK  status: ('A' for Active; 'I' for Inactive)
REMARK    1  A    between atoms: C5_5  and  O9_9 
ROOT
HETATM    1  C1  UNL     1     -34.693  13.986  -4.102  1.00 20.00     0.098 C 
HETATM    2  C2  UNL     1     -33.577  16.004  -5.059  1.00 20.00     0.069 C 
HETATM    3  C3  UNL     1     -35.764  16.232  -3.987  1.00 20.00     0.128 C 
HETATM    4  C4  UNL     1     -34.407  16.221  -6.325  1.00 20.00     0.047 C 
HETATM    5  C5  UNL     1     -34.465  15.432  -3.949  1.00 20.00     0.157 C 
HETATM    6  C6  UNL     1     -34.433  15.022  -7.266  1.00 20.00     0.021 C 
HETATM    7  N8  UNL     1     -34.873  12.847  -4.222  1.00 20.00    -0.194 NA
HETATM    8  S10 UNL     1     -36.087  16.606  -5.735  1.00 20.00    -0.161 SA
ENDROOT
BRANCH   5   9
HETATM    9  O9  UNL     1     -33.809  15.659  -2.702  1.00 20.00    -0.369 OA
HETATM   10  C7  UNL     1     -34.699  16.205  -1.741  1.00 20.00     0.204 C 
ENDBRANCH   5   9
TORSDOF 1
ENDMDL
MODEL 4
REMARK VINA RESULT:      -4.1      1.902      2.423
REMARK  1 active torsions:
REMARK  status: ('A' for Active; 'I' for Inactive)
REMARK    1  A    between atoms: C5_5  and  O9_9 
ROOT
HETATM    1  C1  UNL     1     -35.079  13.732  -5.011  1.00 20.00     0.098 C 
HETATM    2  C2  UNL     1     -36.006  16.012  -4.593  1.00 20.00     0.069 C 
HETATM    3  C3  UNL     1     -34.126  15.741  -6.134  1.00 20.00     0.128 C 
HETATM    4  C4  UNL     1     -34.918  16.608  -3.699  1.00 20.00     0.047 C 
HETATM    5  C5  UNL     1     -35.377  15.046  -5.603  1.00 20.00     0.157 C 
HETATM    6  C6  UNL     1     -34.646  15.808  -2.431  1.00 20.00     0.021 C 
HETATM    7  N8  UNL     1     -34.844  12.697  -4.545  1.00 20.00    -0.194 NA
HETATM    8  S10 UNL     1     -33.427  16.677  -4.743  1.00 20.00    -0.161 SA
ENDROOT
BRANCH   5   9
HETATM    9  O9  UNL     1     -36.304  14.864  -6.672  1.00 20.00    -0.369 OA
HETATM   10  C7  UNL     1     -35.646  14.464  -7.864  1.00 20.00     0.204 C 
ENDBRANCH   5   9
TORSDOF 1
ENDMDL
MODEL 5
REMARK VINA RESULT:      -4.0      2.063      2.887
REMARK  1 active torsions:
REMARK  status: ('A' for Active; 'I' for Inactive)
REMARK    1  A    between atoms: C5_5  and  O9_9 
ROOT
HETATM    1  C1  UNL     1     -36.859  15.064  -3.508  1.00 20.00     0.098 C 
HETATM    2  C2  UNL     1     -34.395  14.974  -3.120  1.00 20.00     0.069 C 
HETATM    3  C3  UNL     1     -35.330  16.752  -4.516  1.00 20.00     0.128 C 
HETATM    4  C4  UNL     1     -33.907  14.454  -4.473  1.00 20.00     0.047 C 
HETATM    5  C5  UNL     1     -35.633  15.855  -3.319  1.00 20.00     0.157 C 
HETATM    6  C6  UNL     1     -34.518  13.121  -4.884  1.00 20.00     0.021 C 
HETATM    7  N8  UNL     1     -37.826  14.441  -3.657  1.00 20.00    -0.194 NA
HETATM    8  S10 UNL     1     -34.345  15.754  -5.671  1.00 20.00    -0.161 SA
ENDROOT
BRANCH   5   9
HETATM    9  O9  UNL     1     -35.789  16.663  -2.153  1.00 20.00    -0.369 OA
HETATM   10  C7  UNL     1     -34.706  16.486  -1.252  1.00 20.00     0.204 C 
ENDBRANCH   5   9
TORSDOF 1
ENDMDL
MODEL 6
REMARK VINA RESULT:      -3.9     11.780     12.724
REMARK  1 active torsions:
REMARK  status: ('A' for Active; 'I' for Inactive)
REMARK    1  A    between atoms: C5_5  and  O9_9 
ROOT
HETATM    1  C1  UNL     1     -42.798   5.113  -2.845  1.00 20.00     0.098 C 
HETATM    2  C2  UNL     1     -40.878   4.579  -1.343  1.00 20.00     0.069 C 
HETATM    3  C3  UNL     1     -43.143   3.943  -0.674  1.00 20.00     0.128 C 
HETATM    4  C4  UNL     1     -41.071   5.624  -0.243  1.00 20.00     0.047 C 
HETATM    5  C5  UNL     1     -42.241   4.143  -1.889  1.00 20.00     0.157 C 
HETATM    6  C6  UNL     1     -41.083   7.062  -0.746  1.00 20.00     0.021 C 
HETATM    7  N8  UNL     1     -43.238   5.878  -3.599  1.00 20.00    -0.194 NA
HETATM    8  S10 UNL     1     -42.663   5.207   0.538  1.00 20.00    -0.161 SA
ENDROOT
BRANCH   5   9
HETATM    9  O9  UNL     1     -42.068   2.895  -2.558  1.00 20.00    -0.369 OA
HETATM   10  C7  UNL     1     -43.302   2.211  -2.705  1.00 20.00     0.204 C 
ENDBRANCH   5   9
TORSDOF 1
ENDMDL
MODEL 7
REMARK VINA RESULT:      -3.9      2.674      3.729
REMARK  1 active torsions:
REMARK  status: ('A' for Active; 'I' for Inactive)
REMARK    1  A    between atoms: C5_5  and  O9_9 
ROOT
HETATM    1  C1  UNL     1     -33.743  16.625  -4.560  1.00 20.00     0.098 C 
HETATM    2  C2  UNL     1     -35.558  15.447  -3.316  1.00 20.00     0.069 C 
HETATM    3  C3  UNL     1     -33.424  14.313  -3.692  1.00 20.00     0.128 C 
HETATM    4  C4  UNL     1     -36.035  14.451  -4.374  1.00 20.00     0.047 C 
HETATM    5  C5  UNL     1     -34.053  15.686  -3.470  1.00 20.00     0.157 C 
HETATM    6  C6  UNL     1     -36.495  15.098  -5.675  1.00 20.00     0.021 C 
HETATM    7  N8  UNL     1     -33.499  17.366  -5.418  1.00 20.00    -0.194 NA
HETATM    8  S10 UNL     1     -34.613  13.354  -4.674  1.00 20.00    -0.161 SA
ENDROOT
BRANCH   5   9
HETATM    9  O9  UNL     1     -33.567  16.234  -2.246  1.00 20.00    -0.369 OA
HETATM   10  C7  UNL     1     -34.618  16.418  -1.309  1.00 20.00     0.204 C 
ENDBRANCH   5   9
TORSDOF 1
ENDMDL
MODEL 8
REMARK VINA RESULT:      -3.8      2.043      3.413
REMARK  1 active torsions:
REMARK  status: ('A' for Active; 'I' for Inactive)
REMARK    1  A    between atoms: C5_5  and  O9_9 
ROOT
HETATM    1  C1  UNL     1     -36.725  14.337  -4.053  1.00 20.00     0.098 C 
HETATM    2  C2  UNL     1     -35.192  13.906  -5.976  1.00 20.00     0.069 C 
HETATM    3  C3  UNL     1     -34.650  15.677  -4.378  1.00 20.00     0.128 C 
HETATM    4  C4  UNL     1     -35.511  15.102  -6.875  1.00 20.00     0.047 C 
HETATM    5  C5  UNL     1     -35.324  14.314  -4.505  1.00 20.00     0.157 C 
HETATM    6  C6  UNL     1     -36.980  15.212  -7.266  1.00 20.00     0.021 C 
HETATM    7  N8  UNL     1     -37.828  14.356  -3.697  1.00 20.00    -0.194 NA
HETATM    8  S10 UNL     1     -34.992  16.566  -5.924  1.00 20.00    -0.161 SA
ENDROOT
BRANCH   5   9
HETATM    9  O9  UNL     1     -34.610  13.361  -3.719  1.00 20.00    -0.369 OA
HETATM   10  C7  UNL     1     -33.227  13.674  -3.657  1.00 20.00     0.204 C 
ENDBRANCH   5   9
TORSDOF 1
ENDMDL
MODEL 9
REMARK VINA RESULT:      -3.7      2.924      3.563
REMARK  1 active torsions:
REMARK  status: ('A' for Active; 'I' for Inactive)
REMARK    1  A    between atoms: C5_5  and  O9_9 
ROOT
HETATM    1  C1  UNL     1     -35.780  16.230  -5.214  1.00 20.00     0.098 C 
HETATM    2  C2  UNL     1     -33.307  16.127  -4.894  1.00 20.00     0.069 C 
HETATM    3  C3  UNL     1     -34.540  14.080  -5.416  1.00 20.00     0.128 C 
HETATM    4  C4  UNL     1     -33.220  15.474  -3.514  1.00 20.00     0.047 C 
HETATM    5  C5  UNL     1     -34.529  15.589  -5.646  1.00 20.00     0.157 C 
HETATM    6  C6  UNL     1     -33.955  16.236  -2.418  1.00 20.00     0.021 C 
HETATM    7  N8  UNL     1     -36.767  16.736  -4.873  1.00 20.00    -0.194 NA
HETATM    8  S10 UNL     1     -33.934  13.812  -3.725  1.00 20.00    -0.161 SA
ENDROOT
BRANCH   5   9
HETATM    9  O9  UNL     1     -34.340  15.852  -7.035  1.00 20.00    -0.369 OA
HETATM   10  C7  UNL     1     -34.985  14.876  -7.839  1.00 20.00     0.204 C 
ENDBRANCH   5   9
TORSDOF 1
ENDMDL
