MODEL 1
REMARK VINA RESULT:      -4.1      0.000      0.000
REMARK  0 active torsions:
REMARK  status: ('A' for Active; 'I' for Inactive)
ROOT
HETATM    1  C1  UNL     1     -35.503  15.383  -2.631  1.00 20.00     0.056 C 
HETATM    2  C2  UNL     1     -35.036  15.295  -4.063  1.00 20.00     0.094 C 
HETATM    3  C3  UNL     1     -34.954  16.745  -2.201  1.00 20.00     0.056 C 
HETATM    4  C4  UNL     1     -33.658  15.951  -4.014  1.00 20.00     0.068 C 
HETATM    5  C5  UNL     1     -35.950  17.875  -2.473  1.00 20.00     0.045 C 
HETATM    6  C6  UNL     1     -34.536  16.754  -0.733  1.00 20.00     0.045 C 
HETATM    7  C7  UNL     1     -32.502  15.056  -3.547  1.00 20.00     0.047 C 
HETATM    8  C8  UNL     1     -33.291  16.618  -5.338  1.00 20.00     0.047 C 
HETATM    9  O9  UNL     1     -33.786  16.992  -3.013  1.00 20.00    -0.369 OA
HETATM   10 BR10 UNL     1     -35.080  13.484  -4.729  1.00 20.00    -0.088 Br
ENDROOT
TORSDOF 0
ENDMDL
MODEL 2
REMARK VINA RESULT:      -4.1      1.429      2.546
REMARK  0 active torsions:
REMARK  status: ('A' for Active; 'I' for Inactive)
ROOT
HETATM    1  C1  UNL     1     -33.790  15.552  -3.045  1.00 20.00     0.056 C 
HETATM    2  C2  UNL     1     -34.953  14.663  -3.411  1.00 20.00     0.094 C 
HETATM    3  C3  UNL     1     -34.494  16.748  -2.401  1.00 20.00     0.056 C 
HETATM    4  C4  UNL     1     -36.023  15.663  -3.843  1.00 20.00     0.068 C 
HETATM    5  C5  UNL     1     -34.676  16.561  -0.892  1.00 20.00     0.045 C 
HETATM    6  C6  UNL     1     -33.767  18.060  -2.684  1.00 20.00     0.045 C 
HETATM    7  C7  UNL     1     -35.920  16.179  -5.285  1.00 20.00     0.047 C 
HETATM    8  C8  UNL     1     -37.435  15.141  -3.582  1.00 20.00     0.047 C 
HETATM    9  O9  UNL     1     -35.810  16.815  -2.990  1.00 20.00    -0.369 OA
HETATM   10 BR10 UNL     1     -34.464  13.337  -4.725  1.00 20.00    -0.088 Br
ENDROOT
TORSDOF 0
ENDMDL
MODEL 3
REMARK VINA RESULT:      -4.0      2.250      3.670
REMARK  0 active torsions:
REMARK  status: ('A' for Active; 'I' for Inactive)
ROOT
HETATM    1  C1  UNL     1     -33.326  16.123  -4.289  1.00 20.00     0.056 C 
HETATM    2  C2  UNL     1     -34.428  17.103  -3.968  1.00 20.00     0.094 C 
HETATM    3  C3  UNL     1     -34.064  14.784  -4.225  1.00 20.00     0.056 C 
HETATM    4  C4  UNL     1     -35.253  16.359  -2.920  1.00 20.00     0.068 C 
HETATM    5  C5  UNL     1     -34.651  14.389  -5.583  1.00 20.00     0.045 C 
HETATM    6  C6  UNL     1     -33.172  13.665  -3.693  1.00 20.00     0.045 C 
HETATM    7  C7  UNL     1     -34.729  16.425  -1.479  1.00 20.00     0.047 C 
HETATM    8  C8  UNL     1     -36.725  16.765  -2.954  1.00 20.00     0.047 C 
HETATM    9  O9  UNL     1     -35.167  14.966  -3.313  1.00 20.00    -0.369 OA
HETATM   10 BR10 UNL     1     -33.734  18.820  -3.425  1.00 20.00    -0.088 Br
ENDROOT
TORSDOF 0
ENDMDL
MODEL 4
REMARK VINA RESULT:      -3.9      2.063      2.896
REMARK  0 active torsions:
REMARK  status: ('A' for Active; 'I' for Inactive)
ROOT
HETATM    1  C1  UNL     1     -35.641  14.681  -4.308  1.00 20.00     0.056 C 
HETATM    2  C2  UNL     1     -35.953  15.821  -5.247  1.00 20.00     0.094 C 
HETATM    3  C3  UNL     1     -34.182  14.961  -3.942  1.00 20.00     0.056 C 
HETATM    4  C4  UNL     1     -34.647  15.993  -6.019  1.00 20.00     0.068 C 
HETATM    5  C5  UNL     1     -34.063  15.858  -2.707  1.00 20.00     0.045 C 
HETATM    6  C6  UNL     1     -33.388  13.674  -3.736  1.00 20.00     0.045 C 
HETATM    7  C7  UNL     1     -34.431  15.036  -7.199  1.00 20.00     0.047 C 
HETATM    8  C8  UNL     1     -34.439  17.435  -6.479  1.00 20.00     0.047 C 
HETATM    9  O9  UNL     1     -33.610  15.680  -5.056  1.00 20.00    -0.369 OA
HETATM   10 BR10 UNL     1     -37.520  15.469  -6.316  1.00 20.00    -0.088 Br
ENDROOT
TORSDOF 0
ENDMDL
MODEL 5
REMARK VINA RESULT:      -3.9      2.269      3.372
REMARK  0 active torsions:
REMARK  status: ('A' for Active; 'I' for Inactive)
ROOT
HETATM    1  C1  UNL     1     -35.166  17.186  -4.226  1.00 20.00     0.056 C 
HETATM    2  C2  UNL     1     -35.183  15.974  -3.327  1.00 20.00     0.094 C 
HETATM    3  C3  UNL     1     -35.119  16.549  -5.617  1.00 20.00     0.056 C 
HETATM    4  C4  UNL     1     -34.257  14.999  -4.051  1.00 20.00     0.068 C 
HETATM    5  C5  UNL     1     -36.520  16.296  -6.179  1.00 20.00     0.045 C 
HETATM    6  C6  UNL     1     -34.301  17.384  -6.600  1.00 20.00     0.045 C 
HETATM    7  C7  UNL     1     -32.754  15.197  -3.813  1.00 20.00     0.047 C 
HETATM    8  C8  UNL     1     -34.635  13.544  -3.785  1.00 20.00     0.047 C 
HETATM    9  O9  UNL     1     -34.477  15.266  -5.459  1.00 20.00    -0.369 OA
HETATM   10 BR10 UNL     1     -34.689  16.412  -1.514  1.00 20.00    -0.088 Br
ENDROOT
TORSDOF 0
ENDMDL
MODEL 6
REMARK VINA RESULT:      -3.9      2.292      3.345
REMARK  0 active torsions:
REMARK  status: ('A' for Active; 'I' for Inactive)
ROOT
HETATM    1  C1  UNL     1     -35.282  15.347  -2.536  1.00 20.00     0.056 C 
HETATM    2  C2  UNL     1     -34.114  16.225  -2.915  1.00 20.00     0.094 C 
HETATM    3  C3  UNL     1     -35.705  14.779  -3.893  1.00 20.00     0.056 C 
HETATM    4  C4  UNL     1     -34.548  16.810  -4.257  1.00 20.00     0.068 C 
HETATM    5  C5  UNL     1     -34.978  13.472  -4.218  1.00 20.00     0.045 C 
HETATM    6  C6  UNL     1     -37.215  14.577  -3.981  1.00 20.00     0.045 C 
HETATM    7  C7  UNL     1     -35.482  18.026  -4.190  1.00 20.00     0.047 C 
HETATM    8  C8  UNL     1     -33.355  17.125  -5.158  1.00 20.00     0.047 C 
HETATM    9  O9  UNL     1     -35.313  15.752  -4.885  1.00 20.00    -0.369 OA
HETATM   10 BR10 UNL     1     -33.696  17.507  -1.535  1.00 20.00    -0.088 Br
ENDROOT
TORSDOF 0
ENDMDL
MODEL 7
REMARK VINA RESULT:      -3.8      2.268      3.070
REMARK  0 active torsions:
REMARK  status: ('A' for Active; 'I' for Inactive)
ROOT
HETATM    1  C1  UNL     1     -36.859  15.665  -5.429  1.00 20.00     0.056 C 
HETATM    2  C2  UNL     1     -35.362  15.719  -5.250  1.00 20.00     0.094 C 
HETATM    3  C3  UNL     1     -37.352  15.641  -3.981  1.00 20.00     0.056 C 
HETATM    4  C4  UNL     1     -35.131  14.826  -4.032  1.00 20.00     0.068 C 
HETATM    5  C5  UNL     1     -37.585  17.052  -3.433  1.00 20.00     0.045 C 
HETATM    6  C6  UNL     1     -38.615  14.800  -3.820  1.00 20.00     0.045 C 
HETATM    7  C7  UNL     1     -35.078  13.317  -4.304  1.00 20.00     0.047 C 
HETATM    8  C8  UNL     1     -33.900  15.251  -3.235  1.00 20.00     0.047 C 
HETATM    9  O9  UNL     1     -36.297  15.042  -3.199  1.00 20.00    -0.369 OA
HETATM   10 BR10 UNL     1     -34.423  15.206  -6.856  1.00 20.00    -0.088 Br
ENDROOT
TORSDOF 0
ENDMDL
MODEL 8
REMARK VINA RESULT:      -3.8      2.424      3.298
REMARK  0 active torsions:
REMARK  status: ('A' for Active; 'I' for Inactive)
ROOT
HETATM    1  C1  UNL     1     -36.215  16.599  -3.322  1.00 20.00     0.056 C 
HETATM    2  C2  UNL     1     -35.081  15.802  -2.726  1.00 20.00     0.094 C 
HETATM    3  C3  UNL     1     -36.637  15.718  -4.501  1.00 20.00     0.056 C 
HETATM    4  C4  UNL     1     -34.389  15.219  -3.956  1.00 20.00     0.068 C 
HETATM    5  C5  UNL     1     -37.713  14.705  -4.102  1.00 20.00     0.045 C 
HETATM    6  C6  UNL     1     -37.111  16.546  -5.692  1.00 20.00     0.045 C 
HETATM    7  C7  UNL     1     -33.402  16.148  -4.677  1.00 20.00     0.047 C 
HETATM    8  C8  UNL     1     -33.715  13.882  -3.656  1.00 20.00     0.047 C 
HETATM    9  O9  UNL     1     -35.465  14.973  -4.896  1.00 20.00    -0.369 OA
HETATM   10 BR10 UNL     1     -33.971  16.877  -1.570  1.00 20.00    -0.088 Br
ENDROOT
TORSDOF 0
ENDMDL
MODEL 9
REMARK VINA RESULT:      -3.8      2.288      3.400
REMARK  0 active torsions:
REMARK  status: ('A' for Active; 'I' for Inactive)
ROOT
HETATM    1  C1  UNL     1     -33.671  16.914  -4.498  1.00 20.00     0.056 C 
HETATM    2  C2  UNL     1     -34.009  16.465  -5.899  1.00 20.00     0.094 C 
HETATM    3  C3  UNL     1     -33.850  15.621  -3.699  1.00 20.00     0.056 C 
HETATM    4  C4  UNL     1     -35.144  15.468  -5.674  1.00 20.00     0.068 C 
HETATM    5  C5  UNL     1     -32.555  14.810  -3.626  1.00 20.00     0.045 C 
HETATM    6  C6  UNL     1     -34.383  15.888  -2.293  1.00 20.00     0.045 C 
HETATM    7  C7  UNL     1     -36.544  16.071  -5.493  1.00 20.00     0.047 C 
HETATM    8  C8  UNL     1     -35.181  14.388  -6.753  1.00 20.00     0.047 C 
HETATM    9  O9  UNL     1     -34.820  14.827  -4.415  1.00 20.00    -0.369 OA
HETATM   10 BR10 UNL     1     -34.417  17.954  -7.057  1.00 20.00    -0.088 Br
ENDROOT
TORSDOF 0
ENDMDL
