MODEL 1
REMARK VINA RESULT:      -4.2      0.000      0.000
REMARK  0 active torsions:
REMARK  status: ('A' for Active; 'I' for Inactive)
ROOT
HETATM    1  C1  UNL     1     -34.444  13.647  -4.488  1.00 20.00     0.086 C 
HETATM    2  C2  UNL     1     -34.865  15.409  -2.797  1.00 20.00     0.056 C 
HETATM    3  C3  UNL     1     -34.089  16.030  -5.034  1.00 20.00     0.115 C 
HETATM    4  C4  UNL     1     -34.655  16.906  -2.545  1.00 20.00     0.046 C 
HETATM    5  C5  UNL     1     -33.990  14.944  -3.967  1.00 20.00     0.135 C 
HETATM    6  C6  UNL     1     -33.644  17.222  -1.451  1.00 20.00     0.021 C 
HETATM    7  N7  UNL     1     -34.803  12.623  -4.900  1.00 20.00    -0.195 NA
HETATM    8  S8  UNL     1     -34.125  17.609  -4.139  1.00 20.00    -0.162 SA
HETATM    9 CL9  UNL     1     -32.287  14.702  -3.462  1.00 20.00    -0.102 Cl
ENDROOT
TORSDOF 0
ENDMDL
MODEL 2
REMARK VINA RESULT:      -4.1      2.246      2.537
REMARK  0 active torsions:
REMARK  status: ('A' for Active; 'I' for Inactive)
ROOT
HETATM    1  C1  UNL     1     -36.984  14.540  -4.019  1.00 20.00     0.086 C 
HETATM    2  C2  UNL     1     -34.759  15.124  -3.099  1.00 20.00     0.056 C 
HETATM    3  C3  UNL     1     -35.416  15.947  -5.309  1.00 20.00     0.115 C 
HETATM    4  C4  UNL     1     -33.421  15.756  -3.501  1.00 20.00     0.046 C 
HETATM    5  C5  UNL     1     -35.571  14.769  -4.350  1.00 20.00     0.135 C 
HETATM    6  C6  UNL     1     -32.255  14.778  -3.549  1.00 20.00     0.021 C 
HETATM    7  N7  UNL     1     -38.100  14.358  -3.757  1.00 20.00    -0.195 NA
HETATM    8  S8  UNL     1     -33.700  16.511  -5.134  1.00 20.00    -0.162 SA
HETATM    9 CL9  UNL     1     -34.990  13.251  -5.107  1.00 20.00    -0.102 Cl
ENDROOT
TORSDOF 0
ENDMDL
MODEL 3
REMARK VINA RESULT:      -3.9      1.010      1.010
REMARK  0 active torsions:
REMARK  status: ('A' for Active; 'I' for Inactive)
ROOT
HETATM    1  C1  UNL     1     -34.833  13.925  -4.064  1.00 20.00     0.086 C 
HETATM    2  C2  UNL     1     -34.859  15.554  -2.196  1.00 20.00     0.056 C 
HETATM    3  C3  UNL     1     -35.514  16.269  -4.445  1.00 20.00     0.115 C 
HETATM    4  C4  UNL     1     -35.003  17.054  -1.913  1.00 20.00     0.046 C 
HETATM    5  C5  UNL     1     -34.585  15.324  -3.687  1.00 20.00     0.135 C 
HETATM    6  C6  UNL     1     -33.727  17.724  -1.419  1.00 20.00     0.021 C 
HETATM    7  N7  UNL     1     -35.029  12.820  -4.360  1.00 20.00    -0.195 NA
HETATM    8  S8  UNL     1     -35.564  17.803  -3.475  1.00 20.00    -0.162 SA
HETATM    9 CL9  UNL     1     -32.871  15.648  -4.102  1.00 20.00    -0.102 Cl
ENDROOT
TORSDOF 0
ENDMDL
MODEL 4
REMARK VINA RESULT:      -3.9     12.887     13.809
REMARK  0 active torsions:
REMARK  status: ('A' for Active; 'I' for Inactive)
ROOT
HETATM    1  C1  UNL     1     -41.926   2.867  -2.780  1.00 20.00     0.086 C 
HETATM    2  C2  UNL     1     -40.815   4.568  -1.361  1.00 20.00     0.056 C 
HETATM    3  C3  UNL     1     -43.085   3.827  -0.821  1.00 20.00     0.115 C 
HETATM    4  C4  UNL     1     -41.102   5.558  -0.226  1.00 20.00     0.046 C 
HETATM    5  C5  UNL     1     -42.130   4.085  -1.984  1.00 20.00     0.135 C 
HETATM    6  C6  UNL     1     -41.032   7.022  -0.640  1.00 20.00     0.021 C 
HETATM    7  N7  UNL     1     -41.764   1.906  -3.410  1.00 20.00    -0.195 NA
HETATM    8  S8  UNL     1     -42.762   5.139   0.391  1.00 20.00    -0.162 SA
HETATM    9 CL9  UNL     1     -42.813   5.301  -3.110  1.00 20.00    -0.102 Cl
ENDROOT
TORSDOF 0
ENDMDL
MODEL 5
REMARK VINA RESULT:      -3.7      1.766      2.003
REMARK  0 active torsions:
REMARK  status: ('A' for Active; 'I' for Inactive)
ROOT
HETATM    1  C1  UNL     1     -34.811  13.962  -4.178  1.00 20.00     0.086 C 
HETATM    2  C2  UNL     1     -35.822  16.158  -4.722  1.00 20.00     0.056 C 
HETATM    3  C3  UNL     1     -33.386  15.925  -4.648  1.00 20.00     0.115 C 
HETATM    4  C4  UNL     1     -35.458  17.636  -4.903  1.00 20.00     0.046 C 
HETATM    5  C5  UNL     1     -34.680  15.417  -4.017  1.00 20.00     0.135 C 
HETATM    6  C6  UNL     1     -36.005  18.554  -3.818  1.00 20.00     0.021 C 
HETATM    7  N7  UNL     1     -34.915  12.813  -4.305  1.00 20.00    -0.195 NA
HETATM    8  S8  UNL     1     -33.639  17.697  -4.947  1.00 20.00    -0.162 SA
HETATM    9 CL9  UNL     1     -34.688  15.719  -2.249  1.00 20.00    -0.102 Cl
ENDROOT
TORSDOF 0
ENDMDL
MODEL 6
REMARK VINA RESULT:      -3.6      2.286      2.651
REMARK  0 active torsions:
REMARK  status: ('A' for Active; 'I' for Inactive)
ROOT
HETATM    1  C1  UNL     1     -34.862  13.700  -4.958  1.00 20.00     0.086 C 
HETATM    2  C2  UNL     1     -34.101  16.029  -4.584  1.00 20.00     0.056 C 
HETATM    3  C3  UNL     1     -36.363  15.607  -5.422  1.00 20.00     0.115 C 
HETATM    4  C4  UNL     1     -34.507  17.482  -4.853  1.00 20.00     0.046 C 
HETATM    5  C5  UNL     1     -34.930  15.080  -5.458  1.00 20.00     0.135 C 
HETATM    6  C6  UNL     1     -33.621  18.205  -5.858  1.00 20.00     0.021 C 
HETATM    7  N7  UNL     1     -34.808  12.610  -4.564  1.00 20.00    -0.195 NA
HETATM    8  S8  UNL     1     -36.230  17.417  -5.438  1.00 20.00    -0.162 SA
HETATM    9 CL9  UNL     1     -34.314  15.026  -7.141  1.00 20.00    -0.102 Cl
ENDROOT
TORSDOF 0
ENDMDL
MODEL 7
REMARK VINA RESULT:      -3.6      2.614      3.655
REMARK  0 active torsions:
REMARK  status: ('A' for Active; 'I' for Inactive)
ROOT
HETATM    1  C1  UNL     1     -34.779  16.010  -2.016  1.00 20.00     0.086 C 
HETATM    2  C2  UNL     1     -34.614  16.378  -4.462  1.00 20.00     0.056 C 
HETATM    3  C3  UNL     1     -36.591  15.277  -3.528  1.00 20.00     0.115 C 
HETATM    4  C4  UNL     1     -35.293  15.998  -5.782  1.00 20.00     0.046 C 
HETATM    5  C5  UNL     1     -35.086  15.447  -3.339  1.00 20.00     0.135 C 
HETATM    6  C6  UNL     1     -34.463  15.084  -6.673  1.00 20.00     0.021 C 
HETATM    7  N7  UNL     1     -34.537  16.455  -0.972  1.00 20.00    -0.195 NA
HETATM    8  S8  UNL     1     -36.864  15.201  -5.321  1.00 20.00    -0.162 SA
HETATM    9 CL9  UNL     1     -34.253  13.860  -3.403  1.00 20.00    -0.102 Cl
ENDROOT
TORSDOF 0
ENDMDL
MODEL 8
REMARK VINA RESULT:      -3.6      2.779      3.745
REMARK  0 active torsions:
REMARK  status: ('A' for Active; 'I' for Inactive)
ROOT
HETATM    1  C1  UNL     1     -34.735  16.573  -1.403  1.00 20.00     0.086 C 
HETATM    2  C2  UNL     1     -34.307  14.870  -3.152  1.00 20.00     0.056 C 
HETATM    3  C3  UNL     1     -33.819  17.227  -3.602  1.00 20.00     0.115 C 
HETATM    4  C4  UNL     1     -33.951  14.738  -4.638  1.00 20.00     0.046 C 
HETATM    5  C5  UNL     1     -34.768  16.300  -2.847  1.00 20.00     0.135 C 
HETATM    6  C6  UNL     1     -35.074  14.183  -5.504  1.00 20.00     0.021 C 
HETATM    7  N7  UNL     1     -34.708  16.787  -0.263  1.00 20.00    -0.195 NA
HETATM    8  S8  UNL     1     -33.476  16.408  -5.186  1.00 20.00    -0.162 SA
HETATM    9 CL9  UNL     1     -36.464  16.571  -3.360  1.00 20.00    -0.102 Cl
ENDROOT
TORSDOF 0
ENDMDL
MODEL 9
REMARK VINA RESULT:      -3.6      1.935      2.354
REMARK  0 active torsions:
REMARK  status: ('A' for Active; 'I' for Inactive)
ROOT
HETATM    1  C1  UNL     1     -34.887  13.752  -4.488  1.00 20.00     0.086 C 
HETATM    2  C2  UNL     1     -33.550  15.828  -4.286  1.00 20.00     0.056 C 
HETATM    3  C3  UNL     1     -35.708  15.655  -3.143  1.00 20.00     0.115 C 
HETATM    4  C4  UNL     1     -33.643  17.272  -3.779  1.00 20.00     0.046 C 
HETATM    5  C5  UNL     1     -34.952  15.217  -4.395  1.00 20.00     0.135 C 
HETATM    6  C6  UNL     1     -33.630  18.325  -4.879  1.00 20.00     0.021 C 
HETATM    7  N7  UNL     1     -34.836  12.595  -4.562  1.00 20.00    -0.195 NA
HETATM    8  S8  UNL     1     -35.184  17.361  -2.815  1.00 20.00    -0.162 SA
HETATM    9 CL9  UNL     1     -35.799  15.768  -5.876  1.00 20.00    -0.102 Cl
ENDROOT
TORSDOF 0
ENDMDL
