MODEL 1
REMARK VINA RESULT:      -4.9      0.000      0.000
REMARK  1 active torsions:
REMARK  status: ('A' for Active; 'I' for Inactive)
REMARK    1  A    between atoms: C6_6  and  O10_10 
ROOT
HETATM    1  C1  UNL     1     -34.671  14.773  -7.301  1.00 20.00     0.015 C 
HETATM    2  C2  UNL     1     -34.361  15.295  -6.265  1.00 20.00    -0.077 C 
HETATM    3  C3  UNL     1     -34.117  15.811  -2.422  1.00 20.00     0.023 C 
HETATM    4  C4  UNL     1     -34.663  17.224  -2.256  1.00 20.00     0.075 C 
HETATM    5  C5  UNL     1     -34.494  17.392  -5.009  1.00 20.00     0.126 C 
HETATM    6  C6  UNL     1     -33.978  15.939  -4.987  1.00 20.00     0.135 C 
HETATM    7  C7  UNL     1     -34.493  15.108  -3.757  1.00 20.00    -0.004 C 
HETATM    8  C8  UNL     1     -33.828  13.706  -3.724  1.00 20.00     0.019 C 
HETATM    9  C9  UNL     1     -36.024  14.887  -3.804  1.00 20.00     0.019 C 
HETATM   10  S11 UNL     1     -34.042  18.349  -3.530  1.00 20.00    -0.165 SA
ENDROOT
BRANCH   6  11
HETATM   11  O10 UNL     1     -32.545  15.980  -4.942  1.00 20.00    -0.376 OA
HETATM   12  H25 UNL     1     -32.299  16.908  -5.065  1.00 20.00     0.211 HD
ENDBRANCH   6  11
TORSDOF 1
ENDMDL
MODEL 2
REMARK VINA RESULT:      -4.8      1.900      3.875
REMARK  1 active torsions:
REMARK  status: ('A' for Active; 'I' for Inactive)
REMARK    1  A    between atoms: C6_6  and  O10_10 
ROOT
HETATM    1  C1  UNL     1     -33.838  17.030  -1.505  1.00 20.00     0.015 C 
HETATM    2  C2  UNL     1     -33.827  16.382  -2.516  1.00 20.00    -0.077 C 
HETATM    3  C3  UNL     1     -34.365  15.562  -6.275  1.00 20.00     0.023 C 
HETATM    4  C4  UNL     1     -35.213  14.297  -6.207  1.00 20.00     0.075 C 
HETATM    5  C5  UNL     1     -34.608  14.286  -3.511  1.00 20.00     0.126 C 
HETATM    6  C6  UNL     1     -33.814  15.583  -3.763  1.00 20.00     0.135 C 
HETATM    7  C7  UNL     1     -34.350  16.421  -4.980  1.00 20.00    -0.004 C 
HETATM    8  C8  UNL     1     -33.424  17.635  -5.262  1.00 20.00     0.019 C 
HETATM    9  C9  UNL     1     -35.770  16.979  -4.720  1.00 20.00     0.019 C 
HETATM   10  S11 UNL     1     -34.628  13.153  -4.933  1.00 20.00    -0.165 SA
ENDROOT
BRANCH   6  11
HETATM   11  O10 UNL     1     -32.450  15.222  -4.024  1.00 20.00    -0.376 OA
HETATM   12  H25 UNL     1     -32.413  14.967  -4.958  1.00 20.00     0.211 HD
ENDBRANCH   6  11
TORSDOF 1
ENDMDL
MODEL 3
REMARK VINA RESULT:      -4.6      2.191      3.730
REMARK  1 active torsions:
REMARK  status: ('A' for Active; 'I' for Inactive)
REMARK    1  A    between atoms: C6_6  and  O10_10 
ROOT
HETATM    1  C1  UNL     1     -34.540  16.556  -0.993  1.00 20.00     0.015 C 
HETATM    2  C2  UNL     1     -35.051  16.241  -2.033  1.00 20.00    -0.077 C 
HETATM    3  C3  UNL     1     -35.330  14.713  -5.594  1.00 20.00     0.023 C 
HETATM    4  C4  UNL     1     -35.853  15.892  -6.406  1.00 20.00     0.075 C 
HETATM    5  C5  UNL     1     -36.267  17.122  -3.967  1.00 20.00     0.126 C 
HETATM    6  C6  UNL     1     -35.682  15.853  -3.316  1.00 20.00     0.135 C 
HETATM    7  C7  UNL     1     -34.668  15.084  -4.237  1.00 20.00    -0.004 C 
HETATM    8  C8  UNL     1     -34.228  13.750  -3.578  1.00 20.00     0.019 C 
HETATM    9  C9  UNL     1     -33.385  15.908  -4.503  1.00 20.00     0.019 C 
HETATM   10  S11 UNL     1     -37.145  16.805  -5.527  1.00 20.00    -0.165 SA
ENDROOT
BRANCH   6  11
HETATM   11  O10 UNL     1     -36.773  14.973  -3.005  1.00 20.00    -0.376 OA
HETATM   12  H25 UNL     1     -36.723  14.248  -3.644  1.00 20.00     0.211 HD
ENDBRANCH   6  11
TORSDOF 1
ENDMDL
MODEL 4
REMARK VINA RESULT:      -4.3      2.194      3.401
REMARK  1 active torsions:
REMARK  status: ('A' for Active; 'I' for Inactive)
REMARK    1  A    between atoms: C6_6  and  O10_10 
ROOT
HETATM    1  C1  UNL     1     -33.438  18.763  -4.387  1.00 20.00     0.015 C 
HETATM    2  C2  UNL     1     -33.999  17.710  -4.528  1.00 20.00    -0.077 C 
HETATM    3  C3  UNL     1     -34.957  14.014  -3.813  1.00 20.00     0.023 C 
HETATM    4  C4  UNL     1     -34.695  13.351  -5.161  1.00 20.00     0.075 C 
HETATM    5  C5  UNL     1     -34.436  15.921  -6.141  1.00 20.00     0.126 C 
HETATM    6  C6  UNL     1     -34.691  16.412  -4.702  1.00 20.00     0.135 C 
HETATM    7  C7  UNL     1     -34.251  15.383  -3.600  1.00 20.00    -0.004 C 
HETATM    8  C8  UNL     1     -34.662  15.879  -2.188  1.00 20.00     0.019 C 
HETATM    9  C9  UNL     1     -32.718  15.170  -3.581  1.00 20.00     0.019 C 
HETATM   10  S11 UNL     1     -35.282  14.362  -6.542  1.00 20.00    -0.165 SA
ENDROOT
BRANCH   6  11
HETATM   11  O10 UNL     1     -36.098  16.657  -4.562  1.00 20.00    -0.376 OA
HETATM   12  H25 UNL     1     -36.278  17.474  -5.049  1.00 20.00     0.211 HD
ENDBRANCH   6  11
TORSDOF 1
ENDMDL
MODEL 5
REMARK VINA RESULT:      -4.3      1.216      1.298
REMARK  1 active torsions:
REMARK  status: ('A' for Active; 'I' for Inactive)
REMARK    1  A    between atoms: C6_6  and  O10_10 
ROOT
HETATM    1  C1  UNL     1     -34.562  17.022  -7.604  1.00 20.00     0.015 C 
HETATM    2  C2  UNL     1     -34.324  16.761  -6.456  1.00 20.00    -0.077 C 
HETATM    3  C3  UNL     1     -34.579  14.897  -3.057  1.00 20.00     0.023 C 
HETATM    4  C4  UNL     1     -34.875  16.038  -2.090  1.00 20.00     0.075 C 
HETATM    5  C5  UNL     1     -34.259  17.711  -4.201  1.00 20.00     0.126 C 
HETATM    6  C6  UNL     1     -34.029  16.438  -5.041  1.00 20.00     0.135 C 
HETATM    7  C7  UNL     1     -34.871  15.204  -4.553  1.00 20.00    -0.004 C 
HETATM    8  C8  UNL     1     -34.488  13.929  -5.351  1.00 20.00     0.019 C 
HETATM    9  C9  UNL     1     -36.390  15.425  -4.743  1.00 20.00     0.019 C 
HETATM   10  S11 UNL     1     -33.870  17.502  -2.437  1.00 20.00    -0.165 SA
ENDROOT
BRANCH   6  11
HETATM   11  O10 UNL     1     -32.637  16.102  -4.961  1.00 20.00    -0.376 OA
HETATM   12  H25 UNL     1     -32.502  15.723  -4.080  1.00 20.00     0.211 HD
ENDBRANCH   6  11
TORSDOF 1
ENDMDL
MODEL 6
REMARK VINA RESULT:      -4.3      1.981      3.596
REMARK  1 active torsions:
REMARK  status: ('A' for Active; 'I' for Inactive)
REMARK    1  A    between atoms: C6_6  and  O10_10 
ROOT
HETATM    1  C1  UNL     1     -33.854  18.705  -3.508  1.00 20.00     0.015 C 
HETATM    2  C2  UNL     1     -33.800  17.589  -3.949  1.00 20.00    -0.077 C 
HETATM    3  C3  UNL     1     -34.688  14.564  -6.219  1.00 20.00     0.023 C 
HETATM    4  C4  UNL     1     -35.004  13.479  -5.194  1.00 20.00     0.075 C 
HETATM    5  C5  UNL     1     -33.952  15.225  -3.329  1.00 20.00     0.126 C 
HETATM    6  C6  UNL     1     -33.732  16.213  -4.493  1.00 20.00     0.135 C 
HETATM    7  C7  UNL     1     -34.743  16.021  -5.679  1.00 20.00    -0.004 C 
HETATM    8  C8  UNL     1     -34.378  16.949  -6.869  1.00 20.00     0.019 C 
HETATM    9  C9  UNL     1     -36.196  16.358  -5.265  1.00 20.00     0.019 C 
HETATM   10  S11 UNL     1     -33.828  13.478  -3.819  1.00 20.00    -0.165 SA
ENDROOT
BRANCH   6  11
HETATM   11  O10 UNL     1     -32.400  16.017  -4.992  1.00 20.00    -0.376 OA
HETATM   12  H25 UNL     1     -32.143  16.853  -5.406  1.00 20.00     0.211 HD
ENDBRANCH   6  11
TORSDOF 1
ENDMDL
MODEL 7
REMARK VINA RESULT:      -4.1      1.485      2.283
REMARK  1 active torsions:
REMARK  status: ('A' for Active; 'I' for Inactive)
REMARK    1  A    between atoms: C6_6  and  O10_10 
ROOT
HETATM    1  C1  UNL     1     -34.676  13.263  -4.542  1.00 20.00     0.015 C 
HETATM    2  C2  UNL     1     -34.363  14.415  -4.669  1.00 20.00    -0.077 C 
HETATM    3  C3  UNL     1     -34.101  18.194  -3.806  1.00 20.00     0.023 C 
HETATM    4  C4  UNL     1     -34.652  18.848  -5.069  1.00 20.00     0.075 C 
HETATM    5  C5  UNL     1     -34.498  16.328  -6.192  1.00 20.00     0.126 C 
HETATM    6  C6  UNL     1     -33.976  15.837  -4.826  1.00 20.00     0.135 C 
HETATM    7  C7  UNL     1     -34.481  16.699  -3.614  1.00 20.00    -0.004 C 
HETATM    8  C8  UNL     1     -33.810  16.237  -2.293  1.00 20.00     0.019 C 
HETATM    9  C9  UNL     1     -36.012  16.583  -3.415  1.00 20.00     0.019 C 
HETATM   10  S11 UNL     1     -34.043  18.047  -6.572  1.00 20.00    -0.165 SA
ENDROOT
BRANCH   6  11
HETATM   11  O10 UNL     1     -32.543  15.888  -4.857  1.00 20.00    -0.376 OA
HETATM   12  H25 UNL     1     -32.245  15.610  -3.979  1.00 20.00     0.211 HD
ENDBRANCH   6  11
TORSDOF 1
ENDMDL
MODEL 8
REMARK VINA RESULT:      -4.1      1.725      3.562
REMARK  1 active torsions:
REMARK  status: ('A' for Active; 'I' for Inactive)
REMARK    1  A    between atoms: C6_6  and  O10_10 
ROOT
HETATM    1  C1  UNL     1     -34.758  16.636  -0.784  1.00 20.00     0.015 C 
HETATM    2  C2  UNL     1     -34.854  16.649  -1.981  1.00 20.00    -0.077 C 
HETATM    3  C3  UNL     1     -35.475  15.275  -5.562  1.00 20.00     0.023 C 
HETATM    4  C4  UNL     1     -34.187  15.663  -6.279  1.00 20.00     0.075 C 
HETATM    5  C5  UNL     1     -33.643  17.188  -4.040  1.00 20.00     0.126 C 
HETATM    6  C6  UNL     1     -34.972  16.666  -3.458  1.00 20.00     0.135 C 
HETATM    7  C7  UNL     1     -35.388  15.255  -4.009  1.00 20.00    -0.004 C 
HETATM    8  C8  UNL     1     -36.796  14.855  -3.491  1.00 20.00     0.019 C 
HETATM    9  C9  UNL     1     -34.405  14.145  -3.567  1.00 20.00     0.019 C 
HETATM   10  S11 UNL     1     -33.647  17.337  -5.852  1.00 20.00    -0.165 SA
ENDROOT
BRANCH   6  11
HETATM   11  O10 UNL     1     -36.001  17.609  -3.793  1.00 20.00    -0.376 OA
HETATM   12  H25 UNL     1     -36.834  17.210  -3.504  1.00 20.00     0.211 HD
ENDBRANCH   6  11
TORSDOF 1
ENDMDL
MODEL 9
REMARK VINA RESULT:      -4.0      2.422      3.771
REMARK  1 active torsions:
REMARK  status: ('A' for Active; 'I' for Inactive)
REMARK    1  A    between atoms: C6_6  and  O10_10 
ROOT
HETATM    1  C1  UNL     1     -32.765  14.873  -3.578  1.00 20.00     0.015 C 
HETATM    2  C2  UNL     1     -33.877  14.746  -4.015  1.00 20.00    -0.077 C 
HETATM    3  C3  UNL     1     -36.863  15.203  -6.457  1.00 20.00     0.023 C 
HETATM    4  C4  UNL     1     -37.953  15.731  -5.531  1.00 20.00     0.075 C 
HETATM    5  C5  UNL     1     -36.244  15.050  -3.470  1.00 20.00     0.126 C 
HETATM    6  C6  UNL     1     -35.248  14.589  -4.552  1.00 20.00     0.135 C 
HETATM    7  C7  UNL     1     -35.411  15.346  -5.919  1.00 20.00    -0.004 C 
HETATM    8  C8  UNL     1     -34.476  14.738  -6.999  1.00 20.00     0.019 C 
HETATM    9  C9  UNL     1     -35.055  16.847  -5.799  1.00 20.00     0.019 C 
HETATM   10  S11 UNL     1     -37.987  14.854  -3.949  1.00 20.00    -0.165 SA
ENDROOT
BRANCH   6  11
HETATM   11  O10 UNL     1     -35.459  13.188  -4.778  1.00 20.00    -0.376 OA
HETATM   12  H25 UNL     1     -34.660  12.741  -4.463  1.00 20.00     0.211 HD
ENDBRANCH   6  11
TORSDOF 1
ENDMDL
