MODEL 1
REMARK VINA RESULT:      -4.6      0.000      0.000
REMARK  0 active torsions:
REMARK  status: ('A' for Active; 'I' for Inactive)
ROOT
HETATM    1  C1  UNL     1     -34.661  13.814  -4.079  1.00 20.00     0.086 C 
HETATM    2  C2  UNL     1     -34.137  16.896  -1.835  1.00 20.00     0.013 C 
HETATM    3  C3  UNL     1     -34.600  15.527  -2.333  1.00 20.00     0.043 C 
HETATM    4  C4  UNL     1     -34.560  18.033  -2.750  1.00 20.00     0.074 C 
HETATM    5  C5  UNL     1     -34.447  16.180  -4.813  1.00 20.00     0.081 C 
HETATM    6  C6  UNL     1     -34.080  15.128  -3.731  1.00 20.00     0.137 C 
HETATM    7  C7  UNL     1     -33.952  15.849  -6.226  1.00 20.00     0.024 C 
HETATM    8  N8  UNL     1     -35.116  12.782  -4.352  1.00 20.00    -0.195 NA
HETATM    9  S9  UNL     1     -33.839  17.862  -4.403  1.00 20.00    -0.162 SA
HETATM   10 CL10 UNL     1     -32.299  14.852  -3.647  1.00 20.00    -0.102 Cl
ENDROOT
TORSDOF 0
ENDMDL
MODEL 2
REMARK VINA RESULT:      -4.5      1.997      1.998
REMARK  0 active torsions:
REMARK  status: ('A' for Active; 'I' for Inactive)
ROOT
HETATM    1  C1  UNL     1     -37.071  14.607  -3.848  1.00 20.00     0.086 C 
HETATM    2  C2  UNL     1     -33.928  16.376  -2.508  1.00 20.00     0.013 C 
HETATM    3  C3  UNL     1     -35.350  15.827  -2.608  1.00 20.00     0.043 C 
HETATM    4  C4  UNL     1     -33.569  17.304  -3.657  1.00 20.00     0.074 C 
HETATM    5  C5  UNL     1     -35.360  15.827  -5.177  1.00 20.00     0.081 C 
HETATM    6  C6  UNL     1     -35.650  15.014  -3.885  1.00 20.00     0.137 C 
HETATM    7  C7  UNL     1     -35.629  15.073  -6.485  1.00 20.00     0.024 C 
HETATM    8  N8  UNL     1     -38.186  14.287  -3.818  1.00 20.00    -0.195 NA
HETATM    9  S9  UNL     1     -33.635  16.448  -5.252  1.00 20.00    -0.162 SA
HETATM   10 CL10 UNL     1     -34.715  13.472  -3.844  1.00 20.00    -0.102 Cl
ENDROOT
TORSDOF 0
ENDMDL
MODEL 3
REMARK VINA RESULT:      -4.4      2.432      2.896
REMARK  0 active torsions:
REMARK  status: ('A' for Active; 'I' for Inactive)
ROOT
HETATM    1  C1  UNL     1     -37.092  14.521  -4.087  1.00 20.00     0.086 C 
HETATM    2  C2  UNL     1     -33.320  13.776  -3.954  1.00 20.00     0.013 C 
HETATM    3  C3  UNL     1     -34.824  13.686  -3.704  1.00 20.00     0.043 C 
HETATM    4  C4  UNL     1     -32.739  15.132  -3.586  1.00 20.00     0.074 C 
HETATM    5  C5  UNL     1     -35.236  16.171  -4.204  1.00 20.00     0.081 C 
HETATM    6  C6  UNL     1     -35.680  14.709  -4.481  1.00 20.00     0.137 C 
HETATM    7  C7  UNL     1     -36.041  17.241  -4.954  1.00 20.00     0.024 C 
HETATM    8  N8  UNL     1     -38.201  14.373  -3.778  1.00 20.00    -0.195 NA
HETATM    9  S9  UNL     1     -33.464  16.459  -4.583  1.00 20.00    -0.162 SA
HETATM   10 CL10 UNL     1     -35.624  14.317  -6.242  1.00 20.00    -0.102 Cl
ENDROOT
TORSDOF 0
ENDMDL
MODEL 4
REMARK VINA RESULT:      -4.2      1.788      3.003
REMARK  0 active torsions:
REMARK  status: ('A' for Active; 'I' for Inactive)
ROOT
HETATM    1  C1  UNL     1     -34.853  13.858  -4.746  1.00 20.00     0.086 C 
HETATM    2  C2  UNL     1     -34.366  17.173  -6.637  1.00 20.00     0.013 C 
HETATM    3  C3  UNL     1     -34.388  15.681  -6.311  1.00 20.00     0.043 C 
HETATM    4  C4  UNL     1     -33.535  17.983  -5.655  1.00 20.00     0.074 C 
HETATM    5  C5  UNL     1     -34.198  16.052  -3.776  1.00 20.00     0.081 C 
HETATM    6  C6  UNL     1     -34.954  15.323  -4.920  1.00 20.00     0.137 C 
HETATM    7  C7  UNL     1     -34.717  15.746  -2.365  1.00 20.00     0.024 C 
HETATM    8  N8  UNL     1     -34.774  12.708  -4.610  1.00 20.00    -0.195 NA
HETATM    9  S9  UNL     1     -34.200  17.876  -3.973  1.00 20.00    -0.162 SA
HETATM   10 CL10 UNL     1     -36.722  15.682  -4.886  1.00 20.00    -0.102 Cl
ENDROOT
TORSDOF 0
ENDMDL
MODEL 5
REMARK VINA RESULT:      -4.2      2.895      3.784
REMARK  0 active torsions:
REMARK  status: ('A' for Active; 'I' for Inactive)
ROOT
HETATM    1  C1  UNL     1     -33.887  17.661  -3.748  1.00 20.00     0.086 C 
HETATM    2  C2  UNL     1     -33.380  13.847  -3.720  1.00 20.00     0.013 C 
HETATM    3  C3  UNL     1     -33.109  15.345  -3.860  1.00 20.00     0.043 C 
HETATM    4  C4  UNL     1     -34.519  13.367  -4.604  1.00 20.00     0.074 C 
HETATM    5  C5  UNL     1     -35.563  15.925  -4.346  1.00 20.00     0.081 C 
HETATM    6  C6  UNL     1     -34.299  16.262  -3.508  1.00 20.00     0.137 C 
HETATM    7  C7  UNL     1     -36.789  16.795  -4.039  1.00 20.00     0.024 C 
HETATM    8  N8  UNL     1     -33.564  18.760  -3.935  1.00 20.00    -0.195 NA
HETATM    9  S9  UNL     1     -36.083  14.173  -4.173  1.00 20.00    -0.162 SA
HETATM   10 CL10 UNL     1     -34.627  16.161  -1.737  1.00 20.00    -0.102 Cl
ENDROOT
TORSDOF 0
ENDMDL
MODEL 6
REMARK VINA RESULT:      -4.1      1.224      1.224
REMARK  0 active torsions:
REMARK  status: ('A' for Active; 'I' for Inactive)
ROOT
HETATM    1  C1  UNL     1     -36.078  14.722  -3.651  1.00 20.00     0.086 C 
HETATM    2  C2  UNL     1     -33.756  17.023  -1.622  1.00 20.00     0.013 C 
HETATM    3  C3  UNL     1     -34.873  16.046  -1.982  1.00 20.00     0.043 C 
HETATM    4  C4  UNL     1     -33.832  18.324  -2.404  1.00 20.00     0.074 C 
HETATM    5  C5  UNL     1     -35.019  16.835  -4.422  1.00 20.00     0.081 C 
HETATM    6  C6  UNL     1     -34.916  15.617  -3.465  1.00 20.00     0.137 C 
HETATM    7  C7  UNL     1     -35.056  16.479  -5.914  1.00 20.00     0.024 C 
HETATM    8  N8  UNL     1     -36.989  14.019  -3.797  1.00 20.00    -0.195 NA
HETATM    9  S9  UNL     1     -33.657  18.042  -4.185  1.00 20.00    -0.162 SA
HETATM   10 CL10 UNL     1     -33.471  14.600  -3.832  1.00 20.00    -0.102 Cl
ENDROOT
TORSDOF 0
ENDMDL
MODEL 7
REMARK VINA RESULT:      -4.1      2.090      2.555
REMARK  0 active torsions:
REMARK  status: ('A' for Active; 'I' for Inactive)
ROOT
HETATM    1  C1  UNL     1     -33.883  13.896  -3.798  1.00 20.00     0.086 C 
HETATM    2  C2  UNL     1     -37.473  15.271  -3.959  1.00 20.00     0.013 C 
HETATM    3  C3  UNL     1     -36.295  14.301  -3.886  1.00 20.00     0.043 C 
HETATM    4  C4  UNL     1     -37.409  16.191  -5.167  1.00 20.00     0.074 C 
HETATM    5  C5  UNL     1     -34.652  15.936  -4.994  1.00 20.00     0.081 C 
HETATM    6  C6  UNL     1     -34.904  14.966  -3.807  1.00 20.00     0.137 C 
HETATM    7  C7  UNL     1     -33.288  16.638  -4.971  1.00 20.00     0.024 C 
HETATM    8  N8  UNL     1     -33.083  13.056  -3.790  1.00 20.00    -0.195 NA
HETATM    9  S9  UNL     1     -35.934  17.242  -5.127  1.00 20.00    -0.162 SA
HETATM   10 CL10 UNL     1     -34.731  15.798  -2.216  1.00 20.00    -0.102 Cl
ENDROOT
TORSDOF 0
ENDMDL
MODEL 8
REMARK VINA RESULT:      -4.1      1.221      1.235
REMARK  0 active torsions:
REMARK  status: ('A' for Active; 'I' for Inactive)
ROOT
HETATM    1  C1  UNL     1     -34.843  13.972  -4.070  1.00 20.00     0.086 C 
HETATM    2  C2  UNL     1     -34.632  16.993  -1.697  1.00 20.00     0.013 C 
HETATM    3  C3  UNL     1     -34.710  15.556  -2.210  1.00 20.00     0.043 C 
HETATM    4  C4  UNL     1     -35.790  17.855  -2.174  1.00 20.00     0.074 C 
HETATM    5  C5  UNL     1     -35.858  16.216  -4.411  1.00 20.00     0.081 C 
HETATM    6  C6  UNL     1     -34.710  15.408  -3.747  1.00 20.00     0.137 C 
HETATM    7  C7  UNL     1     -35.910  16.120  -5.942  1.00 20.00     0.024 C 
HETATM    8  N8  UNL     1     -34.948  12.844  -4.324  1.00 20.00    -0.195 NA
HETATM    9  S9  UNL     1     -35.814  17.999  -3.979  1.00 20.00    -0.162 SA
HETATM   10 CL10 UNL     1     -33.096  15.890  -4.392  1.00 20.00    -0.102 Cl
ENDROOT
TORSDOF 0
ENDMDL
MODEL 9
REMARK VINA RESULT:      -4.1      1.982      2.184
REMARK  0 active torsions:
REMARK  status: ('A' for Active; 'I' for Inactive)
ROOT
HETATM    1  C1  UNL     1     -34.856  13.715  -4.446  1.00 20.00     0.086 C 
HETATM    2  C2  UNL     1     -33.912  16.798  -2.345  1.00 20.00     0.013 C 
HETATM    3  C3  UNL     1     -33.901  15.390  -2.939  1.00 20.00     0.043 C 
HETATM    4  C4  UNL     1     -35.235  17.152  -1.686  1.00 20.00     0.074 C 
HETATM    5  C5  UNL     1     -36.406  15.418  -3.508  1.00 20.00     0.081 C 
HETATM    6  C6  UNL     1     -34.970  15.127  -4.022  1.00 20.00     0.137 C 
HETATM    7  C7  UNL     1     -37.517  15.185  -4.540  1.00 20.00     0.024 C 
HETATM    8  N8  UNL     1     -34.766  12.607  -4.779  1.00 20.00    -0.195 NA
HETATM    9  S9  UNL     1     -36.601  17.130  -2.876  1.00 20.00    -0.162 SA
HETATM   10 CL10 UNL     1     -34.578  16.096  -5.492  1.00 20.00    -0.102 Cl
ENDROOT
TORSDOF 0
ENDMDL
