MODEL 1
REMARK VINA RESULT:      -4.6      0.000      0.000
REMARK  0 active torsions:
REMARK  status: ('A' for Active; 'I' for Inactive)
ROOT
HETATM    1  C1  UNL     1     -35.075  13.497  -4.259  1.00 20.00     0.088 C 
HETATM    2  C2  UNL     1     -34.815  15.615  -3.142  1.00 20.00    -0.057 C 
HETATM    3  C3  UNL     1     -35.540  14.511  -3.388  1.00 20.00     0.097 C 
HETATM    4  C4  UNL     1     -33.466  15.822  -3.788  1.00 20.00     0.037 C 
HETATM    5  C5  UNL     1     -33.417  17.102  -4.619  1.00 20.00     0.014 C 
HETATM    6  C6  UNL     1     -33.742  18.356  -3.815  1.00 20.00     0.075 C 
HETATM    7  C7  UNL     1     -35.318  16.696  -2.214  1.00 20.00     0.072 C 
HETATM    8  C8  UNL     1     -34.488  16.826  -0.938  1.00 20.00     0.026 C 
HETATM    9  N9  UNL     1     -34.702  12.661  -4.972  1.00 20.00    -0.192 NA
HETATM   10  S10 UNL     1     -35.416  18.293  -3.103  1.00 20.00    -0.160 SA
ENDROOT
TORSDOF 0
ENDMDL
MODEL 2
REMARK VINA RESULT:      -4.4      1.519      2.724
REMARK  0 active torsions:
REMARK  status: ('A' for Active; 'I' for Inactive)
ROOT
HETATM    1  C1  UNL     1     -33.304  14.414  -3.790  1.00 20.00     0.088 C 
HETATM    2  C2  UNL     1     -33.979  16.646  -3.185  1.00 20.00    -0.057 C 
HETATM    3  C3  UNL     1     -33.232  15.820  -3.937  1.00 20.00     0.097 C 
HETATM    4  C4  UNL     1     -34.932  16.106  -2.146  1.00 20.00     0.037 C 
HETATM    5  C5  UNL     1     -34.613  16.627  -0.746  1.00 20.00     0.014 C 
HETATM    6  C6  UNL     1     -34.637  18.148  -0.649  1.00 20.00     0.075 C 
HETATM    7  C7  UNL     1     -33.894  18.146  -3.343  1.00 20.00     0.072 C 
HETATM    8  C8  UNL     1     -35.180  18.765  -3.890  1.00 20.00     0.026 C 
HETATM    9  N9  UNL     1     -33.356  13.260  -3.677  1.00 20.00    -0.192 NA
HETATM   10  S10 UNL     1     -33.414  18.920  -1.754  1.00 20.00    -0.160 SA
ENDROOT
TORSDOF 0
ENDMDL
MODEL 3
REMARK VINA RESULT:      -4.2      2.879      3.927
REMARK  0 active torsions:
REMARK  status: ('A' for Active; 'I' for Inactive)
ROOT
HETATM    1  C1  UNL     1     -34.670  17.149  -0.527  1.00 20.00     0.088 C 
HETATM    2  C2  UNL     1     -34.246  16.026  -2.616  1.00 20.00    -0.057 C 
HETATM    3  C3  UNL     1     -33.789  16.653  -1.519  1.00 20.00     0.097 C 
HETATM    4  C4  UNL     1     -35.725  15.821  -2.838  1.00 20.00     0.037 C 
HETATM    5  C5  UNL     1     -36.204  16.461  -4.140  1.00 20.00     0.014 C 
HETATM    6  C6  UNL     1     -35.475  15.940  -5.373  1.00 20.00     0.075 C 
HETATM    7  C7  UNL     1     -33.301  15.502  -3.672  1.00 20.00     0.072 C 
HETATM    8  C8  UNL     1     -33.295  13.977  -3.768  1.00 20.00     0.026 C 
HETATM    9  N9  UNL     1     -35.384  17.559   0.290  1.00 20.00    -0.192 NA
HETATM   10  S10 UNL     1     -33.686  16.263  -5.293  1.00 20.00    -0.160 SA
ENDROOT
TORSDOF 0
ENDMDL
MODEL 4
REMARK VINA RESULT:      -4.1      2.918      3.833
REMARK  0 active torsions:
REMARK  status: ('A' for Active; 'I' for Inactive)
ROOT
HETATM    1  C1  UNL     1     -33.990  17.027  -1.483  1.00 20.00     0.088 C 
HETATM    2  C2  UNL     1     -35.008  15.719  -3.231  1.00 20.00    -0.057 C 
HETATM    3  C3  UNL     1     -34.698  15.888  -1.935  1.00 20.00     0.097 C 
HETATM    4  C4  UNL     1     -34.612  16.744  -4.267  1.00 20.00     0.037 C 
HETATM    5  C5  UNL     1     -33.729  16.145  -5.360  1.00 20.00     0.014 C 
HETATM    6  C6  UNL     1     -34.382  14.977  -6.091  1.00 20.00     0.075 C 
HETATM    7  C7  UNL     1     -35.760  14.499  -3.708  1.00 20.00     0.072 C 
HETATM    8  C8  UNL     1     -37.158  14.823  -4.233  1.00 20.00     0.026 C 
HETATM    9  N9  UNL     1     -33.410  17.958  -1.104  1.00 20.00    -0.192 NA
HETATM   10  S10 UNL     1     -34.775  13.603  -4.965  1.00 20.00    -0.160 SA
ENDROOT
TORSDOF 0
ENDMDL
MODEL 5
REMARK VINA RESULT:      -4.0      2.688      4.009
REMARK  0 active torsions:
REMARK  status: ('A' for Active; 'I' for Inactive)
ROOT
HETATM    1  C1  UNL     1     -34.946  16.927  -1.338  1.00 20.00     0.088 C 
HETATM    2  C2  UNL     1     -34.736  16.205  -3.627  1.00 20.00    -0.057 C 
HETATM    3  C3  UNL     1     -35.255  17.044  -2.715  1.00 20.00     0.097 C 
HETATM    4  C4  UNL     1     -33.794  15.098  -3.220  1.00 20.00     0.037 C 
HETATM    5  C5  UNL     1     -34.320  13.721  -3.619  1.00 20.00     0.014 C 
HETATM    6  C6  UNL     1     -34.577  13.583  -5.116  1.00 20.00     0.075 C 
HETATM    7  C7  UNL     1     -35.073  16.332  -5.094  1.00 20.00     0.072 C 
HETATM    8  C8  UNL     1     -33.877  16.744  -5.951  1.00 20.00     0.026 C 
HETATM    9  N9  UNL     1     -34.698  16.839  -0.208  1.00 20.00    -0.192 NA
HETATM   10  S10 UNL     1     -35.818  14.776  -5.705  1.00 20.00    -0.160 SA
ENDROOT
TORSDOF 0
ENDMDL
MODEL 6
REMARK VINA RESULT:      -4.0      2.007      2.454
REMARK  0 active torsions:
REMARK  status: ('A' for Active; 'I' for Inactive)
ROOT
HETATM    1  C1  UNL     1     -38.089  15.027  -3.718  1.00 20.00     0.088 C 
HETATM    2  C2  UNL     1     -35.920  15.899  -3.134  1.00 20.00    -0.057 C 
HETATM    3  C3  UNL     1     -37.251  16.057  -3.226  1.00 20.00     0.097 C 
HETATM    4  C4  UNL     1     -35.258  14.608  -3.554  1.00 20.00     0.037 C 
HETATM    5  C5  UNL     1     -34.221  14.826  -4.654  1.00 20.00     0.014 C 
HETATM    6  C6  UNL     1     -33.120  15.803  -4.261  1.00 20.00     0.075 C 
HETATM    7  C7  UNL     1     -35.031  17.002  -2.612  1.00 20.00     0.072 C 
HETATM    8  C8  UNL     1     -34.367  16.659  -1.279  1.00 20.00     0.026 C 
HETATM    9  N9  UNL     1     -38.783  14.189  -4.120  1.00 20.00    -0.192 NA
HETATM   10  S10 UNL     1     -33.782  17.454  -3.873  1.00 20.00    -0.160 SA
ENDROOT
TORSDOF 0
ENDMDL
MODEL 7
REMARK VINA RESULT:      -3.9      2.490      3.316
REMARK  0 active torsions:
REMARK  status: ('A' for Active; 'I' for Inactive)
ROOT
HETATM    1  C1  UNL     1     -37.697  15.681  -5.651  1.00 20.00     0.088 C 
HETATM    2  C2  UNL     1     -35.791  15.551  -4.183  1.00 20.00    -0.057 C 
HETATM    3  C3  UNL     1     -36.638  16.281  -4.928  1.00 20.00     0.097 C 
HETATM    4  C4  UNL     1     -35.934  14.051  -4.084  1.00 20.00     0.037 C 
HETATM    5  C5  UNL     1     -34.678  13.322  -4.556  1.00 20.00     0.014 C 
HETATM    6  C6  UNL     1     -33.424  13.718  -3.785  1.00 20.00     0.075 C 
HETATM    7  C7  UNL     1     -34.660  16.197  -3.417  1.00 20.00     0.072 C 
HETATM    8  C8  UNL     1     -34.828  16.098  -1.901  1.00 20.00     0.026 C 
HETATM    9  N9  UNL     1     -38.567  15.197  -6.246  1.00 20.00    -0.192 NA
HETATM   10  S10 UNL     1     -33.056  15.493  -3.950  1.00 20.00    -0.160 SA
ENDROOT
TORSDOF 0
ENDMDL
MODEL 8
REMARK VINA RESULT:      -3.9      2.408      3.080
REMARK  0 active torsions:
REMARK  status: ('A' for Active; 'I' for Inactive)
ROOT
HETATM    1  C1  UNL     1     -37.727  14.808  -3.674  1.00 20.00     0.088 C 
HETATM    2  C2  UNL     1     -35.444  15.315  -4.252  1.00 20.00    -0.057 C 
HETATM    3  C3  UNL     1     -36.485  15.435  -3.412  1.00 20.00     0.097 C 
HETATM    4  C4  UNL     1     -35.555  14.502  -5.519  1.00 20.00     0.037 C 
HETATM    5  C5  UNL     1     -35.270  15.337  -6.765  1.00 20.00     0.014 C 
HETATM    6  C6  UNL     1     -33.891  15.988  -6.753  1.00 20.00     0.075 C 
HETATM    7  C7  UNL     1     -34.123  15.989  -3.968  1.00 20.00     0.072 C 
HETATM    8  C8  UNL     1     -32.992  15.000  -3.687  1.00 20.00     0.026 C 
HETATM    9  N9  UNL     1     -38.748  14.298  -3.881  1.00 20.00    -0.192 NA
HETATM   10  S10 UNL     1     -33.685  17.119  -5.342  1.00 20.00    -0.160 SA
ENDROOT
TORSDOF 0
ENDMDL
MODEL 9
REMARK VINA RESULT:      -3.8      2.946      3.645
REMARK  0 active torsions:
REMARK  status: ('A' for Active; 'I' for Inactive)
ROOT
HETATM    1  C1  UNL     1     -33.931  13.773  -3.819  1.00 20.00     0.088 C 
HETATM    2  C2  UNL     1     -35.391  15.210  -5.087  1.00 20.00    -0.057 C 
HETATM    3  C3  UNL     1     -35.055  14.627  -3.924  1.00 20.00     0.097 C 
HETATM    4  C4  UNL     1     -34.578  14.979  -6.338  1.00 20.00     0.037 C 
HETATM    5  C5  UNL     1     -35.417  14.381  -7.466  1.00 20.00     0.014 C 
HETATM    6  C6  UNL     1     -36.617  15.242  -7.847  1.00 20.00     0.075 C 
HETATM    7  C7  UNL     1     -36.594  16.117  -5.193  1.00 20.00     0.072 C 
HETATM    8  C8  UNL     1     -36.226  17.572  -5.481  1.00 20.00     0.026 C 
HETATM    9  N9  UNL     1     -33.011  13.072  -3.724  1.00 20.00    -0.192 NA
HETATM   10  S10 UNL     1     -37.760  15.472  -6.449  1.00 20.00    -0.160 SA
ENDROOT
TORSDOF 0
ENDMDL
