MODEL 1
REMARK VINA RESULT:      -4.7      0.000      0.000
REMARK  1 active torsions:
REMARK  status: ('A' for Active; 'I' for Inactive)
REMARK    1  A    between atoms: C7_7  and  C11_11 
ROOT
HETATM    1  C1  UNL     1     -35.438  17.672  -1.213  1.00 20.00     0.030 C 
HETATM    2  C2  UNL     1     -34.390  16.580  -1.323  1.00 20.00     0.036 C 
HETATM    3  C3  UNL     1     -33.600  15.252  -3.358  1.00 20.00     0.305 C 
HETATM    4  C4  UNL     1     -35.612  18.116  -2.649  1.00 20.00     0.235 C 
HETATM    5  C5  UNL     1     -35.074  16.955  -4.835  1.00 20.00     0.271 C 
HETATM    6  C6  UNL     1     -34.789  15.810  -2.580  1.00 20.00     0.216 C 
HETATM    7  C7  UNL     1     -34.916  15.547  -5.423  1.00 20.00     0.251 C 
HETATM    8  C10 UNL     1     -34.395  13.324  -4.597  1.00 20.00     0.310 C 
HETATM    9  N12 UNL     1     -33.950  14.715  -4.678  1.00 20.00     0.092 N 
HETATM   10  N13 UNL     1     -35.559  16.818  -3.420  1.00 20.00    -0.063 N 
HETATM   11  H36 UNL     1     -36.558  16.443  -3.496  1.00 20.00     0.280 HD
ENDROOT
BRANCH   7  12
HETATM   12  C11 UNL     1     -34.454  15.647  -6.878  1.00 20.00     0.012 C 
HETATM   13  C8  UNL     1     -35.272  14.710  -7.759  1.00 20.00     0.012 C 
HETATM   14  C9  UNL     1     -34.563  17.086  -7.368  1.00 20.00     0.012 C 
ENDBRANCH   7  12
TORSDOF 1
ENDMDL
MODEL 2
REMARK VINA RESULT:      -4.6      1.090      1.254
REMARK  1 active torsions:
REMARK  status: ('A' for Active; 'I' for Inactive)
REMARK    1  A    between atoms: C7_7  and  C11_11 
ROOT
HETATM    1  C1  UNL     1     -35.377  17.781  -0.497  1.00 20.00     0.030 C 
HETATM    2  C2  UNL     1     -34.052  17.223  -0.983  1.00 20.00     0.036 C 
HETATM    3  C3  UNL     1     -33.497  15.896  -3.095  1.00 20.00     0.305 C 
HETATM    4  C4  UNL     1     -36.228  17.763  -1.749  1.00 20.00     0.235 C 
HETATM    5  C5  UNL     1     -36.009  16.444  -3.900  1.00 20.00     0.271 C 
HETATM    6  C6  UNL     1     -34.452  16.085  -1.919  1.00 20.00     0.216 C 
HETATM    7  C7  UNL     1     -35.423  15.130  -4.432  1.00 20.00     0.251 C 
HETATM    8  C10 UNL     1     -33.667  13.579  -3.793  1.00 20.00     0.310 C 
HETATM    9  N12 UNL     1     -33.989  14.968  -4.120  1.00 20.00     0.092 N 
HETATM   10  N13 UNL     1     -35.844  16.459  -2.407  1.00 20.00    -0.063 N 
HETATM   11  H36 UNL     1     -36.503  15.701  -2.040  1.00 20.00     0.280 HD
ENDROOT
BRANCH   7  12
HETATM   12  C11 UNL     1     -35.604  15.065  -5.949  1.00 20.00     0.012 C 
HETATM   13  C8  UNL     1     -36.929  15.701  -6.353  1.00 20.00     0.012 C 
HETATM   14  C9  UNL     1     -34.436  15.750  -6.650  1.00 20.00     0.012 C 
ENDBRANCH   7  12
TORSDOF 1
ENDMDL
MODEL 3
REMARK VINA RESULT:      -4.5      1.784      2.958
REMARK  1 active torsions:
REMARK  status: ('A' for Active; 'I' for Inactive)
REMARK    1  A    between atoms: C7_7  and  C11_11 
ROOT
HETATM    1  C1  UNL     1     -34.058  18.389   0.090  1.00 20.00     0.030 C 
HETATM    2  C2  UNL     1     -34.204  19.069  -1.258  1.00 20.00     0.036 C 
HETATM    3  C3  UNL     1     -34.677  18.075  -3.564  1.00 20.00     0.305 C 
HETATM    4  C4  UNL     1     -34.687  17.033  -0.148  1.00 20.00     0.235 C 
HETATM    5  C5  UNL     1     -35.129  15.747  -2.286  1.00 20.00     0.271 C 
HETATM    6  C6  UNL     1     -33.883  17.967  -2.265  1.00 20.00     0.216 C 
HETATM    7  C7  UNL     1     -34.603  15.615  -3.720  1.00 20.00     0.251 C 
HETATM    8  C10 UNL     1     -33.370  16.990  -5.296  1.00 20.00     0.310 C 
HETATM    9  N12 UNL     1     -34.552  16.904  -4.439  1.00 20.00     0.092 N 
HETATM   10  N13 UNL     1     -34.212  16.672  -1.536  1.00 20.00    -0.063 N 
HETATM   11  H36 UNL     1     -33.289  16.141  -1.438  1.00 20.00     0.280 HD
ENDROOT
BRANCH   7  12
HETATM   12  C11 UNL     1     -35.494  14.652  -4.507  1.00 20.00     0.012 C 
HETATM   13  C8  UNL     1     -34.912  13.244  -4.472  1.00 20.00     0.012 C 
HETATM   14  C9  UNL     1     -36.912  14.668  -3.946  1.00 20.00     0.012 C 
ENDBRANCH   7  12
TORSDOF 1
ENDMDL
MODEL 4
REMARK VINA RESULT:      -4.4      1.277      5.020
REMARK  1 active torsions:
REMARK  status: ('A' for Active; 'I' for Inactive)
REMARK    1  A    between atoms: C7_7  and  C11_11 
ROOT
HETATM    1  C1  UNL     1     -34.848  14.407  -6.269  1.00 20.00     0.030 C 
HETATM    2  C2  UNL     1     -34.183  15.770  -6.311  1.00 20.00     0.036 C 
HETATM    3  C3  UNL     1     -33.706  17.431  -4.428  1.00 20.00     0.305 C 
HETATM    4  C4  UNL     1     -34.779  14.044  -4.801  1.00 20.00     0.235 C 
HETATM    5  C5  UNL     1     -34.480  15.482  -2.737  1.00 20.00     0.271 C 
HETATM    6  C6  UNL     1     -34.715  16.478  -5.067  1.00 20.00     0.216 C 
HETATM    7  C7  UNL     1     -34.725  16.913  -2.242  1.00 20.00     0.251 C 
HETATM    8  C10 UNL     1     -34.973  19.117  -3.230  1.00 20.00     0.310 C 
HETATM    9  N12 UNL     1     -34.115  17.938  -3.114  1.00 20.00     0.092 N 
HETATM   10  N13 UNL     1     -35.078  15.354  -4.109  1.00 20.00    -0.063 N 
HETATM   11  H36 UNL     1     -36.136  15.413  -3.966  1.00 20.00     0.280 HD
ENDROOT
BRANCH   7  12
HETATM   12  C11 UNL     1     -34.157  17.072  -0.831  1.00 20.00     0.012 C 
HETATM   13  C8  UNL     1     -33.058  18.129  -0.818  1.00 20.00     0.012 C 
HETATM   14  C9  UNL     1     -35.269  17.434   0.147  1.00 20.00     0.012 C 
ENDBRANCH   7  12
TORSDOF 1
ENDMDL
MODEL 5
REMARK VINA RESULT:      -4.3      1.544      1.655
REMARK  1 active torsions:
REMARK  status: ('A' for Active; 'I' for Inactive)
REMARK    1  A    between atoms: C7_7  and  C11_11 
ROOT
HETATM    1  C1  UNL     1     -34.837  17.249  -0.877  1.00 20.00     0.030 C 
HETATM    2  C2  UNL     1     -33.797  16.600  -1.771  1.00 20.00     0.036 C 
HETATM    3  C3  UNL     1     -34.055  15.460  -4.044  1.00 20.00     0.305 C 
HETATM    4  C4  UNL     1     -36.001  17.466  -1.820  1.00 20.00     0.235 C 
HETATM    5  C5  UNL     1     -36.588  16.376  -4.030  1.00 20.00     0.271 C 
HETATM    6  C6  UNL     1     -34.601  15.625  -2.627  1.00 20.00     0.216 C 
HETATM    7  C7  UNL     1     -36.368  15.071  -4.805  1.00 20.00     0.251 C 
HETATM    8  C10 UNL     1     -34.741  13.269  -4.826  1.00 20.00     0.310 C 
HETATM    9  N12 UNL     1     -34.942  14.713  -4.942  1.00 20.00     0.092 N 
HETATM   10  N13 UNL     1     -36.007  16.207  -2.655  1.00 20.00    -0.063 N 
HETATM   11  H36 UNL     1     -36.636  15.494  -2.166  1.00 20.00     0.280 HD
ENDROOT
BRANCH   7  12
HETATM   12  C11 UNL     1     -36.978  15.195  -6.202  1.00 20.00     0.012 C 
HETATM   13  C8  UNL     1     -38.342  15.871  -6.127  1.00 20.00     0.012 C 
HETATM   14  C9  UNL     1     -36.039  15.968  -7.121  1.00 20.00     0.012 C 
ENDBRANCH   7  12
TORSDOF 1
ENDMDL
MODEL 6
REMARK VINA RESULT:      -4.2      1.750      4.298
REMARK  1 active torsions:
REMARK  status: ('A' for Active; 'I' for Inactive)
REMARK    1  A    between atoms: C7_7  and  C11_11 
ROOT
HETATM    1  C1  UNL     1     -37.536  16.856  -6.057  1.00 20.00     0.030 C 
HETATM    2  C2  UNL     1     -36.997  15.526  -5.562  1.00 20.00     0.036 C 
HETATM    3  C3  UNL     1     -35.276  15.018  -3.743  1.00 20.00     0.305 C 
HETATM    4  C4  UNL     1     -37.159  17.807  -4.941  1.00 20.00     0.235 C 
HETATM    5  C5  UNL     1     -35.407  17.636  -3.119  1.00 20.00     0.271 C 
HETATM    6  C6  UNL     1     -35.645  15.881  -4.947  1.00 20.00     0.216 C 
HETATM    7  C7  UNL     1     -34.062  16.959  -2.827  1.00 20.00     0.251 C 
HETATM    8  C10 UNL     1     -32.855  14.997  -3.592  1.00 20.00     0.310 C 
HETATM    9  N12 UNL     1     -34.100  15.494  -3.007  1.00 20.00     0.092 N 
HETATM   10  N13 UNL     1     -35.776  17.342  -4.545  1.00 20.00    -0.063 N 
HETATM   11  H36 UNL     1     -35.069  17.881  -5.139  1.00 20.00     0.280 HD
ENDROOT
BRANCH   7  12
HETATM   12  C11 UNL     1     -33.636  17.264  -1.389  1.00 20.00     0.012 C 
HETATM   13  C8  UNL     1     -33.297  18.743  -1.240  1.00 20.00     0.012 C 
HETATM   14  C9  UNL     1     -34.736  16.858  -0.415  1.00 20.00     0.012 C 
ENDBRANCH   7  12
TORSDOF 1
ENDMDL
MODEL 7
REMARK VINA RESULT:      -4.2      1.400      4.291
REMARK  1 active torsions:
REMARK  status: ('A' for Active; 'I' for Inactive)
REMARK    1  A    between atoms: C7_7  and  C11_11 
ROOT
HETATM    1  C1  UNL     1     -36.243  16.097  -7.831  1.00 20.00     0.030 C 
HETATM    2  C2  UNL     1     -36.351  14.881  -6.928  1.00 20.00     0.036 C 
HETATM    3  C3  UNL     1     -35.408  14.476  -4.588  1.00 20.00     0.305 C 
HETATM    4  C4  UNL     1     -35.825  17.191  -6.871  1.00 20.00     0.235 C 
HETATM    5  C5  UNL     1     -34.734  17.084  -4.587  1.00 20.00     0.271 C 
HETATM    6  C6  UNL     1     -35.148  15.005  -5.997  1.00 20.00     0.216 C 
HETATM    7  C7  UNL     1     -33.831  16.174  -3.745  1.00 20.00     0.251 C 
HETATM    8  C10 UNL     1     -33.265  13.815  -3.663  1.00 20.00     0.310 C 
HETATM    9  N12 UNL     1     -34.349  14.796  -3.625  1.00 20.00     0.092 N 
HETATM   10  N13 UNL     1     -34.837  16.494  -5.965  1.00 20.00    -0.063 N 
HETATM   11  H36 UNL     1     -33.864  16.605  -6.396  1.00 20.00     0.280 HD
ENDROOT
BRANCH   7  12
HETATM   12  C11 UNL     1     -33.676  16.762  -2.341  1.00 20.00     0.012 C 
HETATM   13  C8  UNL     1     -33.668  18.285  -2.404  1.00 20.00     0.012 C 
HETATM   14  C9  UNL     1     -34.793  16.262  -1.434  1.00 20.00     0.012 C 
ENDBRANCH   7  12
TORSDOF 1
ENDMDL
MODEL 8
REMARK VINA RESULT:      -4.1      2.431      3.939
REMARK  1 active torsions:
REMARK  status: ('A' for Active; 'I' for Inactive)
REMARK    1  A    between atoms: C7_7  and  C11_11 
ROOT
HETATM    1  C1  UNL     1     -39.699  15.737  -3.783  1.00 20.00     0.030 C 
HETATM    2  C2  UNL     1     -38.949  17.053  -3.866  1.00 20.00     0.036 C 
HETATM    3  C3  UNL     1     -36.450  17.544  -3.657  1.00 20.00     0.305 C 
HETATM    4  C4  UNL     1     -38.602  14.713  -3.985  1.00 20.00     0.235 C 
HETATM    5  C5  UNL     1     -36.091  14.875  -3.698  1.00 20.00     0.271 C 
HETATM    6  C6  UNL     1     -37.656  16.791  -3.099  1.00 20.00     0.216 C 
HETATM    7  C7  UNL     1     -35.035  15.665  -2.916  1.00 20.00     0.251 C 
HETATM    8  C10 UNL     1     -34.878  17.832  -1.832  1.00 20.00     0.310 C 
HETATM    9  N12 UNL     1     -35.167  17.127  -3.081  1.00 20.00     0.092 N 
HETATM   10  N13 UNL     1     -37.447  15.287  -3.200  1.00 20.00    -0.063 N 
HETATM   11  H36 UNL     1     -37.510  14.909  -2.201  1.00 20.00     0.280 HD
ENDROOT
BRANCH   7  12
HETATM   12  C11 UNL     1     -33.636  15.247  -3.375  1.00 20.00     0.012 C 
HETATM   13  C8  UNL     1     -33.627  13.774  -3.766  1.00 20.00     0.012 C 
HETATM   14  C9  UNL     1     -33.179  16.120  -4.537  1.00 20.00     0.012 C 
ENDBRANCH   7  12
TORSDOF 1
ENDMDL
MODEL 9
REMARK VINA RESULT:      -4.1      4.198      6.413
REMARK  1 active torsions:
REMARK  status: ('A' for Active; 'I' for Inactive)
REMARK    1  A    between atoms: C7_7  and  C11_11 
ROOT
HETATM    1  C1  UNL     1     -32.225  18.899   4.087  1.00 20.00     0.030 C 
HETATM    2  C2  UNL     1     -33.541  18.144   4.129  1.00 20.00     0.036 C 
HETATM    3  C3  UNL     1     -35.147  17.522   2.241  1.00 20.00     0.305 C 
HETATM    4  C4  UNL     1     -31.844  18.827   2.623  1.00 20.00     0.235 C 
HETATM    5  C5  UNL     1     -33.238  18.394   0.552  1.00 20.00     0.271 C 
HETATM    6  C6  UNL     1     -34.271  18.604   2.869  1.00 20.00     0.216 C 
HETATM    7  C7  UNL     1     -34.677  18.532   0.041  1.00 20.00     0.251 C 
HETATM    8  C10 UNL     1     -36.902  18.650   1.004  1.00 20.00     0.310 C 
HETATM    9  N12 UNL     1     -35.667  17.872   0.915  1.00 20.00     0.092 N 
HETATM   10  N13 UNL     1     -33.164  19.024   1.914  1.00 20.00    -0.063 N 
HETATM   11  H36 UNL     1     -33.292  20.073   1.750  1.00 20.00     0.280 HD
ENDROOT
BRANCH   7  12
HETATM   12  C11 UNL     1     -34.783  17.929  -1.361  1.00 20.00     0.012 C 
HETATM   13  C8  UNL     1     -33.690  18.491  -2.263  1.00 20.00     0.012 C 
HETATM   14  C9  UNL     1     -34.700  16.409  -1.289  1.00 20.00     0.012 C 
ENDBRANCH   7  12
TORSDOF 1
ENDMDL
