MODEL 1
REMARK VINA RESULT:      -4.2      0.000      0.000
REMARK  2 active torsions:
REMARK  status: ('A' for Active; 'I' for Inactive)
REMARK    1  A    between atoms: C2_2  and  C3_3 
REMARK    2  A    between atoms: C3_3  and  C7_7 
ROOT
HETATM    1  C4  UNL     1     -35.241  13.876  -4.795  1.00 20.00     0.084 C 
HETATM    2  C5  UNL     1     -36.314  14.486  -3.905  1.00 20.00     0.085 C 
HETATM    3  C6  UNL     1     -33.308  15.367  -3.490  1.00 20.00     0.097 C 
HETATM    4  C7  UNL     1     -34.381  15.974  -2.595  1.00 20.00     0.131 C 
HETATM    5  S10 UNL     1     -33.659  13.638  -3.930  1.00 20.00    -0.167 SA
HETATM    6  S11 UNL     1     -35.965  16.213  -3.460  1.00 20.00    -0.155 SA
ENDROOT
BRANCH   4   7
HETATM    7  C3  UNL     1     -33.942  17.330  -2.138  1.00 20.00     0.169 C 
HETATM    8  O9  UNL     1     -33.595  18.181  -2.958  1.00 20.00    -0.291 OA
BRANCH   7   9
HETATM    9  C2  UNL     1     -33.926  17.651  -0.672  1.00 20.00    -0.024 C 
HETATM   10  C1  UNL     1     -34.890  17.213   0.149  1.00 20.00     0.022 C 
HETATM   11  C8  UNL     1     -32.780  18.484  -0.180  1.00 20.00     0.051 C 
ENDBRANCH   7   9
ENDBRANCH   4   7
TORSDOF 2
ENDMDL
MODEL 2
REMARK VINA RESULT:      -3.9      2.878      4.357
REMARK  2 active torsions:
REMARK  status: ('A' for Active; 'I' for Inactive)
REMARK    1  A    between atoms: C2_2  and  C3_3 
REMARK    2  A    between atoms: C3_3  and  C7_7 
ROOT
HETATM    1  C4  UNL     1     -38.082  15.331  -7.279  1.00 20.00     0.084 C 
HETATM    2  C5  UNL     1     -36.636  15.559  -7.691  1.00 20.00     0.085 C 
HETATM    3  C6  UNL     1     -37.256  14.697  -4.714  1.00 20.00     0.097 C 
HETATM    4  C7  UNL     1     -35.807  14.932  -5.125  1.00 20.00     0.131 C 
HETATM    5  S10 UNL     1     -38.412  15.818  -5.559  1.00 20.00    -0.167 SA
HETATM    6  S11 UNL     1     -35.476  14.443  -6.847  1.00 20.00    -0.155 SA
ENDROOT
BRANCH   4   7
HETATM    7  C3  UNL     1     -34.904  14.098  -4.269  1.00 20.00     0.169 C 
HETATM    8  O9  UNL     1     -35.002  12.870  -4.276  1.00 20.00    -0.291 OA
BRANCH   7   9
HETATM    9  C2  UNL     1     -33.878  14.764  -3.402  1.00 20.00    -0.024 C 
HETATM   10  C1  UNL     1     -32.571  14.495  -3.532  1.00 20.00     0.022 C 
HETATM   11  C8  UNL     1     -34.390  15.744  -2.387  1.00 20.00     0.051 C 
ENDBRANCH   7   9
ENDBRANCH   4   7
TORSDOF 2
ENDMDL
MODEL 3
REMARK VINA RESULT:      -3.8      2.210      4.594
REMARK  2 active torsions:
REMARK  status: ('A' for Active; 'I' for Inactive)
REMARK    1  A    between atoms: C2_2  and  C3_3 
REMARK    2  A    between atoms: C3_3  and  C7_7 
ROOT
HETATM    1  C4  UNL     1     -34.064  19.263  -1.523  1.00 20.00     0.084 C 
HETATM    2  C5  UNL     1     -33.611  18.978  -2.947  1.00 20.00     0.085 C 
HETATM    3  C6  UNL     1     -34.744  16.599  -1.202  1.00 20.00     0.097 C 
HETATM    4  C7  UNL     1     -34.285  16.311  -2.626  1.00 20.00     0.131 C 
HETATM    5  S10 UNL     1     -33.740  17.879  -0.389  1.00 20.00    -0.167 SA
HETATM    6  S11 UNL     1     -34.609  17.696  -3.762  1.00 20.00    -0.155 SA
ENDROOT
BRANCH   4   7
HETATM    7  C3  UNL     1     -35.041  15.137  -3.167  1.00 20.00     0.169 C 
HETATM    8  O9  UNL     1     -36.267  15.084  -3.059  1.00 20.00    -0.291 OA
BRANCH   7   9
HETATM    9  C2  UNL     1     -34.298  14.022  -3.843  1.00 20.00    -0.024 C 
HETATM   10  C1  UNL     1     -34.911  13.191  -4.696  1.00 20.00     0.022 C 
HETATM   11  C8  UNL     1     -32.841  13.891  -3.513  1.00 20.00     0.051 C 
ENDBRANCH   7   9
ENDBRANCH   4   7
TORSDOF 2
ENDMDL
MODEL 4
REMARK VINA RESULT:      -3.8      2.890      4.288
REMARK  2 active torsions:
REMARK  status: ('A' for Active; 'I' for Inactive)
REMARK    1  A    between atoms: C2_2  and  C3_3 
REMARK    2  A    between atoms: C3_3  and  C7_7 
ROOT
HETATM    1  C4  UNL     1     -38.211  15.210  -7.245  1.00 20.00     0.084 C 
HETATM    2  C5  UNL     1     -36.773  15.521  -7.633  1.00 20.00     0.085 C 
HETATM    3  C6  UNL     1     -37.390  14.616  -4.668  1.00 20.00     0.097 C 
HETATM    4  C7  UNL     1     -35.950  14.933  -5.055  1.00 20.00     0.131 C 
HETATM    5  S10 UNL     1     -38.593  15.673  -5.529  1.00 20.00    -0.167 SA
HETATM    6  S11 UNL     1     -35.566  14.469  -6.773  1.00 20.00    -0.155 SA
ENDROOT
BRANCH   4   7
HETATM    7  C3  UNL     1     -35.016  14.148  -4.187  1.00 20.00     0.169 C 
HETATM    8  O9  UNL     1     -35.053  12.917  -4.188  1.00 20.00    -0.291 OA
BRANCH   7   9
HETATM    9  C2  UNL     1     -34.031  14.869  -3.315  1.00 20.00    -0.024 C 
HETATM   10  C1  UNL     1     -34.433  15.734  -2.374  1.00 20.00     0.022 C 
HETATM   11  C8  UNL     1     -32.579  14.569  -3.552  1.00 20.00     0.051 C 
ENDBRANCH   7   9
ENDBRANCH   4   7
TORSDOF 2
ENDMDL
MODEL 5
REMARK VINA RESULT:      -3.7      2.017      4.814
REMARK  2 active torsions:
REMARK  status: ('A' for Active; 'I' for Inactive)
REMARK    1  A    between atoms: C2_2  and  C3_3 
REMARK    2  A    between atoms: C3_3  and  C7_7 
ROOT
HETATM    1  C4  UNL     1     -35.861  18.163  -1.327  1.00 20.00     0.084 C 
HETATM    2  C5  UNL     1     -34.935  17.026  -0.921  1.00 20.00     0.085 C 
HETATM    3  C6  UNL     1     -35.751  17.317  -3.961  1.00 20.00     0.097 C 
HETATM    4  C7  UNL     1     -34.828  16.174  -3.554  1.00 20.00     0.131 C 
HETATM    5  S10 UNL     1     -36.984  17.708  -2.683  1.00 20.00    -0.167 SA
HETATM    6  S11 UNL     1     -33.703  16.629  -2.197  1.00 20.00    -0.155 SA
ENDROOT
BRANCH   4   7
HETATM    7  C3  UNL     1     -33.959  15.797  -4.713  1.00 20.00     0.169 C 
HETATM    8  O9  UNL     1     -32.883  16.369  -4.896  1.00 20.00    -0.291 OA
BRANCH   7   9
HETATM    9  C2  UNL     1     -34.403  14.717  -5.654  1.00 20.00    -0.024 C 
HETATM   10  C1  UNL     1     -34.504  14.936  -6.973  1.00 20.00     0.022 C 
HETATM   11  C8  UNL     1     -34.725  13.385  -5.043  1.00 20.00     0.051 C 
ENDBRANCH   7   9
ENDBRANCH   4   7
TORSDOF 2
ENDMDL
MODEL 6
REMARK VINA RESULT:      -3.6      2.904      4.013
REMARK  2 active torsions:
REMARK  status: ('A' for Active; 'I' for Inactive)
REMARK    1  A    between atoms: C2_2  and  C3_3 
REMARK    2  A    between atoms: C3_3  and  C7_7 
ROOT
HETATM    1  C4  UNL     1     -38.245  16.840  -5.872  1.00 20.00     0.084 C 
HETATM    2  C5  UNL     1     -38.749  15.512  -5.326  1.00 20.00     0.085 C 
HETATM    3  C6  UNL     1     -35.633  15.964  -5.599  1.00 20.00     0.097 C 
HETATM    4  C7  UNL     1     -36.137  14.632  -5.057  1.00 20.00     0.131 C 
HETATM    5  S10 UNL     1     -36.732  16.665  -6.867  1.00 20.00    -0.167 SA
HETATM    6  S11 UNL     1     -37.651  14.807  -4.062  1.00 20.00    -0.155 SA
ENDROOT
BRANCH   4   7
HETATM    7  C3  UNL     1     -35.103  14.037  -4.152  1.00 20.00     0.169 C 
HETATM    8  O9  UNL     1     -34.960  12.816  -4.090  1.00 20.00    -0.291 OA
BRANCH   7   9
HETATM    9  C2  UNL     1     -34.238  14.937  -3.320  1.00 20.00    -0.024 C 
HETATM   10  C1  UNL     1     -34.746  15.651  -2.305  1.00 20.00     0.022 C 
HETATM   11  C8  UNL     1     -32.784  14.994  -3.682  1.00 20.00     0.051 C 
ENDBRANCH   7   9
ENDBRANCH   4   7
TORSDOF 2
ENDMDL
MODEL 7
REMARK VINA RESULT:      -3.6      2.066      2.280
REMARK  2 active torsions:
REMARK  status: ('A' for Active; 'I' for Inactive)
REMARK    1  A    between atoms: C2_2  and  C3_3 
REMARK    2  A    between atoms: C3_3  and  C7_7 
ROOT
HETATM    1  C4  UNL     1     -35.115  14.436  -6.667  1.00 20.00     0.084 C 
HETATM    2  C5  UNL     1     -34.890  13.680  -5.365  1.00 20.00     0.085 C 
HETATM    3  C6  UNL     1     -35.144  16.829  -5.276  1.00 20.00     0.097 C 
HETATM    4  C7  UNL     1     -34.912  16.073  -3.973  1.00 20.00     0.131 C 
HETATM    5  S10 UNL     1     -34.298  16.060  -6.690  1.00 20.00    -0.167 SA
HETATM    6  S11 UNL     1     -35.730  14.448  -3.949  1.00 20.00    -0.155 SA
ENDROOT
BRANCH   4   7
HETATM    7  C3  UNL     1     -35.491  16.854  -2.833  1.00 20.00     0.169 C 
HETATM    8  O9  UNL     1     -36.693  17.121  -2.810  1.00 20.00    -0.291 OA
BRANCH   7   9
HETATM    9  C2  UNL     1     -34.599  17.310  -1.716  1.00 20.00    -0.024 C 
HETATM   10  C1  UNL     1     -34.684  16.773  -0.491  1.00 20.00     0.022 C 
HETATM   11  C8  UNL     1     -33.613  18.392  -2.044  1.00 20.00     0.051 C 
ENDBRANCH   7   9
ENDBRANCH   4   7
TORSDOF 2
ENDMDL
MODEL 8
REMARK VINA RESULT:      -3.6      2.242      4.293
REMARK  2 active torsions:
REMARK  status: ('A' for Active; 'I' for Inactive)
REMARK    1  A    between atoms: C2_2  and  C3_3 
REMARK    2  A    between atoms: C3_3  and  C7_7 
ROOT
HETATM    1  C4  UNL     1     -36.067  18.309  -0.895  1.00 20.00     0.084 C 
HETATM    2  C5  UNL     1     -35.605  19.126  -2.092  1.00 20.00     0.085 C 
HETATM    3  C6  UNL     1     -34.454  16.209  -1.703  1.00 20.00     0.097 C 
HETATM    4  C7  UNL     1     -33.986  17.030  -2.899  1.00 20.00     0.131 C 
HETATM    5  S10 UNL     1     -34.761  17.231  -0.231  1.00 20.00    -0.167 SA
HETATM    6  S11 UNL     1     -35.293  18.108  -3.564  1.00 20.00    -0.155 SA
ENDROOT
BRANCH   4   7
HETATM    7  C3  UNL     1     -33.591  16.109  -4.012  1.00 20.00     0.169 C 
HETATM    8  O9  UNL     1     -32.869  16.513  -4.925  1.00 20.00    -0.291 OA
BRANCH   7   9
HETATM    9  C2  UNL     1     -34.079  14.691  -4.012  1.00 20.00    -0.024 C 
HETATM   10  C1  UNL     1     -33.264  13.671  -3.709  1.00 20.00     0.022 C 
HETATM   11  C8  UNL     1     -35.521  14.477  -4.368  1.00 20.00     0.051 C 
ENDBRANCH   7   9
ENDBRANCH   4   7
TORSDOF 2
ENDMDL
MODEL 9
REMARK VINA RESULT:      -3.5      3.173      4.782
REMARK  2 active torsions:
REMARK  status: ('A' for Active; 'I' for Inactive)
REMARK    1  A    between atoms: C2_2  and  C3_3 
REMARK    2  A    between atoms: C3_3  and  C7_7 
ROOT
HETATM    1  C4  UNL     1     -32.909  15.099  -3.765  1.00 20.00     0.084 C 
HETATM    2  C5  UNL     1     -33.539  13.715  -3.708  1.00 20.00     0.085 C 
HETATM    3  C6  UNL     1     -35.423  16.252  -3.634  1.00 20.00     0.097 C 
HETATM    4  C7  UNL     1     -36.054  14.866  -3.571  1.00 20.00     0.131 C 
HETATM    5  S10 UNL     1     -33.819  16.329  -2.781  1.00 20.00    -0.167 SA
HETATM    6  S11 UNL     1     -35.144  13.635  -4.556  1.00 20.00    -0.155 SA
ENDROOT
BRANCH   4   7
HETATM    7  C3  UNL     1     -37.438  14.921  -4.140  1.00 20.00     0.169 C 
HETATM    8  O9  UNL     1     -38.307  14.147  -3.736  1.00 20.00    -0.291 OA
BRANCH   7   9
HETATM    9  C2  UNL     1     -37.764  15.926  -5.205  1.00 20.00    -0.024 C 
HETATM   10  C1  UNL     1     -38.398  17.071  -4.916  1.00 20.00     0.022 C 
HETATM   11  C8  UNL     1     -37.344  15.581  -6.604  1.00 20.00     0.051 C 
ENDBRANCH   7   9
ENDBRANCH   4   7
TORSDOF 2
ENDMDL
