MODEL 1
REMARK VINA RESULT:      -4.1      0.000      0.000
REMARK  2 active torsions:
REMARK  status: ('A' for Active; 'I' for Inactive)
REMARK    1  A    between atoms: C5_5  and  N9_9 
REMARK    2  A    between atoms: C8_8  and  N9_9 
ROOT
HETATM    1  C1  UNL     1     -34.533  17.618   0.310  1.00 20.00     0.013 C 
HETATM    2  C2  UNL     1     -34.621  16.931  -0.670  1.00 20.00    -0.087 C 
HETATM    3  C8  UNL     1     -34.732  16.092  -1.865  1.00 20.00     0.362 C 
ENDROOT
BRANCH   3   4
HETATM    4  N9  UNL     1     -33.625  16.345  -2.777  1.00 20.00     0.099 N 
HETATM    5  H23 UNL     1     -33.719  17.283  -3.167  1.00 20.00     0.317 HD
BRANCH   4   6
HETATM    6  C5  UNL     1     -33.612  15.386  -3.849  1.00 20.00     0.232 C 
HETATM    7  C3  UNL     1     -34.399  15.876  -5.061  1.00 20.00     0.051 C 
HETATM    8  C6  UNL     1     -34.444  14.709  -6.044  1.00 20.00     0.045 C 
HETATM    9  C7  UNL     1     -35.562  14.841  -7.063  1.00 20.00     0.021 C 
HETATM   10  S10 UNL     1     -34.666  13.236  -4.993  1.00 20.00    -0.162 SA
HETATM   11  C4  UNL     1     -34.251  14.067  -3.435  1.00 20.00     0.109 C 
ENDBRANCH   4   6
ENDBRANCH   3   4
TORSDOF 2
ENDMDL
MODEL 2
REMARK VINA RESULT:      -4.1      2.214      5.041
REMARK  2 active torsions:
REMARK  status: ('A' for Active; 'I' for Inactive)
REMARK    1  A    between atoms: C5_5  and  N9_9 
REMARK    2  A    between atoms: C8_8  and  N9_9 
ROOT
HETATM    1  C1  UNL     1     -35.617  14.411  -7.666  1.00 20.00     0.013 C 
HETATM    2  C2  UNL     1     -35.082  14.511  -6.596  1.00 20.00    -0.087 C 
HETATM    3  C8  UNL     1     -34.432  14.631  -5.289  1.00 20.00     0.362 C 
ENDROOT
BRANCH   3   4
HETATM    4  N9  UNL     1     -33.273  15.510  -5.369  1.00 20.00     0.099 N 
HETATM    5  H23 UNL     1     -32.422  14.953  -5.292  1.00 20.00     0.317 HD
BRANCH   4   6
HETATM    6  C5  UNL     1     -33.295  16.487  -4.313  1.00 20.00     0.232 C 
HETATM    7  C3  UNL     1     -33.671  15.865  -2.970  1.00 20.00     0.051 C 
HETATM    8  C6  UNL     1     -33.819  17.025  -1.988  1.00 20.00     0.045 C 
HETATM    9  C7  UNL     1     -34.637  16.656  -0.763  1.00 20.00     0.021 C 
HETATM   10  S10 UNL     1     -34.620  18.345  -2.957  1.00 20.00    -0.162 SA
HETATM   11  C4  UNL     1     -34.322  17.580  -4.575  1.00 20.00     0.109 C 
ENDBRANCH   4   6
ENDBRANCH   3   4
TORSDOF 2
ENDMDL
MODEL 3
REMARK VINA RESULT:      -4.0      1.486      1.590
REMARK  2 active torsions:
REMARK  status: ('A' for Active; 'I' for Inactive)
REMARK    1  A    between atoms: C5_5  and  N9_9 
REMARK    2  A    between atoms: C8_8  and  N9_9 
ROOT
HETATM    1  C1  UNL     1     -34.772  16.929  -0.371  1.00 20.00     0.013 C 
HETATM    2  C2  UNL     1     -34.284  16.585  -1.413  1.00 20.00    -0.087 C 
HETATM    3  C8  UNL     1     -33.687  16.169  -2.684  1.00 20.00     0.362 C 
ENDROOT
BRANCH   3   4
HETATM    4  N9  UNL     1     -34.281  14.923  -3.148  1.00 20.00     0.099 N 
HETATM    5  H23 UNL     1     -33.814  14.138  -2.693  1.00 20.00     0.317 HD
BRANCH   4   6
HETATM    6  C5  UNL     1     -34.150  14.790  -4.574  1.00 20.00     0.232 C 
HETATM    7  C3  UNL     1     -34.133  16.146  -5.273  1.00 20.00     0.051 C 
HETATM    8  C6  UNL     1     -34.160  15.857  -6.771  1.00 20.00     0.045 C 
HETATM    9  C7  UNL     1     -34.623  17.047  -7.592  1.00 20.00     0.021 C 
HETATM   10  S10 UNL     1     -35.296  14.442  -6.943  1.00 20.00    -0.162 SA
HETATM   11  C4  UNL     1     -35.315  14.018  -5.179  1.00 20.00     0.109 C 
ENDBRANCH   4   6
ENDBRANCH   3   4
TORSDOF 2
ENDMDL
MODEL 4
REMARK VINA RESULT:      -3.9      2.675      5.006
REMARK  2 active torsions:
REMARK  status: ('A' for Active; 'I' for Inactive)
REMARK    1  A    between atoms: C5_5  and  N9_9 
REMARK    2  A    between atoms: C8_8  and  N9_9 
ROOT
HETATM    1  C1  UNL     1     -34.456  13.182  -4.508  1.00 20.00     0.013 C 
HETATM    2  C2  UNL     1     -35.374  13.916  -4.269  1.00 20.00    -0.087 C 
HETATM    3  C8  UNL     1     -36.497  14.812  -3.982  1.00 20.00     0.362 C 
ENDROOT
BRANCH   3   4
HETATM    4  N9  UNL     1     -36.347  15.420  -2.667  1.00 20.00     0.099 N 
HETATM    5  H23 UNL     1     -37.157  16.009  -2.475  1.00 20.00     0.317 HD
BRANCH   4   6
HETATM    6  C5  UNL     1     -35.154  16.220  -2.603  1.00 20.00     0.232 C 
HETATM    7  C3  UNL     1     -34.754  16.533  -1.164  1.00 20.00     0.051 C 
HETATM    8  C6  UNL     1     -33.588  17.515  -1.247  1.00 20.00     0.045 C 
HETATM    9  C7  UNL     1     -33.380  18.291   0.042  1.00 20.00     0.021 C 
HETATM   10  S10 UNL     1     -34.017  18.619  -2.632  1.00 20.00    -0.162 SA
HETATM   11  C4  UNL     1     -35.338  17.565  -3.292  1.00 20.00     0.109 C 
ENDBRANCH   4   6
ENDBRANCH   3   4
TORSDOF 2
ENDMDL
MODEL 5
REMARK VINA RESULT:      -3.9      1.808      2.288
REMARK  2 active torsions:
REMARK  status: ('A' for Active; 'I' for Inactive)
REMARK    1  A    between atoms: C5_5  and  N9_9 
REMARK    2  A    between atoms: C8_8  and  N9_9 
ROOT
HETATM    1  C1  UNL     1     -35.350  17.721   1.757  1.00 20.00     0.013 C 
HETATM    2  C2  UNL     1     -35.021  17.337   0.668  1.00 20.00    -0.087 C 
HETATM    3  C8  UNL     1     -34.616  16.868  -0.659  1.00 20.00     0.362 C 
ENDROOT
BRANCH   3   4
HETATM    4  N9  UNL     1     -35.749  16.875  -1.575  1.00 20.00     0.099 N 
HETATM    5  H23 UNL     1     -36.436  16.188  -1.265  1.00 20.00     0.317 HD
BRANCH   4   6
HETATM    6  C5  UNL     1     -35.330  16.554  -2.913  1.00 20.00     0.232 C 
HETATM    7  C3  UNL     1     -35.418  15.057  -3.194  1.00 20.00     0.051 C 
HETATM    8  C6  UNL     1     -34.794  14.841  -4.570  1.00 20.00     0.045 C 
HETATM    9  C7  UNL     1     -34.365  13.403  -4.802  1.00 20.00     0.021 C 
HETATM   10  S10 UNL     1     -33.370  15.979  -4.609  1.00 20.00    -0.162 SA
HETATM   11  C4  UNL     1     -33.879  16.945  -3.160  1.00 20.00     0.109 C 
ENDBRANCH   4   6
ENDBRANCH   3   4
TORSDOF 2
ENDMDL
MODEL 6
REMARK VINA RESULT:      -3.9     10.703     12.113
REMARK  2 active torsions:
REMARK  status: ('A' for Active; 'I' for Inactive)
REMARK    1  A    between atoms: C5_5  and  N9_9 
REMARK    2  A    between atoms: C8_8  and  N9_9 
ROOT
HETATM    1  C1  UNL     1     -32.454   9.174   0.539  1.00 20.00     0.013 C 
HETATM    2  C2  UNL     1     -32.101   8.687   1.578  1.00 20.00    -0.087 C 
HETATM    3  C8  UNL     1     -31.668   8.096   2.846  1.00 20.00     0.362 C 
ENDROOT
BRANCH   3   4
HETATM    4  N9  UNL     1     -32.051   6.692   2.917  1.00 20.00     0.099 N 
HETATM    5  H23 UNL     1     -32.067   6.300   1.976  1.00 20.00     0.317 HD
BRANCH   4   6
HETATM    6  C5  UNL     1     -33.351   6.543   3.514  1.00 20.00     0.232 C 
HETATM    7  C3  UNL     1     -33.262   6.103   4.972  1.00 20.00     0.051 C 
HETATM    8  C6  UNL     1     -34.693   5.824   5.425  1.00 20.00     0.045 C 
HETATM    9  C7  UNL     1     -34.758   4.939   6.657  1.00 20.00     0.021 C 
HETATM   10  S10 UNL     1     -35.480   5.029   3.986  1.00 20.00    -0.162 SA
HETATM   11  C4  UNL     1     -34.181   5.483   2.803  1.00 20.00     0.109 C 
ENDBRANCH   4   6
ENDBRANCH   3   4
TORSDOF 2
ENDMDL
MODEL 7
REMARK VINA RESULT:      -3.9      2.049      2.268
REMARK  2 active torsions:
REMARK  status: ('A' for Active; 'I' for Inactive)
REMARK    1  A    between atoms: C5_5  and  N9_9 
REMARK    2  A    between atoms: C8_8  and  N9_9 
ROOT
HETATM    1  C1  UNL     1     -34.645  17.112  -0.237  1.00 20.00     0.013 C 
HETATM    2  C2  UNL     1     -34.765  16.534  -1.282  1.00 20.00    -0.087 C 
HETATM    3  C8  UNL     1     -34.909  15.829  -2.558  1.00 20.00     0.362 C 
ENDROOT
BRANCH   3   4
HETATM    4  N9  UNL     1     -36.278  15.367  -2.740  1.00 20.00     0.099 N 
HETATM    5  H23 UNL     1     -36.466  14.607  -2.087  1.00 20.00     0.317 HD
BRANCH   4   6
HETATM    6  C5  UNL     1     -36.488  14.898  -4.084  1.00 20.00     0.232 C 
HETATM    7  C3  UNL     1     -35.204  14.938  -4.908  1.00 20.00     0.051 C 
HETATM    8  C6  UNL     1     -35.602  14.580  -6.338  1.00 20.00     0.045 C 
HETATM    9  C7  UNL     1     -34.575  15.028  -7.363  1.00 20.00     0.021 C 
HETATM   10  S10 UNL     1     -37.205  15.411  -6.588  1.00 20.00    -0.162 SA
HETATM   11  C4  UNL     1     -37.496  15.761  -4.831  1.00 20.00     0.109 C 
ENDBRANCH   4   6
ENDBRANCH   3   4
TORSDOF 2
ENDMDL
MODEL 8
REMARK VINA RESULT:      -3.8      2.412      4.782
REMARK  2 active torsions:
REMARK  status: ('A' for Active; 'I' for Inactive)
REMARK    1  A    between atoms: C5_5  and  N9_9 
REMARK    2  A    between atoms: C8_8  and  N9_9 
ROOT
HETATM    1  C1  UNL     1     -34.774  13.216  -4.612  1.00 20.00     0.013 C 
HETATM    2  C2  UNL     1     -33.998  14.027  -4.188  1.00 20.00    -0.087 C 
HETATM    3  C8  UNL     1     -33.049  15.014  -3.668  1.00 20.00     0.362 C 
ENDROOT
BRANCH   3   4
HETATM    4  N9  UNL     1     -33.238  16.303  -4.319  1.00 20.00     0.099 N 
HETATM    5  H23 UNL     1     -32.334  16.658  -4.630  1.00 20.00     0.317 HD
BRANCH   4   6
HETATM    6  C5  UNL     1     -33.834  17.252  -3.418  1.00 20.00     0.232 C 
HETATM    7  C3  UNL     1     -33.726  16.802  -1.963  1.00 20.00     0.051 C 
HETATM    8  C6  UNL     1     -34.535  17.804  -1.143  1.00 20.00     0.045 C 
HETATM    9  C7  UNL     1     -34.933  17.263   0.218  1.00 20.00     0.021 C 
HETATM   10  S10 UNL     1     -35.994  18.165  -2.174  1.00 20.00    -0.162 SA
HETATM   11  C4  UNL     1     -35.320  17.437  -3.693  1.00 20.00     0.109 C 
ENDBRANCH   4   6
ENDBRANCH   3   4
TORSDOF 2
ENDMDL
MODEL 9
REMARK VINA RESULT:      -3.8      1.619      2.338
REMARK  2 active torsions:
REMARK  status: ('A' for Active; 'I' for Inactive)
REMARK    1  A    between atoms: C5_5  and  N9_9 
REMARK    2  A    between atoms: C8_8  and  N9_9 
ROOT
HETATM    1  C1  UNL     1     -32.165  18.905   0.568  1.00 20.00     0.013 C 
HETATM    2  C2  UNL     1     -33.060  18.289   0.058  1.00 20.00    -0.087 C 
HETATM    3  C8  UNL     1     -34.155  17.538  -0.562  1.00 20.00     0.362 C 
ENDROOT
BRANCH   3   4
HETATM    4  N9  UNL     1     -33.747  17.007  -1.855  1.00 20.00     0.099 N 
HETATM    5  H23 UNL     1     -33.815  17.744  -2.558  1.00 20.00     0.317 HD
BRANCH   4   6
HETATM    6  C5  UNL     1     -34.582  15.903  -2.245  1.00 20.00     0.232 C 
HETATM    7  C3  UNL     1     -33.909  15.021  -3.293  1.00 20.00     0.051 C 
HETATM    8  C6  UNL     1     -34.957  14.003  -3.733  1.00 20.00     0.045 C 
HETATM    9  C7  UNL     1     -34.636  13.371  -5.076  1.00 20.00     0.021 C 
HETATM   10  S10 UNL     1     -36.516  14.947  -3.792  1.00 20.00    -0.162 SA
HETATM   11  C4  UNL     1     -35.889  16.376  -2.867  1.00 20.00     0.109 C 
ENDBRANCH   4   6
ENDBRANCH   3   4
TORSDOF 2
ENDMDL
