MODEL 1
REMARK VINA RESULT:      -4.7      0.000      0.000
REMARK  1 active torsions:
REMARK  status: ('A' for Active; 'I' for Inactive)
REMARK    1  A    between atoms: C2_2  and  C3_3 
ROOT
HETATM    1  C1  UNL     1     -35.055  15.533  -3.621  1.00 20.00    -0.063 C 
HETATM    2  C2  UNL     1     -34.959  14.235  -3.292  1.00 20.00     0.088 C 
HETATM    3  C4  UNL     1     -35.902  16.493  -2.829  1.00 20.00     0.044 C 
HETATM    4  C5  UNL     1     -34.306  16.102  -4.796  1.00 20.00     0.108 C 
HETATM    5  C6  UNL     1     -33.700  17.856  -2.730  1.00 20.00     0.083 C 
HETATM    6  C7  UNL     1     -35.038  17.506  -2.027  1.00 20.00    -0.036 C 
HETATM    7  C8  UNL     1     -34.707  16.917  -0.640  1.00 20.00     0.016 C 
HETATM    8  C9  UNL     1     -35.868  18.787  -1.810  1.00 20.00     0.016 C 
HETATM    9  S12 UNL     1     -33.801  17.836  -4.549  1.00 20.00    -0.164 SA
ENDROOT
BRANCH   2  10
HETATM   10  C3  UNL     1     -34.096  13.261  -4.101  1.00 20.00     0.198 C 
HETATM   11  O10 UNL     1     -34.731  12.646  -5.007  1.00 20.00    -0.644 OA
HETATM   12  O11 UNL     1     -32.876  13.175  -3.787  1.00 20.00    -0.644 OA
ENDBRANCH   2  10
TORSDOF 1
ENDMDL
MODEL 2
REMARK VINA RESULT:      -4.6      2.040      2.704
REMARK  1 active torsions:
REMARK  status: ('A' for Active; 'I' for Inactive)
REMARK    1  A    between atoms: C2_2  and  C3_3 
ROOT
HETATM    1  C1  UNL     1     -34.599  16.389  -2.304  1.00 20.00    -0.063 C 
HETATM    2  C2  UNL     1     -33.547  15.870  -2.955  1.00 20.00     0.088 C 
HETATM    3  C4  UNL     1     -34.631  16.497  -0.802  1.00 20.00     0.044 C 
HETATM    4  C5  UNL     1     -35.803  16.907  -3.044  1.00 20.00     0.108 C 
HETATM    5  C6  UNL     1     -35.167  18.981  -1.310  1.00 20.00     0.083 C 
HETATM    6  C7  UNL     1     -34.525  17.972  -0.323  1.00 20.00    -0.036 C 
HETATM    7  C8  UNL     1     -33.039  18.354  -0.151  1.00 20.00     0.016 C 
HETATM    8  C9  UNL     1     -35.203  18.084   1.058  1.00 20.00     0.016 C 
HETATM    9  S12 UNL     1     -36.605  18.314  -2.207  1.00 20.00    -0.164 SA
ENDROOT
BRANCH   2  10
HETATM   10  C3  UNL     1     -33.519  15.762  -4.483  1.00 20.00     0.198 C 
HETATM   11  O10 UNL     1     -32.952  16.739  -5.054  1.00 20.00    -0.644 OA
HETATM   12  O11 UNL     1     -34.050  14.738  -4.998  1.00 20.00    -0.644 OA
ENDBRANCH   2  10
TORSDOF 1
ENDMDL
MODEL 3
REMARK VINA RESULT:      -4.5      1.651      2.056
REMARK  1 active torsions:
REMARK  status: ('A' for Active; 'I' for Inactive)
REMARK    1  A    between atoms: C2_2  and  C3_3 
ROOT
HETATM    1  C1  UNL     1     -35.174  15.318  -2.947  1.00 20.00    -0.063 C 
HETATM    2  C2  UNL     1     -34.206  14.620  -3.560  1.00 20.00     0.088 C 
HETATM    3  C4  UNL     1     -34.899  16.157  -1.726  1.00 20.00     0.044 C 
HETATM    4  C5  UNL     1     -36.589  15.312  -3.457  1.00 20.00     0.108 C 
HETATM    5  C6  UNL     1     -36.028  18.013  -3.139  1.00 20.00     0.083 C 
HETATM    6  C7  UNL     1     -34.994  17.677  -2.032  1.00 20.00    -0.036 C 
HETATM    7  C8  UNL     1     -33.616  18.198  -2.494  1.00 20.00     0.016 C 
HETATM    8  C9  UNL     1     -35.363  18.413  -0.728  1.00 20.00     0.016 C 
HETATM    9  S12 UNL     1     -37.460  16.888  -3.168  1.00 20.00    -0.164 SA
ENDROOT
BRANCH   2  10
HETATM   10  C3  UNL     1     -34.490  13.768  -4.801  1.00 20.00     0.198 C 
HETATM   11  O10 UNL     1     -34.335  14.389  -5.894  1.00 20.00    -0.644 OA
HETATM   12  O11 UNL     1     -34.840  12.570  -4.610  1.00 20.00    -0.644 OA
ENDBRANCH   2  10
TORSDOF 1
ENDMDL
MODEL 4
REMARK VINA RESULT:      -4.5      2.992      4.455
REMARK  1 active torsions:
REMARK  status: ('A' for Active; 'I' for Inactive)
REMARK    1  A    between atoms: C2_2  and  C3_3 
ROOT
HETATM    1  C1  UNL     1     -34.262  16.166  -2.527  1.00 20.00    -0.063 C 
HETATM    2  C2  UNL     1     -34.780  16.350  -1.302  1.00 20.00     0.088 C 
HETATM    3  C4  UNL     1     -34.307  14.828  -3.217  1.00 20.00     0.044 C 
HETATM    4  C5  UNL     1     -33.617  17.295  -3.283  1.00 20.00     0.108 C 
HETATM    5  C6  UNL     1     -35.387  16.209  -5.127  1.00 20.00     0.083 C 
HETATM    6  C7  UNL     1     -35.288  14.829  -4.423  1.00 20.00    -0.036 C 
HETATM    7  C8  UNL     1     -36.702  14.440  -3.939  1.00 20.00     0.016 C 
HETATM    8  C9  UNL     1     -34.823  13.758  -5.430  1.00 20.00     0.016 C 
HETATM    9  S12 UNL     1     -33.836  17.163  -5.089  1.00 20.00    -0.164 SA
ENDROOT
BRANCH   2  10
HETATM   10  C3  UNL     1     -34.731  17.712  -0.603  1.00 20.00     0.198 C 
HETATM   11  O10 UNL     1     -33.685  17.895   0.086  1.00 20.00    -0.644 OA
HETATM   12  O11 UNL     1     -35.711  18.487  -0.782  1.00 20.00    -0.644 OA
ENDBRANCH   2  10
TORSDOF 1
ENDMDL
MODEL 5
REMARK VINA RESULT:      -4.4      2.709      4.413
REMARK  1 active torsions:
REMARK  status: ('A' for Active; 'I' for Inactive)
REMARK    1  A    between atoms: C2_2  and  C3_3 
ROOT
HETATM    1  C1  UNL     1     -34.282  16.423  -3.887  1.00 20.00    -0.063 C 
HETATM    2  C2  UNL     1     -33.597  16.213  -2.752  1.00 20.00     0.088 C 
HETATM    3  C4  UNL     1     -33.955  15.689  -5.161  1.00 20.00     0.044 C 
HETATM    4  C5  UNL     1     -35.427  17.398  -3.944  1.00 20.00     0.108 C 
HETATM    5  C6  UNL     1     -36.478  15.097  -5.091  1.00 20.00     0.083 C 
HETATM    6  C7  UNL     1     -35.057  14.660  -5.538  1.00 20.00    -0.036 C 
HETATM    7  C8  UNL     1     -34.746  13.302  -4.873  1.00 20.00     0.016 C 
HETATM    8  C9  UNL     1     -35.029  14.455  -7.066  1.00 20.00     0.016 C 
HETATM    9  S12 UNL     1     -36.731  16.901  -5.117  1.00 20.00    -0.164 SA
ENDROOT
BRANCH   2  10
HETATM   10  C3  UNL     1     -33.932  16.962  -1.459  1.00 20.00     0.198 C 
HETATM   11  O10 UNL     1     -34.761  16.357  -0.718  1.00 20.00    -0.644 OA
HETATM   12  O11 UNL     1     -33.364  18.074  -1.273  1.00 20.00    -0.644 OA
ENDBRANCH   2  10
TORSDOF 1
ENDMDL
MODEL 6
REMARK VINA RESULT:      -4.2      1.138      1.544
REMARK  1 active torsions:
REMARK  status: ('A' for Active; 'I' for Inactive)
REMARK    1  A    between atoms: C2_2  and  C3_3 
ROOT
HETATM    1  C1  UNL     1     -35.193  15.583  -4.414  1.00 20.00    -0.063 C 
HETATM    2  C2  UNL     1     -35.080  14.464  -3.682  1.00 20.00     0.088 C 
HETATM    3  C4  UNL     1     -36.006  16.762  -3.947  1.00 20.00     0.044 C 
HETATM    4  C5  UNL     1     -34.496  15.726  -5.740  1.00 20.00     0.108 C 
HETATM    5  C6  UNL     1     -33.804  18.053  -4.392  1.00 20.00     0.083 C 
HETATM    6  C7  UNL     1     -35.110  17.970  -3.558  1.00 20.00    -0.036 C 
HETATM    7  C8  UNL     1     -34.718  17.864  -2.069  1.00 20.00     0.016 C 
HETATM    8  C9  UNL     1     -35.931  19.263  -3.739  1.00 20.00     0.016 C 
HETATM    9  S12 UNL     1     -33.983  17.439  -6.097  1.00 20.00    -0.164 SA
ENDROOT
BRANCH   2  10
HETATM   10  C3  UNL     1     -34.252  13.268  -4.160  1.00 20.00     0.198 C 
HETATM   11  O10 UNL     1     -33.083  13.229  -3.675  1.00 20.00    -0.644 OA
HETATM   12  O11 UNL     1     -34.805  12.469  -4.967  1.00 20.00    -0.644 OA
ENDBRANCH   2  10
TORSDOF 1
ENDMDL
MODEL 7
REMARK VINA RESULT:      -4.2      2.011      3.168
REMARK  1 active torsions:
REMARK  status: ('A' for Active; 'I' for Inactive)
REMARK    1  A    between atoms: C2_2  and  C3_3 
ROOT
HETATM    1  C1  UNL     1     -34.102  15.610  -5.395  1.00 20.00    -0.063 C 
HETATM    2  C2  UNL     1     -34.453  14.337  -5.635  1.00 20.00     0.088 C 
HETATM    3  C4  UNL     1     -34.214  16.680  -6.450  1.00 20.00     0.044 C 
HETATM    4  C5  UNL     1     -33.589  16.042  -4.047  1.00 20.00     0.108 C 
HETATM    5  C6  UNL     1     -35.571  17.903  -4.611  1.00 20.00     0.083 C 
HETATM    6  C7  UNL     1     -35.349  17.692  -6.133  1.00 20.00    -0.036 C 
HETATM    7  C8  UNL     1     -36.676  17.188  -6.741  1.00 20.00     0.016 C 
HETATM    8  C9  UNL     1     -35.003  19.037  -6.804  1.00 20.00     0.016 C 
HETATM    9  S12 UNL     1     -34.049  17.754  -3.622  1.00 20.00    -0.164 SA
ENDROOT
BRANCH   2  10
HETATM   10  C3  UNL     1     -34.337  13.253  -4.560  1.00 20.00     0.198 C 
HETATM   11  O10 UNL     1     -35.446  12.740  -4.229  1.00 20.00    -0.644 OA
HETATM   12  O11 UNL     1     -33.180  12.992  -4.127  1.00 20.00    -0.644 OA
ENDBRANCH   2  10
TORSDOF 1
ENDMDL
MODEL 8
REMARK VINA RESULT:      -4.1      2.596      3.304
REMARK  1 active torsions:
REMARK  status: ('A' for Active; 'I' for Inactive)
REMARK    1  A    between atoms: C2_2  and  C3_3 
ROOT
HETATM    1  C1  UNL     1     -35.687  14.382  -4.375  1.00 20.00    -0.063 C 
HETATM    2  C2  UNL     1     -34.772  14.371  -3.393  1.00 20.00     0.088 C 
HETATM    3  C4  UNL     1     -37.153  14.588  -4.093  1.00 20.00     0.044 C 
HETATM    4  C5  UNL     1     -35.295  14.204  -5.816  1.00 20.00     0.108 C 
HETATM    5  C6  UNL     1     -36.901  16.469  -5.859  1.00 20.00     0.083 C 
HETATM    6  C7  UNL     1     -37.653  15.971  -4.595  1.00 20.00    -0.036 C 
HETATM    7  C8  UNL     1     -37.463  17.024  -3.483  1.00 20.00     0.016 C 
HETATM    8  C9  UNL     1     -39.162  15.864  -4.891  1.00 20.00     0.016 C 
HETATM    9  S12 UNL     1     -36.365  15.128  -6.968  1.00 20.00    -0.164 SA
ENDROOT
BRANCH   2  10
HETATM   10  C3  UNL     1     -33.282  14.161  -3.684  1.00 20.00     0.198 C 
HETATM   11  O10 UNL     1     -32.635  15.238  -3.839  1.00 20.00    -0.644 OA
HETATM   12  O11 UNL     1     -32.868  12.970  -3.738  1.00 20.00    -0.644 OA
ENDBRANCH   2  10
TORSDOF 1
ENDMDL
MODEL 9
REMARK VINA RESULT:      -4.1      2.291      3.724
REMARK  1 active torsions:
REMARK  status: ('A' for Active; 'I' for Inactive)
REMARK    1  A    between atoms: C2_2  and  C3_3 
ROOT
HETATM    1  C1  UNL     1     -34.567  15.588  -5.481  1.00 20.00    -0.063 C 
HETATM    2  C2  UNL     1     -34.373  14.271  -5.653  1.00 20.00     0.088 C 
HETATM    3  C4  UNL     1     -34.600  16.546  -6.643  1.00 20.00     0.044 C 
HETATM    4  C5  UNL     1     -34.777  16.178  -4.113  1.00 20.00     0.108 C 
HETATM    5  C6  UNL     1     -36.871  17.233  -5.600  1.00 20.00     0.083 C 
HETATM    6  C7  UNL     1     -36.028  17.103  -6.897  1.00 20.00    -0.036 C 
HETATM    7  C8  UNL     1     -36.783  16.167  -7.864  1.00 20.00     0.016 C 
HETATM    8  C9  UNL     1     -35.898  18.481  -7.578  1.00 20.00     0.016 C 
HETATM    9  S12 UNL     1     -35.884  17.626  -4.121  1.00 20.00    -0.164 SA
ENDROOT
BRANCH   2  10
HETATM   10  C3  UNL     1     -34.341  13.300  -4.468  1.00 20.00     0.198 C 
HETATM   11  O10 UNL     1     -35.424  12.669  -4.295  1.00 20.00    -0.644 OA
HETATM   12  O11 UNL     1     -33.267  13.233  -3.807  1.00 20.00    -0.644 OA
ENDBRANCH   2  10
TORSDOF 1
ENDMDL
