MODEL 1
REMARK VINA RESULT:      -5.2      0.000      0.000
REMARK  0 active torsions:
REMARK  status: ('A' for Active; 'I' for Inactive)
ROOT
HETATM    1  C1  UNL     1     -34.394  13.656  -4.431  1.00 20.00     0.064 C 
HETATM    2  C2  UNL     1     -35.876  18.967  -0.489  1.00 20.00     0.000 C 
HETATM    3  C3  UNL     1     -36.121  18.899  -1.993  1.00 20.00     0.003 C 
HETATM    4  C4  UNL     1     -34.595  18.243  -0.095  1.00 20.00     0.003 C 
HETATM    5  C5  UNL     1     -36.105  17.454  -2.496  1.00 20.00     0.038 C 
HETATM    6  C6  UNL     1     -34.575  16.805  -0.617  1.00 20.00     0.038 C 
HETATM    7  C7  UNL     1     -34.070  16.074  -4.807  1.00 20.00     0.045 C 
HETATM    8  C8  UNL     1     -34.834  15.231  -2.574  1.00 20.00     0.057 C 
HETATM    9  C9  UNL     1     -33.626  17.386  -4.170  1.00 20.00     0.170 C 
HETATM   10  C10 UNL     1     -33.979  14.925  -3.812  1.00 20.00     0.097 C 
HETATM   11  C11 UNL     1     -34.787  16.721  -2.146  1.00 20.00     0.062 C 
HETATM   12  N12 UNL     1     -34.722  12.656  -4.920  1.00 20.00    -0.197 NA
HETATM   13  O13 UNL     1     -33.655  17.368  -2.744  1.00 20.00    -0.380 OA
ENDROOT
TORSDOF 0
ENDMDL
MODEL 2
REMARK VINA RESULT:      -5.1      2.557      4.835
REMARK  0 active torsions:
REMARK  status: ('A' for Active; 'I' for Inactive)
ROOT
HETATM    1  C1  UNL     1     -33.600  17.774  -0.687  1.00 20.00     0.064 C 
HETATM    2  C2  UNL     1     -34.793  14.048  -6.222  1.00 20.00     0.000 C 
HETATM    3  C3  UNL     1     -35.226  15.498  -6.034  1.00 20.00     0.003 C 
HETATM    4  C4  UNL     1     -34.875  13.263  -4.918  1.00 20.00     0.003 C 
HETATM    5  C5  UNL     1     -34.439  16.175  -4.910  1.00 20.00     0.038 C 
HETATM    6  C6  UNL     1     -34.101  13.954  -3.793  1.00 20.00     0.038 C 
HETATM    7  C7  UNL     1     -35.628  17.568  -2.076  1.00 20.00     0.045 C 
HETATM    8  C8  UNL     1     -33.668  16.059  -2.469  1.00 20.00     0.057 C 
HETATM    9  C9  UNL     1     -36.537  16.596  -2.819  1.00 20.00     0.170 C 
HETATM   10  C10 UNL     1     -34.469  16.836  -1.415  1.00 20.00     0.097 C 
HETATM   11  C11 UNL     1     -34.554  15.414  -3.566  1.00 20.00     0.062 C 
HETATM   12  N12 UNL     1     -32.914  18.513  -0.112  1.00 20.00    -0.197 NA
HETATM   13  O13 UNL     1     -35.916  15.348  -3.119  1.00 20.00    -0.380 OA
ENDROOT
TORSDOF 0
ENDMDL
MODEL 3
REMARK VINA RESULT:      -5.0      1.345      2.022
REMARK  0 active torsions:
REMARK  status: ('A' for Active; 'I' for Inactive)
ROOT
HETATM    1  C1  UNL     1     -34.956  13.831  -4.299  1.00 20.00     0.064 C 
HETATM    2  C2  UNL     1     -33.961  18.810   0.191  1.00 20.00     0.000 C 
HETATM    3  C3  UNL     1     -35.118  17.819   0.228  1.00 20.00     0.003 C 
HETATM    4  C4  UNL     1     -33.584  19.182  -1.238  1.00 20.00     0.003 C 
HETATM    5  C5  UNL     1     -34.821  16.582  -0.623  1.00 20.00     0.038 C 
HETATM    6  C6  UNL     1     -33.306  17.941  -2.090  1.00 20.00     0.038 C 
HETATM    7  C7  UNL     1     -36.552  15.409  -3.272  1.00 20.00     0.045 C 
HETATM    8  C8  UNL     1     -34.088  15.684  -2.908  1.00 20.00     0.057 C 
HETATM    9  C9  UNL     1     -36.783  16.860  -2.865  1.00 20.00     0.170 C 
HETATM   10  C10 UNL     1     -35.174  15.228  -3.893  1.00 20.00     0.097 C 
HETATM   11  C11 UNL     1     -34.485  16.941  -2.091  1.00 20.00     0.062 C 
HETATM   12  N12 UNL     1     -34.785  12.728  -4.618  1.00 20.00    -0.197 NA
HETATM   13  O13 UNL     1     -35.581  17.614  -2.728  1.00 20.00    -0.380 OA
ENDROOT
TORSDOF 0
ENDMDL
MODEL 4
REMARK VINA RESULT:      -4.9      2.907      4.697
REMARK  0 active torsions:
REMARK  status: ('A' for Active; 'I' for Inactive)
ROOT
HETATM    1  C1  UNL     1     -32.595  18.916  -0.731  1.00 20.00     0.064 C 
HETATM    2  C2  UNL     1     -34.951  14.389  -5.193  1.00 20.00     0.000 C 
HETATM    3  C3  UNL     1     -34.093  15.599  -5.545  1.00 20.00     0.003 C 
HETATM    4  C4  UNL     1     -35.918  14.698  -4.056  1.00 20.00     0.003 C 
HETATM    5  C5  UNL     1     -33.369  16.148  -4.314  1.00 20.00     0.038 C 
HETATM    6  C6  UNL     1     -35.191  15.263  -2.834  1.00 20.00     0.038 C 
HETATM    7  C7  UNL     1     -33.590  19.234  -2.967  1.00 20.00     0.045 C 
HETATM    8  C8  UNL     1     -33.582  16.968  -1.896  1.00 20.00     0.057 C 
HETATM    9  C9  UNL     1     -34.705  18.794  -3.910  1.00 20.00     0.170 C 
HETATM   10  C10 UNL     1     -33.663  18.481  -1.646  1.00 20.00     0.097 C 
HETATM   11  C11 UNL     1     -34.344  16.512  -3.168  1.00 20.00     0.062 C 
HETATM   12  N12 UNL     1     -31.753  19.258  -0.010  1.00 20.00    -0.197 NA
HETATM   13  O13 UNL     1     -35.271  17.529  -3.575  1.00 20.00    -0.380 OA
ENDROOT
TORSDOF 0
ENDMDL
MODEL 5
REMARK VINA RESULT:      -4.7      1.501      1.786
REMARK  0 active torsions:
REMARK  status: ('A' for Active; 'I' for Inactive)
ROOT
HETATM    1  C1  UNL     1     -34.810  14.986  -6.884  1.00 20.00     0.064 C 
HETATM    2  C2  UNL     1     -35.567  17.874  -0.799  1.00 20.00     0.000 C 
HETATM    3  C3  UNL     1     -35.786  18.577  -2.134  1.00 20.00     0.003 C 
HETATM    4  C4  UNL     1     -34.417  16.876  -0.871  1.00 20.00     0.003 C 
HETATM    5  C5  UNL     1     -35.975  17.571  -3.271  1.00 20.00     0.038 C 
HETATM    6  C6  UNL     1     -34.602  15.884  -2.021  1.00 20.00     0.038 C 
HETATM    7  C7  UNL     1     -34.119  17.209  -6.066  1.00 20.00     0.045 C 
HETATM    8  C8  UNL     1     -35.049  15.509  -4.477  1.00 20.00     0.057 C 
HETATM    9  C9  UNL     1     -33.498  17.971  -4.900  1.00 20.00     0.170 C 
HETATM   10  C10 UNL     1     -34.223  15.723  -5.753  1.00 20.00     0.097 C 
HETATM   11  C11 UNL     1     -34.790  16.582  -3.388  1.00 20.00     0.062 C 
HETATM   12  N12 UNL     1     -35.272  14.405  -7.776  1.00 20.00    -0.197 NA
HETATM   13  O13 UNL     1     -33.560  17.270  -3.660  1.00 20.00    -0.380 OA
ENDROOT
TORSDOF 0
ENDMDL
MODEL 6
REMARK VINA RESULT:      -4.6      1.911      2.135
REMARK  0 active torsions:
REMARK  status: ('A' for Active; 'I' for Inactive)
ROOT
HETATM    1  C1  UNL     1     -37.326  14.693  -3.911  1.00 20.00     0.064 C 
HETATM    2  C2  UNL     1     -33.173  19.263  -1.116  1.00 20.00     0.000 C 
HETATM    3  C3  UNL     1     -33.470  19.148  -2.607  1.00 20.00     0.003 C 
HETATM    4  C4  UNL     1     -33.129  17.895  -0.445  1.00 20.00     0.003 C 
HETATM    5  C5  UNL     1     -34.749  18.347  -2.862  1.00 20.00     0.038 C 
HETATM    6  C6  UNL     1     -34.403  17.092  -0.718  1.00 20.00     0.038 C 
HETATM    7  C7  UNL     1     -35.106  15.495  -4.630  1.00 20.00     0.045 C 
HETATM    8  C8  UNL     1     -36.041  16.182  -2.409  1.00 20.00     0.057 C 
HETATM    9  C9  UNL     1     -33.702  15.864  -4.162  1.00 20.00     0.170 C 
HETATM   10  C10 UNL     1     -35.976  15.063  -3.458  1.00 20.00     0.097 C 
HETATM   11  C11 UNL     1     -34.699  16.936  -2.227  1.00 20.00     0.062 C 
HETATM   12  N12 UNL     1     -38.391  14.402  -4.269  1.00 20.00    -0.197 NA
HETATM   13  O13 UNL     1     -33.622  16.158  -2.769  1.00 20.00    -0.380 OA
ENDROOT
TORSDOF 0
ENDMDL
MODEL 7
REMARK VINA RESULT:      -4.6      2.870      5.041
REMARK  0 active torsions:
REMARK  status: ('A' for Active; 'I' for Inactive)
ROOT
HETATM    1  C1  UNL     1     -33.670  18.140  -1.819  1.00 20.00     0.064 C 
HETATM    2  C2  UNL     1     -35.956  15.086  -7.422  1.00 20.00     0.000 C 
HETATM    3  C3  UNL     1     -36.664  15.078  -6.071  1.00 20.00     0.003 C 
HETATM    4  C4  UNL     1     -34.442  15.034  -7.263  1.00 20.00     0.003 C 
HETATM    5  C5  UNL     1     -36.147  16.196  -5.163  1.00 20.00     0.038 C 
HETATM    6  C6  UNL     1     -33.932  16.143  -6.340  1.00 20.00     0.038 C 
HETATM    7  C7  UNL     1     -34.693  15.916  -2.131  1.00 20.00     0.045 C 
HETATM    8  C8  UNL     1     -34.099  17.325  -4.116  1.00 20.00     0.057 C 
HETATM    9  C9  UNL     1     -34.729  14.673  -3.013  1.00 20.00     0.170 C 
HETATM   10  C10 UNL     1     -33.715  16.947  -2.678  1.00 20.00     0.097 C 
HETATM   11  C11 UNL     1     -34.615  16.126  -4.953  1.00 20.00     0.062 C 
HETATM   12  N12 UNL     1     -33.635  19.082  -1.141  1.00 20.00    -0.197 NA
HETATM   13  O13 UNL     1     -34.229  14.892  -4.330  1.00 20.00    -0.380 OA
ENDROOT
TORSDOF 0
ENDMDL
MODEL 8
REMARK VINA RESULT:      -4.6      3.721      4.820
REMARK  0 active torsions:
REMARK  status: ('A' for Active; 'I' for Inactive)
ROOT
HETATM    1  C1  UNL     1     -38.531  15.779  -7.245  1.00 20.00     0.064 C 
HETATM    2  C2  UNL     1     -32.928  14.997  -3.512  1.00 20.00     0.000 C 
HETATM    3  C3  UNL     1     -33.109  16.040  -4.609  1.00 20.00     0.003 C 
HETATM    4  C4  UNL     1     -33.627  13.688  -3.860  1.00 20.00     0.003 C 
HETATM    5  C5  UNL     1     -34.588  16.254  -4.938  1.00 20.00     0.038 C 
HETATM    6  C6  UNL     1     -35.101  13.910  -4.206  1.00 20.00     0.038 C 
HETATM    7  C7  UNL     1     -36.151  15.814  -7.896  1.00 20.00     0.045 C 
HETATM    8  C8  UNL     1     -36.817  15.161  -5.570  1.00 20.00     0.057 C 
HETATM    9  C9  UNL     1     -34.797  15.139  -7.707  1.00 20.00     0.170 C 
HETATM   10  C10 UNL     1     -37.222  15.137  -7.051  1.00 20.00     0.097 C 
HETATM   11  C11 UNL     1     -35.300  14.939  -5.342  1.00 20.00     0.062 C 
HETATM   12  N12 UNL     1     -39.564  16.286  -7.397  1.00 20.00    -0.197 NA
HETATM   13  O13 UNL     1     -34.706  14.363  -6.514  1.00 20.00    -0.380 OA
ENDROOT
TORSDOF 0
ENDMDL
MODEL 9
REMARK VINA RESULT:      -4.5      2.684      4.567
REMARK  0 active torsions:
REMARK  status: ('A' for Active; 'I' for Inactive)
ROOT
HETATM    1  C1  UNL     1     -34.392  16.996  -0.989  1.00 20.00     0.064 C 
HETATM    2  C2  UNL     1     -34.793  18.288  -7.631  1.00 20.00     0.000 C 
HETATM    3  C3  UNL     1     -35.174  16.967  -6.972  1.00 20.00     0.003 C 
HETATM    4  C4  UNL     1     -33.592  18.931  -6.947  1.00 20.00     0.003 C 
HETATM    5  C5  UNL     1     -35.398  17.136  -5.468  1.00 20.00     0.038 C 
HETATM    6  C6  UNL     1     -33.814  19.081  -5.440  1.00 20.00     0.038 C 
HETATM    7  C7  UNL     1     -33.776  15.608  -2.934  1.00 20.00     0.045 C 
HETATM    8  C8  UNL     1     -34.451  18.000  -3.250  1.00 20.00     0.057 C 
HETATM    9  C9  UNL     1     -33.105  15.608  -4.302  1.00 20.00     0.170 C 
HETATM   10  C10 UNL     1     -33.756  16.999  -2.316  1.00 20.00     0.097 C 
HETATM   11  C11 UNL     1     -34.166  17.743  -4.752  1.00 20.00     0.062 C 
HETATM   12  N12 UNL     1     -34.893  16.994   0.058  1.00 20.00    -0.197 NA
HETATM   13  O13 UNL     1     -33.012  16.901  -4.895  1.00 20.00    -0.380 OA
ENDROOT
TORSDOF 0
ENDMDL
