MODEL 1
REMARK VINA RESULT:      -4.2      0.000      0.000
REMARK  1 active torsions:
REMARK  status: ('A' for Active; 'I' for Inactive)
REMARK    1  A    between atoms: C5_5  and  O9_9 
ROOT
HETATM    1  C1  UNL     1     -35.964  15.464  -3.605  1.00 20.00     0.022 C 
HETATM    2  C2  UNL     1     -36.640  14.817  -4.810  1.00 20.00     0.075 C 
HETATM    3  C3  UNL     1     -34.323  15.421  -6.177  1.00 20.00     0.112 C 
HETATM    4  C4  UNL     1     -34.414  15.382  -3.587  1.00 20.00    -0.015 C 
HETATM    5  C5  UNL     1     -33.784  16.038  -4.871  1.00 20.00     0.069 C 
HETATM    6  C6  UNL     1     -33.920  16.089  -2.300  1.00 20.00     0.018 C 
HETATM    7  C7  UNL     1     -33.981  13.899  -3.452  1.00 20.00     0.018 C 
HETATM    8  C8  UNL     1     -33.934  17.572  -4.909  1.00 20.00     0.047 C 
HETATM    9  S10 UNL     1     -36.121  15.561  -6.377  1.00 20.00    -0.166 SA
ENDROOT
BRANCH   5  10
HETATM   10  O9  UNL     1     -32.368  15.783  -4.850  1.00 20.00    -0.389 OA
HETATM   11  H26 UNL     1     -32.101  15.701  -5.775  1.00 20.00     0.210 HD
ENDBRANCH   5  10
TORSDOF 1
ENDMDL
MODEL 2
REMARK VINA RESULT:      -4.2      1.294      2.303
REMARK  1 active torsions:
REMARK  status: ('A' for Active; 'I' for Inactive)
REMARK    1  A    between atoms: C5_5  and  O9_9 
ROOT
HETATM    1  C1  UNL     1     -36.125  15.098  -4.808  1.00 20.00     0.022 C 
HETATM    2  C2  UNL     1     -36.683  16.455  -5.228  1.00 20.00     0.075 C 
HETATM    3  C3  UNL     1     -34.127  17.404  -4.820  1.00 20.00     0.112 C 
HETATM    4  C4  UNL     1     -34.619  14.875  -5.108  1.00 20.00    -0.015 C 
HETATM    5  C5  UNL     1     -33.723  15.970  -4.420  1.00 20.00     0.069 C 
HETATM    6  C6  UNL     1     -34.244  13.456  -4.613  1.00 20.00     0.018 C 
HETATM    7  C7  UNL     1     -34.399  14.863  -6.644  1.00 20.00     0.018 C 
HETATM    8  C8  UNL     1     -33.674  15.842  -2.884  1.00 20.00     0.047 C 
HETATM    9  S10 UNL     1     -35.841  17.834  -4.409  1.00 20.00    -0.166 SA
ENDROOT
BRANCH   5  10
HETATM   10  O9  UNL     1     -32.369  15.784  -4.872  1.00 20.00    -0.389 OA
HETATM   11  H26 UNL     1     -32.086  16.641  -5.216  1.00 20.00     0.210 HD
ENDBRANCH   5  10
TORSDOF 1
ENDMDL
MODEL 3
REMARK VINA RESULT:      -4.1      1.393      1.582
REMARK  1 active torsions:
REMARK  status: ('A' for Active; 'I' for Inactive)
REMARK    1  A    between atoms: C5_5  and  O9_9 
ROOT
HETATM    1  C1  UNL     1     -35.154  15.205  -3.072  1.00 20.00     0.022 C 
HETATM    2  C2  UNL     1     -36.629  15.401  -3.405  1.00 20.00     0.075 C 
HETATM    3  C3  UNL     1     -35.768  15.988  -5.957  1.00 20.00     0.112 C 
HETATM    4  C4  UNL     1     -34.260  14.744  -4.255  1.00 20.00    -0.015 C 
HETATM    5  C5  UNL     1     -34.327  15.752  -5.460  1.00 20.00     0.069 C 
HETATM    6  C6  UNL     1     -32.811  14.604  -3.724  1.00 20.00     0.018 C 
HETATM    7  C7  UNL     1     -34.691  13.321  -4.697  1.00 20.00     0.018 C 
HETATM    8  C8  UNL     1     -33.641  17.102  -5.165  1.00 20.00     0.047 C 
HETATM    9  S10 UNL     1     -36.891  16.647  -4.693  1.00 20.00    -0.166 SA
ENDROOT
BRANCH   5  10
HETATM   10  O9  UNL     1     -33.602  15.177  -6.561  1.00 20.00    -0.389 OA
HETATM   11  H26 UNL     1     -34.129  14.425  -6.861  1.00 20.00     0.210 HD
ENDBRANCH   5  10
TORSDOF 1
ENDMDL
MODEL 4
REMARK VINA RESULT:      -4.1      1.723      2.310
REMARK  1 active torsions:
REMARK  status: ('A' for Active; 'I' for Inactive)
REMARK    1  A    between atoms: C5_5  and  O9_9 
ROOT
HETATM    1  C1  UNL     1     -35.085  16.834  -4.339  1.00 20.00     0.022 C 
HETATM    2  C2  UNL     1     -35.376  16.712  -5.831  1.00 20.00     0.075 C 
HETATM    3  C3  UNL     1     -34.491  14.113  -5.587  1.00 20.00     0.112 C 
HETATM    4  C4  UNL     1     -35.205  15.516  -3.528  1.00 20.00    -0.015 C 
HETATM    5  C5  UNL     1     -34.251  14.399  -4.090  1.00 20.00     0.069 C 
HETATM    6  C6  UNL     1     -34.873  15.840  -2.050  1.00 20.00     0.018 C 
HETATM    7  C7  UNL     1     -36.682  15.042  -3.539  1.00 20.00     0.018 C 
HETATM    8  C8  UNL     1     -32.757  14.689  -3.839  1.00 20.00     0.047 C 
HETATM    9  S10 UNL     1     -34.260  15.554  -6.665  1.00 20.00    -0.166 SA
ENDROOT
BRANCH   5  10
HETATM   10  O9  UNL     1     -34.536  13.176  -3.388  1.00 20.00    -0.389 OA
HETATM   11  H26 UNL     1     -33.884  13.121  -2.677  1.00 20.00     0.210 HD
ENDBRANCH   5  10
TORSDOF 1
ENDMDL
MODEL 5
REMARK VINA RESULT:      -4.1      1.615      3.058
REMARK  1 active torsions:
REMARK  status: ('A' for Active; 'I' for Inactive)
REMARK    1  A    between atoms: C5_5  and  O9_9 
ROOT
HETATM    1  C1  UNL     1     -35.961  15.934  -4.894  1.00 20.00     0.022 C 
HETATM    2  C2  UNL     1     -36.271  16.841  -3.707  1.00 20.00     0.075 C 
HETATM    3  C3  UNL     1     -33.692  16.311  -2.889  1.00 20.00     0.112 C 
HETATM    4  C4  UNL     1     -34.470  15.886  -5.324  1.00 20.00    -0.015 C 
HETATM    5  C5  UNL     1     -33.540  15.426  -4.142  1.00 20.00     0.069 C 
HETATM    6  C6  UNL     1     -34.358  14.921  -6.531  1.00 20.00     0.018 C 
HETATM    7  C7  UNL     1     -34.045  17.281  -5.854  1.00 20.00     0.018 C 
HETATM    8  C8  UNL     1     -33.720  13.941  -3.767  1.00 20.00     0.047 C 
HETATM    9  S10 UNL     1     -35.375  16.355  -2.210  1.00 20.00    -0.166 SA
ENDROOT
BRANCH   5  10
HETATM   10  O9  UNL     1     -32.174  15.558  -4.574  1.00 20.00    -0.389 OA
HETATM   11  H26 UNL     1     -31.885  16.429  -4.275  1.00 20.00     0.210 HD
ENDBRANCH   5  10
TORSDOF 1
ENDMDL
MODEL 6
REMARK VINA RESULT:      -4.1      1.800      2.920
REMARK  1 active torsions:
REMARK  status: ('A' for Active; 'I' for Inactive)
REMARK    1  A    between atoms: C5_5  and  O9_9 
ROOT
HETATM    1  C1  UNL     1     -33.097  16.106  -4.577  1.00 20.00     0.022 C 
HETATM    2  C2  UNL     1     -33.626  17.506  -4.871  1.00 20.00     0.075 C 
HETATM    3  C3  UNL     1     -36.089  16.298  -5.146  1.00 20.00     0.112 C 
HETATM    4  C4  UNL     1     -34.118  15.130  -3.933  1.00 20.00    -0.015 C 
HETATM    5  C5  UNL     1     -35.398  14.955  -4.830  1.00 20.00     0.069 C 
HETATM    6  C6  UNL     1     -33.401  13.774  -3.715  1.00 20.00     0.018 C 
HETATM    7  C7  UNL     1     -34.497  15.644  -2.519  1.00 20.00     0.018 C 
HETATM    8  C8  UNL     1     -35.128  14.179  -6.135  1.00 20.00     0.047 C 
HETATM    9  S10 UNL     1     -35.032  17.491  -6.013  1.00 20.00    -0.166 SA
ENDROOT
BRANCH   5  10
HETATM   10  O9  UNL     1     -36.352  14.166  -4.096  1.00 20.00    -0.389 OA
HETATM   11  H26 UNL     1     -37.133  14.103  -4.660  1.00 20.00     0.210 HD
ENDBRANCH   5  10
TORSDOF 1
ENDMDL
MODEL 7
REMARK VINA RESULT:      -4.0      1.181      1.970
REMARK  1 active torsions:
REMARK  status: ('A' for Active; 'I' for Inactive)
REMARK    1  A    between atoms: C5_5  and  O9_9 
ROOT
HETATM    1  C1  UNL     1     -35.791  16.734  -3.730  1.00 20.00     0.022 C 
HETATM    2  C2  UNL     1     -36.437  15.423  -3.290  1.00 20.00     0.075 C 
HETATM    3  C3  UNL     1     -34.195  14.204  -4.332  1.00 20.00     0.112 C 
HETATM    4  C4  UNL     1     -34.239  16.732  -3.764  1.00 20.00    -0.015 C 
HETATM    5  C5  UNL     1     -33.681  15.607  -4.712  1.00 20.00     0.069 C 
HETATM    6  C6  UNL     1     -33.777  18.135  -4.232  1.00 20.00     0.018 C 
HETATM    7  C7  UNL     1     -33.696  16.563  -2.321  1.00 20.00     0.018 C 
HETATM    8  C8  UNL     1     -33.945  15.881  -6.206  1.00 20.00     0.047 C 
HETATM    9  S10 UNL     1     -36.001  14.038  -4.372  1.00 20.00    -0.166 SA
ENDROOT
BRANCH   5  10
HETATM   10  O9  UNL     1     -32.250  15.574  -4.567  1.00 20.00    -0.389 OA
HETATM   11  H26 UNL     1     -31.921  15.056  -5.313  1.00 20.00     0.210 HD
ENDBRANCH   5  10
TORSDOF 1
ENDMDL
MODEL 8
REMARK VINA RESULT:      -3.9      1.767      2.616
REMARK  1 active torsions:
REMARK  status: ('A' for Active; 'I' for Inactive)
REMARK    1  A    between atoms: C5_5  and  O9_9 
ROOT
HETATM    1  C1  UNL     1     -35.022  16.901  -4.438  1.00 20.00     0.022 C 
HETATM    2  C2  UNL     1     -36.514  17.139  -4.226  1.00 20.00     0.075 C 
HETATM    3  C3  UNL     1     -36.724  14.395  -4.069  1.00 20.00     0.112 C 
HETATM    4  C4  UNL     1     -34.454  15.614  -3.783  1.00 20.00    -0.015 C 
HETATM    5  C5  UNL     1     -35.200  14.326  -4.293  1.00 20.00     0.069 C 
HETATM    6  C6  UNL     1     -32.941  15.548  -4.108  1.00 20.00     0.018 C 
HETATM    7  C7  UNL     1     -34.554  15.738  -2.240  1.00 20.00     0.018 C 
HETATM    8  C8  UNL     1     -34.896  13.989  -5.767  1.00 20.00     0.047 C 
HETATM    9  S10 UNL     1     -37.532  15.797  -4.890  1.00 20.00    -0.166 SA
ENDROOT
BRANCH   5  10
HETATM   10  O9  UNL     1     -34.723  13.204  -3.529  1.00 20.00    -0.389 OA
HETATM   11  H26 UNL     1     -35.477  12.608  -3.436  1.00 20.00     0.210 HD
ENDBRANCH   5  10
TORSDOF 1
ENDMDL
MODEL 9
REMARK VINA RESULT:      -3.9      1.959      3.058
REMARK  1 active torsions:
REMARK  status: ('A' for Active; 'I' for Inactive)
REMARK    1  A    between atoms: C5_5  and  O9_9 
ROOT
HETATM    1  C1  UNL     1     -33.662  17.037  -3.719  1.00 20.00     0.022 C 
HETATM    2  C2  UNL     1     -33.803  17.347  -5.206  1.00 20.00     0.075 C 
HETATM    3  C3  UNL     1     -35.755  15.401  -5.220  1.00 20.00     0.112 C 
HETATM    4  C4  UNL     1     -34.947  16.515  -3.024  1.00 20.00    -0.015 C 
HETATM    5  C5  UNL     1     -35.490  15.209  -3.713  1.00 20.00     0.069 C 
HETATM    6  C6  UNL     1     -34.606  16.259  -1.535  1.00 20.00     0.018 C 
HETATM    7  C7  UNL     1     -36.022  17.633  -3.028  1.00 20.00     0.018 C 
HETATM    8  C8  UNL     1     -34.588  13.979  -3.487  1.00 20.00     0.047 C 
HETATM    9  S10 UNL     1     -34.293  15.897  -6.174  1.00 20.00    -0.166 SA
ENDROOT
BRANCH   5  10
HETATM   10  O9  UNL     1     -36.756  14.883  -3.112  1.00 20.00    -0.389 OA
HETATM   11  H26 UNL     1     -36.822  13.920  -3.142  1.00 20.00     0.210 HD
ENDBRANCH   5  10
TORSDOF 1
ENDMDL
