MODEL 1
REMARK VINA RESULT:      -4.1      0.000      0.000
REMARK  2 active torsions:
REMARK  status: ('A' for Active; 'I' for Inactive)
REMARK    1  A    between atoms: C1_1  and  C5_5 
REMARK    2  A    between atoms: C1_1  and  C8_8 
ROOT
HETATM    1  C2  UNL     1     -35.239  13.833  -4.833  1.00 20.00     0.084 C 
HETATM    2  C3  UNL     1     -36.323  14.480  -3.985  1.00 20.00     0.085 C 
HETATM    3  C4  UNL     1     -33.315  15.337  -3.528  1.00 20.00     0.096 C 
HETATM    4  C5  UNL     1     -34.400  15.981  -2.674  1.00 20.00     0.126 C 
HETATM    5  S10 UNL     1     -33.679  13.600  -3.928  1.00 20.00    -0.167 SA
HETATM    6  S11 UNL     1     -35.961  16.215  -3.580  1.00 20.00    -0.155 SA
ENDROOT
BRANCH   4   7
HETATM    7  C1  UNL     1     -33.954  17.343  -2.244  1.00 20.00     0.144 C 
HETATM    8  O9  UNL     1     -33.848  18.258  -3.062  1.00 20.00    -0.296 OA
BRANCH   7   9
HETATM    9  C8  UNL     1     -33.610  17.523  -0.768  1.00 20.00     0.048 C 
HETATM   10  C6  UNL     1     -33.033  18.914  -0.535  1.00 20.00     0.017 C 
HETATM   11  C7  UNL     1     -34.836  17.290   0.111  1.00 20.00     0.017 C 
ENDBRANCH   7   9
ENDBRANCH   4   7
TORSDOF 2
ENDMDL
MODEL 2
REMARK VINA RESULT:      -3.9      2.188      4.631
REMARK  2 active torsions:
REMARK  status: ('A' for Active; 'I' for Inactive)
REMARK    1  A    between atoms: C1_1  and  C5_5 
REMARK    2  A    between atoms: C1_1  and  C8_8 
ROOT
HETATM    1  C2  UNL     1     -34.074  19.119  -1.944  1.00 20.00     0.084 C 
HETATM    2  C3  UNL     1     -33.783  18.769  -3.395  1.00 20.00     0.085 C 
HETATM    3  C4  UNL     1     -34.734  16.479  -1.436  1.00 20.00     0.096 C 
HETATM    4  C5  UNL     1     -34.437  16.127  -2.889  1.00 20.00     0.126 C 
HETATM    5  S10 UNL     1     -33.638  17.780  -0.794  1.00 20.00    -0.167 SA
HETATM    6  S11 UNL     1     -34.874  17.467  -4.040  1.00 20.00    -0.155 SA
ENDROOT
BRANCH   4   7
HETATM    7  C1  UNL     1     -35.255  14.941  -3.292  1.00 20.00     0.144 C 
HETATM    8  O9  UNL     1     -36.485  14.980  -3.246  1.00 20.00    -0.296 OA
BRANCH   7   9
HETATM    9  C8  UNL     1     -34.493  13.691  -3.724  1.00 20.00     0.048 C 
HETATM   10  C6  UNL     1     -34.862  13.327  -5.157  1.00 20.00     0.017 C 
HETATM   11  C7  UNL     1     -32.986  13.894  -3.587  1.00 20.00     0.017 C 
ENDBRANCH   7   9
ENDBRANCH   4   7
TORSDOF 2
ENDMDL
MODEL 3
REMARK VINA RESULT:      -3.9      2.889      4.224
REMARK  2 active torsions:
REMARK  status: ('A' for Active; 'I' for Inactive)
REMARK    1  A    between atoms: C1_1  and  C5_5 
REMARK    2  A    between atoms: C1_1  and  C8_8 
ROOT
HETATM    1  C2  UNL     1     -38.036  15.596  -7.112  1.00 20.00     0.084 C 
HETATM    2  C3  UNL     1     -36.569  15.795  -7.460  1.00 20.00     0.085 C 
HETATM    3  C4  UNL     1     -37.322  14.711  -4.588  1.00 20.00     0.096 C 
HETATM    4  C5  UNL     1     -35.853  14.915  -4.934  1.00 20.00     0.126 C 
HETATM    5  S10 UNL     1     -38.402  15.950  -5.367  1.00 20.00    -0.167 SA
HETATM    6  S11 UNL     1     -35.486  14.560  -6.681  1.00 20.00    -0.155 SA
ENDROOT
BRANCH   4   7
HETATM    7  C1  UNL     1     -35.015  13.973  -4.127  1.00 20.00     0.144 C 
HETATM    8  O9  UNL     1     -35.111  12.755  -4.283  1.00 20.00    -0.296 OA
BRANCH   7   9
HETATM    9  C8  UNL     1     -34.076  14.594  -3.097  1.00 20.00     0.048 C 
HETATM   10  C6  UNL     1     -32.780  15.028  -3.771  1.00 20.00     0.017 C 
HETATM   11  C7  UNL     1     -34.741  15.772  -2.390  1.00 20.00     0.017 C 
ENDBRANCH   7   9
ENDBRANCH   4   7
TORSDOF 2
ENDMDL
MODEL 4
REMARK VINA RESULT:      -3.8      2.228      4.383
REMARK  2 active torsions:
REMARK  status: ('A' for Active; 'I' for Inactive)
REMARK    1  A    between atoms: C1_1  and  C5_5 
REMARK    2  A    between atoms: C1_1  and  C8_8 
ROOT
HETATM    1  C2  UNL     1     -36.028  18.511  -0.841  1.00 20.00     0.084 C 
HETATM    2  C3  UNL     1     -35.492  19.246  -2.059  1.00 20.00     0.085 C 
HETATM    3  C4  UNL     1     -34.517  16.290  -1.512  1.00 20.00     0.096 C 
HETATM    4  C5  UNL     1     -33.976  17.028  -2.730  1.00 20.00     0.126 C 
HETATM    5  S10 UNL     1     -34.802  17.394  -0.095  1.00 20.00    -0.167 SA
HETATM    6  S11 UNL     1     -35.203  18.146  -3.477  1.00 20.00    -0.155 SA
ENDROOT
BRANCH   4   7
HETATM    7  C1  UNL     1     -33.607  16.038  -3.790  1.00 20.00     0.144 C 
HETATM    8  O9  UNL     1     -32.821  16.343  -4.688  1.00 20.00    -0.296 OA
BRANCH   7   9
HETATM    9  C8  UNL     1     -34.272  14.667  -3.716  1.00 20.00     0.048 C 
HETATM   10  C6  UNL     1     -35.261  14.507  -4.864  1.00 20.00     0.017 C 
HETATM   11  C7  UNL     1     -33.230  13.551  -3.738  1.00 20.00     0.017 C 
ENDBRANCH   7   9
ENDBRANCH   4   7
TORSDOF 2
ENDMDL
MODEL 5
REMARK VINA RESULT:      -3.8      3.129      4.822
REMARK  2 active torsions:
REMARK  status: ('A' for Active; 'I' for Inactive)
REMARK    1  A    between atoms: C1_1  and  C5_5 
REMARK    2  A    between atoms: C1_1  and  C8_8 
ROOT
HETATM    1  C2  UNL     1     -32.935  15.125  -3.757  1.00 20.00     0.084 C 
HETATM    2  C3  UNL     1     -33.566  13.743  -3.694  1.00 20.00     0.085 C 
HETATM    3  C4  UNL     1     -35.448  16.281  -3.636  1.00 20.00     0.096 C 
HETATM    4  C5  UNL     1     -36.080  14.896  -3.567  1.00 20.00     0.126 C 
HETATM    5  S10 UNL     1     -33.845  16.361  -2.782  1.00 20.00    -0.167 SA
HETATM    6  S11 UNL     1     -35.170  13.659  -4.544  1.00 20.00    -0.155 SA
ENDROOT
BRANCH   4   7
HETATM    7  C1  UNL     1     -37.463  14.950  -4.137  1.00 20.00     0.144 C 
HETATM    8  O9  UNL     1     -38.321  14.140  -3.782  1.00 20.00    -0.296 OA
BRANCH   7   9
HETATM    9  C8  UNL     1     -37.736  16.022  -5.188  1.00 20.00     0.048 C 
HETATM   10  C6  UNL     1     -37.853  15.381  -6.566  1.00 20.00     0.017 C 
HETATM   11  C7  UNL     1     -38.997  16.813  -4.849  1.00 20.00     0.017 C 
ENDBRANCH   7   9
ENDBRANCH   4   7
TORSDOF 2
ENDMDL
MODEL 6
REMARK VINA RESULT:      -3.8      1.613      1.814
REMARK  2 active torsions:
REMARK  status: ('A' for Active; 'I' for Inactive)
REMARK    1  A    between atoms: C1_1  and  C5_5 
REMARK    2  A    between atoms: C1_1  and  C8_8 
ROOT
HETATM    1  C2  UNL     1     -34.878  14.255  -6.084  1.00 20.00     0.084 C 
HETATM    2  C3  UNL     1     -36.051  15.213  -6.220  1.00 20.00     0.085 C 
HETATM    3  C4  UNL     1     -34.725  14.820  -3.378  1.00 20.00     0.096 C 
HETATM    4  C5  UNL     1     -35.903  15.776  -3.513  1.00 20.00     0.126 C 
HETATM    5  S10 UNL     1     -34.859  13.385  -4.487  1.00 20.00    -0.167 SA
HETATM    6  S11 UNL     1     -35.923  16.647  -5.111  1.00 20.00    -0.155 SA
ENDROOT
BRANCH   4   7
HETATM    7  C1  UNL     1     -35.812  16.833  -2.457  1.00 20.00     0.144 C 
HETATM    8  O9  UNL     1     -36.754  17.600  -2.251  1.00 20.00    -0.296 OA
BRANCH   7   9
HETATM    9  C8  UNL     1     -34.497  16.929  -1.688  1.00 20.00     0.048 C 
HETATM   10  C6  UNL     1     -33.706  18.142  -2.161  1.00 20.00     0.017 C 
HETATM   11  C7  UNL     1     -34.747  16.998  -0.184  1.00 20.00     0.017 C 
ENDBRANCH   7   9
ENDBRANCH   4   7
TORSDOF 2
ENDMDL
MODEL 7
REMARK VINA RESULT:      -3.8      2.612      3.553
REMARK  2 active torsions:
REMARK  status: ('A' for Active; 'I' for Inactive)
REMARK    1  A    between atoms: C1_1  and  C5_5 
REMARK    2  A    between atoms: C1_1  and  C8_8 
ROOT
HETATM    1  C2  UNL     1     -37.005  16.044  -7.817  1.00 20.00     0.084 C 
HETATM    2  C3  UNL     1     -37.436  16.350  -6.391  1.00 20.00     0.085 C 
HETATM    3  C4  UNL     1     -34.478  15.363  -6.911  1.00 20.00     0.096 C 
HETATM    4  C5  UNL     1     -34.911  15.665  -5.482  1.00 20.00     0.126 C 
HETATM    5  S10 UNL     1     -35.823  14.665  -7.917  1.00 20.00    -0.167 SA
HETATM    6  S11 UNL     1     -36.094  17.045  -5.382  1.00 20.00    -0.155 SA
ENDROOT
BRANCH   4   7
HETATM    7  C1  UNL     1     -33.719  16.071  -4.674  1.00 20.00     0.144 C 
HETATM    8  O9  UNL     1     -32.948  16.940  -5.084  1.00 20.00    -0.296 OA
BRANCH   7   9
HETATM    9  C8  UNL     1     -33.497  15.339  -3.354  1.00 20.00     0.048 C 
HETATM   10  C6  UNL     1     -34.340  15.979  -2.257  1.00 20.00     0.017 C 
HETATM   11  C7  UNL     1     -33.822  13.854  -3.490  1.00 20.00     0.017 C 
ENDBRANCH   7   9
ENDBRANCH   4   7
TORSDOF 2
ENDMDL
MODEL 8
REMARK VINA RESULT:      -3.7      1.793      2.168
REMARK  2 active torsions:
REMARK  status: ('A' for Active; 'I' for Inactive)
REMARK    1  A    between atoms: C1_1  and  C5_5 
REMARK    2  A    between atoms: C1_1  and  C8_8 
ROOT
HETATM    1  C2  UNL     1     -35.061  14.036  -6.183  1.00 20.00     0.084 C 
HETATM    2  C3  UNL     1     -34.404  13.524  -4.911  1.00 20.00     0.085 C 
HETATM    3  C4  UNL     1     -34.662  16.644  -5.346  1.00 20.00     0.096 C 
HETATM    4  C5  UNL     1     -33.998  16.133  -4.074  1.00 20.00     0.126 C 
HETATM    5  S10 UNL     1     -34.324  15.585  -6.785  1.00 20.00    -0.167 SA
HETATM    6  S11 UNL     1     -34.736  14.582  -3.471  1.00 20.00    -0.155 SA
ENDROOT
BRANCH   4   7
HETATM    7  C1  UNL     1     -34.175  17.138  -2.979  1.00 20.00     0.144 C 
HETATM    8  O9  UNL     1     -33.492  18.162  -2.949  1.00 20.00    -0.296 OA
BRANCH   7   9
HETATM    9  C8  UNL     1     -35.208  16.812  -1.903  1.00 20.00     0.048 C 
HETATM   10  C6  UNL     1     -34.568  16.910  -0.523  1.00 20.00     0.017 C 
HETATM   11  C7  UNL     1     -36.417  17.737  -2.007  1.00 20.00     0.017 C 
ENDBRANCH   7   9
ENDBRANCH   4   7
TORSDOF 2
ENDMDL
MODEL 9
REMARK VINA RESULT:      -3.7      2.282      4.665
REMARK  2 active torsions:
REMARK  status: ('A' for Active; 'I' for Inactive)
REMARK    1  A    between atoms: C1_1  and  C5_5 
REMARK    2  A    between atoms: C1_1  and  C8_8 
ROOT
HETATM    1  C2  UNL     1     -34.467  19.006  -1.783  1.00 20.00     0.084 C 
HETATM    2  C3  UNL     1     -33.661  18.994  -3.073  1.00 20.00     0.085 C 
HETATM    3  C4  UNL     1     -34.473  16.238  -1.757  1.00 20.00     0.096 C 
HETATM    4  C5  UNL     1     -33.662  16.226  -3.046  1.00 20.00     0.126 C 
HETATM    5  S10 UNL     1     -34.040  17.632  -0.672  1.00 20.00    -0.167 SA
HETATM    6  S11 UNL     1     -34.089  17.601  -4.159  1.00 20.00    -0.155 SA
ENDROOT
BRANCH   4   7
HETATM    7  C1  UNL     1     -33.947  14.967  -3.803  1.00 20.00     0.144 C 
HETATM    8  O9  UNL     1     -33.222  13.979  -3.677  1.00 20.00    -0.296 OA
BRANCH   7   9
HETATM    9  C8  UNL     1     -35.144  14.986  -4.749  1.00 20.00     0.048 C 
HETATM   10  C6  UNL     1     -34.780  14.304  -6.062  1.00 20.00     0.017 C 
HETATM   11  C7  UNL     1     -36.358  14.317  -4.110  1.00 20.00     0.017 C 
ENDBRANCH   7   9
ENDBRANCH   4   7
TORSDOF 2
ENDMDL
