MODEL 1
REMARK VINA RESULT:      -3.6      0.000      0.000
REMARK  1 active torsions:
REMARK  status: ('A' for Active; 'I' for Inactive)
REMARK    1  A    between atoms: C4_4  and  S9_9 
ROOT
HETATM    1  C1  UNL     1     -33.346  16.277  -3.998  1.00 20.00     0.025 C 
HETATM    2  C2  UNL     1     -34.219  15.734  -6.369  1.00 20.00     0.088 C 
HETATM    3  C3  UNL     1     -35.897  15.981  -4.129  1.00 20.00     0.082 C 
HETATM    4  C4  UNL     1     -33.359  16.638  -5.493  1.00 20.00     0.054 C 
HETATM    5  C5  UNL     1     -34.599  15.568  -3.414  1.00 20.00    -0.038 C 
HETATM    6  C6  UNL     1     -34.729  15.969  -1.926  1.00 20.00     0.015 C 
HETATM    7  C7  UNL     1     -34.418  14.033  -3.443  1.00 20.00     0.015 C 
HETATM    8  S8  UNL     1     -35.979  15.629  -5.914  1.00 20.00    -0.167 SA
ENDROOT
BRANCH   4   9
HETATM    9  S9  UNL     1     -33.773  18.410  -5.757  1.00 20.00    -0.177 SA
HETATM   10  H23 UNL     1     -34.781  18.435  -4.877  1.00 20.00     0.102 HD
ENDBRANCH   4   9
TORSDOF 1
ENDMDL
MODEL 2
REMARK VINA RESULT:      -3.5      1.636      2.973
REMARK  1 active torsions:
REMARK  status: ('A' for Active; 'I' for Inactive)
REMARK    1  A    between atoms: C4_4  and  S9_9 
ROOT
HETATM    1  C1  UNL     1     -35.853  15.426  -3.140  1.00 20.00     0.025 C 
HETATM    2  C2  UNL     1     -35.215  15.919  -5.596  1.00 20.00     0.088 C 
HETATM    3  C3  UNL     1     -33.544  16.521  -3.419  1.00 20.00     0.082 C 
HETATM    4  C4  UNL     1     -35.726  14.902  -4.581  1.00 20.00     0.054 C 
HETATM    5  C5  UNL     1     -34.902  16.574  -2.701  1.00 20.00    -0.038 C 
HETATM    6  C6  UNL     1     -34.642  16.429  -1.183  1.00 20.00     0.015 C 
HETATM    7  C7  UNL     1     -35.581  17.948  -2.904  1.00 20.00     0.015 C 
HETATM    8  S8  UNL     1     -33.588  16.651  -5.235  1.00 20.00    -0.167 SA
ENDROOT
BRANCH   4   9
HETATM    9  S9  UNL     1     -34.750  13.345  -4.651  1.00 20.00    -0.177 SA
HETATM   10  H23 UNL     1     -35.713  12.571  -4.136  1.00 20.00     0.102 HD
ENDBRANCH   4   9
TORSDOF 1
ENDMDL
MODEL 3
REMARK VINA RESULT:      -3.5      2.123      2.889
REMARK  1 active torsions:
REMARK  status: ('A' for Active; 'I' for Inactive)
REMARK    1  A    between atoms: C4_4  and  S9_9 
ROOT
HETATM    1  C1  UNL     1     -35.656  16.507  -3.962  1.00 20.00     0.025 C 
HETATM    2  C2  UNL     1     -35.843  14.689  -5.790  1.00 20.00     0.088 C 
HETATM    3  C3  UNL     1     -34.408  14.331  -3.401  1.00 20.00     0.082 C 
HETATM    4  C4  UNL     1     -36.566  15.689  -4.895  1.00 20.00     0.054 C 
HETATM    5  C5  UNL     1     -34.318  15.862  -3.509  1.00 20.00    -0.038 C 
HETATM    6  C6  UNL     1     -33.967  16.416  -2.108  1.00 20.00     0.015 C 
HETATM    7  C7  UNL     1     -33.166  16.282  -4.451  1.00 20.00     0.015 C 
HETATM    8  S8  UNL     1     -34.834  13.441  -4.932  1.00 20.00    -0.167 SA
ENDROOT
BRANCH   4   9
HETATM    9  S9  UNL     1     -37.934  14.883  -3.968  1.00 20.00    -0.177 SA
HETATM   10  H23 UNL     1     -38.250  14.018  -4.939  1.00 20.00     0.102 HD
ENDBRANCH   4   9
TORSDOF 1
ENDMDL
MODEL 4
REMARK VINA RESULT:      -3.5      1.691      2.839
REMARK  1 active torsions:
REMARK  status: ('A' for Active; 'I' for Inactive)
REMARK    1  A    between atoms: C4_4  and  S9_9 
ROOT
HETATM    1  C1  UNL     1     -34.767  15.518  -2.612  1.00 20.00     0.025 C 
HETATM    2  C2  UNL     1     -33.781  17.787  -3.360  1.00 20.00     0.088 C 
HETATM    3  C3  UNL     1     -34.298  15.671  -5.134  1.00 20.00     0.082 C 
HETATM    4  C4  UNL     1     -34.871  17.053  -2.586  1.00 20.00     0.054 C 
HETATM    5  C5  UNL     1     -34.091  14.859  -3.845  1.00 20.00    -0.038 C 
HETATM    6  C6  UNL     1     -34.728  13.465  -4.055  1.00 20.00     0.015 C 
HETATM    7  C7  UNL     1     -32.587  14.621  -3.578  1.00 20.00     0.015 C 
HETATM    8  S8  UNL     1     -33.647  17.371  -5.128  1.00 20.00    -0.167 SA
ENDROOT
BRANCH   4   9
HETATM    9  S9  UNL     1     -36.544  17.626  -3.087  1.00 20.00    -0.177 SA
HETATM   10  H23 UNL     1     -36.274  18.930  -2.954  1.00 20.00     0.102 HD
ENDBRANCH   4   9
TORSDOF 1
ENDMDL
MODEL 5
REMARK VINA RESULT:      -3.5      1.764      2.396
REMARK  1 active torsions:
REMARK  status: ('A' for Active; 'I' for Inactive)
REMARK    1  A    between atoms: C4_4  and  S9_9 
ROOT
HETATM    1  C1  UNL     1     -33.661  15.654  -4.265  1.00 20.00     0.025 C 
HETATM    2  C2  UNL     1     -35.458  13.797  -4.206  1.00 20.00     0.088 C 
HETATM    3  C3  UNL     1     -36.043  16.521  -3.840  1.00 20.00     0.082 C 
HETATM    4  C4  UNL     1     -34.282  14.423  -4.948  1.00 20.00     0.054 C 
HETATM    5  C5  UNL     1     -34.581  16.523  -3.364  1.00 20.00    -0.038 C 
HETATM    6  C6  UNL     1     -34.067  17.981  -3.417  1.00 20.00     0.015 C 
HETATM    7  C7  UNL     1     -34.479  16.072  -1.889  1.00 20.00     0.015 C 
HETATM    8  S8  UNL     1     -36.872  14.900  -3.887  1.00 20.00    -0.167 SA
ENDROOT
BRANCH   4   9
HETATM    9  S9  UNL     1     -34.709  14.765  -6.703  1.00 20.00    -0.177 SA
HETATM   10  H23 UNL     1     -33.577  14.260  -7.207  1.00 20.00     0.102 HD
ENDBRANCH   4   9
TORSDOF 1
ENDMDL
MODEL 6
REMARK VINA RESULT:      -3.5      1.413      2.718
REMARK  1 active torsions:
REMARK  status: ('A' for Active; 'I' for Inactive)
REMARK    1  A    between atoms: C4_4  and  S9_9 
ROOT
HETATM    1  C1  UNL     1     -35.163  14.338  -4.849  1.00 20.00     0.025 C 
HETATM    2  C2  UNL     1     -35.794  16.713  -5.652  1.00 20.00     0.088 C 
HETATM    3  C3  UNL     1     -33.218  16.017  -4.772  1.00 20.00     0.082 C 
HETATM    4  C4  UNL     1     -35.813  15.214  -5.934  1.00 20.00     0.054 C 
HETATM    5  C5  UNL     1     -34.030  14.968  -3.994  1.00 20.00    -0.038 C 
HETATM    6  C6  UNL     1     -33.062  13.838  -3.570  1.00 20.00     0.015 C 
HETATM    7  C7  UNL     1     -34.604  15.570  -2.690  1.00 20.00     0.015 C 
HETATM    8  S8  UNL     1     -34.149  17.451  -5.400  1.00 20.00    -0.167 SA
ENDROOT
BRANCH   4   9
HETATM    9  S9  UNL     1     -35.134  14.842  -7.601  1.00 20.00    -0.177 SA
HETATM   10  H23 UNL     1     -35.866  13.738  -7.791  1.00 20.00     0.102 HD
ENDBRANCH   4   9
TORSDOF 1
ENDMDL
MODEL 7
REMARK VINA RESULT:      -3.5      1.736      2.263
REMARK  1 active torsions:
REMARK  status: ('A' for Active; 'I' for Inactive)
REMARK    1  A    between atoms: C4_4  and  S9_9 
ROOT
HETATM    1  C1  UNL     1     -34.275  17.461  -3.492  1.00 20.00     0.025 C 
HETATM    2  C2  UNL     1     -33.039  15.229  -3.905  1.00 20.00     0.088 C 
HETATM    3  C3  UNL     1     -35.742  15.378  -3.155  1.00 20.00     0.082 C 
HETATM    4  C4  UNL     1     -33.381  16.622  -4.422  1.00 20.00     0.054 C 
HETATM    5  C5  UNL     1     -35.252  16.704  -2.551  1.00 20.00    -0.038 C 
HETATM    6  C6  UNL     1     -36.488  17.604  -2.316  1.00 20.00     0.015 C 
HETATM    7  C7  UNL     1     -34.603  16.474  -1.166  1.00 20.00     0.015 C 
HETATM    8  S8  UNL     1     -34.457  14.147  -3.544  1.00 20.00    -0.167 SA
ENDROOT
BRANCH   4   9
HETATM    9  S9  UNL     1     -34.058  16.551  -6.129  1.00 20.00    -0.177 SA
HETATM   10  H23 UNL     1     -34.865  15.508  -5.900  1.00 20.00     0.102 HD
ENDBRANCH   4   9
TORSDOF 1
ENDMDL
MODEL 8
REMARK VINA RESULT:      -3.5      1.576      2.261
REMARK  1 active torsions:
REMARK  status: ('A' for Active; 'I' for Inactive)
REMARK    1  A    between atoms: C4_4  and  S9_9 
ROOT
HETATM    1  C1  UNL     1     -35.071  15.489  -2.794  1.00 20.00     0.025 C 
HETATM    2  C2  UNL     1     -33.034  15.949  -4.317  1.00 20.00     0.088 C 
HETATM    3  C3  UNL     1     -35.672  15.812  -5.272  1.00 20.00     0.082 C 
HETATM    4  C4  UNL     1     -33.795  16.310  -3.046  1.00 20.00     0.054 C 
HETATM    5  C5  UNL     1     -35.819  14.918  -4.030  1.00 20.00    -0.038 C 
HETATM    6  C6  UNL     1     -37.324  14.833  -3.683  1.00 20.00     0.015 C 
HETATM    7  C7  UNL     1     -35.352  13.475  -4.330  1.00 20.00     0.015 C 
HETATM    8  S8  UNL     1     -33.974  16.086  -5.870  1.00 20.00    -0.167 SA
ENDROOT
BRANCH   4   9
HETATM    9  S9  UNL     1     -34.125  18.117  -2.959  1.00 20.00    -0.177 SA
HETATM   10  H23 UNL     1     -34.204  18.293  -4.283  1.00 20.00     0.102 HD
ENDBRANCH   4   9
TORSDOF 1
ENDMDL
MODEL 9
REMARK VINA RESULT:      -3.4      2.141      2.868
REMARK  1 active torsions:
REMARK  status: ('A' for Active; 'I' for Inactive)
REMARK    1  A    between atoms: C4_4  and  S9_9 
ROOT
HETATM    1  C1  UNL     1     -33.544  15.668  -3.539  1.00 20.00     0.025 C 
HETATM    2  C2  UNL     1     -35.147  17.692  -3.644  1.00 20.00     0.088 C 
HETATM    3  C3  UNL     1     -35.989  15.038  -4.020  1.00 20.00     0.082 C 
HETATM    4  C4  UNL     1     -34.056  16.957  -2.874  1.00 20.00     0.054 C 
HETATM    5  C5  UNL     1     -34.523  14.891  -4.461  1.00 20.00    -0.038 C 
HETATM    6  C6  UNL     1     -34.157  13.389  -4.394  1.00 20.00     0.015 C 
HETATM    7  C7  UNL     1     -34.343  15.324  -5.934  1.00 20.00     0.015 C 
HETATM    8  S8  UNL     1     -36.654  16.733  -3.994  1.00 20.00    -0.167 SA
ENDROOT
BRANCH   4   9
HETATM    9  S9  UNL     1     -34.556  16.664  -1.129  1.00 20.00    -0.177 SA
HETATM   10  H23 UNL     1     -34.196  17.877  -0.691  1.00 20.00     0.102 HD
ENDBRANCH   4   9
TORSDOF 1
ENDMDL
