MODEL 1
REMARK VINA RESULT:      -4.8      0.000      0.000
REMARK  3 active torsions:
REMARK  status: ('A' for Active; 'I' for Inactive)
REMARK    1  A    between atoms: C6_6  and  C9_9 
REMARK    2  A    between atoms: C6_6  and  O10_10 
REMARK    3  A    between atoms: C8_8  and  C9_9 
ROOT
HETATM    1  C1  UNL     1     -34.659  17.168  -0.088  1.00 20.00     0.012 C 
HETATM    2  C2  UNL     1     -34.830  16.600  -1.131  1.00 20.00    -0.117 C 
HETATM    3  C8  UNL     1     -35.046  15.907  -2.408  1.00 20.00     0.096 C 
ENDROOT
BRANCH   3   4
HETATM    4  C9  UNL     1     -33.719  15.459  -2.992  1.00 20.00     0.050 C 
BRANCH   4   5
HETATM    5  C6  UNL     1     -33.657  15.757  -4.487  1.00 20.00     0.068 C 
HETATM    6  C3  UNL     1     -34.363  14.673  -5.306  1.00 20.00     0.053 C 
HETATM    7  C5  UNL     1     -34.456  15.176  -6.747  1.00 20.00     0.046 C 
HETATM    8  C7  UNL     1     -35.551  14.482  -7.540  1.00 20.00     0.021 C 
HETATM    9  S11 UNL     1     -34.779  16.963  -6.592  1.00 20.00    -0.162 SA
HETATM   10  C4  UNL     1     -34.345  17.077  -4.827  1.00 20.00     0.112 C 
BRANCH   5  11
HETATM   11  O10 UNL     1     -32.273  15.819  -4.840  1.00 20.00    -0.389 OA
HETATM   12  H25 UNL     1     -31.796  16.049  -4.029  1.00 20.00     0.210 HD
ENDBRANCH   5  11
ENDBRANCH   4   5
ENDBRANCH   3   4
TORSDOF 3
ENDMDL
MODEL 2
REMARK VINA RESULT:      -4.6      2.269      2.553
REMARK  3 active torsions:
REMARK  status: ('A' for Active; 'I' for Inactive)
REMARK    1  A    between atoms: C6_6  and  C9_9 
REMARK    2  A    between atoms: C6_6  and  O10_10 
REMARK    3  A    between atoms: C8_8  and  C9_9 
ROOT
HETATM    1  C1  UNL     1     -35.068  17.613   0.737  1.00 20.00     0.012 C 
HETATM    2  C2  UNL     1     -34.795  17.022  -0.272  1.00 20.00    -0.117 C 
HETATM    3  C8  UNL     1     -34.458  16.295  -1.503  1.00 20.00     0.096 C 
ENDROOT
BRANCH   3   4
HETATM    4  C9  UNL     1     -35.467  16.611  -2.591  1.00 20.00     0.050 C 
BRANCH   4   5
HETATM    5  C6  UNL     1     -35.700  15.396  -3.484  1.00 20.00     0.068 C 
HETATM    6  C3  UNL     1     -35.673  15.775  -4.968  1.00 20.00     0.053 C 
HETATM    7  C5  UNL     1     -35.673  14.475  -5.772  1.00 20.00     0.046 C 
HETATM    8  C7  UNL     1     -35.137  14.660  -7.182  1.00 20.00     0.021 C 
HETATM    9  S11 UNL     1     -34.629  13.336  -4.807  1.00 20.00    -0.162 SA
HETATM   10  C4  UNL     1     -34.618  14.337  -3.286  1.00 20.00     0.112 C 
BRANCH   5  11
HETATM   11  O10 UNL     1     -36.979  14.863  -3.134  1.00 20.00    -0.389 OA
HETATM   12  H25 UNL     1     -37.606  15.212  -3.785  1.00 20.00     0.210 HD
ENDBRANCH   5  11
ENDBRANCH   4   5
ENDBRANCH   3   4
TORSDOF 3
ENDMDL
MODEL 3
REMARK VINA RESULT:      -4.5      2.266      2.525
REMARK  3 active torsions:
REMARK  status: ('A' for Active; 'I' for Inactive)
REMARK    1  A    between atoms: C6_6  and  C9_9 
REMARK    2  A    between atoms: C6_6  and  O10_10 
REMARK    3  A    between atoms: C8_8  and  C9_9 
ROOT
HETATM    1  C1  UNL     1     -34.477  16.886  -0.620  1.00 20.00     0.012 C 
HETATM    2  C2  UNL     1     -34.131  16.450  -1.683  1.00 20.00    -0.117 C 
HETATM    3  C8  UNL     1     -33.704  15.921  -2.985  1.00 20.00     0.096 C 
ENDROOT
BRANCH   3   4
HETATM    4  C9  UNL     1     -34.018  14.439  -3.077  1.00 20.00     0.050 C 
BRANCH   4   5
HETATM    5  C6  UNL     1     -35.028  14.166  -4.187  1.00 20.00     0.068 C 
HETATM    6  C3  UNL     1     -36.358  14.879  -3.924  1.00 20.00     0.053 C 
HETATM    7  C5  UNL     1     -37.206  14.744  -5.188  1.00 20.00     0.046 C 
HETATM    8  C7  UNL     1     -38.294  15.802  -5.278  1.00 20.00     0.021 C 
HETATM    9  S11 UNL     1     -36.017  14.894  -6.560  1.00 20.00    -0.162 SA
HETATM   10  C4  UNL     1     -34.527  14.666  -5.540  1.00 20.00     0.112 C 
BRANCH   5  11
HETATM   11  O10 UNL     1     -35.226  12.751  -4.229  1.00 20.00    -0.389 OA
HETATM   12  H25 UNL     1     -35.527  12.493  -3.345  1.00 20.00     0.210 HD
ENDBRANCH   5  11
ENDBRANCH   4   5
ENDBRANCH   3   4
TORSDOF 3
ENDMDL
MODEL 4
REMARK VINA RESULT:      -4.4      1.270      1.417
REMARK  3 active torsions:
REMARK  status: ('A' for Active; 'I' for Inactive)
REMARK    1  A    between atoms: C6_6  and  C9_9 
REMARK    2  A    between atoms: C6_6  and  O10_10 
REMARK    3  A    between atoms: C8_8  and  C9_9 
ROOT
HETATM    1  C1  UNL     1     -34.763  16.993  -0.222  1.00 20.00     0.012 C 
HETATM    2  C2  UNL     1     -34.372  16.637  -1.300  1.00 20.00    -0.117 C 
HETATM    3  C8  UNL     1     -33.890  16.205  -2.618  1.00 20.00     0.096 C 
ENDROOT
BRANCH   3   4
HETATM    4  C9  UNL     1     -34.563  14.906  -3.023  1.00 20.00     0.050 C 
BRANCH   4   5
HETATM    5  C6  UNL     1     -34.476  14.698  -4.532  1.00 20.00     0.068 C 
HETATM    6  C3  UNL     1     -35.865  14.581  -5.165  1.00 20.00     0.053 C 
HETATM    7  C5  UNL     1     -35.681  14.617  -6.682  1.00 20.00     0.046 C 
HETATM    8  C7  UNL     1     -36.947  15.028  -7.415  1.00 20.00     0.021 C 
HETATM    9  S11 UNL     1     -34.337  15.816  -6.956  1.00 20.00    -0.162 SA
HETATM   10  C4  UNL     1     -33.780  15.869  -5.223  1.00 20.00     0.112 C 
BRANCH   5  11
HETATM   11  O10 UNL     1     -33.735  13.494  -4.742  1.00 20.00    -0.389 OA
HETATM   12  H25 UNL     1     -33.839  12.967  -3.936  1.00 20.00     0.210 HD
ENDBRANCH   5  11
ENDBRANCH   4   5
ENDBRANCH   3   4
TORSDOF 3
ENDMDL
MODEL 5
REMARK VINA RESULT:      -4.3      1.678      2.071
REMARK  3 active torsions:
REMARK  status: ('A' for Active; 'I' for Inactive)
REMARK    1  A    between atoms: C6_6  and  C9_9 
REMARK    2  A    between atoms: C6_6  and  O10_10 
REMARK    3  A    between atoms: C8_8  and  C9_9 
ROOT
HETATM    1  C1  UNL     1     -34.630  18.127   1.347  1.00 20.00     0.012 C 
HETATM    2  C2  UNL     1     -34.691  17.442   0.363  1.00 20.00    -0.117 C 
HETATM    3  C8  UNL     1     -34.771  16.602  -0.839  1.00 20.00     0.096 C 
ENDROOT
BRANCH   3   4
HETATM    4  C9  UNL     1     -33.754  17.061  -1.868  1.00 20.00     0.050 C 
BRANCH   4   5
HETATM    5  C6  UNL     1     -34.142  16.584  -3.264  1.00 20.00     0.068 C 
HETATM    6  C3  UNL     1     -33.808  15.103  -3.465  1.00 20.00     0.053 C 
HETATM    7  C5  UNL     1     -34.444  14.666  -4.785  1.00 20.00     0.046 C 
HETATM    8  C7  UNL     1     -34.647  13.162  -4.866  1.00 20.00     0.021 C 
HETATM    9  S11 UNL     1     -36.033  15.555  -4.848  1.00 20.00    -0.162 SA
HETATM   10  C4  UNL     1     -35.641  16.729  -3.513  1.00 20.00     0.112 C 
BRANCH   5  11
HETATM   11  O10 UNL     1     -33.410  17.385  -4.195  1.00 20.00    -0.389 OA
HETATM   12  H25 UNL     1     -33.674  17.087  -5.077  1.00 20.00     0.210 HD
ENDBRANCH   5  11
ENDBRANCH   4   5
ENDBRANCH   3   4
TORSDOF 3
ENDMDL
MODEL 6
REMARK VINA RESULT:      -4.3      1.878      2.241
REMARK  3 active torsions:
REMARK  status: ('A' for Active; 'I' for Inactive)
REMARK    1  A    between atoms: C6_6  and  C9_9 
REMARK    2  A    between atoms: C6_6  and  O10_10 
REMARK    3  A    between atoms: C8_8  and  C9_9 
ROOT
HETATM    1  C1  UNL     1     -34.786  16.976  -0.315  1.00 20.00     0.012 C 
HETATM    2  C2  UNL     1     -34.327  16.623  -1.367  1.00 20.00    -0.117 C 
HETATM    3  C8  UNL     1     -33.763  16.195  -2.653  1.00 20.00     0.096 C 
ENDROOT
BRANCH   3   4
HETATM    4  C9  UNL     1     -34.348  14.856  -3.063  1.00 20.00     0.050 C 
BRANCH   4   5
HETATM    5  C6  UNL     1     -35.133  14.983  -4.365  1.00 20.00     0.068 C 
HETATM    6  C3  UNL     1     -34.768  16.265  -5.119  1.00 20.00     0.053 C 
HETATM    7  C5  UNL     1     -35.417  16.182  -6.501  1.00 20.00     0.046 C 
HETATM    8  C7  UNL     1     -34.744  17.090  -7.517  1.00 20.00     0.021 C 
HETATM    9  S11 UNL     1     -35.269  14.430  -6.976  1.00 20.00    -0.162 SA
HETATM   10  C4  UNL     1     -34.842  13.822  -5.314  1.00 20.00     0.112 C 
BRANCH   5  11
HETATM   11  O10 UNL     1     -36.519  14.994  -4.014  1.00 20.00    -0.389 OA
HETATM   12  H25 UNL     1     -37.004  15.182  -4.830  1.00 20.00     0.210 HD
ENDBRANCH   5  11
ENDBRANCH   4   5
ENDBRANCH   3   4
TORSDOF 3
ENDMDL
MODEL 7
REMARK VINA RESULT:      -4.1      2.205      4.975
REMARK  3 active torsions:
REMARK  status: ('A' for Active; 'I' for Inactive)
REMARK    1  A    between atoms: C6_6  and  C9_9 
REMARK    2  A    between atoms: C6_6  and  O10_10 
REMARK    3  A    between atoms: C8_8  and  C9_9 
ROOT
HETATM    1  C1  UNL     1     -34.862  14.430  -6.734  1.00 20.00     0.012 C 
HETATM    2  C2  UNL     1     -35.045  14.208  -5.568  1.00 20.00    -0.117 C 
HETATM    3  C8  UNL     1     -35.272  13.933  -4.144  1.00 20.00     0.096 C 
ENDROOT
BRANCH   3   4
HETATM    4  C9  UNL     1     -34.356  14.792  -3.291  1.00 20.00     0.050 C 
BRANCH   4   5
HETATM    5  C6  UNL     1     -35.118  15.968  -2.690  1.00 20.00     0.068 C 
HETATM    6  C3  UNL     1     -34.611  16.309  -1.286  1.00 20.00     0.053 C 
HETATM    7  C5  UNL     1     -35.260  17.630  -0.874  1.00 20.00     0.046 C 
HETATM    8  C7  UNL     1     -34.488  18.343   0.224  1.00 20.00     0.021 C 
HETATM    9  S11 UNL     1     -35.307  18.619  -2.403  1.00 20.00    -0.162 SA
HETATM   10  C4  UNL     1     -34.955  17.233  -3.530  1.00 20.00     0.112 C 
BRANCH   5  11
HETATM   11  O10 UNL     1     -36.495  15.587  -2.639  1.00 20.00    -0.389 OA
HETATM   12  H25 UNL     1     -36.508  14.619  -2.620  1.00 20.00     0.210 HD
ENDBRANCH   5  11
ENDBRANCH   4   5
ENDBRANCH   3   4
TORSDOF 3
ENDMDL
MODEL 8
REMARK VINA RESULT:      -4.1     14.051     15.104
REMARK  3 active torsions:
REMARK  status: ('A' for Active; 'I' for Inactive)
REMARK    1  A    between atoms: C6_6  and  C9_9 
REMARK    2  A    between atoms: C6_6  and  O10_10 
REMARK    3  A    between atoms: C8_8  and  C9_9 
ROOT
HETATM    1  C1  UNL     1     -42.615  -0.167  -3.394  1.00 20.00     0.012 C 
HETATM    2  C2  UNL     1     -42.119   0.926  -3.417  1.00 20.00    -0.117 C 
HETATM    3  C8  UNL     1     -41.508   2.261  -3.447  1.00 20.00     0.096 C 
ENDROOT
BRANCH   3   4
HETATM    4  C9  UNL     1     -42.519   3.310  -3.020  1.00 20.00     0.050 C 
BRANCH   4   5
HETATM    5  C6  UNL     1     -41.976   4.148  -1.867  1.00 20.00     0.068 C 
HETATM    6  C3  UNL     1     -41.923   5.636  -2.228  1.00 20.00     0.053 C 
HETATM    7  C5  UNL     1     -41.600   6.406  -0.948  1.00 20.00     0.046 C 
HETATM    8  C7  UNL     1     -42.016   7.866  -1.024  1.00 20.00     0.021 C 
HETATM    9  S11 UNL     1     -42.508   5.524   0.362  1.00 20.00    -0.162 SA
HETATM   10  C4  UNL     1     -42.858   4.035  -0.625  1.00 20.00     0.112 C 
BRANCH   5  11
HETATM   11  O10 UNL     1     -40.663   3.662  -1.582  1.00 20.00    -0.389 OA
HETATM   12  H25 UNL     1     -40.581   3.647  -0.618  1.00 20.00     0.210 HD
ENDBRANCH   5  11
ENDBRANCH   4   5
ENDBRANCH   3   4
TORSDOF 3
ENDMDL
MODEL 9
REMARK VINA RESULT:      -4.0      2.219      4.682
REMARK  3 active torsions:
REMARK  status: ('A' for Active; 'I' for Inactive)
REMARK    1  A    between atoms: C6_6  and  C9_9 
REMARK    2  A    between atoms: C6_6  and  O10_10 
REMARK    3  A    between atoms: C8_8  and  C9_9 
ROOT
HETATM    1  C1  UNL     1     -34.597  16.977  -7.664  1.00 20.00     0.012 C 
HETATM    2  C2  UNL     1     -35.098  15.908  -7.444  1.00 20.00    -0.117 C 
HETATM    3  C8  UNL     1     -35.715  14.602  -7.178  1.00 20.00     0.096 C 
ENDROOT
BRANCH   3   4
HETATM    4  C9  UNL     1     -34.814  13.769  -6.285  1.00 20.00     0.050 C 
BRANCH   4   5
HETATM    5  C6  UNL     1     -35.126  14.020  -4.813  1.00 20.00     0.068 C 
HETATM    6  C3  UNL     1     -34.052  14.888  -4.151  1.00 20.00     0.053 C 
HETATM    7  C5  UNL     1     -34.570  15.279  -2.767  1.00 20.00     0.046 C 
HETATM    8  C7  UNL     1     -33.886  16.519  -2.215  1.00 20.00     0.021 C 
HETATM    9  S11 UNL     1     -36.355  15.554  -3.002  1.00 20.00    -0.162 SA
HETATM   10  C4  UNL     1     -36.451  14.759  -4.637  1.00 20.00     0.112 C 
BRANCH   5  11
HETATM   11  O10 UNL     1     -35.188  12.741  -4.178  1.00 20.00    -0.389 OA
HETATM   12  H25 UNL     1     -36.064  12.381  -4.378  1.00 20.00     0.210 HD
ENDBRANCH   5  11
ENDBRANCH   4   5
ENDBRANCH   3   4
TORSDOF 3
ENDMDL
