MODEL 1
REMARK VINA RESULT:      -4.6      0.000      0.000
REMARK  3 active torsions:
REMARK  status: ('A' for Active; 'I' for Inactive)
REMARK    1  A    between atoms: C4_4  and  C7_7 
REMARK    2  A    between atoms: C4_4  and  O9_9 
REMARK    3  A    between atoms: C7_7  and  C8_8 
ROOT
HETATM    1  C1  UNL     1     -34.925  15.966  -4.781  1.00 20.00     0.053 C 
HETATM    2  C2  UNL     1     -33.912  14.095  -3.562  1.00 20.00     0.112 C 
HETATM    3  C3  UNL     1     -35.164  14.879  -5.831  1.00 20.00     0.046 C 
HETATM    4  C4  UNL     1     -33.722  15.567  -3.919  1.00 20.00     0.067 C 
HETATM    5  C5  UNL     1     -34.380  15.082  -7.122  1.00 20.00     0.021 C 
HETATM    6  S10 UNL     1     -34.668  13.323  -5.025  1.00 20.00    -0.162 SA
ENDROOT
BRANCH   4   7
HETATM    7  C7  UNL     1     -33.612  16.435  -2.668  1.00 20.00     0.038 C 
BRANCH   7   8
HETATM    8  C8  UNL     1     -34.787  16.198  -1.725  1.00 20.00    -0.002 C 
HETATM    9  C6  UNL     1     -34.616  16.968  -0.426  1.00 20.00     0.005 C 
ENDBRANCH   7   8
ENDBRANCH   4   7
BRANCH   4  10
HETATM   10  O9  UNL     1     -32.507  15.713  -4.654  1.00 20.00    -0.389 OA
HETATM   11  H26 UNL     1     -32.368  14.876  -5.122  1.00 20.00     0.210 HD
ENDBRANCH   4  10
TORSDOF 3
ENDMDL
MODEL 2
REMARK VINA RESULT:      -4.0      1.947      2.421
REMARK  3 active torsions:
REMARK  status: ('A' for Active; 'I' for Inactive)
REMARK    1  A    between atoms: C4_4  and  C7_7 
REMARK    2  A    between atoms: C4_4  and  O9_9 
REMARK    3  A    between atoms: C7_7  and  C8_8 
ROOT
HETATM    1  C1  UNL     1     -33.561  15.077  -3.311  1.00 20.00     0.053 C 
HETATM    2  C2  UNL     1     -34.773  17.087  -4.021  1.00 20.00     0.112 C 
HETATM    3  C3  UNL     1     -34.106  14.536  -4.635  1.00 20.00     0.046 C 
HETATM    4  C4  UNL     1     -34.485  16.196  -2.816  1.00 20.00     0.067 C 
HETATM    5  C5  UNL     1     -35.116  13.407  -4.474  1.00 20.00     0.021 C 
HETATM    6  S10 UNL     1     -34.878  15.969  -5.452  1.00 20.00    -0.162 SA
ENDROOT
BRANCH   4   7
HETATM    7  C7  UNL     1     -33.850  16.988  -1.676  1.00 20.00     0.038 C 
BRANCH   7   8
HETATM    8  C8  UNL     1     -34.716  16.941  -0.421  1.00 20.00    -0.002 C 
HETATM    9  C6  UNL     1     -34.276  17.985   0.593  1.00 20.00     0.005 C 
ENDBRANCH   7   8
ENDBRANCH   4   7
BRANCH   4  10
HETATM   10  O9  UNL     1     -35.715  15.656  -2.334  1.00 20.00    -0.389 OA
HETATM   11  H26 UNL     1     -35.656  15.661  -1.366  1.00 20.00     0.210 HD
ENDBRANCH   4  10
TORSDOF 3
ENDMDL
MODEL 3
REMARK VINA RESULT:      -3.9     12.778     13.461
REMARK  3 active torsions:
REMARK  status: ('A' for Active; 'I' for Inactive)
REMARK    1  A    between atoms: C4_4  and  C7_7 
REMARK    2  A    between atoms: C4_4  and  O9_9 
REMARK    3  A    between atoms: C7_7  and  C8_8 
ROOT
HETATM    1  C1  UNL     1     -42.123   4.872  -2.523  1.00 20.00     0.053 C 
HETATM    2  C2  UNL     1     -42.484   4.380  -0.148  1.00 20.00     0.112 C 
HETATM    3  C3  UNL     1     -42.845   3.533  -2.694  1.00 20.00     0.046 C 
HETATM    4  C4  UNL     1     -41.452   4.899  -1.145  1.00 20.00     0.067 C 
HETATM    5  C5  UNL     1     -41.973   2.429  -3.278  1.00 20.00     0.021 C 
HETATM    6  S10 UNL     1     -43.410   3.081  -1.022  1.00 20.00    -0.162 SA
ENDROOT
BRANCH   4   7
HETATM    7  C7  UNL     1     -40.978   6.303  -0.777  1.00 20.00     0.038 C 
BRANCH   7   8
HETATM    8  C8  UNL     1     -41.696   7.364  -1.605  1.00 20.00    -0.002 C 
HETATM    9  C6  UNL     1     -42.826   8.007  -0.818  1.00 20.00     0.005 C 
ENDBRANCH   7   8
ENDBRANCH   4   7
BRANCH   4  10
HETATM   10  O9  UNL     1     -40.313   4.040  -1.123  1.00 20.00    -0.389 OA
HETATM   11  H26 UNL     1     -40.651   3.139  -1.011  1.00 20.00     0.210 HD
ENDBRANCH   4  10
TORSDOF 3
ENDMDL
MODEL 4
REMARK VINA RESULT:      -3.9      1.347      1.431
REMARK  3 active torsions:
REMARK  status: ('A' for Active; 'I' for Inactive)
REMARK    1  A    between atoms: C4_4  and  C7_7 
REMARK    2  A    between atoms: C4_4  and  O9_9 
REMARK    3  A    between atoms: C7_7  and  C8_8 
ROOT
HETATM    1  C1  UNL     1     -34.175  16.327  -5.341  1.00 20.00     0.053 C 
HETATM    2  C2  UNL     1     -35.757  15.075  -3.947  1.00 20.00     0.112 C 
HETATM    3  C3  UNL     1     -35.167  15.944  -6.442  1.00 20.00     0.046 C 
HETATM    4  C4  UNL     1     -34.270  15.297  -4.209  1.00 20.00     0.067 C 
HETATM    5  C5  UNL     1     -34.598  14.990  -7.484  1.00 20.00     0.021 C 
HETATM    6  S10 UNL     1     -36.569  15.172  -5.571  1.00 20.00    -0.162 SA
ENDROOT
BRANCH   4   7
HETATM    7  C7  UNL     1     -33.546  15.773  -2.953  1.00 20.00     0.038 C 
BRANCH   7   8
HETATM    8  C8  UNL     1     -34.534  16.123  -1.844  1.00 20.00    -0.002 C 
HETATM    9  C6  UNL     1     -34.014  17.260  -0.980  1.00 20.00     0.005 C 
ENDBRANCH   7   8
ENDBRANCH   4   7
BRANCH   4  10
HETATM   10  O9  UNL     1     -33.679  14.060  -4.605  1.00 20.00    -0.389 OA
HETATM   11  H26 UNL     1     -32.855  14.284  -5.065  1.00 20.00     0.210 HD
ENDBRANCH   4  10
TORSDOF 3
ENDMDL
MODEL 5
REMARK VINA RESULT:      -3.8      1.851      4.340
REMARK  3 active torsions:
REMARK  status: ('A' for Active; 'I' for Inactive)
REMARK    1  A    between atoms: C4_4  and  C7_7 
REMARK    2  A    between atoms: C4_4  and  O9_9 
REMARK    3  A    between atoms: C7_7  and  C8_8 
ROOT
HETATM    1  C1  UNL     1     -35.469  15.561  -3.595  1.00 20.00     0.053 C 
HETATM    2  C2  UNL     1     -33.673  16.559  -4.933  1.00 20.00     0.112 C 
HETATM    3  C3  UNL     1     -35.167  16.752  -2.683  1.00 20.00     0.046 C 
HETATM    4  C4  UNL     1     -34.214  15.230  -4.411  1.00 20.00     0.067 C 
HETATM    5  C5  UNL     1     -34.589  16.364  -1.329  1.00 20.00     0.021 C 
HETATM    6  S10 UNL     1     -33.980  17.773  -3.614  1.00 20.00    -0.162 SA
ENDROOT
BRANCH   4   7
HETATM    7  C7  UNL     1     -34.521  14.266  -5.553  1.00 20.00     0.038 C 
BRANCH   7   8
HETATM    8  C8  UNL     1     -34.437  14.966  -6.906  1.00 20.00    -0.002 C 
HETATM    9  C6  UNL     1     -35.553  14.512  -7.833  1.00 20.00     0.005 C 
ENDBRANCH   7   8
ENDBRANCH   4   7
BRANCH   4  10
HETATM   10  O9  UNL     1     -33.224  14.619  -3.584  1.00 20.00    -0.389 OA
HETATM   11  H26 UNL     1     -33.619  14.532  -2.703  1.00 20.00     0.210 HD
ENDBRANCH   4  10
TORSDOF 3
ENDMDL
MODEL 6
REMARK VINA RESULT:      -3.8     13.346     14.484
REMARK  3 active torsions:
REMARK  status: ('A' for Active; 'I' for Inactive)
REMARK    1  A    between atoms: C4_4  and  C7_7 
REMARK    2  A    between atoms: C4_4  and  O9_9 
REMARK    3  A    between atoms: C7_7  and  C8_8 
ROOT
HETATM    1  C1  UNL     1     -41.119   4.403  -1.486  1.00 20.00     0.053 C 
HETATM    2  C2  UNL     1     -43.354   4.061  -0.538  1.00 20.00     0.112 C 
HETATM    3  C3  UNL     1     -41.087   5.538  -0.460  1.00 20.00     0.046 C 
HETATM    4  C4  UNL     1     -42.577   4.107  -1.852  1.00 20.00     0.067 C 
HETATM    5  C5  UNL     1     -41.043   6.930  -1.077  1.00 20.00     0.021 C 
HETATM    6  S10 UNL     1     -42.602   5.328   0.528  1.00 20.00    -0.162 SA
ENDROOT
BRANCH   4   7
HETATM    7  C7  UNL     1     -42.710   2.798  -2.625  1.00 20.00     0.038 C 
BRANCH   7   8
HETATM    8  C8  UNL     1     -41.401   2.427  -3.315  1.00 20.00    -0.002 C 
HETATM    9  C6  UNL     1     -41.498   1.068  -3.988  1.00 20.00     0.005 C 
ENDBRANCH   7   8
ENDBRANCH   4   7
BRANCH   4  10
HETATM   10  O9  UNL     1     -43.112   5.147  -2.670  1.00 20.00    -0.389 OA
HETATM   11  H26 UNL     1     -44.077   5.075  -2.609  1.00 20.00     0.210 HD
ENDBRANCH   4  10
TORSDOF 3
ENDMDL
MODEL 7
REMARK VINA RESULT:      -3.6      2.817      4.836
REMARK  3 active torsions:
REMARK  status: ('A' for Active; 'I' for Inactive)
REMARK    1  A    between atoms: C4_4  and  C7_7 
REMARK    2  A    between atoms: C4_4  and  O9_9 
REMARK    3  A    between atoms: C7_7  and  C8_8 
ROOT
HETATM    1  C1  UNL     1     -34.614  16.571  -0.852  1.00 20.00     0.053 C 
HETATM    2  C2  UNL     1     -35.886  17.891  -2.480  1.00 20.00     0.112 C 
HETATM    3  C3  UNL     1     -34.372  17.951  -0.236  1.00 20.00     0.046 C 
HETATM    4  C4  UNL     1     -34.894  16.738  -2.349  1.00 20.00     0.067 C 
HETATM    5  C5  UNL     1     -32.919  18.406  -0.290  1.00 20.00     0.021 C 
HETATM    6  S10 UNL     1     -35.430  19.088  -1.188  1.00 20.00    -0.162 SA
ENDROOT
BRANCH   4   7
HETATM    7  C7  UNL     1     -35.445  15.456  -2.967  1.00 20.00     0.038 C 
BRANCH   7   8
HETATM    8  C8  UNL     1     -34.320  14.504  -3.361  1.00 20.00    -0.002 C 
HETATM    9  C6  UNL     1     -34.832  13.385  -4.254  1.00 20.00     0.005 C 
ENDBRANCH   7   8
ENDBRANCH   4   7
BRANCH   4  10
HETATM   10  O9  UNL     1     -33.697  17.074  -3.050  1.00 20.00    -0.389 OA
HETATM   11  H26 UNL     1     -33.384  17.910  -2.672  1.00 20.00     0.210 HD
ENDBRANCH   4  10
TORSDOF 3
ENDMDL
MODEL 8
REMARK VINA RESULT:      -3.6     11.540     12.495
REMARK  3 active torsions:
REMARK  status: ('A' for Active; 'I' for Inactive)
REMARK    1  A    between atoms: C4_4  and  C7_7 
REMARK    2  A    between atoms: C4_4  and  O9_9 
REMARK    3  A    between atoms: C7_7  and  C8_8 
ROOT
HETATM    1  C1  UNL     1     -42.609   5.650  -2.634  1.00 20.00     0.053 C 
HETATM    2  C2  UNL     1     -42.789   7.001  -0.596  1.00 20.00     0.112 C 
HETATM    3  C3  UNL     1     -42.268   4.551  -1.623  1.00 20.00     0.046 C 
HETATM    4  C4  UNL     1     -42.253   7.011  -2.025  1.00 20.00     0.067 C 
HETATM    5  C5  UNL     1     -40.837   4.038  -1.725  1.00 20.00     0.021 C 
HETATM    6  S10 UNL     1     -42.560   5.302   0.011  1.00 20.00    -0.162 SA
ENDROOT
BRANCH   4   7
HETATM    7  C7  UNL     1     -42.842   8.162  -2.834  1.00 20.00     0.038 C 
BRANCH   7   8
HETATM    8  C8  UNL     1     -42.802   7.864  -4.330  1.00 20.00    -0.002 C 
HETATM    9  C6  UNL     1     -41.981   8.903  -5.078  1.00 20.00     0.005 C 
ENDBRANCH   7   8
ENDBRANCH   4   7
BRANCH   4  10
HETATM   10  O9  UNL     1     -40.837   7.190  -1.988  1.00 20.00    -0.389 OA
HETATM   11  H26 UNL     1     -40.462   6.531  -2.592  1.00 20.00     0.210 HD
ENDBRANCH   4  10
TORSDOF 3
ENDMDL
MODEL 9
REMARK VINA RESULT:      -3.6      2.119      3.788
REMARK  3 active torsions:
REMARK  status: ('A' for Active; 'I' for Inactive)
REMARK    1  A    between atoms: C4_4  and  C7_7 
REMARK    2  A    between atoms: C4_4  and  O9_9 
REMARK    3  A    between atoms: C7_7  and  C8_8 
ROOT
HETATM    1  C1  UNL     1     -34.953  15.818  -4.897  1.00 20.00     0.053 C 
HETATM    2  C2  UNL     1     -33.800  17.343  -3.362  1.00 20.00     0.112 C 
HETATM    3  C3  UNL     1     -35.109  14.987  -3.621  1.00 20.00     0.046 C 
HETATM    4  C4  UNL     1     -33.722  16.720  -4.753  1.00 20.00     0.067 C 
HETATM    5  C5  UNL     1     -34.344  13.670  -3.642  1.00 20.00     0.021 C 
HETATM    6  S10 UNL     1     -34.496  16.057  -2.280  1.00 20.00    -0.162 SA
ENDROOT
BRANCH   4   7
HETATM    7  C7  UNL     1     -33.677  17.790  -5.841  1.00 20.00     0.038 C 
BRANCH   7   8
HETATM    8  C8  UNL     1     -34.443  17.348  -7.084  1.00 20.00    -0.002 C 
HETATM    9  C6  UNL     1     -35.310  18.472  -7.627  1.00 20.00     0.005 C 
ENDBRANCH   7   8
ENDBRANCH   4   7
BRANCH   4  10
HETATM   10  O9  UNL     1     -32.523  15.954  -4.852  1.00 20.00    -0.389 OA
HETATM   11  H26 UNL     1     -32.615  15.217  -4.229  1.00 20.00     0.210 HD
ENDBRANCH   4  10
TORSDOF 3
ENDMDL
