MODEL 1
REMARK VINA RESULT:      -4.7      0.000      0.000
REMARK  2 active torsions:
REMARK  status: ('A' for Active; 'I' for Inactive)
REMARK    1  A    between atoms: C2_2  and  C6_6 
REMARK    2  A    between atoms: C6_6  and  O9_9 
ROOT
HETATM    1  C3  UNL     1     -34.237  15.332  -3.089  1.00 20.00     0.058 C 
HETATM    2  C4  UNL     1     -34.341  17.051  -4.831  1.00 20.00     0.116 C 
HETATM    3  C5  UNL     1     -33.822  16.530  -2.232  1.00 20.00     0.046 C 
HETATM    4  C6  UNL     1     -33.818  15.644  -4.529  1.00 20.00     0.089 C 
HETATM    5  C8  UNL     1     -34.570  16.592  -0.911  1.00 20.00     0.021 C 
HETATM    6  S10 UNL     1     -34.184  17.980  -3.271  1.00 20.00    -0.161 SA
ENDROOT
BRANCH   4   7
HETATM    7  C2  UNL     1     -34.355  14.623  -5.483  1.00 20.00    -0.058 C 
HETATM    8  C1  UNL     1     -34.467  14.872  -6.797  1.00 20.00     0.017 C 
HETATM    9  C7  UNL     1     -34.759  13.308  -4.887  1.00 20.00     0.046 C 
ENDBRANCH   4   7
BRANCH   4  10
HETATM   10  O9  UNL     1     -32.392  15.632  -4.612  1.00 20.00    -0.385 OA
HETATM   11  H24 UNL     1     -32.065  15.618  -3.700  1.00 20.00     0.211 HD
ENDBRANCH   4  10
TORSDOF 2
ENDMDL
MODEL 2
REMARK VINA RESULT:      -4.7      0.104      1.116
REMARK  2 active torsions:
REMARK  status: ('A' for Active; 'I' for Inactive)
REMARK    1  A    between atoms: C2_2  and  C6_6 
REMARK    2  A    between atoms: C6_6  and  O9_9 
ROOT
HETATM    1  C3  UNL     1     -34.240  15.334  -3.077  1.00 20.00     0.058 C 
HETATM    2  C4  UNL     1     -34.493  17.005  -4.849  1.00 20.00     0.116 C 
HETATM    3  C5  UNL     1     -33.862  16.571  -2.260  1.00 20.00     0.046 C 
HETATM    4  C6  UNL     1     -33.887  15.636  -4.536  1.00 20.00     0.089 C 
HETATM    5  C8  UNL     1     -34.568  16.623  -0.915  1.00 20.00     0.021 C 
HETATM    6  S10 UNL     1     -34.335  17.976  -3.315  1.00 20.00    -0.161 SA
ENDROOT
BRANCH   4   7
HETATM    7  C2  UNL     1     -34.399  14.566  -5.450  1.00 20.00    -0.058 C 
HETATM    8  C1  UNL     1     -34.767  13.360  -4.992  1.00 20.00     0.017 C 
HETATM    9  C7  UNL     1     -34.477  14.920  -6.906  1.00 20.00     0.046 C 
ENDBRANCH   4   7
BRANCH   4  10
HETATM   10  O9  UNL     1     -32.466  15.696  -4.668  1.00 20.00    -0.385 OA
HETATM   11  H24 UNL     1     -32.130  14.823  -4.412  1.00 20.00     0.211 HD
ENDBRANCH   4  10
TORSDOF 2
ENDMDL
MODEL 3
REMARK VINA RESULT:      -4.3      1.850      3.962
REMARK  2 active torsions:
REMARK  status: ('A' for Active; 'I' for Inactive)
REMARK    1  A    between atoms: C2_2  and  C6_6 
REMARK    2  A    between atoms: C6_6  and  O9_9 
ROOT
HETATM    1  C3  UNL     1     -34.600  15.917  -5.371  1.00 20.00     0.058 C 
HETATM    2  C4  UNL     1     -34.299  14.376  -3.491  1.00 20.00     0.116 C 
HETATM    3  C5  UNL     1     -34.541  14.614  -6.170  1.00 20.00     0.046 C 
HETATM    4  C6  UNL     1     -33.795  15.692  -4.087  1.00 20.00     0.089 C 
HETATM    5  C8  UNL     1     -35.650  14.511  -7.204  1.00 20.00     0.021 C 
HETATM    6  S10 UNL     1     -34.677  13.303  -4.915  1.00 20.00    -0.161 SA
ENDROOT
BRANCH   4   7
HETATM    7  C2  UNL     1     -33.953  16.841  -3.140  1.00 20.00    -0.058 C 
HETATM    8  C1  UNL     1     -33.797  18.113  -3.538  1.00 20.00     0.017 C 
HETATM    9  C7  UNL     1     -34.295  16.490  -1.723  1.00 20.00     0.046 C 
ENDBRANCH   4   7
BRANCH   4  10
HETATM   10  O9  UNL     1     -32.411  15.572  -4.420  1.00 20.00    -0.385 OA
HETATM   11  H24 UNL     1     -31.916  15.914  -3.659  1.00 20.00     0.211 HD
ENDBRANCH   4  10
TORSDOF 2
ENDMDL
MODEL 4
REMARK VINA RESULT:      -3.9     12.976     14.660
REMARK  2 active torsions:
REMARK  status: ('A' for Active; 'I' for Inactive)
REMARK    1  A    between atoms: C2_2  and  C6_6 
REMARK    2  A    between atoms: C6_6  and  O9_9 
ROOT
HETATM    1  C3  UNL     1     -41.108   3.512  -2.422  1.00 20.00     0.058 C 
HETATM    2  C4  UNL     1     -43.240   4.667  -2.764  1.00 20.00     0.116 C 
HETATM    3  C5  UNL     1     -41.896   2.338  -3.005  1.00 20.00     0.046 C 
HETATM    4  C6  UNL     1     -42.121   4.440  -1.745  1.00 20.00     0.089 C 
HETATM    5  C8  UNL     1     -41.129   1.598  -4.088  1.00 20.00     0.021 C 
HETATM    6  S10 UNL     1     -43.417   3.091  -3.661  1.00 20.00    -0.161 SA
ENDROOT
BRANCH   4   7
HETATM    7  C2  UNL     1     -41.479   5.722  -1.313  1.00 20.00    -0.058 C 
HETATM    8  C1  UNL     1     -40.779   5.813  -0.172  1.00 20.00     0.017 C 
HETATM    9  C7  UNL     1     -41.663   6.896  -2.227  1.00 20.00     0.046 C 
ENDBRANCH   4   7
BRANCH   4  10
HETATM   10  O9  UNL     1     -42.648   3.790  -0.588  1.00 20.00    -0.385 OA
HETATM   11  H24 UNL     1     -43.597   3.674  -0.747  1.00 20.00     0.211 HD
ENDBRANCH   4  10
TORSDOF 2
ENDMDL
MODEL 5
REMARK VINA RESULT:      -3.9      2.245      4.200
REMARK  2 active torsions:
REMARK  status: ('A' for Active; 'I' for Inactive)
REMARK    1  A    between atoms: C2_2  and  C6_6 
REMARK    2  A    between atoms: C6_6  and  O9_9 
ROOT
HETATM    1  C3  UNL     1     -34.648  14.944  -3.021  1.00 20.00     0.058 C 
HETATM    2  C4  UNL     1     -35.253  17.014  -4.181  1.00 20.00     0.116 C 
HETATM    3  C5  UNL     1     -35.327  14.316  -4.239  1.00 20.00     0.046 C 
HETATM    4  C6  UNL     1     -35.282  16.323  -2.816  1.00 20.00     0.089 C 
HETATM    5  C8  UNL     1     -34.510  13.189  -4.849  1.00 20.00     0.021 C 
HETATM    6  S10 UNL     1     -35.536  15.696  -5.407  1.00 20.00    -0.161 SA
ENDROOT
BRANCH   4   7
HETATM    7  C2  UNL     1     -34.552  17.105  -1.769  1.00 20.00    -0.058 C 
HETATM    8  C1  UNL     1     -34.672  16.823  -0.462  1.00 20.00     0.017 C 
HETATM    9  C7  UNL     1     -33.681  18.222  -2.262  1.00 20.00     0.046 C 
ENDBRANCH   4   7
BRANCH   4  10
HETATM   10  O9  UNL     1     -36.635  16.156  -2.389  1.00 20.00    -0.385 OA
HETATM   11  H24 UNL     1     -36.612  16.102  -1.421  1.00 20.00     0.211 HD
ENDBRANCH   4  10
TORSDOF 2
ENDMDL
MODEL 6
REMARK VINA RESULT:      -3.8      2.411      4.123
REMARK  2 active torsions:
REMARK  status: ('A' for Active; 'I' for Inactive)
REMARK    1  A    between atoms: C2_2  and  C6_6 
REMARK    2  A    between atoms: C6_6  and  O9_9 
ROOT
HETATM    1  C3  UNL     1     -34.703  14.691  -5.748  1.00 20.00     0.058 C 
HETATM    2  C4  UNL     1     -36.374  15.071  -3.998  1.00 20.00     0.116 C 
HETATM    3  C5  UNL     1     -35.956  14.494  -6.603  1.00 20.00     0.046 C 
HETATM    4  C6  UNL     1     -35.078  14.320  -4.310  1.00 20.00     0.089 C 
HETATM    5  C8  UNL     1     -35.893  15.252  -7.918  1.00 20.00     0.021 C 
HETATM    6  S10 UNL     1     -37.320  15.088  -5.556  1.00 20.00    -0.161 SA
ENDROOT
BRANCH   4   7
HETATM    7  C2  UNL     1     -33.978  14.666  -3.355  1.00 20.00    -0.058 C 
HETATM    8  C1  UNL     1     -34.071  15.709  -2.516  1.00 20.00     0.017 C 
HETATM    9  C7  UNL     1     -32.767  13.782  -3.391  1.00 20.00     0.046 C 
ENDBRANCH   4   7
BRANCH   4  10
HETATM   10  O9  UNL     1     -35.308  12.911  -4.238  1.00 20.00    -0.385 OA
HETATM   11  H24 UNL     1     -34.816  12.516  -4.975  1.00 20.00     0.211 HD
ENDBRANCH   4  10
TORSDOF 2
ENDMDL
MODEL 7
REMARK VINA RESULT:      -3.8      1.805      3.358
REMARK  2 active torsions:
REMARK  status: ('A' for Active; 'I' for Inactive)
REMARK    1  A    between atoms: C2_2  and  C6_6 
REMARK    2  A    between atoms: C6_6  and  O9_9 
ROOT
HETATM    1  C3  UNL     1     -34.482  17.235  -4.766  1.00 20.00     0.058 C 
HETATM    2  C4  UNL     1     -34.489  15.174  -6.089  1.00 20.00     0.116 C 
HETATM    3  C5  UNL     1     -34.290  17.867  -6.146  1.00 20.00     0.046 C 
HETATM    4  C6  UNL     1     -33.897  15.821  -4.834  1.00 20.00     0.089 C 
HETATM    5  C8  UNL     1     -35.214  19.049  -6.382  1.00 20.00     0.021 C 
HETATM    6  S10 UNL     1     -34.626  16.514  -7.316  1.00 20.00    -0.161 SA
ENDROOT
BRANCH   4   7
HETATM    7  C2  UNL     1     -34.210  15.044  -3.594  1.00 20.00    -0.058 C 
HETATM    8  C1  UNL     1     -34.246  13.703  -3.589  1.00 20.00     0.017 C 
HETATM    9  C7  UNL     1     -34.480  15.849  -2.358  1.00 20.00     0.046 C 
ENDBRANCH   4   7
BRANCH   4  10
HETATM   10  O9  UNL     1     -32.477  15.910  -4.962  1.00 20.00    -0.385 OA
HETATM   11  H24 UNL     1     -32.286  15.885  -5.913  1.00 20.00     0.211 HD
ENDBRANCH   4  10
TORSDOF 2
ENDMDL
MODEL 8
REMARK VINA RESULT:      -3.8      1.809      3.366
REMARK  2 active torsions:
REMARK  status: ('A' for Active; 'I' for Inactive)
REMARK    1  A    between atoms: C2_2  and  C6_6 
REMARK    2  A    between atoms: C6_6  and  O9_9 
ROOT
HETATM    1  C3  UNL     1     -34.402  17.263  -4.812  1.00 20.00     0.058 C 
HETATM    2  C4  UNL     1     -34.491  15.127  -6.006  1.00 20.00     0.116 C 
HETATM    3  C5  UNL     1     -34.207  17.803  -6.230  1.00 20.00     0.046 C 
HETATM    4  C6  UNL     1     -33.864  15.829  -4.800  1.00 20.00     0.089 C 
HETATM    5  C8  UNL     1     -35.095  18.999  -6.529  1.00 20.00     0.021 C 
HETATM    6  S10 UNL     1     -34.600  16.394  -7.312  1.00 20.00    -0.161 SA
ENDROOT
BRANCH   4   7
HETATM    7  C2  UNL     1     -34.187  15.140  -3.511  1.00 20.00    -0.058 C 
HETATM    8  C1  UNL     1     -34.355  15.820  -2.367  1.00 20.00     0.017 C 
HETATM    9  C7  UNL     1     -34.310  13.646  -3.571  1.00 20.00     0.046 C 
ENDBRANCH   4   7
BRANCH   4  10
HETATM   10  O9  UNL     1     -32.443  15.863  -4.947  1.00 20.00    -0.385 OA
HETATM   11  H24 UNL     1     -32.123  14.978  -4.715  1.00 20.00     0.211 HD
ENDBRANCH   4  10
TORSDOF 2
ENDMDL
MODEL 9
REMARK VINA RESULT:      -3.8      1.985      2.534
REMARK  2 active torsions:
REMARK  status: ('A' for Active; 'I' for Inactive)
REMARK    1  A    between atoms: C2_2  and  C6_6 
REMARK    2  A    between atoms: C6_6  and  O9_9 
ROOT
HETATM    1  C3  UNL     1     -33.467  16.600  -4.366  1.00 20.00     0.058 C 
HETATM    2  C4  UNL     1     -35.644  16.012  -5.323  1.00 20.00     0.116 C 
HETATM    3  C5  UNL     1     -33.716  17.894  -5.143  1.00 20.00     0.046 C 
HETATM    4  C6  UNL     1     -34.225  15.486  -5.096  1.00 20.00     0.089 C 
HETATM    5  C8  UNL     1     -33.444  19.137  -4.312  1.00 20.00     0.021 C 
HETATM    6  S10 UNL     1     -35.463  17.797  -5.643  1.00 20.00    -0.161 SA
ENDROOT
BRANCH   4   7
HETATM    7  C2  UNL     1     -34.210  14.214  -4.308  1.00 20.00    -0.058 C 
HETATM    8  C1  UNL     1     -33.102  13.778  -3.688  1.00 20.00     0.017 C 
HETATM    9  C7  UNL     1     -35.501  13.454  -4.252  1.00 20.00     0.046 C 
ENDBRANCH   4   7
BRANCH   4  10
HETATM   10  O9  UNL     1     -33.594  15.242  -6.355  1.00 20.00    -0.385 OA
HETATM   11  H24 UNL     1     -33.609  16.084  -6.836  1.00 20.00     0.211 HD
ENDBRANCH   4  10
TORSDOF 2
ENDMDL
