MODEL 1
REMARK VINA RESULT:      -5.1      0.000      0.000
REMARK  3 active torsions:
REMARK  status: ('A' for Active; 'I' for Inactive)
REMARK    1  A    between atoms: C6_6  and  C9_9 
REMARK    2  A    between atoms: C6_6  and  O10_10 
REMARK    3  A    between atoms: C8_8  and  C9_9 
ROOT
HETATM    1  C1  UNL     1     -34.527  17.693   0.499  1.00 20.00     0.012 C 
HETATM    2  C2  UNL     1     -34.615  16.996  -0.475  1.00 20.00    -0.117 C 
HETATM    3  C8  UNL     1     -34.727  16.142  -1.664  1.00 20.00     0.096 C 
ENDROOT
BRANCH   3   4
HETATM    4  C9  UNL     1     -33.600  16.442  -2.634  1.00 20.00     0.050 C 
BRANCH   4   5
HETATM    5  C6  UNL     1     -33.715  15.574  -3.885  1.00 20.00     0.068 C 
HETATM    6  C3  UNL     1     -34.910  15.985  -4.750  1.00 20.00     0.053 C 
HETATM    7  C5  UNL     1     -35.157  14.899  -5.801  1.00 20.00     0.046 C 
HETATM    8  C7  UNL     1     -34.367  15.093  -7.088  1.00 20.00     0.021 C 
HETATM    9  S11 UNL     1     -34.681  13.339  -4.991  1.00 20.00    -0.162 SA
HETATM   10  C4  UNL     1     -33.922  14.105  -3.526  1.00 20.00     0.112 C 
BRANCH   5  11
HETATM   11  O10 UNL     1     -32.496  15.706  -4.614  1.00 20.00    -0.389 OA
HETATM   12  H25 UNL     1     -31.841  15.157  -4.157  1.00 20.00     0.210 HD
ENDBRANCH   5  11
ENDBRANCH   4   5
ENDBRANCH   3   4
TORSDOF 3
ENDMDL
MODEL 2
REMARK VINA RESULT:      -4.6      1.822      2.289
REMARK  3 active torsions:
REMARK  status: ('A' for Active; 'I' for Inactive)
REMARK    1  A    between atoms: C6_6  and  C9_9 
REMARK    2  A    between atoms: C6_6  and  O10_10 
REMARK    3  A    between atoms: C8_8  and  C9_9 
ROOT
HETATM    1  C1  UNL     1     -34.566  16.777  -1.034  1.00 20.00     0.012 C 
HETATM    2  C2  UNL     1     -34.089  16.264  -2.008  1.00 20.00    -0.117 C 
HETATM    3  C8  UNL     1     -33.502  15.638  -3.200  1.00 20.00     0.096 C 
ENDROOT
BRANCH   3   4
HETATM    4  C9  UNL     1     -34.094  14.258  -3.414  1.00 20.00     0.050 C 
BRANCH   4   5
HETATM    5  C6  UNL     1     -34.996  14.240  -4.646  1.00 20.00     0.068 C 
HETATM    6  C3  UNL     1     -34.519  15.232  -5.711  1.00 20.00     0.053 C 
HETATM    7  C5  UNL     1     -35.620  15.396  -6.762  1.00 20.00     0.046 C 
HETATM    8  C7  UNL     1     -35.543  14.388  -7.901  1.00 20.00     0.021 C 
HETATM    9  S11 UNL     1     -37.182  15.205  -5.847  1.00 20.00    -0.162 SA
HETATM   10  C4  UNL     1     -36.428  14.635  -4.293  1.00 20.00     0.112 C 
BRANCH   5  11
HETATM   11  O10 UNL     1     -34.996  12.909  -5.160  1.00 20.00    -0.389 OA
HETATM   12  H25 UNL     1     -34.119  12.764  -5.548  1.00 20.00     0.210 HD
ENDBRANCH   5  11
ENDBRANCH   4   5
ENDBRANCH   3   4
TORSDOF 3
ENDMDL
MODEL 3
REMARK VINA RESULT:      -4.4      2.005      2.499
REMARK  3 active torsions:
REMARK  status: ('A' for Active; 'I' for Inactive)
REMARK    1  A    between atoms: C6_6  and  C9_9 
REMARK    2  A    between atoms: C6_6  and  O10_10 
REMARK    3  A    between atoms: C8_8  and  C9_9 
ROOT
HETATM    1  C1  UNL     1     -35.285  17.749   1.552  1.00 20.00     0.012 C 
HETATM    2  C2  UNL     1     -34.952  17.299   0.489  1.00 20.00    -0.117 C 
HETATM    3  C8  UNL     1     -34.543  16.747  -0.808  1.00 20.00     0.096 C 
ENDROOT
BRANCH   3   4
HETATM    4  C9  UNL     1     -35.516  17.172  -1.891  1.00 20.00     0.050 C 
BRANCH   4   5
HETATM    5  C6  UNL     1     -35.520  16.170  -3.043  1.00 20.00     0.068 C 
HETATM    6  C3  UNL     1     -34.251  15.311  -3.049  1.00 20.00     0.053 C 
HETATM    7  C5  UNL     1     -34.166  14.563  -4.381  1.00 20.00     0.046 C 
HETATM    8  C7  UNL     1     -34.880  13.218  -4.382  1.00 20.00     0.021 C 
HETATM    9  S11 UNL     1     -34.920  15.684  -5.603  1.00 20.00    -0.162 SA
HETATM   10  C4  UNL     1     -35.574  16.876  -4.395  1.00 20.00     0.112 C 
BRANCH   5  11
HETATM   11  O10 UNL     1     -36.680  15.353  -2.899  1.00 20.00    -0.389 OA
HETATM   12  H25 UNL     1     -37.289  15.840  -2.323  1.00 20.00     0.210 HD
ENDBRANCH   5  11
ENDBRANCH   4   5
ENDBRANCH   3   4
TORSDOF 3
ENDMDL
MODEL 4
REMARK VINA RESULT:      -4.3      2.075      2.553
REMARK  3 active torsions:
REMARK  status: ('A' for Active; 'I' for Inactive)
REMARK    1  A    between atoms: C6_6  and  C9_9 
REMARK    2  A    between atoms: C6_6  and  O10_10 
REMARK    3  A    between atoms: C8_8  and  C9_9 
ROOT
HETATM    1  C1  UNL     1     -35.440  17.653   1.449  1.00 20.00     0.012 C 
HETATM    2  C2  UNL     1     -34.823  17.524   0.427  1.00 20.00    -0.117 C 
HETATM    3  C8  UNL     1     -34.066  17.368  -0.821  1.00 20.00     0.096 C 
ENDROOT
BRANCH   3   4
HETATM    4  C9  UNL     1     -34.622  16.212  -1.632  1.00 20.00     0.050 C 
BRANCH   4   5
HETATM    5  C6  UNL     1     -34.580  16.527  -3.125  1.00 20.00     0.068 C 
HETATM    6  C3  UNL     1     -33.454  15.765  -3.833  1.00 20.00     0.053 C 
HETATM    7  C5  UNL     1     -33.264  16.353  -5.233  1.00 20.00     0.046 C 
HETATM    8  C7  UNL     1     -34.145  15.713  -6.298  1.00 20.00     0.021 C 
HETATM    9  S11 UNL     1     -33.657  18.124  -5.062  1.00 20.00    -0.162 SA
HETATM   10  C4  UNL     1     -34.325  18.011  -3.373  1.00 20.00     0.112 C 
BRANCH   5  11
HETATM   11  O10 UNL     1     -35.849  16.175  -3.674  1.00 20.00    -0.389 OA
HETATM   12  H25 UNL     1     -36.443  16.919  -3.492  1.00 20.00     0.210 HD
ENDBRANCH   5  11
ENDBRANCH   4   5
ENDBRANCH   3   4
TORSDOF 3
ENDMDL
MODEL 5
REMARK VINA RESULT:      -4.2      1.912      2.173
REMARK  3 active torsions:
REMARK  status: ('A' for Active; 'I' for Inactive)
REMARK    1  A    between atoms: C6_6  and  C9_9 
REMARK    2  A    between atoms: C6_6  and  O10_10 
REMARK    3  A    between atoms: C8_8  and  C9_9 
ROOT
HETATM    1  C1  UNL     1     -34.792  17.392   0.286  1.00 20.00     0.012 C 
HETATM    2  C2  UNL     1     -34.447  17.010  -0.799  1.00 20.00    -0.117 C 
HETATM    3  C8  UNL     1     -34.023  16.546  -2.126  1.00 20.00     0.096 C 
ENDROOT
BRANCH   3   4
HETATM    4  C9  UNL     1     -34.798  15.303  -2.520  1.00 20.00     0.050 C 
BRANCH   4   5
HETATM    5  C6  UNL     1     -35.232  15.375  -3.983  1.00 20.00     0.068 C 
HETATM    6  C3  UNL     1     -34.041  15.223  -4.934  1.00 20.00     0.053 C 
HETATM    7  C5  UNL     1     -34.483  15.616  -6.346  1.00 20.00     0.046 C 
HETATM    8  C7  UNL     1     -35.066  14.465  -7.154  1.00 20.00     0.021 C 
HETATM    9  S11 UNL     1     -35.730  16.922  -6.107  1.00 20.00    -0.162 SA
HETATM   10  C4  UNL     1     -35.878  16.720  -4.305  1.00 20.00     0.112 C 
BRANCH   5  11
HETATM   11  O10 UNL     1     -36.186  14.337  -4.200  1.00 20.00    -0.389 OA
HETATM   12  H25 UNL     1     -36.316  13.900  -3.345  1.00 20.00     0.210 HD
ENDBRANCH   5  11
ENDBRANCH   4   5
ENDBRANCH   3   4
TORSDOF 3
ENDMDL
MODEL 6
REMARK VINA RESULT:      -4.1     13.619     15.041
REMARK  3 active torsions:
REMARK  status: ('A' for Active; 'I' for Inactive)
REMARK    1  A    between atoms: C6_6  and  C9_9 
REMARK    2  A    between atoms: C6_6  and  O10_10 
REMARK    3  A    between atoms: C8_8  and  C9_9 
ROOT
HETATM    1  C1  UNL     1     -41.640  -0.160  -4.123  1.00 20.00     0.012 C 
HETATM    2  C2  UNL     1     -41.522   0.990  -3.800  1.00 20.00    -0.117 C 
HETATM    3  C8  UNL     1     -41.373   2.398  -3.408  1.00 20.00     0.096 C 
ENDROOT
BRANCH   3   4
HETATM    4  C9  UNL     1     -42.712   2.969  -2.985  1.00 20.00     0.050 C 
BRANCH   4   5
HETATM    5  C6  UNL     1     -42.522   4.164  -2.052  1.00 20.00     0.068 C 
HETATM    6  C3  UNL     1     -41.080   4.262  -1.546  1.00 20.00     0.053 C 
HETATM    7  C5  UNL     1     -41.029   5.265  -0.391  1.00 20.00     0.046 C 
HETATM    8  C7  UNL     1     -40.799   6.704  -0.831  1.00 20.00     0.021 C 
HETATM    9  S11 UNL     1     -42.637   5.105   0.449  1.00 20.00    -0.162 SA
HETATM   10  C4  UNL     1     -43.411   4.051  -0.816  1.00 20.00     0.112 C 
BRANCH   5  11
HETATM   11  O10 UNL     1     -42.883   5.338  -2.778  1.00 20.00    -0.389 OA
HETATM   12  H25 UNL     1     -42.859   6.071  -2.144  1.00 20.00     0.210 HD
ENDBRANCH   5  11
ENDBRANCH   4   5
ENDBRANCH   3   4
TORSDOF 3
ENDMDL
MODEL 7
REMARK VINA RESULT:      -4.0      1.729      2.081
REMARK  3 active torsions:
REMARK  status: ('A' for Active; 'I' for Inactive)
REMARK    1  A    between atoms: C6_6  and  C9_9 
REMARK    2  A    between atoms: C6_6  and  O10_10 
REMARK    3  A    between atoms: C8_8  and  C9_9 
ROOT
HETATM    1  C1  UNL     1     -34.791  17.010  -0.364  1.00 20.00     0.012 C 
HETATM    2  C2  UNL     1     -34.394  16.566  -1.406  1.00 20.00    -0.117 C 
HETATM    3  C8  UNL     1     -33.903  16.024  -2.680  1.00 20.00     0.096 C 
ENDROOT
BRANCH   3   4
HETATM    4  C9  UNL     1     -34.905  15.040  -3.252  1.00 20.00     0.050 C 
BRANCH   4   5
HETATM    5  C6  UNL     1     -35.231  15.380  -4.705  1.00 20.00     0.068 C 
HETATM    6  C3  UNL     1     -36.726  15.221  -5.001  1.00 20.00     0.053 C 
HETATM    7  C5  UNL     1     -36.937  15.265  -6.516  1.00 20.00     0.046 C 
HETATM    8  C7  UNL     1     -37.143  16.668  -7.072  1.00 20.00     0.021 C 
HETATM    9  S11 UNL     1     -35.438  14.513  -7.226  1.00 20.00    -0.162 SA
HETATM   10  C4  UNL     1     -34.495  14.456  -5.671  1.00 20.00     0.112 C 
BRANCH   5  11
HETATM   11  O10 UNL     1     -34.812  16.724  -4.936  1.00 20.00    -0.389 OA
HETATM   12  H25 UNL     1     -34.213  16.698  -5.698  1.00 20.00     0.210 HD
ENDBRANCH   5  11
ENDBRANCH   4   5
ENDBRANCH   3   4
TORSDOF 3
ENDMDL
MODEL 8
REMARK VINA RESULT:      -4.0      2.711      5.070
REMARK  3 active torsions:
REMARK  status: ('A' for Active; 'I' for Inactive)
REMARK    1  A    between atoms: C6_6  and  C9_9 
REMARK    2  A    between atoms: C6_6  and  O10_10 
REMARK    3  A    between atoms: C8_8  and  C9_9 
ROOT
HETATM    1  C1  UNL     1     -34.614  13.309  -4.488  1.00 20.00     0.012 C 
HETATM    2  C2  UNL     1     -34.060  14.227  -3.947  1.00 20.00    -0.117 C 
HETATM    3  C8  UNL     1     -33.379  15.347  -3.286  1.00 20.00     0.096 C 
ENDROOT
BRANCH   3   4
HETATM    4  C9  UNL     1     -34.045  16.659  -3.656  1.00 20.00     0.050 C 
BRANCH   4   5
HETATM    5  C6  UNL     1     -34.382  17.469  -2.406  1.00 20.00     0.068 C 
HETATM    6  C3  UNL     1     -34.371  16.596  -1.147  1.00 20.00     0.053 C 
HETATM    7  C5  UNL     1     -35.015  17.377   0.002  1.00 20.00     0.046 C 
HETATM    8  C7  UNL     1     -34.036  18.238   0.789  1.00 20.00     0.021 C 
HETATM    9  S11 UNL     1     -36.287  18.416  -0.785  1.00 20.00    -0.162 SA
HETATM   10  C4  UNL     1     -35.777  18.082  -2.499  1.00 20.00     0.112 C 
BRANCH   5  11
HETATM   11  O10 UNL     1     -33.420  18.517  -2.300  1.00 20.00    -0.389 OA
HETATM   12  H25 UNL     1     -32.549  18.100  -2.384  1.00 20.00     0.210 HD
ENDBRANCH   5  11
ENDBRANCH   4   5
ENDBRANCH   3   4
TORSDOF 3
ENDMDL
MODEL 9
REMARK VINA RESULT:      -3.9     14.247     15.169
REMARK  3 active torsions:
REMARK  status: ('A' for Active; 'I' for Inactive)
REMARK    1  A    between atoms: C6_6  and  C9_9 
REMARK    2  A    between atoms: C6_6  and  O10_10 
REMARK    3  A    between atoms: C8_8  and  C9_9 
ROOT
HETATM    1  C1  UNL     1     -40.769   6.146   0.057  1.00 20.00     0.012 C 
HETATM    2  C2  UNL     1     -40.827   5.205  -0.686  1.00 20.00    -0.117 C 
HETATM    3  C8  UNL     1     -40.894   4.052  -1.593  1.00 20.00     0.096 C 
ENDROOT
BRANCH   3   4
HETATM    4  C9  UNL     1     -42.136   4.137  -2.460  1.00 20.00     0.050 C 
BRANCH   4   5
HETATM    5  C6  UNL     1     -42.490   2.769  -3.039  1.00 20.00     0.068 C 
HETATM    6  C3  UNL     1     -41.243   2.022  -3.524  1.00 20.00     0.053 C 
HETATM    7  C5  UNL     1     -41.683   0.822  -4.367  1.00 20.00     0.046 C 
HETATM    8  C7  UNL     1     -41.928  -0.445  -3.559  1.00 20.00     0.021 C 
HETATM    9  S11 UNL     1     -43.216   1.358  -5.192  1.00 20.00    -0.162 SA
HETATM   10  C4  UNL     1     -43.417   2.899  -4.245  1.00 20.00     0.112 C 
BRANCH   5  11
HETATM   11  O10 UNL     1     -43.156   2.029  -2.018  1.00 20.00    -0.389 OA
HETATM   12  H25 UNL     1     -42.639   1.220  -1.884  1.00 20.00     0.210 HD
ENDBRANCH   5  11
ENDBRANCH   4   5
ENDBRANCH   3   4
TORSDOF 3
ENDMDL
