MODEL 1
REMARK VINA RESULT:      -3.9      0.000      0.000
REMARK  1 active torsions:
REMARK  status: ('A' for Active; 'I' for Inactive)
REMARK    1  A    between atoms: C4_4  and  S9_9 
ROOT
HETATM    1  C1  UNL     1     -34.968  14.014  -3.814  1.00 20.00     0.020 C 
HETATM    2  C2  UNL     1     -34.743  13.312  -5.148  1.00 20.00     0.075 C 
HETATM    3  C3  UNL     1     -34.306  15.831  -6.174  1.00 20.00     0.089 C 
HETATM    4  C4  UNL     1     -34.559  16.349  -4.753  1.00 20.00     0.061 C 
HETATM    5  C5  UNL     1     -34.182  15.341  -3.618  1.00 20.00    -0.034 C 
HETATM    6  C6  UNL     1     -32.668  15.037  -3.559  1.00 20.00     0.016 C 
HETATM    7  C7  UNL     1     -34.598  15.905  -2.236  1.00 20.00     0.016 C 
HETATM    8  S8  UNL     1     -35.274  14.339  -6.541  1.00 20.00    -0.168 SA
ENDROOT
BRANCH   4   9
HETATM    9  S9  UNL     1     -33.703  17.975  -4.611  1.00 20.00    -0.176 SA
HETATM   10  H23 UNL     1     -33.605  17.932  -3.279  1.00 20.00     0.102 HD
ENDBRANCH   4   9
TORSDOF 1
ENDMDL
MODEL 2
REMARK VINA RESULT:      -3.5      1.054      3.144
REMARK  1 active torsions:
REMARK  status: ('A' for Active; 'I' for Inactive)
REMARK    1  A    between atoms: C4_4  and  S9_9 
ROOT
HETATM    1  C1  UNL     1     -33.611  15.944  -2.995  1.00 20.00     0.020 C 
HETATM    2  C2  UNL     1     -33.981  17.422  -3.040  1.00 20.00     0.075 C 
HETATM    3  C3  UNL     1     -34.701  16.958  -5.658  1.00 20.00     0.089 C 
HETATM    4  C4  UNL     1     -34.281  15.503  -5.415  1.00 20.00     0.061 C 
HETATM    5  C5  UNL     1     -34.436  15.021  -3.936  1.00 20.00    -0.034 C 
HETATM    6  C6  UNL     1     -35.907  14.990  -3.462  1.00 20.00     0.016 C 
HETATM    7  C7  UNL     1     -33.863  13.591  -3.771  1.00 20.00     0.016 C 
HETATM    8  S8  UNL     1     -33.711  18.128  -4.684  1.00 20.00    -0.168 SA
ENDROOT
BRANCH   4   9
HETATM    9  S9  UNL     1     -35.200  14.467  -6.631  1.00 20.00    -0.176 SA
HETATM   10  H23 UNL     1     -34.156  13.685  -6.921  1.00 20.00     0.102 HD
ENDBRANCH   4   9
TORSDOF 1
ENDMDL
MODEL 3
REMARK VINA RESULT:      -3.5      1.763      2.427
REMARK  1 active torsions:
REMARK  status: ('A' for Active; 'I' for Inactive)
REMARK    1  A    between atoms: C4_4  and  S9_9 
ROOT
HETATM    1  C1  UNL     1     -34.413  14.159  -4.898  1.00 20.00     0.020 C 
HETATM    2  C2  UNL     1     -35.799  14.493  -5.435  1.00 20.00     0.075 C 
HETATM    3  C3  UNL     1     -36.097  16.014  -3.158  1.00 20.00     0.089 C 
HETATM    4  C4  UNL     1     -34.676  15.569  -2.789  1.00 20.00     0.061 C 
HETATM    5  C5  UNL     1     -33.756  15.258  -4.015  1.00 20.00    -0.034 C 
HETATM    6  C6  UNL     1     -33.463  16.504  -4.881  1.00 20.00     0.016 C 
HETATM    7  C7  UNL     1     -32.395  14.691  -3.538  1.00 20.00     0.016 C 
HETATM    8  S8  UNL     1     -36.991  14.743  -4.097  1.00 20.00    -0.168 SA
ENDROOT
BRANCH   4   9
HETATM    9  S9  UNL     1     -33.988  16.846  -1.653  1.00 20.00    -0.176 SA
HETATM   10  H23 UNL     1     -33.129  16.013  -1.059  1.00 20.00     0.102 HD
ENDBRANCH   4   9
TORSDOF 1
ENDMDL
MODEL 4
REMARK VINA RESULT:      -3.5      1.687      3.026
REMARK  1 active torsions:
REMARK  status: ('A' for Active; 'I' for Inactive)
REMARK    1  A    between atoms: C4_4  and  S9_9 
ROOT
HETATM    1  C1  UNL     1     -33.329  15.850  -4.487  1.00 20.00     0.020 C 
HETATM    2  C2  UNL     1     -33.407  17.340  -4.797  1.00 20.00     0.075 C 
HETATM    3  C3  UNL     1     -36.129  16.955  -4.983  1.00 20.00     0.089 C 
HETATM    4  C4  UNL     1     -35.847  15.484  -4.650  1.00 20.00     0.061 C 
HETATM    5  C5  UNL     1     -34.573  15.250  -3.774  1.00 20.00    -0.034 C 
HETATM    6  C6  UNL     1     -34.696  15.859  -2.358  1.00 20.00     0.016 C 
HETATM    7  C7  UNL     1     -34.304  13.734  -3.608  1.00 20.00     0.016 C 
HETATM    8  S8  UNL     1     -34.774  17.716  -5.923  1.00 20.00    -0.168 SA
ENDROOT
BRANCH   4   9
HETATM    9  S9  UNL     1     -37.389  14.793  -3.915  1.00 20.00    -0.176 SA
HETATM   10  H23 UNL     1     -37.911  15.986  -3.613  1.00 20.00     0.102 HD
ENDBRANCH   4   9
TORSDOF 1
ENDMDL
MODEL 5
REMARK VINA RESULT:      -3.5      1.876      3.127
REMARK  1 active torsions:
REMARK  status: ('A' for Active; 'I' for Inactive)
REMARK    1  A    between atoms: C4_4  and  S9_9 
ROOT
HETATM    1  C1  UNL     1     -34.748  13.609  -5.293  1.00 20.00     0.020 C 
HETATM    2  C2  UNL     1     -34.399  13.864  -3.832  1.00 20.00     0.075 C 
HETATM    3  C3  UNL     1     -33.668  16.390  -4.654  1.00 20.00     0.089 C 
HETATM    4  C4  UNL     1     -34.080  15.947  -6.063  1.00 20.00     0.061 C 
HETATM    5  C5  UNL     1     -35.204  14.859  -6.098  1.00 20.00    -0.034 C 
HETATM    6  C6  UNL     1     -36.552  15.366  -5.538  1.00 20.00     0.016 C 
HETATM    7  C7  UNL     1     -35.451  14.386  -7.553  1.00 20.00     0.016 C 
HETATM    8  S8  UNL     1     -33.010  15.013  -3.669  1.00 20.00    -0.168 SA
ENDROOT
BRANCH   4   9
HETATM    9  S9  UNL     1     -34.499  17.472  -7.007  1.00 20.00    -0.176 SA
HETATM   10  H23 UNL     1     -34.821  18.187  -5.925  1.00 20.00     0.102 HD
ENDBRANCH   4   9
TORSDOF 1
ENDMDL
MODEL 6
REMARK VINA RESULT:      -3.4      1.529      2.743
REMARK  1 active torsions:
REMARK  status: ('A' for Active; 'I' for Inactive)
REMARK    1  A    between atoms: C4_4  and  S9_9 
ROOT
HETATM    1  C1  UNL     1     -34.268  15.654  -6.221  1.00 20.00     0.020 C 
HETATM    2  C2  UNL     1     -35.069  14.359  -6.174  1.00 20.00     0.075 C 
HETATM    3  C3  UNL     1     -34.699  14.464  -3.446  1.00 20.00     0.089 C 
HETATM    4  C4  UNL     1     -33.925  15.764  -3.697  1.00 20.00     0.061 C 
HETATM    5  C5  UNL     1     -34.386  16.559  -4.962  1.00 20.00    -0.034 C 
HETATM    6  C6  UNL     1     -35.833  17.090  -4.847  1.00 20.00     0.016 C 
HETATM    7  C7  UNL     1     -33.460  17.778  -5.201  1.00 20.00     0.016 C 
HETATM    8  S8  UNL     1     -34.526  13.288  -4.819  1.00 20.00    -0.168 SA
ENDROOT
BRANCH   4   9
HETATM    9  S9  UNL     1     -34.000  16.745  -2.139  1.00 20.00    -0.176 SA
HETATM   10  H23 UNL     1     -33.241  17.743  -2.601  1.00 20.00     0.102 HD
ENDBRANCH   4   9
TORSDOF 1
ENDMDL
MODEL 7
REMARK VINA RESULT:      -3.4     11.429     13.050
REMARK  1 active torsions:
REMARK  status: ('A' for Active; 'I' for Inactive)
REMARK    1  A    between atoms: C4_4  and  S9_9 
ROOT
HETATM    1  C1  UNL     1     -41.108   6.698  -1.022  1.00 20.00     0.020 C 
HETATM    2  C2  UNL     1     -42.087   7.855  -1.179  1.00 20.00     0.075 C 
HETATM    3  C3  UNL     1     -43.413   6.229  -2.965  1.00 20.00     0.089 C 
HETATM    4  C4  UNL     1     -42.332   5.183  -2.668  1.00 20.00     0.061 C 
HETATM    5  C5  UNL     1     -41.710   5.280  -1.237  1.00 20.00    -0.034 C 
HETATM    6  C6  UNL     1     -42.730   4.981  -0.114  1.00 20.00     0.016 C 
HETATM    7  C7  UNL     1     -40.542   4.273  -1.086  1.00 20.00     0.016 C 
HETATM    8  S8  UNL     1     -42.774   7.925  -2.852  1.00 20.00    -0.168 SA
ENDROOT
BRANCH   4   9
HETATM    9  S9  UNL     1     -43.059   3.533  -3.048  1.00 20.00    -0.176 SA
HETATM   10  H23 UNL     1     -44.259   4.016  -3.383  1.00 20.00     0.102 HD
ENDBRANCH   4   9
TORSDOF 1
ENDMDL
MODEL 8
REMARK VINA RESULT:      -3.3      1.837      3.585
REMARK  1 active torsions:
REMARK  status: ('A' for Active; 'I' for Inactive)
REMARK    1  A    between atoms: C4_4  and  S9_9 
ROOT
HETATM    1  C1  UNL     1     -33.880  15.594  -5.414  1.00 20.00     0.020 C 
HETATM    2  C2  UNL     1     -33.089  15.819  -4.132  1.00 20.00     0.075 C 
HETATM    3  C3  UNL     1     -35.535  15.846  -2.863  1.00 20.00     0.089 C 
HETATM    4  C4  UNL     1     -36.149  15.612  -4.249  1.00 20.00     0.061 C 
HETATM    5  C5  UNL     1     -35.227  14.834  -5.244  1.00 20.00    -0.034 C 
HETATM    6  C6  UNL     1     -34.942  13.383  -4.794  1.00 20.00     0.016 C 
HETATM    7  C7  UNL     1     -35.881  14.768  -6.647  1.00 20.00     0.016 C 
HETATM    8  S8  UNL     1     -34.011  16.830  -2.947  1.00 20.00    -0.168 SA
ENDROOT
BRANCH   4   9
HETATM    9  S9  UNL     1     -37.789  14.815  -3.984  1.00 20.00    -0.176 SA
HETATM   10  H23 UNL     1     -37.595  13.857  -4.896  1.00 20.00     0.102 HD
ENDBRANCH   4   9
TORSDOF 1
ENDMDL
MODEL 9
REMARK VINA RESULT:      -3.3      2.078      2.750
REMARK  1 active torsions:
REMARK  status: ('A' for Active; 'I' for Inactive)
REMARK    1  A    between atoms: C4_4  and  S9_9 
ROOT
HETATM    1  C1  UNL     1     -33.516  15.884  -2.946  1.00 20.00     0.020 C 
HETATM    2  C2  UNL     1     -33.239  16.035  -4.436  1.00 20.00     0.075 C 
HETATM    3  C3  UNL     1     -35.726  17.213  -4.577  1.00 20.00     0.089 C 
HETATM    4  C4  UNL     1     -35.817  16.978  -3.064  1.00 20.00     0.061 C 
HETATM    5  C5  UNL     1     -34.439  16.971  -2.325  1.00 20.00    -0.034 C 
HETATM    6  C6  UNL     1     -33.722  18.340  -2.372  1.00 20.00     0.016 C 
HETATM    7  C7  UNL     1     -34.629  16.595  -0.834  1.00 20.00     0.016 C 
HETATM    8  S8  UNL     1     -34.759  15.923  -5.413  1.00 20.00    -0.168 SA
ENDROOT
BRANCH   4   9
HETATM    9  S9  UNL     1     -37.008  18.216  -2.397  1.00 20.00    -0.176 SA
HETATM   10  H23 UNL     1     -38.096  17.532  -2.767  1.00 20.00     0.102 HD
ENDBRANCH   4   9
TORSDOF 1
ENDMDL
