MODEL 1
REMARK VINA RESULT:      -4.8      0.000      0.000
REMARK  0 active torsions:
REMARK  status: ('A' for Active; 'I' for Inactive)
ROOT
HETATM    1  C1  UNL     1     -37.113  14.387  -4.104  1.00 20.00     0.067 C 
HETATM    2  C2  UNL     1     -34.727  13.813  -3.905  1.00 20.00     0.059 C 
HETATM    3  C3  UNL     1     -35.869  14.137  -4.855  1.00 20.00     0.129 C 
HETATM    4  C4  UNL     1     -34.081  15.172  -3.613  1.00 20.00     0.056 C 
HETATM    5  C5  UNL     1     -35.329  15.366  -5.608  1.00 20.00     0.071 C 
HETATM    6  C6  UNL     1     -34.594  15.796  -2.313  1.00 20.00     0.045 C 
HETATM    7  C7  UNL     1     -32.556  15.075  -3.568  1.00 20.00     0.045 C 
HETATM    8  C8  UNL     1     -34.481  14.936  -6.816  1.00 20.00     0.047 C 
HETATM    9  C9  UNL     1     -36.389  16.361  -6.084  1.00 20.00     0.047 C 
HETATM   10  N10 UNL     1     -38.092  14.584  -3.514  1.00 20.00    -0.197 NA
HETATM   11  O11 UNL     1     -34.450  16.051  -4.692  1.00 20.00    -0.369 OA
ENDROOT
TORSDOF 0
ENDMDL
MODEL 2
REMARK VINA RESULT:      -4.6      1.903      2.840
REMARK  0 active torsions:
REMARK  status: ('A' for Active; 'I' for Inactive)
ROOT
HETATM    1  C1  UNL     1     -34.460  13.648  -4.369  1.00 20.00     0.067 C 
HETATM    2  C2  UNL     1     -34.925  15.509  -2.825  1.00 20.00     0.059 C 
HETATM    3  C3  UNL     1     -34.079  15.021  -3.990  1.00 20.00     0.129 C 
HETATM    4  C4  UNL     1     -36.120  16.202  -3.490  1.00 20.00     0.056 C 
HETATM    5  C5  UNL     1     -34.370  16.077  -5.070  1.00 20.00     0.071 C 
HETATM    6  C6  UNL     1     -37.338  15.283  -3.607  1.00 20.00     0.045 C 
HETATM    7  C7  UNL     1     -36.513  17.482  -2.752  1.00 20.00     0.045 C 
HETATM    8  C8  UNL     1     -33.427  17.283  -4.923  1.00 20.00     0.047 C 
HETATM    9  C9  UNL     1     -34.301  15.576  -6.514  1.00 20.00     0.047 C 
HETATM   10  N10 UNL     1     -34.759  12.568  -4.668  1.00 20.00    -0.197 NA
HETATM   11  O11 UNL     1     -35.710  16.553  -4.825  1.00 20.00    -0.369 OA
ENDROOT
TORSDOF 0
ENDMDL
MODEL 3
REMARK VINA RESULT:      -4.6      1.693      3.485
REMARK  0 active torsions:
REMARK  status: ('A' for Active; 'I' for Inactive)
ROOT
HETATM    1  C1  UNL     1     -34.886  13.594  -4.438  1.00 20.00     0.067 C 
HETATM    2  C2  UNL     1     -35.672  15.906  -4.752  1.00 20.00     0.059 C 
HETATM    3  C3  UNL     1     -34.950  14.936  -3.831  1.00 20.00     0.129 C 
HETATM    4  C4  UNL     1     -34.556  16.525  -5.600  1.00 20.00     0.056 C 
HETATM    5  C5  UNL     1     -33.579  15.613  -3.654  1.00 20.00     0.071 C 
HETATM    6  C6  UNL     1     -34.392  15.825  -6.952  1.00 20.00     0.045 C 
HETATM    7  C7  UNL     1     -34.777  18.021  -5.822  1.00 20.00     0.045 C 
HETATM    8  C8  UNL     1     -33.620  16.633  -2.504  1.00 20.00     0.047 C 
HETATM    9  C9  UNL     1     -32.403  14.662  -3.423  1.00 20.00     0.047 C 
HETATM   10  N10 UNL     1     -34.836  12.538  -4.916  1.00 20.00    -0.197 NA
HETATM   11  O11 UNL     1     -33.328  16.350  -4.868  1.00 20.00    -0.369 OA
ENDROOT
TORSDOF 0
ENDMDL
MODEL 4
REMARK VINA RESULT:      -4.6      1.731      2.194
REMARK  0 active torsions:
REMARK  status: ('A' for Active; 'I' for Inactive)
ROOT
HETATM    1  C1  UNL     1     -34.578  13.783  -4.832  1.00 20.00     0.067 C 
HETATM    2  C2  UNL     1     -33.301  15.820  -4.297  1.00 20.00     0.059 C 
HETATM    3  C3  UNL     1     -34.157  15.105  -5.331  1.00 20.00     0.129 C 
HETATM    4  C4  UNL     1     -34.305  16.635  -3.475  1.00 20.00     0.056 C 
HETATM    5  C5  UNL     1     -35.314  16.097  -5.541  1.00 20.00     0.071 C 
HETATM    6  C6  UNL     1     -34.731  15.916  -2.193  1.00 20.00     0.045 C 
HETATM    7  C7  UNL     1     -33.759  18.020  -3.128  1.00 20.00     0.045 C 
HETATM    8  C8  UNL     1     -34.948  17.145  -6.606  1.00 20.00     0.047 C 
HETATM    9  C9  UNL     1     -36.657  15.469  -5.915  1.00 20.00     0.047 C 
HETATM   10  N10 UNL     1     -34.909  12.743  -4.439  1.00 20.00    -0.197 NA
HETATM   11  O11 UNL     1     -35.479  16.800  -4.292  1.00 20.00    -0.369 OA
ENDROOT
TORSDOF 0
ENDMDL
MODEL 5
REMARK VINA RESULT:      -4.5      1.368      2.738
REMARK  0 active torsions:
REMARK  status: ('A' for Active; 'I' for Inactive)
ROOT
HETATM    1  C1  UNL     1     -36.613  14.759  -3.628  1.00 20.00     0.067 C 
HETATM    2  C2  UNL     1     -35.141  16.731  -3.740  1.00 20.00     0.059 C 
HETATM    3  C3  UNL     1     -35.246  15.256  -3.385  1.00 20.00     0.129 C 
HETATM    4  C4  UNL     1     -34.702  16.736  -5.208  1.00 20.00     0.056 C 
HETATM    5  C5  UNL     1     -34.175  14.624  -4.292  1.00 20.00     0.071 C 
HETATM    6  C6  UNL     1     -35.883  16.891  -6.170  1.00 20.00     0.045 C 
HETATM    7  C7  UNL     1     -33.668  17.827  -5.485  1.00 20.00     0.045 C 
HETATM    8  C8  UNL     1     -32.795  14.663  -3.614  1.00 20.00     0.047 C 
HETATM    9  C9  UNL     1     -34.459  13.190  -4.742  1.00 20.00     0.047 C 
HETATM   10  N10 UNL     1     -37.688  14.369  -3.820  1.00 20.00    -0.197 NA
HETATM   11  O11 UNL     1     -34.095  15.456  -5.468  1.00 20.00    -0.369 OA
ENDROOT
TORSDOF 0
ENDMDL
MODEL 6
REMARK VINA RESULT:      -4.5      2.089      3.052
REMARK  0 active torsions:
REMARK  status: ('A' for Active; 'I' for Inactive)
ROOT
HETATM    1  C1  UNL     1     -34.424  13.526  -4.834  1.00 20.00     0.067 C 
HETATM    2  C2  UNL     1     -34.363  15.013  -6.796  1.00 20.00     0.059 C 
HETATM    3  C3  UNL     1     -35.232  14.141  -5.903  1.00 20.00     0.129 C 
HETATM    4  C4  UNL     1     -34.445  16.405  -6.161  1.00 20.00     0.056 C 
HETATM    5  C5  UNL     1     -36.288  15.140  -5.399  1.00 20.00     0.071 C 
HETATM    6  C6  UNL     1     -33.265  16.694  -5.230  1.00 20.00     0.045 C 
HETATM    7  C7  UNL     1     -34.545  17.503  -7.219  1.00 20.00     0.045 C 
HETATM    8  C8  UNL     1     -37.458  15.244  -6.392  1.00 20.00     0.047 C 
HETATM    9  C9  UNL     1     -36.853  14.851  -4.007  1.00 20.00     0.047 C 
HETATM   10  N10 UNL     1     -33.789  13.042  -3.993  1.00 20.00    -0.197 NA
HETATM   11  O11 UNL     1     -35.645  16.430  -5.363  1.00 20.00    -0.369 OA
ENDROOT
TORSDOF 0
ENDMDL
MODEL 7
REMARK VINA RESULT:      -4.3      2.500      3.783
REMARK  0 active torsions:
REMARK  status: ('A' for Active; 'I' for Inactive)
ROOT
HETATM    1  C1  UNL     1     -33.571  17.877  -4.944  1.00 20.00     0.067 C 
HETATM    2  C2  UNL     1     -33.055  15.590  -4.189  1.00 20.00     0.059 C 
HETATM    3  C3  UNL     1     -33.542  16.972  -3.780  1.00 20.00     0.129 C 
HETATM    4  C4  UNL     1     -34.337  14.827  -4.540  1.00 20.00     0.056 C 
HETATM    5  C5  UNL     1     -34.927  16.667  -3.183  1.00 20.00     0.071 C 
HETATM    6  C6  UNL     1     -34.634  14.843  -6.042  1.00 20.00     0.045 C 
HETATM    7  C7  UNL     1     -34.289  13.383  -4.043  1.00 20.00     0.045 C 
HETATM    8  C8  UNL     1     -34.811  16.296  -1.695  1.00 20.00     0.047 C 
HETATM    9  C9  UNL     1     -35.964  17.783  -3.330  1.00 20.00     0.047 C 
HETATM   10  N10 UNL     1     -33.594  18.589  -5.859  1.00 20.00    -0.197 NA
HETATM   11  O11 UNL     1     -35.422  15.502  -3.875  1.00 20.00    -0.369 OA
ENDROOT
TORSDOF 0
ENDMDL
MODEL 8
REMARK VINA RESULT:      -4.3      2.144      3.182
REMARK  0 active torsions:
REMARK  status: ('A' for Active; 'I' for Inactive)
ROOT
HETATM    1  C1  UNL     1     -34.313  16.292  -1.977  1.00 20.00     0.067 C 
HETATM    2  C2  UNL     1     -34.121  14.726  -3.868  1.00 20.00     0.059 C 
HETATM    3  C3  UNL     1     -35.028  15.285  -2.783  1.00 20.00     0.129 C 
HETATM    4  C4  UNL     1     -34.377  15.632  -5.078  1.00 20.00     0.056 C 
HETATM    5  C5  UNL     1     -36.204  15.849  -3.598  1.00 20.00     0.071 C 
HETATM    6  C6  UNL     1     -33.340  16.751  -5.199  1.00 20.00     0.045 C 
HETATM    7  C7  UNL     1     -34.425  14.835  -6.381  1.00 20.00     0.045 C 
HETATM    8  C8  UNL     1     -37.251  14.757  -3.874  1.00 20.00     0.047 C 
HETATM    9  C9  UNL     1     -36.910  17.058  -2.981  1.00 20.00     0.047 C 
HETATM   10  N10 UNL     1     -33.751  17.084  -1.344  1.00 20.00    -0.197 NA
HETATM   11  O11 UNL     1     -35.662  16.250  -4.873  1.00 20.00    -0.369 OA
ENDROOT
TORSDOF 0
ENDMDL
MODEL 9
REMARK VINA RESULT:      -4.2      1.485      2.409
REMARK  0 active torsions:
REMARK  status: ('A' for Active; 'I' for Inactive)
ROOT
HETATM    1  C1  UNL     1     -36.468  14.631  -3.556  1.00 20.00     0.067 C 
HETATM    2  C2  UNL     1     -35.051  16.147  -2.229  1.00 20.00     0.059 C 
HETATM    3  C3  UNL     1     -35.091  14.903  -3.104  1.00 20.00     0.129 C 
HETATM    4  C4  UNL     1     -34.778  17.291  -3.211  1.00 20.00     0.056 C 
HETATM    5  C5  UNL     1     -34.117  15.269  -4.237  1.00 20.00     0.071 C 
HETATM    6  C6  UNL     1     -36.060  18.002  -3.652  1.00 20.00     0.045 C 
HETATM    7  C7  UNL     1     -33.800  18.312  -2.632  1.00 20.00     0.045 C 
HETATM    8  C8  UNL     1     -32.671  14.918  -3.848  1.00 20.00     0.047 C 
HETATM    9  C9  UNL     1     -34.425  14.638  -5.596  1.00 20.00     0.047 C 
HETATM   10  N10 UNL     1     -37.551  14.416  -3.911  1.00 20.00    -0.197 NA
HETATM   11  O11 UNL     1     -34.181  16.703  -4.383  1.00 20.00    -0.369 OA
ENDROOT
TORSDOF 0
ENDMDL
