MODEL 1
REMARK VINA RESULT:      -4.0      0.000      0.000
REMARK  0 active torsions:
REMARK  status: ('A' for Active; 'I' for Inactive)
ROOT
HETATM    1  C1  UNL     1     -34.757  13.899  -5.024  1.00 20.00     0.086 C 
HETATM    2  C2  UNL     1     -33.601  16.107  -5.234  1.00 20.00     0.056 C 
HETATM    3  C3  UNL     1     -36.015  15.964  -5.615  1.00 20.00     0.115 C 
HETATM    4  C4  UNL     1     -34.059  16.776  -3.932  1.00 20.00     0.046 C 
HETATM    5  C5  UNL     1     -34.711  15.183  -5.742  1.00 20.00     0.135 C 
HETATM    6  C6  UNL     1     -33.668  16.014  -2.672  1.00 20.00     0.021 C 
HETATM    7  N7  UNL     1     -34.793  12.888  -4.458  1.00 20.00    -0.195 NA
HETATM    8  S8  UNL     1     -35.873  16.903  -4.063  1.00 20.00    -0.162 SA
HETATM    9 CL9  UNL     1     -34.418  14.764  -7.460  1.00 20.00    -0.102 Cl
ENDROOT
TORSDOF 0
ENDMDL
MODEL 2
REMARK VINA RESULT:      -4.0      2.056      2.508
REMARK  0 active torsions:
REMARK  status: ('A' for Active; 'I' for Inactive)
ROOT
HETATM    1  C1  UNL     1     -34.401  13.625  -4.479  1.00 20.00     0.086 C 
HETATM    2  C2  UNL     1     -34.732  15.522  -2.884  1.00 20.00     0.056 C 
HETATM    3  C3  UNL     1     -33.897  15.971  -5.141  1.00 20.00     0.115 C 
HETATM    4  C4  UNL     1     -36.011  16.140  -3.461  1.00 20.00     0.046 C 
HETATM    5  C5  UNL     1     -33.899  14.931  -4.025  1.00 20.00     0.135 C 
HETATM    6  C6  UNL     1     -37.196  15.183  -3.506  1.00 20.00     0.021 C 
HETATM    7  N7  UNL     1     -34.797  12.595  -4.836  1.00 20.00    -0.195 NA
HETATM    8  S8  UNL     1     -35.570  16.688  -5.143  1.00 20.00    -0.162 SA
HETATM    9 CL9  UNL     1     -32.221  14.637  -3.466  1.00 20.00    -0.102 Cl
ENDROOT
TORSDOF 0
ENDMDL
MODEL 3
REMARK VINA RESULT:      -4.0      1.919      2.149
REMARK  0 active torsions:
REMARK  status: ('A' for Active; 'I' for Inactive)
ROOT
HETATM    1  C1  UNL     1     -36.367  14.725  -3.851  1.00 20.00     0.086 C 
HETATM    2  C2  UNL     1     -33.950  14.699  -3.212  1.00 20.00     0.056 C 
HETATM    3  C3  UNL     1     -34.664  15.945  -5.194  1.00 20.00     0.115 C 
HETATM    4  C4  UNL     1     -33.809  16.112  -2.633  1.00 20.00     0.046 C 
HETATM    5  C5  UNL     1     -34.981  14.719  -4.344  1.00 20.00     0.135 C 
HETATM    6  C6  UNL     1     -34.736  16.397  -1.457  1.00 20.00     0.021 C 
HETATM    7  N7  UNL     1     -37.460  14.729  -3.463  1.00 20.00    -0.195 NA
HETATM    8  S8  UNL     1     -34.170  17.243  -4.017  1.00 20.00    -0.162 SA
HETATM    9 CL9  UNL     1     -34.827  13.235  -5.336  1.00 20.00    -0.102 Cl
ENDROOT
TORSDOF 0
ENDMDL
MODEL 4
REMARK VINA RESULT:      -3.8      2.397      3.208
REMARK  0 active torsions:
REMARK  status: ('A' for Active; 'I' for Inactive)
ROOT
HETATM    1  C1  UNL     1     -33.833  14.251  -3.680  1.00 20.00     0.086 C 
HETATM    2  C2  UNL     1     -35.773  15.676  -4.356  1.00 20.00     0.056 C 
HETATM    3  C3  UNL     1     -33.536  16.661  -4.223  1.00 20.00     0.115 C 
HETATM    4  C4  UNL     1     -35.508  15.797  -5.861  1.00 20.00     0.046 C 
HETATM    5  C5  UNL     1     -34.436  15.591  -3.615  1.00 20.00     0.135 C 
HETATM    6  C6  UNL     1     -35.465  14.461  -6.593  1.00 20.00     0.021 C 
HETATM    7  N7  UNL     1     -33.358  13.194  -3.732  1.00 20.00    -0.195 NA
HETATM    8  S8  UNL     1     -33.906  16.655  -6.006  1.00 20.00    -0.162 SA
HETATM    9 CL9  UNL     1     -34.682  15.925  -1.871  1.00 20.00    -0.102 Cl
ENDROOT
TORSDOF 0
ENDMDL
MODEL 5
REMARK VINA RESULT:      -3.7      2.862      3.616
REMARK  0 active torsions:
REMARK  status: ('A' for Active; 'I' for Inactive)
ROOT
HETATM    1  C1  UNL     1     -33.930  16.622  -4.347  1.00 20.00     0.086 C 
HETATM    2  C2  UNL     1     -34.330  14.438  -3.197  1.00 20.00     0.056 C 
HETATM    3  C3  UNL     1     -36.042  16.185  -3.104  1.00 20.00     0.115 C 
HETATM    4  C4  UNL     1     -35.331  13.801  -4.168  1.00 20.00     0.046 C 
HETATM    5  C5  UNL     1     -34.536  15.955  -3.184  1.00 20.00     0.135 C 
HETATM    6  C6  UNL     1     -34.803  13.641  -5.588  1.00 20.00     0.021 C 
HETATM    7  N7  UNL     1     -33.452  17.147  -5.264  1.00 20.00    -0.195 NA
HETATM    8  S8  UNL     1     -36.789  14.896  -4.149  1.00 20.00    -0.162 SA
HETATM    9 CL9  UNL     1     -33.735  16.667  -1.747  1.00 20.00    -0.102 Cl
ENDROOT
TORSDOF 0
ENDMDL
MODEL 6
REMARK VINA RESULT:      -3.7      2.136      2.959
REMARK  0 active torsions:
REMARK  status: ('A' for Active; 'I' for Inactive)
ROOT
HETATM    1  C1  UNL     1     -35.364  13.785  -4.457  1.00 20.00     0.086 C 
HETATM    2  C2  UNL     1     -36.278  15.653  -5.845  1.00 20.00     0.056 C 
HETATM    3  C3  UNL     1     -34.926  16.163  -3.870  1.00 20.00     0.115 C 
HETATM    4  C4  UNL     1     -35.004  16.097  -6.573  1.00 20.00     0.046 C 
HETATM    5  C5  UNL     1     -35.911  15.151  -4.446  1.00 20.00     0.135 C 
HETATM    6  C6  UNL     1     -34.349  14.999  -7.404  1.00 20.00     0.021 C 
HETATM    7  N7  UNL     1     -34.934  12.708  -4.466  1.00 20.00    -0.195 NA
HETATM    8  S8  UNL     1     -33.870  16.667  -5.264  1.00 20.00    -0.162 SA
HETATM    9 CL9  UNL     1     -37.378  15.077  -3.419  1.00 20.00    -0.102 Cl
ENDROOT
TORSDOF 0
ENDMDL
MODEL 7
REMARK VINA RESULT:      -3.7      2.147      2.720
REMARK  0 active torsions:
REMARK  status: ('A' for Active; 'I' for Inactive)
ROOT
HETATM    1  C1  UNL     1     -35.571  13.816  -4.273  1.00 20.00     0.086 C 
HETATM    2  C2  UNL     1     -36.275  15.987  -5.294  1.00 20.00     0.056 C 
HETATM    3  C3  UNL     1     -35.671  15.904  -2.923  1.00 20.00     0.115 C 
HETATM    4  C4  UNL     1     -34.916  16.689  -5.399  1.00 20.00     0.046 C 
HETATM    5  C5  UNL     1     -36.282  15.086  -4.056  1.00 20.00     0.135 C 
HETATM    6  C6  UNL     1     -33.892  15.936  -6.241  1.00 20.00     0.021 C 
HETATM    7  N7  UNL     1     -35.011  12.815  -4.444  1.00 20.00    -0.195 NA
HETATM    8  S8  UNL     1     -34.325  16.864  -3.683  1.00 20.00    -0.162 SA
HETATM    9 CL9  UNL     1     -37.965  14.633  -3.640  1.00 20.00    -0.102 Cl
ENDROOT
TORSDOF 0
ENDMDL
MODEL 8
REMARK VINA RESULT:      -3.6      2.068      2.387
REMARK  0 active torsions:
REMARK  status: ('A' for Active; 'I' for Inactive)
ROOT
HETATM    1  C1  UNL     1     -34.273  15.660  -6.433  1.00 20.00     0.086 C 
HETATM    2  C2  UNL     1     -33.199  16.096  -4.217  1.00 20.00     0.056 C 
HETATM    3  C3  UNL     1     -35.518  16.781  -4.593  1.00 20.00     0.115 C 
HETATM    4  C4  UNL     1     -33.877  15.012  -3.370  1.00 20.00     0.046 C 
HETATM    5  C5  UNL     1     -34.177  16.582  -5.290  1.00 20.00     0.135 C 
HETATM    6  C6  UNL     1     -33.647  13.594  -3.877  1.00 20.00     0.021 C 
HETATM    7  N7  UNL     1     -34.348  14.933  -7.333  1.00 20.00    -0.195 NA
HETATM    8  S8  UNL     1     -35.655  15.417  -3.396  1.00 20.00    -0.162 SA
HETATM    9 CL9  UNL     1     -33.609  18.139  -5.973  1.00 20.00    -0.102 Cl
ENDROOT
TORSDOF 0
ENDMDL
MODEL 9
REMARK VINA RESULT:      -3.6      2.818      3.475
REMARK  0 active torsions:
REMARK  status: ('A' for Active; 'I' for Inactive)
ROOT
HETATM    1  C1  UNL     1     -37.008  15.031  -3.643  1.00 20.00     0.086 C 
HETATM    2  C2  UNL     1     -35.277  16.352  -4.873  1.00 20.00     0.056 C 
HETATM    3  C3  UNL     1     -34.731  15.371  -2.698  1.00 20.00     0.115 C 
HETATM    4  C4  UNL     1     -34.377  15.216  -5.376  1.00 20.00     0.046 C 
HETATM    5  C5  UNL     1     -35.873  15.960  -3.518  1.00 20.00     0.135 C 
HETATM    6  C6  UNL     1     -35.094  14.201  -6.258  1.00 20.00     0.021 C 
HETATM    7  N7  UNL     1     -37.902  14.300  -3.742  1.00 20.00    -0.195 NA
HETATM    8  S8  UNL     1     -33.729  14.409  -3.875  1.00 20.00    -0.162 SA
HETATM    9 CL9  UNL     1     -36.526  17.412  -2.696  1.00 20.00    -0.102 Cl
ENDROOT
TORSDOF 0
ENDMDL
