MODEL 1
REMARK VINA RESULT:      -3.4      0.000      0.000
REMARK  6 active torsions:
REMARK  status: ('A' for Active; 'I' for Inactive)
REMARK    1  A    between atoms: C3_3  and  C4_4 
REMARK    2  A    between atoms: C4_4  and  C7_7 
REMARK    3  A    between atoms: C5_5  and  C7_7 
REMARK    4  A    between atoms: C5_5  and  S8_8 
REMARK    5  A    between atoms: C6_6  and  C7_7 
REMARK    6  A    between atoms: C6_6  and  S9_9 
ROOT
HETATM    1  C7  UNL     1     -33.269  15.530  -3.526  1.00 20.00     0.004 C 
ENDROOT
BRANCH   1   2
HETATM    2  C4  UNL     1     -33.659  16.622  -2.498  1.00 20.00     0.006 C 
BRANCH   2   3
HETATM    3  C3  UNL     1     -34.744  16.242  -1.485  1.00 20.00    -0.004 C 
HETATM    4  C1  UNL     1     -34.715  17.080  -0.216  1.00 20.00     0.005 C 
ENDBRANCH   2   3
ENDBRANCH   1   2
BRANCH   1   5
HETATM    5  C5  UNL     1     -33.299  16.158  -4.938  1.00 20.00     0.076 C 
BRANCH   5   6
HETATM    6  S8  UNL     1     -33.710  17.930  -4.944  1.00 20.00    -0.182 SA
HETATM    7  H25 UNL     1     -34.846  17.811  -4.246  1.00 20.00     0.101 HD
ENDBRANCH   5   6
ENDBRANCH   1   5
BRANCH   1   8
HETATM    8  C6  UNL     1     -34.093  14.230  -3.388  1.00 20.00     0.078 C 
BRANCH   8   9
HETATM    9  S9  UNL     1     -35.182  13.843  -4.794  1.00 20.00    -0.173 SA
HETATM   10  C2  UNL     1     -36.729  14.474  -4.104  1.00 20.00     0.089 C 
ENDBRANCH   8   9
ENDBRANCH   1   8
TORSDOF 6
ENDMDL
MODEL 2
REMARK VINA RESULT:      -3.4      1.295      1.471
REMARK  6 active torsions:
REMARK  status: ('A' for Active; 'I' for Inactive)
REMARK    1  A    between atoms: C3_3  and  C4_4 
REMARK    2  A    between atoms: C4_4  and  C7_7 
REMARK    3  A    between atoms: C5_5  and  C7_7 
REMARK    4  A    between atoms: C5_5  and  S8_8 
REMARK    5  A    between atoms: C6_6  and  C7_7 
REMARK    6  A    between atoms: C6_6  and  S9_9 
ROOT
HETATM    1  C7  UNL     1     -34.461  15.276  -2.906  1.00 20.00     0.004 C 
ENDROOT
BRANCH   1   2
HETATM    2  C4  UNL     1     -35.101  16.460  -2.138  1.00 20.00     0.006 C 
BRANCH   2   3
HETATM    3  C3  UNL     1     -34.593  16.697  -0.712  1.00 20.00    -0.004 C 
HETATM    4  C1  UNL     1     -33.592  17.836  -0.603  1.00 20.00     0.005 C 
ENDBRANCH   2   3
ENDBRANCH   1   2
BRANCH   1   5
HETATM    5  C5  UNL     1     -33.248  15.811  -3.701  1.00 20.00     0.076 C 
BRANCH   5   6
HETATM    6  S8  UNL     1     -33.621  17.279  -4.707  1.00 20.00    -0.182 SA
HETATM    7  H25 UNL     1     -32.376  17.450  -5.170  1.00 20.00     0.101 HD
ENDBRANCH   5   6
ENDBRANCH   1   5
BRANCH   1   8
HETATM    8  C6  UNL     1     -35.472  14.469  -3.751  1.00 20.00     0.078 C 
BRANCH   8   9
HETATM    9  S9  UNL     1     -34.741  13.357  -4.992  1.00 20.00    -0.173 SA
HETATM   10  C2  UNL     1     -35.245  14.259  -6.475  1.00 20.00     0.089 C 
ENDBRANCH   8   9
ENDBRANCH   1   8
TORSDOF 6
ENDMDL
MODEL 3
REMARK VINA RESULT:      -3.3      1.326      1.370
REMARK  6 active torsions:
REMARK  status: ('A' for Active; 'I' for Inactive)
REMARK    1  A    between atoms: C3_3  and  C4_4 
REMARK    2  A    between atoms: C4_4  and  C7_7 
REMARK    3  A    between atoms: C5_5  and  C7_7 
REMARK    4  A    between atoms: C5_5  and  S8_8 
REMARK    5  A    between atoms: C6_6  and  C7_7 
REMARK    6  A    between atoms: C6_6  and  S9_9 
ROOT
HETATM    1  C7  UNL     1     -33.580  16.000  -3.168  1.00 20.00     0.004 C 
ENDROOT
BRANCH   1   2
HETATM    2  C4  UNL     1     -34.846  16.086  -2.279  1.00 20.00     0.006 C 
BRANCH   2   3
HETATM    3  C3  UNL     1     -34.631  16.566  -0.839  1.00 20.00    -0.004 C 
HETATM    4  C1  UNL     1     -33.633  17.708  -0.720  1.00 20.00     0.005 C 
ENDBRANCH   2   3
ENDBRANCH   1   2
BRANCH   1   5
HETATM    5  C5  UNL     1     -33.666  17.105  -4.246  1.00 20.00     0.076 C 
BRANCH   5   6
HETATM    6  S8  UNL     1     -35.362  17.671  -4.581  1.00 20.00    -0.182 SA
HETATM    7  H25 UNL     1     -35.178  17.893  -5.889  1.00 20.00     0.101 HD
ENDBRANCH   5   6
ENDBRANCH   1   5
BRANCH   1   8
HETATM    8  C6  UNL     1     -33.313  14.583  -3.726  1.00 20.00     0.078 C 
BRANCH   8   9
HETATM    9  S9  UNL     1     -34.798  13.593  -4.086  1.00 20.00    -0.173 SA
HETATM   10  C2  UNL     1     -34.962  14.002  -5.838  1.00 20.00     0.089 C 
ENDBRANCH   8   9
ENDBRANCH   1   8
TORSDOF 6
ENDMDL
MODEL 4
REMARK VINA RESULT:      -3.2      2.052      3.586
REMARK  6 active torsions:
REMARK  status: ('A' for Active; 'I' for Inactive)
REMARK    1  A    between atoms: C3_3  and  C4_4 
REMARK    2  A    between atoms: C4_4  and  C7_7 
REMARK    3  A    between atoms: C5_5  and  C7_7 
REMARK    4  A    between atoms: C5_5  and  S8_8 
REMARK    5  A    between atoms: C6_6  and  C7_7 
REMARK    6  A    between atoms: C6_6  and  S9_9 
ROOT
HETATM    1  C7  UNL     1     -33.561  16.271  -3.027  1.00 20.00     0.004 C 
ENDROOT
BRANCH   1   2
HETATM    2  C4  UNL     1     -33.202  14.924  -3.705  1.00 20.00     0.006 C 
BRANCH   2   3
HETATM    3  C3  UNL     1     -34.226  13.795  -3.555  1.00 20.00    -0.004 C 
HETATM    4  C1  UNL     1     -34.714  13.233  -4.881  1.00 20.00     0.005 C 
ENDBRANCH   2   3
ENDBRANCH   1   2
BRANCH   1   5
HETATM    5  C5  UNL     1     -34.766  16.036  -2.088  1.00 20.00     0.076 C 
BRANCH   5   6
HETATM    6  S8  UNL     1     -34.679  16.979  -0.535  1.00 20.00    -0.182 SA
HETATM    7  H25 UNL     1     -35.982  16.882  -0.240  1.00 20.00     0.101 HD
ENDBRANCH   5   6
ENDBRANCH   1   5
BRANCH   1   8
HETATM    8  C6  UNL     1     -33.749  17.434  -4.028  1.00 20.00     0.078 C 
BRANCH   8   9
HETATM    9  S9  UNL     1     -33.977  16.940  -5.765  1.00 20.00    -0.173 SA
HETATM   10  C2  UNL     1     -35.775  16.765  -5.750  1.00 20.00     0.089 C 
ENDBRANCH   8   9
ENDBRANCH   1   8
TORSDOF 6
ENDMDL
MODEL 5
REMARK VINA RESULT:      -3.2      1.286      2.790
REMARK  6 active torsions:
REMARK  status: ('A' for Active; 'I' for Inactive)
REMARK    1  A    between atoms: C3_3  and  C4_4 
REMARK    2  A    between atoms: C4_4  and  C7_7 
REMARK    3  A    between atoms: C5_5  and  C7_7 
REMARK    4  A    between atoms: C5_5  and  S8_8 
REMARK    5  A    between atoms: C6_6  and  C7_7 
REMARK    6  A    between atoms: C6_6  and  S9_9 
ROOT
HETATM    1  C7  UNL     1     -34.706  15.665  -3.153  1.00 20.00     0.004 C 
ENDROOT
BRANCH   1   2
HETATM    2  C4  UNL     1     -33.912  16.439  -2.070  1.00 20.00     0.006 C 
BRANCH   2   3
HETATM    3  C3  UNL     1     -34.634  16.672  -0.738  1.00 20.00    -0.004 C 
HETATM    4  C1  UNL     1     -34.104  17.865   0.041  1.00 20.00     0.005 C 
ENDBRANCH   2   3
ENDBRANCH   1   2
BRANCH   1   5
HETATM    5  C5  UNL     1     -33.907  14.397  -3.529  1.00 20.00     0.076 C 
BRANCH   5   6
HETATM    6  S8  UNL     1     -34.759  13.321  -4.723  1.00 20.00    -0.182 SA
HETATM    7  H25 UNL     1     -33.929  12.278  -4.588  1.00 20.00     0.101 HD
ENDBRANCH   5   6
ENDBRANCH   1   5
BRANCH   1   8
HETATM    8  C6  UNL     1     -35.120  16.540  -4.358  1.00 20.00     0.078 C 
BRANCH   8   9
HETATM    9  S9  UNL     1     -33.756  17.081  -5.435  1.00 20.00    -0.173 SA
HETATM   10  C2  UNL     1     -34.381  16.418  -6.995  1.00 20.00     0.089 C 
ENDBRANCH   8   9
ENDBRANCH   1   8
TORSDOF 6
ENDMDL
MODEL 6
REMARK VINA RESULT:      -3.2      1.120      2.723
REMARK  6 active torsions:
REMARK  status: ('A' for Active; 'I' for Inactive)
REMARK    1  A    between atoms: C3_3  and  C4_4 
REMARK    2  A    between atoms: C4_4  and  C7_7 
REMARK    3  A    between atoms: C5_5  and  C7_7 
REMARK    4  A    between atoms: C5_5  and  S8_8 
REMARK    5  A    between atoms: C6_6  and  C7_7 
REMARK    6  A    between atoms: C6_6  and  S9_9 
ROOT
HETATM    1  C7  UNL     1     -34.485  15.543  -3.377  1.00 20.00     0.004 C 
ENDROOT
BRANCH   1   2
HETATM    2  C4  UNL     1     -34.776  15.918  -1.902  1.00 20.00     0.006 C 
BRANCH   2   3
HETATM    3  C3  UNL     1     -33.932  17.054  -1.313  1.00 20.00    -0.004 C 
HETATM    4  C1  UNL     1     -34.462  17.584   0.010  1.00 20.00     0.005 C 
ENDBRANCH   2   3
ENDBRANCH   1   2
BRANCH   1   5
HETATM    5  C5  UNL     1     -34.379  14.004  -3.476  1.00 20.00     0.076 C 
BRANCH   5   6
HETATM    6  S8  UNL     1     -34.737  13.350  -5.135  1.00 20.00    -0.182 SA
HETATM    7  H25 UNL     1     -35.576  14.331  -5.493  1.00 20.00     0.101 HD
ENDBRANCH   5   6
ENDBRANCH   1   5
BRANCH   1   8
HETATM    8  C6  UNL     1     -33.284  16.306  -3.982  1.00 20.00     0.078 C 
BRANCH   8   9
HETATM    9  S9  UNL     1     -33.694  17.470  -5.320  1.00 20.00    -0.173 SA
HETATM   10  C2  UNL     1     -35.473  17.160  -5.397  1.00 20.00     0.089 C 
ENDBRANCH   8   9
ENDBRANCH   1   8
TORSDOF 6
ENDMDL
MODEL 7
REMARK VINA RESULT:      -3.1      1.434      3.099
REMARK  6 active torsions:
REMARK  status: ('A' for Active; 'I' for Inactive)
REMARK    1  A    between atoms: C3_3  and  C4_4 
REMARK    2  A    between atoms: C4_4  and  C7_7 
REMARK    3  A    between atoms: C5_5  and  C7_7 
REMARK    4  A    between atoms: C5_5  and  S8_8 
REMARK    5  A    between atoms: C6_6  and  C7_7 
REMARK    6  A    between atoms: C6_6  and  S9_9 
ROOT
HETATM    1  C7  UNL     1     -35.860  16.047  -3.225  1.00 20.00     0.004 C 
ENDROOT
BRANCH   1   2
HETATM    2  C4  UNL     1     -34.643  15.775  -2.305  1.00 20.00     0.006 C 
BRANCH   2   3
HETATM    3  C3  UNL     1     -34.618  16.535  -0.974  1.00 20.00    -0.004 C 
HETATM    4  C1  UNL     1     -33.596  17.661  -0.935  1.00 20.00     0.005 C 
ENDBRANCH   2   3
ENDBRANCH   1   2
BRANCH   1   5
HETATM    5  C5  UNL     1     -36.345  14.698  -3.802  1.00 20.00     0.076 C 
BRANCH   5   6
HETATM    6  S8  UNL     1     -34.999  13.534  -4.176  1.00 20.00    -0.182 SA
HETATM    7  H25 UNL     1     -34.022  14.450  -4.186  1.00 20.00     0.101 HD
ENDBRANCH   5   6
ENDBRANCH   1   5
BRANCH   1   8
HETATM    8  C6  UNL     1     -35.597  17.138  -4.289  1.00 20.00     0.078 C 
BRANCH   8   9
HETATM    9  S9  UNL     1     -33.885  17.234  -4.902  1.00 20.00    -0.173 SA
HETATM   10  C2  UNL     1     -34.133  16.406  -6.489  1.00 20.00     0.089 C 
ENDBRANCH   8   9
ENDBRANCH   1   8
TORSDOF 6
ENDMDL
MODEL 8
REMARK VINA RESULT:      -3.1      1.945      4.362
REMARK  6 active torsions:
REMARK  status: ('A' for Active; 'I' for Inactive)
REMARK    1  A    between atoms: C3_3  and  C4_4 
REMARK    2  A    between atoms: C4_4  and  C7_7 
REMARK    3  A    between atoms: C5_5  and  C7_7 
REMARK    4  A    between atoms: C5_5  and  S8_8 
REMARK    5  A    between atoms: C6_6  and  C7_7 
REMARK    6  A    between atoms: C6_6  and  S9_9 
ROOT
HETATM    1  C7  UNL     1     -34.827  15.953  -2.306  1.00 20.00     0.004 C 
ENDROOT
BRANCH   1   2
HETATM    2  C4  UNL     1     -33.663  16.191  -3.302  1.00 20.00     0.006 C 
BRANCH   2   3
HETATM    3  C3  UNL     1     -32.772  14.981  -3.604  1.00 20.00    -0.004 C 
HETATM    4  C1  UNL     1     -33.550  13.698  -3.855  1.00 20.00     0.005 C 
ENDBRANCH   2   3
ENDBRANCH   1   2
BRANCH   1   5
HETATM    5  C5  UNL     1     -36.144  16.399  -2.981  1.00 20.00     0.076 C 
BRANCH   5   6
HETATM    6  S8  UNL     1     -37.069  15.038  -3.755  1.00 20.00    -0.182 SA
HETATM    7  H25 UNL     1     -38.194  15.216  -3.051  1.00 20.00     0.101 HD
ENDBRANCH   5   6
ENDBRANCH   1   5
BRANCH   1   8
HETATM    8  C6  UNL     1     -34.582  16.573  -0.912  1.00 20.00     0.078 C 
BRANCH   8   9
HETATM    9  S9  UNL     1     -33.547  18.070  -0.894  1.00 20.00    -0.173 SA
HETATM   10  C2  UNL     1     -33.735  18.494   0.852  1.00 20.00     0.089 C 
ENDBRANCH   8   9
ENDBRANCH   1   8
TORSDOF 6
ENDMDL
MODEL 9
REMARK VINA RESULT:      -3.0      1.537      1.828
REMARK  6 active torsions:
REMARK  status: ('A' for Active; 'I' for Inactive)
REMARK    1  A    between atoms: C3_3  and  C4_4 
REMARK    2  A    between atoms: C4_4  and  C7_7 
REMARK    3  A    between atoms: C5_5  and  C7_7 
REMARK    4  A    between atoms: C5_5  and  S8_8 
REMARK    5  A    between atoms: C6_6  and  C7_7 
REMARK    6  A    between atoms: C6_6  and  S9_9 
ROOT
HETATM    1  C7  UNL     1     -34.181  16.591  -3.424  1.00 20.00     0.004 C 
ENDROOT
BRANCH   1   2
HETATM    2  C4  UNL     1     -34.589  15.867  -2.116  1.00 20.00     0.006 C 
BRANCH   2   3
HETATM    3  C3  UNL     1     -34.667  16.736  -0.857  1.00 20.00    -0.004 C 
HETATM    4  C1  UNL     1     -33.533  17.743  -0.740  1.00 20.00     0.005 C 
ENDBRANCH   2   3
ENDBRANCH   1   2
BRANCH   1   5
HETATM    5  C5  UNL     1     -35.429  17.301  -3.998  1.00 20.00     0.076 C 
BRANCH   5   6
HETATM    6  S8  UNL     1     -35.352  19.116  -3.893  1.00 20.00    -0.182 SA
HETATM    7  H25 UNL     1     -36.611  19.283  -3.468  1.00 20.00     0.101 HD
ENDBRANCH   5   6
ENDBRANCH   1   5
BRANCH   1   8
HETATM    8  C6  UNL     1     -33.447  15.678  -4.432  1.00 20.00     0.078 C 
BRANCH   8   9
HETATM    9  S9  UNL     1     -34.515  14.831  -5.639  1.00 20.00    -0.173 SA
HETATM   10  C2  UNL     1     -34.687  13.256  -4.771  1.00 20.00     0.089 C 
ENDBRANCH   8   9
ENDBRANCH   1   8
TORSDOF 6
ENDMDL
