MODEL 1
REMARK VINA RESULT:      -3.7      0.000      0.000
REMARK  4 active torsions:
REMARK  status: ('A' for Active; 'I' for Inactive)
REMARK    1  A    between atoms: C4_4  and  O8_8 
REMARK    2  A    between atoms: C5_5  and  C6_6 
REMARK    3  A    between atoms: C5_5  and  O8_8 
REMARK    4  A    between atoms: C6_6  and  S9_9 
ROOT
HETATM    1  C1  UNL     1     -34.070   6.156   5.905  1.00 20.00     0.060 C 
HETATM    2  C2  UNL     1     -34.759   4.915   6.427  1.00 20.00     0.170 C 
HETATM    3  C3  UNL     1     -35.040   4.989   4.116  1.00 20.00     0.199 C 
HETATM    4  C4  UNL     1     -33.794   5.775   4.472  1.00 20.00     0.147 C 
HETATM    5  O7  UNL     1     -35.481   4.350   5.322  1.00 20.00    -0.389 OA
ENDROOT
BRANCH   4   6
HETATM    6  O8  UNL     1     -33.624   6.910   3.651  1.00 20.00    -0.383 OA
BRANCH   6   7
HETATM    7  C5  UNL     1     -32.489   6.774   2.807  1.00 20.00     0.178 C 
BRANCH   7   8
HETATM    8  C6  UNL     1     -31.770   8.108   2.682  1.00 20.00     0.097 C 
BRANCH   8   9
HETATM    9  S9  UNL     1     -32.147   8.920   1.099  1.00 20.00    -0.180 SA
HETATM   10  H21 UNL     1     -31.244   8.243   0.377  1.00 20.00     0.101 HD
ENDBRANCH   8   9
ENDBRANCH   7   8
ENDBRANCH   6   7
ENDBRANCH   4   6
TORSDOF 4
ENDMDL
MODEL 2
REMARK VINA RESULT:      -3.6      0.970      1.460
REMARK  4 active torsions:
REMARK  status: ('A' for Active; 'I' for Inactive)
REMARK    1  A    between atoms: C4_4  and  O8_8 
REMARK    2  A    between atoms: C5_5  and  C6_6 
REMARK    3  A    between atoms: C5_5  and  O8_8 
REMARK    4  A    between atoms: C6_6  and  S9_9 
ROOT
HETATM    1  C1  UNL     1     -34.818   4.673   4.422  1.00 20.00     0.060 C 
HETATM    2  C2  UNL     1     -35.057   4.223   5.846  1.00 20.00     0.170 C 
HETATM    3  C3  UNL     1     -33.946   6.269   5.903  1.00 20.00     0.199 C 
HETATM    4  C4  UNL     1     -34.692   6.167   4.588  1.00 20.00     0.147 C 
HETATM    5  O7  UNL     1     -34.347   5.140   6.692  1.00 20.00    -0.389 OA
ENDROOT
BRANCH   4   6
HETATM    6  O8  UNL     1     -33.979   6.755   3.522  1.00 20.00    -0.383 OA
BRANCH   6   7
HETATM    7  C5  UNL     1     -32.645   6.269   3.459  1.00 20.00     0.178 C 
BRANCH   7   8
HETATM    8  C6  UNL     1     -31.674   7.429   3.309  1.00 20.00     0.097 C 
BRANCH   8   9
HETATM    9  S9  UNL     1     -32.055   8.425   1.835  1.00 20.00    -0.180 SA
HETATM   10  H21 UNL     1     -32.723   7.463   1.185  1.00 20.00     0.101 HD
ENDBRANCH   8   9
ENDBRANCH   7   8
ENDBRANCH   6   7
ENDBRANCH   4   6
TORSDOF 4
ENDMDL
MODEL 3
REMARK VINA RESULT:      -3.4     11.418     11.851
REMARK  4 active torsions:
REMARK  status: ('A' for Active; 'I' for Inactive)
REMARK    1  A    between atoms: C4_4  and  O8_8 
REMARK    2  A    between atoms: C5_5  and  C6_6 
REMARK    3  A    between atoms: C5_5  and  O8_8 
REMARK    4  A    between atoms: C6_6  and  S9_9 
ROOT
HETATM    1  C1  UNL     1     -33.758  13.925  -3.768  1.00 20.00     0.060 C 
HETATM    2  C2  UNL     1     -34.884  13.245  -4.514  1.00 20.00     0.170 C 
HETATM    3  C3  UNL     1     -35.757  15.095  -3.401  1.00 20.00     0.199 C 
HETATM    4  C4  UNL     1     -34.280  15.334  -3.640  1.00 20.00     0.147 C 
HETATM    5  O7  UNL     1     -36.098  13.893  -4.106  1.00 20.00    -0.389 OA
ENDROOT
BRANCH   4   6
HETATM    6  O8  UNL     1     -33.670  16.024  -2.571  1.00 20.00    -0.383 OA
BRANCH   6   7
HETATM    7  C5  UNL     1     -34.598  16.287  -1.527  1.00 20.00     0.178 C 
BRANCH   7   8
HETATM    8  C6  UNL     1     -34.085  17.416  -0.647  1.00 20.00     0.097 C 
BRANCH   8   9
HETATM    9  S9  UNL     1     -35.149  17.657   0.809  1.00 20.00    -0.180 SA
HETATM   10  H21 UNL     1     -36.269  17.190   0.242  1.00 20.00     0.101 HD
ENDBRANCH   8   9
ENDBRANCH   7   8
ENDBRANCH   6   7
ENDBRANCH   4   6
TORSDOF 4
ENDMDL
MODEL 4
REMARK VINA RESULT:      -3.4     11.593     12.940
REMARK  4 active torsions:
REMARK  status: ('A' for Active; 'I' for Inactive)
REMARK    1  A    between atoms: C4_4  and  O8_8 
REMARK    2  A    between atoms: C5_5  and  C6_6 
REMARK    3  A    between atoms: C5_5  and  O8_8 
REMARK    4  A    between atoms: C6_6  and  S9_9 
ROOT
HETATM    1  C1  UNL     1     -34.380  14.614  -5.606  1.00 20.00     0.060 C 
HETATM    2  C2  UNL     1     -34.764  13.340  -4.888  1.00 20.00     0.170 C 
HETATM    3  C3  UNL     1     -33.028  14.348  -3.708  1.00 20.00     0.199 C 
HETATM    4  C4  UNL     1     -33.758  15.419  -4.493  1.00 20.00     0.147 C 
HETATM    5  O7  UNL     1     -33.791  13.142  -3.852  1.00 20.00    -0.389 OA
ENDROOT
BRANCH   4   6
HETATM    6  O8  UNL     1     -32.883  16.409  -4.988  1.00 20.00    -0.383 OA
BRANCH   6   7
HETATM    7  C5  UNL     1     -33.520  17.679  -5.052  1.00 20.00     0.178 C 
BRANCH   7   8
HETATM    8  C6  UNL     1     -34.383  17.891  -3.818  1.00 20.00     0.097 C 
BRANCH   8   9
HETATM    9  S9  UNL     1     -33.666  19.147  -2.715  1.00 20.00    -0.180 SA
HETATM   10  H21 UNL     1     -33.347  20.017  -3.683  1.00 20.00     0.101 HD
ENDBRANCH   8   9
ENDBRANCH   7   8
ENDBRANCH   6   7
ENDBRANCH   4   6
TORSDOF 4
ENDMDL
MODEL 5
REMARK VINA RESULT:      -3.2     11.087     12.131
REMARK  4 active torsions:
REMARK  status: ('A' for Active; 'I' for Inactive)
REMARK    1  A    between atoms: C4_4  and  O8_8 
REMARK    2  A    between atoms: C5_5  and  C6_6 
REMARK    3  A    between atoms: C5_5  and  O8_8 
REMARK    4  A    between atoms: C6_6  and  S9_9 
ROOT
HETATM    1  C1  UNL     1     -33.912  14.881  -3.473  1.00 20.00     0.060 C 
HETATM    2  C2  UNL     1     -33.601  13.477  -3.940  1.00 20.00     0.170 C 
HETATM    3  C3  UNL     1     -35.887  13.842  -4.195  1.00 20.00     0.199 C 
HETATM    4  C4  UNL     1     -35.182  15.183  -4.229  1.00 20.00     0.147 C 
HETATM    5  O7  UNL     1     -34.862  12.838  -4.192  1.00 20.00    -0.389 OA
ENDROOT
BRANCH   4   6
HETATM    6  O8  UNL     1     -35.935  16.199  -3.605  1.00 20.00    -0.383 OA
BRANCH   6   7
HETATM    7  C5  UNL     1     -35.103  17.259  -3.155  1.00 20.00     0.178 C 
BRANCH   7   8
HETATM    8  C6  UNL     1     -35.612  17.794  -1.825  1.00 20.00     0.097 C 
BRANCH   8   9
HETATM    9  S9  UNL     1     -34.682  17.090  -0.429  1.00 20.00    -0.180 SA
HETATM   10  H21 UNL     1     -33.468  17.265  -0.968  1.00 20.00     0.101 HD
ENDBRANCH   8   9
ENDBRANCH   7   8
ENDBRANCH   6   7
ENDBRANCH   4   6
TORSDOF 4
ENDMDL
MODEL 6
REMARK VINA RESULT:      -3.1     11.575     12.531
REMARK  4 active torsions:
REMARK  status: ('A' for Active; 'I' for Inactive)
REMARK    1  A    between atoms: C4_4  and  O8_8 
REMARK    2  A    between atoms: C5_5  and  C6_6 
REMARK    3  A    between atoms: C5_5  and  O8_8 
REMARK    4  A    between atoms: C6_6  and  S9_9 
ROOT
HETATM    1  C1  UNL     1     -34.576  16.210  -1.571  1.00 20.00     0.060 C 
HETATM    2  C2  UNL     1     -33.888  17.551  -1.446  1.00 20.00     0.170 C 
HETATM    3  C3  UNL     1     -34.296  17.148  -3.703  1.00 20.00     0.199 C 
HETATM    4  C4  UNL     1     -35.299  16.357  -2.887  1.00 20.00     0.147 C 
HETATM    5  O7  UNL     1     -33.584  17.983  -2.781  1.00 20.00    -0.389 OA
ENDROOT
BRANCH   4   6
HETATM    6  O8  UNL     1     -35.591  15.105  -3.467  1.00 20.00    -0.383 OA
BRANCH   6   7
HETATM    7  C5  UNL     1     -34.450  14.258  -3.477  1.00 20.00     0.178 C 
BRANCH   7   8
HETATM    8  C6  UNL     1     -34.475  13.364  -4.707  1.00 20.00     0.097 C 
BRANCH   8   9
HETATM    9  S9  UNL     1     -35.067  14.267  -6.172  1.00 20.00    -0.180 SA
HETATM   10  H21 UNL     1     -33.994  14.013  -6.933  1.00 20.00     0.101 HD
ENDBRANCH   8   9
ENDBRANCH   7   8
ENDBRANCH   6   7
ENDBRANCH   4   6
TORSDOF 4
ENDMDL
MODEL 7
REMARK VINA RESULT:      -3.1     11.660     12.452
REMARK  4 active torsions:
REMARK  status: ('A' for Active; 'I' for Inactive)
REMARK    1  A    between atoms: C4_4  and  O8_8 
REMARK    2  A    between atoms: C5_5  and  C6_6 
REMARK    3  A    between atoms: C5_5  and  O8_8 
REMARK    4  A    between atoms: C6_6  and  S9_9 
ROOT
HETATM    1  C1  UNL     1     -34.998  15.029  -3.159  1.00 20.00     0.060 C 
HETATM    2  C2  UNL     1     -33.596  14.650  -3.579  1.00 20.00     0.170 C 
HETATM    3  C3  UNL     1     -35.067  13.058  -4.429  1.00 20.00     0.199 C 
HETATM    4  C4  UNL     1     -35.830  14.350  -4.218  1.00 20.00     0.147 C 
HETATM    5  O7  UNL     1     -33.684  13.353  -4.188  1.00 20.00    -0.389 OA
ENDROOT
BRANCH   4   6
HETATM    6  O8  UNL     1     -37.153  14.125  -3.781  1.00 20.00    -0.383 OA
BRANCH   6   7
HETATM    7  C5  UNL     1     -38.036  15.129  -4.263  1.00 20.00     0.178 C 
BRANCH   7   8
HETATM    8  C6  UNL     1     -39.438  14.559  -4.417  1.00 20.00     0.097 C 
BRANCH   8   9
HETATM    9  S9  UNL     1     -40.107  14.883  -6.077  1.00 20.00    -0.180 SA
HETATM   10  H21 UNL     1     -40.852  15.939  -5.723  1.00 20.00     0.101 HD
ENDBRANCH   8   9
ENDBRANCH   7   8
ENDBRANCH   6   7
ENDBRANCH   4   6
TORSDOF 4
ENDMDL
MODEL 8
REMARK VINA RESULT:      -3.1     11.496     12.797
REMARK  4 active torsions:
REMARK  status: ('A' for Active; 'I' for Inactive)
REMARK    1  A    between atoms: C4_4  and  O8_8 
REMARK    2  A    between atoms: C5_5  and  C6_6 
REMARK    3  A    between atoms: C5_5  and  O8_8 
REMARK    4  A    between atoms: C6_6  and  S9_9 
ROOT
HETATM    1  C1  UNL     1     -33.952  15.464  -4.517  1.00 20.00     0.060 C 
HETATM    2  C2  UNL     1     -32.990  14.606  -3.727  1.00 20.00     0.170 C 
HETATM    3  C3  UNL     1     -34.531  13.205  -4.769  1.00 20.00     0.199 C 
HETATM    4  C4  UNL     1     -34.444  14.494  -5.562  1.00 20.00     0.147 C 
HETATM    5  O7  UNL     1     -33.501  13.266  -3.772  1.00 20.00    -0.389 OA
ENDROOT
BRANCH   4   6
HETATM    6  O8  UNL     1     -35.692  14.881  -6.091  1.00 20.00    -0.383 OA
BRANCH   6   7
HETATM    7  C5  UNL     1     -36.105  16.141  -5.578  1.00 20.00     0.178 C 
BRANCH   7   8
HETATM    8  C6  UNL     1     -37.586  16.103  -5.233  1.00 20.00     0.097 C 
BRANCH   8   9
HETATM    9  S9  UNL     1     -37.932  14.887  -3.926  1.00 20.00    -0.180 SA
HETATM   10  H21 UNL     1     -39.266  14.971  -4.008  1.00 20.00     0.101 HD
ENDBRANCH   8   9
ENDBRANCH   7   8
ENDBRANCH   6   7
ENDBRANCH   4   6
TORSDOF 4
ENDMDL
MODEL 9
REMARK VINA RESULT:      -3.1      9.978     11.042
REMARK  4 active torsions:
REMARK  status: ('A' for Active; 'I' for Inactive)
REMARK    1  A    between atoms: C4_4  and  O8_8 
REMARK    2  A    between atoms: C5_5  and  C6_6 
REMARK    3  A    between atoms: C5_5  and  O8_8 
REMARK    4  A    between atoms: C6_6  and  S9_9 
ROOT
HETATM    1  C1  UNL     1     -40.939   4.624  -1.106  1.00 20.00     0.060 C 
HETATM    2  C2  UNL     1     -40.650   5.918  -0.379  1.00 20.00     0.170 C 
HETATM    3  C3  UNL     1     -41.849   6.419  -2.311  1.00 20.00     0.199 C 
HETATM    4  C4  UNL     1     -42.160   4.990  -1.912  1.00 20.00     0.147 C 
HETATM    5  O7  UNL     1     -41.067   6.981  -1.248  1.00 20.00    -0.389 OA
ENDROOT
BRANCH   4   6
HETATM    6  O8  UNL     1     -42.322   4.147  -3.031  1.00 20.00    -0.383 OA
BRANCH   6   7
HETATM    7  C5  UNL     1     -42.176   2.779  -2.675  1.00 20.00     0.178 C 
BRANCH   7   8
HETATM    8  C6  UNL     1     -41.413   2.036  -3.760  1.00 20.00     0.097 C 
BRANCH   8   9
HETATM    9  S9  UNL     1     -41.951   0.302  -3.881  1.00 20.00    -0.180 SA
HETATM   10  H21 UNL     1     -42.791   0.489  -4.909  1.00 20.00     0.101 HD
ENDBRANCH   8   9
ENDBRANCH   7   8
ENDBRANCH   6   7
ENDBRANCH   4   6
TORSDOF 4
ENDMDL
