MODEL 1
REMARK VINA RESULT:      -3.1      0.000      0.000
REMARK  4 active torsions:
REMARK  status: ('A' for Active; 'I' for Inactive)
REMARK    1  A    between atoms: C4_4  and  C6_6 
REMARK    2  A    between atoms: C4_4  and  O7_7 
REMARK    3  A    between atoms: C5_5  and  C6_6 
REMARK    4  A    between atoms: C5_5  and  S8_8 
ROOT
HETATM    1  C1  UNL     1     -34.508  13.370  -4.632  1.00 20.00     0.018 C 
HETATM    2  C2  UNL     1     -32.664  14.625  -3.519  1.00 20.00     0.018 C 
HETATM    3  C6  UNL     1     -34.065  14.768  -4.149  1.00 20.00    -0.018 C 
ENDROOT
BRANCH   3   4
HETATM    4  C4  UNL     1     -34.004  15.729  -5.358  1.00 20.00     0.176 C 
BRANCH   4   5
HETATM    5  O7  UNL     1     -32.992  16.714  -5.179  1.00 20.00    -0.395 OA
HETATM    6  C3  UNL     1     -33.537  18.025  -5.168  1.00 20.00     0.201 C 
ENDBRANCH   4   5
ENDBRANCH   3   4
BRANCH   3   7
HETATM    7  C5  UNL     1     -35.103  15.251  -3.100  1.00 20.00     0.081 C 
BRANCH   7   8
HETATM    8  S8  UNL     1     -34.478  16.353  -1.790  1.00 20.00    -0.181 SA
HETATM    9  H22 UNL     1     -33.219  16.399  -2.243  1.00 20.00     0.101 HD
ENDBRANCH   7   8
ENDBRANCH   3   7
TORSDOF 4
ENDMDL
MODEL 2
REMARK VINA RESULT:      -3.1      3.116      3.989
REMARK  4 active torsions:
REMARK  status: ('A' for Active; 'I' for Inactive)
REMARK    1  A    between atoms: C4_4  and  C6_6 
REMARK    2  A    between atoms: C4_4  and  O7_7 
REMARK    3  A    between atoms: C5_5  and  C6_6 
REMARK    4  A    between atoms: C5_5  and  S8_8 
ROOT
HETATM    1  C1  UNL     1     -34.007  15.399  -3.080  1.00 20.00     0.018 C 
HETATM    2  C2  UNL     1     -34.913  13.342  -4.160  1.00 20.00     0.018 C 
HETATM    3  C6  UNL     1     -35.119  14.864  -4.009  1.00 20.00    -0.018 C 
ENDROOT
BRANCH   3   4
HETATM    4  C4  UNL     1     -36.497  15.149  -3.370  1.00 20.00     0.176 C 
BRANCH   4   5
HETATM    5  O7  UNL     1     -37.451  14.163  -3.749  1.00 20.00    -0.395 OA
HETATM    6  C3  UNL     1     -38.696  14.750  -4.097  1.00 20.00     0.201 C 
ENDBRANCH   4   5
ENDBRANCH   3   4
BRANCH   3   7
HETATM    7  C5  UNL     1     -34.974  15.587  -5.375  1.00 20.00     0.081 C 
BRANCH   7   8
HETATM    8  S8  UNL     1     -35.275  14.576  -6.862  1.00 20.00    -0.181 SA
HETATM    9  H22 UNL     1     -36.450  15.139  -7.172  1.00 20.00     0.101 HD
ENDBRANCH   7   8
ENDBRANCH   3   7
TORSDOF 4
ENDMDL
MODEL 3
REMARK VINA RESULT:      -3.0      2.148      3.079
REMARK  4 active torsions:
REMARK  status: ('A' for Active; 'I' for Inactive)
REMARK    1  A    between atoms: C4_4  and  C6_6 
REMARK    2  A    between atoms: C4_4  and  O7_7 
REMARK    3  A    between atoms: C5_5  and  C6_6 
REMARK    4  A    between atoms: C5_5  and  S8_8 
ROOT
HETATM    1  C1  UNL     1     -32.803  14.890  -3.632  1.00 20.00     0.018 C 
HETATM    2  C2  UNL     1     -34.836  13.500  -4.022  1.00 20.00     0.018 C 
HETATM    3  C6  UNL     1     -34.331  14.948  -3.855  1.00 20.00    -0.018 C 
ENDROOT
BRANCH   3   4
HETATM    4  C4  UNL     1     -35.000  15.601  -2.624  1.00 20.00     0.176 C 
BRANCH   4   5
HETATM    5  O7  UNL     1     -34.042  16.290  -1.827  1.00 20.00    -0.395 OA
HETATM    6  C3  UNL     1     -34.623  16.784  -0.629  1.00 20.00     0.201 C 
ENDBRANCH   4   5
ENDBRANCH   3   4
BRANCH   3   7
HETATM    7  C5  UNL     1     -34.585  15.781  -5.139  1.00 20.00     0.081 C 
BRANCH   7   8
HETATM    8  S8  UNL     1     -33.603  17.305  -5.322  1.00 20.00    -0.181 SA
HETATM    9  H22 UNL     1     -33.561  17.596  -4.016  1.00 20.00     0.101 HD
ENDBRANCH   7   8
ENDBRANCH   3   7
TORSDOF 4
ENDMDL
MODEL 4
REMARK VINA RESULT:      -3.0      2.535      3.439
REMARK  4 active torsions:
REMARK  status: ('A' for Active; 'I' for Inactive)
REMARK    1  A    between atoms: C4_4  and  C6_6 
REMARK    2  A    between atoms: C4_4  and  O7_7 
REMARK    3  A    between atoms: C5_5  and  C6_6 
REMARK    4  A    between atoms: C5_5  and  S8_8 
ROOT
HETATM    1  C1  UNL     1     -35.100  13.348  -4.222  1.00 20.00     0.018 C 
HETATM    2  C2  UNL     1     -35.148  15.537  -5.415  1.00 20.00     0.018 C 
HETATM    3  C6  UNL     1     -35.262  14.872  -4.028  1.00 20.00    -0.018 C 
ENDROOT
BRANCH   3   4
HETATM    4  C4  UNL     1     -36.652  15.162  -3.417  1.00 20.00     0.176 C 
BRANCH   4   5
HETATM    5  O7  UNL     1     -37.592  14.157  -3.782  1.00 20.00    -0.395 OA
HETATM    6  C3  UNL     1     -38.854  14.720  -4.109  1.00 20.00     0.201 C 
ENDBRANCH   4   5
ENDBRANCH   3   4
BRANCH   3   7
HETATM    7  C5  UNL     1     -34.125  15.346  -3.084  1.00 20.00     0.081 C 
BRANCH   7   8
HETATM    8  S8  UNL     1     -34.625  16.383  -1.671  1.00 20.00    -0.181 SA
HETATM    9  H22 UNL     1     -33.392  16.818  -1.381  1.00 20.00     0.101 HD
ENDBRANCH   7   8
ENDBRANCH   3   7
TORSDOF 4
ENDMDL
MODEL 5
REMARK VINA RESULT:      -3.0      2.536      3.206
REMARK  4 active torsions:
REMARK  status: ('A' for Active; 'I' for Inactive)
REMARK    1  A    between atoms: C4_4  and  C6_6 
REMARK    2  A    between atoms: C4_4  and  O7_7 
REMARK    3  A    between atoms: C5_5  and  C6_6 
REMARK    4  A    between atoms: C5_5  and  S8_8 
ROOT
HETATM    1  C1  UNL     1     -33.307  16.668  -5.012  1.00 20.00     0.018 C 
HETATM    2  C2  UNL     1     -32.576  14.749  -3.599  1.00 20.00     0.018 C 
HETATM    3  C6  UNL     1     -33.686  15.802  -3.790  1.00 20.00    -0.018 C 
ENDROOT
BRANCH   3   4
HETATM    4  C4  UNL     1     -33.780  16.703  -2.538  1.00 20.00     0.176 C 
BRANCH   4   5
HETATM    5  O7  UNL     1     -34.623  16.121  -1.550  1.00 20.00    -0.395 OA
HETATM    6  C3  UNL     1     -34.698  16.931  -0.387  1.00 20.00     0.201 C 
ENDBRANCH   4   5
ENDBRANCH   3   4
BRANCH   3   7
HETATM    7  C5  UNL     1     -35.050  15.129  -4.100  1.00 20.00     0.081 C 
BRANCH   7   8
HETATM    8  S8  UNL     1     -34.996  13.366  -4.560  1.00 20.00    -0.181 SA
HETATM    9  H22 UNL     1     -33.711  13.182  -4.234  1.00 20.00     0.101 HD
ENDBRANCH   7   8
ENDBRANCH   3   7
TORSDOF 4
ENDMDL
MODEL 6
REMARK VINA RESULT:      -3.0      2.257      2.910
REMARK  4 active torsions:
REMARK  status: ('A' for Active; 'I' for Inactive)
REMARK    1  A    between atoms: C4_4  and  C6_6 
REMARK    2  A    between atoms: C4_4  and  O7_7 
REMARK    3  A    between atoms: C5_5  and  C6_6 
REMARK    4  A    between atoms: C5_5  and  S8_8 
ROOT
HETATM    1  C1  UNL     1     -34.620  15.567  -2.622  1.00 20.00     0.018 C 
HETATM    2  C2  UNL     1     -33.484  13.677  -3.785  1.00 20.00     0.018 C 
HETATM    3  C6  UNL     1     -34.131  15.061  -3.997  1.00 20.00    -0.018 C 
ENDROOT
BRANCH   3   4
HETATM    4  C4  UNL     1     -35.340  14.937  -4.953  1.00 20.00     0.176 C 
BRANCH   4   5
HETATM    5  O7  UNL     1     -35.107  13.943  -5.945  1.00 20.00    -0.395 OA
HETATM    6  C3  UNL     1     -35.303  14.459  -7.254  1.00 20.00     0.201 C 
ENDBRANCH   4   5
ENDBRANCH   3   4
BRANCH   3   7
HETATM    7  C5  UNL     1     -33.096  16.086  -4.532  1.00 20.00     0.081 C 
BRANCH   7   8
HETATM    8  S8  UNL     1     -33.772  17.547  -5.387  1.00 20.00    -0.181 SA
HETATM    9  H22 UNL     1     -32.608  18.202  -5.474  1.00 20.00     0.101 HD
ENDBRANCH   7   8
ENDBRANCH   3   7
TORSDOF 4
ENDMDL
MODEL 7
REMARK VINA RESULT:      -2.9      2.275      3.466
REMARK  4 active torsions:
REMARK  status: ('A' for Active; 'I' for Inactive)
REMARK    1  A    between atoms: C4_4  and  C6_6 
REMARK    2  A    between atoms: C4_4  and  O7_7 
REMARK    3  A    between atoms: C5_5  and  C6_6 
REMARK    4  A    between atoms: C5_5  and  S8_8 
ROOT
HETATM    1  C1  UNL     1     -36.195  16.469  -3.064  1.00 20.00     0.018 C 
HETATM    2  C2  UNL     1     -34.604  16.459  -1.144  1.00 20.00     0.018 C 
HETATM    3  C6  UNL     1     -34.711  16.292  -2.674  1.00 20.00    -0.018 C 
ENDROOT
BRANCH   3   4
HETATM    4  C4  UNL     1     -34.241  14.878  -3.084  1.00 20.00     0.176 C 
BRANCH   4   5
HETATM    5  O7  UNL     1     -35.299  14.145  -3.694  1.00 20.00    -0.395 OA
HETATM    6  C3  UNL     1     -34.811  13.264  -4.694  1.00 20.00     0.201 C 
ENDBRANCH   4   5
ENDBRANCH   3   4
BRANCH   3   7
HETATM    7  C5  UNL     1     -33.900  17.389  -3.414  1.00 20.00     0.081 C 
BRANCH   7   8
HETATM    8  S8  UNL     1     -33.506  17.062  -5.163  1.00 20.00    -0.181 SA
HETATM    9  H22 UNL     1     -32.228  17.454  -5.089  1.00 20.00     0.101 HD
ENDBRANCH   7   8
ENDBRANCH   3   7
TORSDOF 4
ENDMDL
MODEL 8
REMARK VINA RESULT:      -2.9      2.094      2.282
REMARK  4 active torsions:
REMARK  status: ('A' for Active; 'I' for Inactive)
REMARK    1  A    between atoms: C4_4  and  C6_6 
REMARK    2  A    between atoms: C4_4  and  O7_7 
REMARK    3  A    between atoms: C5_5  and  C6_6 
REMARK    4  A    between atoms: C5_5  and  S8_8 
ROOT
HETATM    1  C1  UNL     1     -33.504  13.705  -3.789  1.00 20.00     0.018 C 
HETATM    2  C2  UNL     1     -34.637  15.585  -2.606  1.00 20.00     0.018 C 
HETATM    3  C6  UNL     1     -34.173  15.083  -3.989  1.00 20.00    -0.018 C 
ENDROOT
BRANCH   3   4
HETATM    4  C4  UNL     1     -33.142  16.067  -4.588  1.00 20.00     0.176 C 
BRANCH   4   5
HETATM    5  O7  UNL     1     -33.485  17.415  -4.284  1.00 20.00    -0.395 OA
HETATM    6  C3  UNL     1     -33.623  18.195  -5.462  1.00 20.00     0.201 C 
ENDBRANCH   4   5
ENDBRANCH   3   4
BRANCH   3   7
HETATM    7  C5  UNL     1     -35.378  14.883  -4.946  1.00 20.00     0.081 C 
BRANCH   7   8
HETATM    8  S8  UNL     1     -34.983  14.675  -6.712  1.00 20.00    -0.181 SA
HETATM    9  H22 UNL     1     -35.861  15.584  -7.154  1.00 20.00     0.101 HD
ENDBRANCH   7   8
ENDBRANCH   3   7
TORSDOF 4
ENDMDL
MODEL 9
REMARK VINA RESULT:      -2.9      1.468      1.903
REMARK  4 active torsions:
REMARK  status: ('A' for Active; 'I' for Inactive)
REMARK    1  A    between atoms: C4_4  and  C6_6 
REMARK    2  A    between atoms: C4_4  and  O7_7 
REMARK    3  A    between atoms: C5_5  and  C6_6 
REMARK    4  A    between atoms: C5_5  and  S8_8 
ROOT
HETATM    1  C1  UNL     1     -34.799  13.360  -4.204  1.00 20.00     0.018 C 
HETATM    2  C2  UNL     1     -32.984  14.979  -3.656  1.00 20.00     0.018 C 
HETATM    3  C6  UNL     1     -34.453  14.863  -4.111  1.00 20.00    -0.018 C 
ENDROOT
BRANCH   3   4
HETATM    4  C4  UNL     1     -34.627  15.512  -5.503  1.00 20.00     0.176 C 
BRANCH   4   5
HETATM    5  O7  UNL     1     -34.361  14.575  -6.541  1.00 20.00    -0.395 OA
HETATM    6  C3  UNL     1     -35.181  14.809  -7.677  1.00 20.00     0.201 C 
ENDBRANCH   4   5
ENDBRANCH   3   4
BRANCH   3   7
HETATM    7  C5  UNL     1     -35.414  15.500  -3.072  1.00 20.00     0.081 C 
BRANCH   7   8
HETATM    8  S8  UNL     1     -34.632  16.385  -1.684  1.00 20.00    -0.181 SA
HETATM    9  H22 UNL     1     -34.382  17.510  -2.365  1.00 20.00     0.101 HD
ENDBRANCH   7   8
ENDBRANCH   3   7
TORSDOF 4
ENDMDL
