MODEL 1
REMARK VINA RESULT:      -4.0      0.000      0.000
REMARK  5 active torsions:
REMARK  status: ('A' for Active; 'I' for Inactive)
REMARK    1  A    between atoms: C1_1  and  C5_5 
REMARK    2  A    between atoms: C2_2  and  C6_6 
REMARK    3  A    between atoms: C5_5  and  O8_8 
REMARK    4  A    between atoms: C6_6  and  S9_9 
REMARK    5  A    between atoms: C7_7  and  O8_8 
ROOT
HETATM    1  C1  UNL     1     -32.888   6.747   2.817  1.00 20.00    -0.004 C 
HETATM    2  C2  UNL     1     -31.942   7.683   2.647  1.00 20.00    -0.019 C 
ENDROOT
BRANCH   1   3
HETATM    3  C5  UNL     1     -33.128   6.035   4.108  1.00 20.00     0.195 C 
BRANCH   3   4
HETATM    4  O8  UNL     1     -34.447   5.509   4.100  1.00 20.00    -0.383 OA
BRANCH   4   5
HETATM    5  C7  UNL     1     -34.961   5.363   5.417  1.00 20.00     0.113 C 
HETATM    6  C3  UNL     1     -34.910   3.897   5.816  1.00 20.00     0.039 C 
HETATM    7  C4  UNL     1     -34.158   6.239   6.367  1.00 20.00     0.039 C 
ENDBRANCH   4   5
ENDBRANCH   3   4
ENDBRANCH   1   3
BRANCH   2   8
HETATM    8  C6  UNL     1     -31.710   8.401   1.356  1.00 20.00     0.097 C 
BRANCH   8   9
HETATM    9  S9  UNL     1     -32.584   9.989   1.359  1.00 20.00    -0.178 SA
HETATM   10  H23 UNL     1     -33.594   9.601   0.569  1.00 20.00     0.101 HD
ENDBRANCH   8   9
ENDBRANCH   2   8
TORSDOF 5
ENDMDL
MODEL 2
REMARK VINA RESULT:      -3.8      0.861      1.542
REMARK  5 active torsions:
REMARK  status: ('A' for Active; 'I' for Inactive)
REMARK    1  A    between atoms: C1_1  and  C5_5 
REMARK    2  A    between atoms: C2_2  and  C6_6 
REMARK    3  A    between atoms: C5_5  and  O8_8 
REMARK    4  A    between atoms: C6_6  and  S9_9 
REMARK    5  A    between atoms: C7_7  and  O8_8 
ROOT
HETATM    1  C1  UNL     1     -33.111   5.934   2.820  1.00 20.00    -0.004 C 
HETATM    2  C2  UNL     1     -32.995   7.270   2.843  1.00 20.00    -0.019 C 
ENDROOT
BRANCH   1   3
HETATM    3  C5  UNL     1     -34.354   5.203   3.208  1.00 20.00     0.195 C 
BRANCH   3   4
HETATM    4  O8  UNL     1     -34.904   5.819   4.364  1.00 20.00    -0.383 OA
BRANCH   4   5
HETATM    5  C7  UNL     1     -34.265   5.370   5.551  1.00 20.00     0.113 C 
HETATM    6  C3  UNL     1     -34.044   6.553   6.480  1.00 20.00     0.039 C 
HETATM    7  C4  UNL     1     -35.117   4.289   6.200  1.00 20.00     0.039 C 
ENDBRANCH   4   5
ENDBRANCH   3   4
ENDBRANCH   1   3
BRANCH   2   8
HETATM    8  C6  UNL     1     -31.753   8.001   2.445  1.00 20.00     0.097 C 
BRANCH   8   9
HETATM    9  S9  UNL     1     -32.095   9.096   1.042  1.00 20.00    -0.178 SA
HETATM   10  H23 UNL     1     -32.463   8.129   0.190  1.00 20.00     0.101 HD
ENDBRANCH   8   9
ENDBRANCH   2   8
TORSDOF 5
ENDMDL
MODEL 3
REMARK VINA RESULT:      -3.8      3.069      5.282
REMARK  5 active torsions:
REMARK  status: ('A' for Active; 'I' for Inactive)
REMARK    1  A    between atoms: C1_1  and  C5_5 
REMARK    2  A    between atoms: C2_2  and  C6_6 
REMARK    3  A    between atoms: C5_5  and  O8_8 
REMARK    4  A    between atoms: C6_6  and  S9_9 
REMARK    5  A    between atoms: C7_7  and  O8_8 
ROOT
HETATM    1  C1  UNL     1     -33.272   6.270   3.752  1.00 20.00    -0.004 C 
HETATM    2  C2  UNL     1     -34.289   5.464   3.412  1.00 20.00    -0.019 C 
ENDROOT
BRANCH   1   3
HETATM    3  C5  UNL     1     -32.123   6.581   2.850  1.00 20.00     0.195 C 
BRANCH   3   4
HETATM    4  O8  UNL     1     -31.890   7.982   2.875  1.00 20.00    -0.383 OA
BRANCH   4   5
HETATM    5  C7  UNL     1     -32.442   8.624   1.733  1.00 20.00     0.113 C 
HETATM    6  C3  UNL     1     -32.743  10.076   2.071  1.00 20.00     0.039 C 
HETATM    7  C4  UNL     1     -31.469   8.501   0.570  1.00 20.00     0.039 C 
ENDBRANCH   4   5
ENDBRANCH   3   4
ENDBRANCH   1   3
BRANCH   2   8
HETATM    8  C6  UNL     1     -35.444   5.162   4.314  1.00 20.00     0.097 C 
BRANCH   8   9
HETATM    9  S9  UNL     1     -34.843   4.587   5.925  1.00 20.00    -0.178 SA
HETATM   10  H23 UNL     1     -34.816   3.284   5.613  1.00 20.00     0.101 HD
ENDBRANCH   8   9
ENDBRANCH   2   8
TORSDOF 5
ENDMDL
MODEL 4
REMARK VINA RESULT:      -3.8      2.985      5.228
REMARK  5 active torsions:
REMARK  status: ('A' for Active; 'I' for Inactive)
REMARK    1  A    between atoms: C1_1  and  C5_5 
REMARK    2  A    between atoms: C2_2  and  C6_6 
REMARK    3  A    between atoms: C5_5  and  O8_8 
REMARK    4  A    between atoms: C6_6  and  S9_9 
REMARK    5  A    between atoms: C7_7  and  O8_8 
ROOT
HETATM    1  C1  UNL     1     -33.228   6.224   4.115  1.00 20.00    -0.004 C 
HETATM    2  C2  UNL     1     -34.331   5.697   3.563  1.00 20.00    -0.019 C 
ENDROOT
BRANCH   1   3
HETATM    3  C5  UNL     1     -32.157   6.913   3.334  1.00 20.00     0.195 C 
BRANCH   3   4
HETATM    4  O8  UNL     1     -32.759   7.607   2.250  1.00 20.00    -0.383 OA
BRANCH   4   5
HETATM    5  C7  UNL     1     -31.959   8.701   1.822  1.00 20.00     0.113 C 
HETATM    6  C3  UNL     1     -31.532   8.476   0.380  1.00 20.00     0.039 C 
HETATM    7  C4  UNL     1     -32.747   9.992   1.986  1.00 20.00     0.039 C 
ENDBRANCH   4   5
ENDBRANCH   3   4
ENDBRANCH   1   3
BRANCH   2   8
HETATM    8  C6  UNL     1     -35.406   5.016   4.348  1.00 20.00     0.097 C 
BRANCH   8   9
HETATM    9  S9  UNL     1     -34.766   4.499   5.964  1.00 20.00    -0.178 SA
HETATM   10  H23 UNL     1     -35.924   4.008   6.429  1.00 20.00     0.101 HD
ENDBRANCH   8   9
ENDBRANCH   2   8
TORSDOF 5
ENDMDL
MODEL 5
REMARK VINA RESULT:      -3.6     11.232     11.716
REMARK  5 active torsions:
REMARK  status: ('A' for Active; 'I' for Inactive)
REMARK    1  A    between atoms: C1_1  and  C5_5 
REMARK    2  A    between atoms: C2_2  and  C6_6 
REMARK    3  A    between atoms: C5_5  and  O8_8 
REMARK    4  A    between atoms: C6_6  and  S9_9 
REMARK    5  A    between atoms: C7_7  and  O8_8 
ROOT
HETATM    1  C1  UNL     1     -33.759  16.250  -2.462  1.00 20.00    -0.004 C 
HETATM    2  C2  UNL     1     -34.680  16.248  -1.487  1.00 20.00    -0.019 C 
ENDROOT
BRANCH   1   3
HETATM    3  C5  UNL     1     -33.816  15.360  -3.660  1.00 20.00     0.195 C 
BRANCH   3   4
HETATM    4  O8  UNL     1     -34.438  14.138  -3.290  1.00 20.00    -0.383 OA
BRANCH   4   5
HETATM    5  C7  UNL     1     -35.386  13.718  -4.262  1.00 20.00     0.113 C 
HETATM    6  C3  UNL     1     -36.701  14.444  -4.027  1.00 20.00     0.039 C 
HETATM    7  C4  UNL     1     -34.830  13.985  -5.652  1.00 20.00     0.039 C 
ENDBRANCH   4   5
ENDBRANCH   3   4
ENDBRANCH   1   3
BRANCH   2   8
HETATM    8  C6  UNL     1     -34.626  17.147  -0.294  1.00 20.00     0.097 C 
BRANCH   8   9
HETATM    9  S9  UNL     1     -33.288  18.356  -0.484  1.00 20.00    -0.178 SA
HETATM   10  H23 UNL     1     -33.803  18.975  -1.556  1.00 20.00     0.101 HD
ENDBRANCH   8   9
ENDBRANCH   2   8
TORSDOF 5
ENDMDL
MODEL 6
REMARK VINA RESULT:      -3.5     11.419     12.301
REMARK  5 active torsions:
REMARK  status: ('A' for Active; 'I' for Inactive)
REMARK    1  A    between atoms: C1_1  and  C5_5 
REMARK    2  A    between atoms: C2_2  and  C6_6 
REMARK    3  A    between atoms: C5_5  and  O8_8 
REMARK    4  A    between atoms: C6_6  and  S9_9 
REMARK    5  A    between atoms: C7_7  and  O8_8 
ROOT
HETATM    1  C1  UNL     1     -33.685  16.304  -2.648  1.00 20.00    -0.004 C 
HETATM    2  C2  UNL     1     -34.684  16.203  -1.759  1.00 20.00    -0.019 C 
ENDROOT
BRANCH   1   3
HETATM    3  C5  UNL     1     -33.676  15.606  -3.969  1.00 20.00     0.195 C 
BRANCH   3   4
HETATM    4  O8  UNL     1     -35.004  15.565  -4.471  1.00 20.00    -0.383 OA
BRANCH   4   5
HETATM    5  C7  UNL     1     -35.179  14.507  -5.404  1.00 20.00     0.113 C 
HETATM    6  C3  UNL     1     -34.497  14.874  -6.712  1.00 20.00     0.039 C 
HETATM    7  C4  UNL     1     -34.619  13.221  -4.813  1.00 20.00     0.039 C 
ENDBRANCH   4   5
ENDBRANCH   3   4
ENDBRANCH   1   3
BRANCH   2   8
HETATM    8  C6  UNL     1     -34.694  16.910  -0.441  1.00 20.00     0.097 C 
BRANCH   8   9
HETATM    9  S9  UNL     1     -33.440  18.220  -0.426  1.00 20.00    -0.178 SA
HETATM   10  H23 UNL     1     -32.809  17.803   0.681  1.00 20.00     0.101 HD
ENDBRANCH   8   9
ENDBRANCH   2   8
TORSDOF 5
ENDMDL
MODEL 7
REMARK VINA RESULT:      -3.5     11.155     12.079
REMARK  5 active torsions:
REMARK  status: ('A' for Active; 'I' for Inactive)
REMARK    1  A    between atoms: C1_1  and  C5_5 
REMARK    2  A    between atoms: C2_2  and  C6_6 
REMARK    3  A    between atoms: C5_5  and  O8_8 
REMARK    4  A    between atoms: C6_6  and  S9_9 
REMARK    5  A    between atoms: C7_7  and  O8_8 
ROOT
HETATM    1  C1  UNL     1     -34.752  16.688  -0.828  1.00 20.00    -0.004 C 
HETATM    2  C2  UNL     1     -33.870  17.616  -0.430  1.00 20.00    -0.019 C 
ENDROOT
BRANCH   1   3
HETATM    3  C5  UNL     1     -34.640  15.933  -2.112  1.00 20.00     0.195 C 
BRANCH   3   4
HETATM    4  O8  UNL     1     -33.352  16.162  -2.664  1.00 20.00    -0.383 OA
BRANCH   4   5
HETATM    5  C7  UNL     1     -33.121  15.352  -3.809  1.00 20.00     0.113 C 
HETATM    6  C3  UNL     1     -33.973  14.096  -3.714  1.00 20.00     0.039 C 
HETATM    7  C4  UNL     1     -33.434  16.156  -5.062  1.00 20.00     0.039 C 
ENDBRANCH   4   5
ENDBRANCH   3   4
ENDBRANCH   1   3
BRANCH   2   8
HETATM    8  C6  UNL     1     -33.980  18.364   0.861  1.00 20.00     0.097 C 
BRANCH   8   9
HETATM    9  S9  UNL     1     -35.387  17.745   1.823  1.00 20.00    -0.178 SA
HETATM   10  H23 UNL     1     -36.242  17.664   0.793  1.00 20.00     0.101 HD
ENDBRANCH   8   9
ENDBRANCH   2   8
TORSDOF 5
ENDMDL
MODEL 8
REMARK VINA RESULT:      -3.4     11.343     11.921
REMARK  5 active torsions:
REMARK  status: ('A' for Active; 'I' for Inactive)
REMARK    1  A    between atoms: C1_1  and  C5_5 
REMARK    2  A    between atoms: C2_2  and  C6_6 
REMARK    3  A    between atoms: C5_5  and  O8_8 
REMARK    4  A    between atoms: C6_6  and  S9_9 
REMARK    5  A    between atoms: C7_7  and  O8_8 
ROOT
HETATM    1  C1  UNL     1     -33.843  16.445  -2.493  1.00 20.00    -0.004 C 
HETATM    2  C2  UNL     1     -34.635  16.255  -1.427  1.00 20.00    -0.019 C 
ENDROOT
BRANCH   1   3
HETATM    3  C5  UNL     1     -33.739  15.483  -3.631  1.00 20.00     0.195 C 
BRANCH   3   4
HETATM    4  O8  UNL     1     -34.810  15.726  -4.532  1.00 20.00    -0.383 OA
BRANCH   4   5
HETATM    5  C7  UNL     1     -35.557  14.545  -4.789  1.00 20.00     0.113 C 
HETATM    6  C3  UNL     1     -34.693  13.330  -4.488  1.00 20.00     0.039 C 
HETATM    7  C4  UNL     1     -36.825  14.562  -3.948  1.00 20.00     0.039 C 
ENDBRANCH   4   5
ENDBRANCH   3   4
ENDBRANCH   1   3
BRANCH   2   8
HETATM    8  C6  UNL     1     -34.744  17.224  -0.293  1.00 20.00     0.097 C 
BRANCH   8   9
HETATM    9  S9  UNL     1     -33.333  18.363  -0.308  1.00 20.00    -0.178 SA
HETATM   10  H23 UNL     1     -33.196  18.407  -1.640  1.00 20.00     0.101 HD
ENDBRANCH   8   9
ENDBRANCH   2   8
TORSDOF 5
ENDMDL
MODEL 9
REMARK VINA RESULT:      -3.4     10.707     11.291
REMARK  5 active torsions:
REMARK  status: ('A' for Active; 'I' for Inactive)
REMARK    1  A    between atoms: C1_1  and  C5_5 
REMARK    2  A    between atoms: C2_2  and  C6_6 
REMARK    3  A    between atoms: C5_5  and  O8_8 
REMARK    4  A    between atoms: C6_6  and  S9_9 
REMARK    5  A    between atoms: C7_7  and  O8_8 
ROOT
HETATM    1  C1  UNL     1     -42.209   3.086  -2.672  1.00 20.00    -0.004 C 
HETATM    2  C2  UNL     1     -41.392   2.365  -3.454  1.00 20.00    -0.019 C 
ENDROOT
BRANCH   1   3
HETATM    3  C5  UNL     1     -41.970   4.518  -2.320  1.00 20.00     0.195 C 
BRANCH   3   4
HETATM    4  O8  UNL     1     -40.745   4.614  -1.607  1.00 20.00    -0.383 OA
BRANCH   4   5
HETATM    5  C7  UNL     1     -40.844   5.522  -0.518  1.00 20.00     0.113 C 
HETATM    6  C3  UNL     1     -41.051   6.929  -1.054  1.00 20.00     0.039 C 
HETATM    7  C4  UNL     1     -41.982   5.088   0.394  1.00 20.00     0.039 C 
ENDBRANCH   4   5
ENDBRANCH   3   4
ENDBRANCH   1   3
BRANCH   2   8
HETATM    8  C6  UNL     1     -41.637   0.934  -3.813  1.00 20.00     0.097 C 
BRANCH   8   9
HETATM    9  S9  UNL     1     -43.164   0.348  -3.030  1.00 20.00    -0.178 SA
HETATM   10  H23 UNL     1     -44.000   1.089  -3.770  1.00 20.00     0.101 HD
ENDBRANCH   8   9
ENDBRANCH   2   8
TORSDOF 5
ENDMDL
