MODEL 1
REMARK VINA RESULT:      -3.5      0.000      0.000
REMARK  6 active torsions:
REMARK  status: ('A' for Active; 'I' for Inactive)
REMARK    1  A    between atoms: C4_4  and  C5_5 
REMARK    2  A    between atoms: C5_5  and  S10_10 
REMARK    3  A    between atoms: C6_6  and  C8_8 
REMARK    4  A    between atoms: C6_6  and  S9_9 
REMARK    5  A    between atoms: C7_7  and  C8_8 
REMARK    6  A    between atoms: C7_7  and  S10_10 
ROOT
HETATM    1  C2  UNL     1     -34.709  13.538  -4.965  1.00 20.00     0.016 C 
HETATM    2  C3  UNL     1     -34.382  14.928  -7.000  1.00 20.00     0.016 C 
HETATM    3  C8  UNL     1     -34.690  14.994  -5.487  1.00 20.00    -0.031 C 
ENDROOT
BRANCH   3   4
HETATM    4  C6  UNL     1     -36.104  15.595  -5.253  1.00 20.00     0.080 C 
BRANCH   4   5
HETATM    5  S9  UNL     1     -37.056  14.896  -3.865  1.00 20.00    -0.181 SA
HETATM    6  H28 UNL     1     -38.140  14.584  -4.588  1.00 20.00     0.101 HD
ENDBRANCH   4   5
ENDBRANCH   3   4
BRANCH   3   7
HETATM    7  C7  UNL     1     -33.543  15.791  -4.807  1.00 20.00     0.083 C 
BRANCH   7   8
HETATM    8  S10 UNL     1     -33.705  17.607  -4.823  1.00 20.00    -0.168 SA
BRANCH   8   9
HETATM    9  C5  UNL     1     -34.035  17.847  -3.063  1.00 20.00     0.073 C 
BRANCH   9  10
HETATM   10  C4  UNL     1     -33.802  16.551  -2.294  1.00 20.00     0.006 C 
HETATM   11  C1  UNL     1     -34.626  16.517  -1.015  1.00 20.00     0.006 C 
ENDBRANCH   9  10
ENDBRANCH   8   9
ENDBRANCH   7   8
ENDBRANCH   3   7
TORSDOF 6
ENDMDL
MODEL 2
REMARK VINA RESULT:      -3.4      1.596      2.098
REMARK  6 active torsions:
REMARK  status: ('A' for Active; 'I' for Inactive)
REMARK    1  A    between atoms: C4_4  and  C5_5 
REMARK    2  A    between atoms: C5_5  and  S10_10 
REMARK    3  A    between atoms: C6_6  and  C8_8 
REMARK    4  A    between atoms: C6_6  and  S9_9 
REMARK    5  A    between atoms: C7_7  and  C8_8 
REMARK    6  A    between atoms: C7_7  and  S10_10 
ROOT
HETATM    1  C2  UNL     1     -36.034  14.644  -3.767  1.00 20.00     0.016 C 
HETATM    2  C3  UNL     1     -33.736  13.698  -3.691  1.00 20.00     0.016 C 
HETATM    3  C8  UNL     1     -34.684  14.597  -4.518  1.00 20.00    -0.031 C 
ENDROOT
BRANCH   3   4
HETATM    4  C6  UNL     1     -34.944  13.961  -5.912  1.00 20.00     0.080 C 
BRANCH   4   5
HETATM    5  S9  UNL     1     -34.738  15.062  -7.350  1.00 20.00    -0.181 SA
HETATM    6  H28 UNL     1     -33.862  14.280  -7.995  1.00 20.00     0.101 HD
ENDBRANCH   4   5
ENDBRANCH   3   4
BRANCH   3   7
HETATM    7  C7  UNL     1     -34.054  16.016  -4.578  1.00 20.00     0.083 C 
BRANCH   7   8
HETATM    8  S10 UNL     1     -35.146  17.401  -4.115  1.00 20.00    -0.168 SA
BRANCH   8   9
HETATM    9  C5  UNL     1     -34.154  18.064  -2.760  1.00 20.00     0.073 C 
BRANCH   9  10
HETATM   10  C4  UNL     1     -33.683  16.941  -1.843  1.00 20.00     0.006 C 
HETATM   11  C1  UNL     1     -34.705  16.659  -0.751  1.00 20.00     0.006 C 
ENDBRANCH   9  10
ENDBRANCH   8   9
ENDBRANCH   7   8
ENDBRANCH   3   7
TORSDOF 6
ENDMDL
MODEL 3
REMARK VINA RESULT:      -3.4      0.945      2.667
REMARK  6 active torsions:
REMARK  status: ('A' for Active; 'I' for Inactive)
REMARK    1  A    between atoms: C4_4  and  C5_5 
REMARK    2  A    between atoms: C5_5  and  S10_10 
REMARK    3  A    between atoms: C6_6  and  C8_8 
REMARK    4  A    between atoms: C6_6  and  S9_9 
REMARK    5  A    between atoms: C7_7  and  C8_8 
REMARK    6  A    between atoms: C7_7  and  S10_10 
ROOT
HETATM    1  C2  UNL     1     -34.447  14.916  -7.078  1.00 20.00     0.016 C 
HETATM    2  C3  UNL     1     -34.223  13.953  -4.797  1.00 20.00     0.016 C 
HETATM    3  C8  UNL     1     -34.470  15.267  -5.572  1.00 20.00    -0.031 C 
ENDROOT
BRANCH   3   4
HETATM    4  C6  UNL     1     -33.313  16.272  -5.307  1.00 20.00     0.080 C 
BRANCH   4   5
HETATM    5  S9  UNL     1     -33.725  18.038  -5.485  1.00 20.00    -0.181 SA
HETATM    6  H28 UNL     1     -33.449  18.109  -6.795  1.00 20.00     0.101 HD
ENDBRANCH   4   5
ENDBRANCH   3   4
BRANCH   3   7
HETATM    7  C7  UNL     1     -35.873  15.797  -5.167  1.00 20.00     0.083 C 
BRANCH   7   8
HETATM    8  S10 UNL     1     -36.477  15.298  -3.520  1.00 20.00    -0.168 SA
BRANCH   8   9
HETATM    9  C5  UNL     1     -35.838  16.702  -2.580  1.00 20.00     0.073 C 
BRANCH   9  10
HETATM   10  C4  UNL     1     -34.669  16.269  -1.701  1.00 20.00     0.006 C 
HETATM   11  C1  UNL     1     -34.727  16.944  -0.339  1.00 20.00     0.006 C 
ENDBRANCH   9  10
ENDBRANCH   8   9
ENDBRANCH   7   8
ENDBRANCH   3   7
TORSDOF 6
ENDMDL
MODEL 4
REMARK VINA RESULT:      -3.4      1.809      2.439
REMARK  6 active torsions:
REMARK  status: ('A' for Active; 'I' for Inactive)
REMARK    1  A    between atoms: C4_4  and  C5_5 
REMARK    2  A    between atoms: C5_5  and  S10_10 
REMARK    3  A    between atoms: C6_6  and  C8_8 
REMARK    4  A    between atoms: C6_6  and  S9_9 
REMARK    5  A    between atoms: C7_7  and  C8_8 
REMARK    6  A    between atoms: C7_7  and  S10_10 
ROOT
HETATM    1  C2  UNL     1     -33.191  13.637  -3.681  1.00 20.00     0.016 C 
HETATM    2  C3  UNL     1     -33.349  15.968  -4.531  1.00 20.00     0.016 C 
HETATM    3  C8  UNL     1     -34.172  14.693  -4.240  1.00 20.00    -0.031 C 
ENDROOT
BRANCH   3   4
HETATM    4  C6  UNL     1     -34.769  14.127  -5.560  1.00 20.00     0.080 C 
BRANCH   4   5
HETATM    5  S9  UNL     1     -34.452  15.100  -7.068  1.00 20.00    -0.181 SA
HETATM    6  H28 UNL     1     -33.579  14.236  -7.604  1.00 20.00     0.101 HD
ENDBRANCH   4   5
ENDBRANCH   3   4
BRANCH   3   7
HETATM    7  C7  UNL     1     -35.237  15.055  -3.168  1.00 20.00     0.083 C 
BRANCH   7   8
HETATM    8  S10 UNL     1     -36.241  16.540  -3.499  1.00 20.00    -0.168 SA
BRANCH   8   9
HETATM    9  C5  UNL     1     -35.807  17.476  -2.017  1.00 20.00     0.073 C 
BRANCH   9  10
HETATM   10  C4  UNL     1     -34.812  16.695  -1.165  1.00 20.00     0.006 C 
HETATM   11  C1  UNL     1     -33.662  17.583  -0.712  1.00 20.00     0.006 C 
ENDBRANCH   9  10
ENDBRANCH   8   9
ENDBRANCH   7   8
ENDBRANCH   3   7
TORSDOF 6
ENDMDL
MODEL 5
REMARK VINA RESULT:      -3.4      1.877      2.312
REMARK  6 active torsions:
REMARK  status: ('A' for Active; 'I' for Inactive)
REMARK    1  A    between atoms: C4_4  and  C5_5 
REMARK    2  A    between atoms: C5_5  and  S10_10 
REMARK    3  A    between atoms: C6_6  and  C8_8 
REMARK    4  A    between atoms: C6_6  and  S9_9 
REMARK    5  A    between atoms: C7_7  and  C8_8 
REMARK    6  A    between atoms: C7_7  and  S10_10 
ROOT
HETATM    1  C2  UNL     1     -34.608  13.254  -4.684  1.00 20.00     0.016 C 
HETATM    2  C3  UNL     1     -32.890  14.725  -3.650  1.00 20.00     0.016 C 
HETATM    3  C8  UNL     1     -34.297  14.717  -4.291  1.00 20.00    -0.031 C 
ENDROOT
BRANCH   3   4
HETATM    4  C6  UNL     1     -34.296  15.563  -5.595  1.00 20.00     0.080 C 
BRANCH   4   5
HETATM    5  S9  UNL     1     -34.935  14.738  -7.090  1.00 20.00    -0.181 SA
HETATM    6  H28 UNL     1     -35.971  15.569  -7.269  1.00 20.00     0.101 HD
ENDBRANCH   4   5
ENDBRANCH   3   4
BRANCH   3   7
HETATM    7  C7  UNL     1     -35.306  15.210  -3.218  1.00 20.00     0.083 C 
BRANCH   7   8
HETATM    8  S10 UNL     1     -35.842  16.948  -3.354  1.00 20.00    -0.168 SA
BRANCH   8   9
HETATM    9  C5  UNL     1     -34.751  17.649  -2.096  1.00 20.00     0.073 C 
BRANCH   9  10
HETATM   10  C4  UNL     1     -34.582  16.677  -0.933  1.00 20.00     0.006 C 
HETATM   11  C1  UNL     1     -34.955  17.332   0.388  1.00 20.00     0.006 C 
ENDBRANCH   9  10
ENDBRANCH   8   9
ENDBRANCH   7   8
ENDBRANCH   3   7
TORSDOF 6
ENDMDL
MODEL 6
REMARK VINA RESULT:      -3.4      1.364      1.904
REMARK  6 active torsions:
REMARK  status: ('A' for Active; 'I' for Inactive)
REMARK    1  A    between atoms: C4_4  and  C5_5 
REMARK    2  A    between atoms: C5_5  and  S10_10 
REMARK    3  A    between atoms: C6_6  and  C8_8 
REMARK    4  A    between atoms: C6_6  and  S9_9 
REMARK    5  A    between atoms: C7_7  and  C8_8 
REMARK    6  A    between atoms: C7_7  and  S10_10 
ROOT
HETATM    1  C2  UNL     1     -36.105  15.227  -5.038  1.00 20.00     0.016 C 
HETATM    2  C3  UNL     1     -34.608  13.246  -4.915  1.00 20.00     0.016 C 
HETATM    3  C8  UNL     1     -34.676  14.727  -5.352  1.00 20.00    -0.031 C 
ENDROOT
BRANCH   3   4
HETATM    4  C6  UNL     1     -34.464  14.843  -6.888  1.00 20.00     0.080 C 
BRANCH   4   5
HETATM    5  S9  UNL     1     -35.966  14.746  -7.916  1.00 20.00    -0.181 SA
HETATM    6  H28 UNL     1     -35.322  14.691  -9.090  1.00 20.00     0.101 HD
ENDBRANCH   4   5
ENDBRANCH   3   4
BRANCH   3   7
HETATM    7  C7  UNL     1     -33.636  15.515  -4.508  1.00 20.00     0.083 C 
BRANCH   7   8
HETATM    8  S10 UNL     1     -33.688  17.331  -4.658  1.00 20.00    -0.168 SA
BRANCH   8   9
HETATM    9  C5  UNL     1     -34.122  17.715  -2.947  1.00 20.00     0.073 C 
BRANCH   9  10
HETATM   10  C4  UNL     1     -34.041  16.462  -2.082  1.00 20.00     0.006 C 
HETATM   11  C1  UNL     1     -34.569  16.728  -0.680  1.00 20.00     0.006 C 
ENDBRANCH   9  10
ENDBRANCH   8   9
ENDBRANCH   7   8
ENDBRANCH   3   7
TORSDOF 6
ENDMDL
MODEL 7
REMARK VINA RESULT:      -3.3      1.560      4.407
REMARK  6 active torsions:
REMARK  status: ('A' for Active; 'I' for Inactive)
REMARK    1  A    between atoms: C4_4  and  C5_5 
REMARK    2  A    between atoms: C5_5  and  S10_10 
REMARK    3  A    between atoms: C6_6  and  C8_8 
REMARK    4  A    between atoms: C6_6  and  S9_9 
REMARK    5  A    between atoms: C7_7  and  C8_8 
REMARK    6  A    between atoms: C7_7  and  S10_10 
ROOT
HETATM    1  C2  UNL     1     -33.127  15.634  -3.612  1.00 20.00     0.016 C 
HETATM    2  C3  UNL     1     -34.788  16.132  -1.830  1.00 20.00     0.016 C 
HETATM    3  C8  UNL     1     -34.629  15.890  -3.349  1.00 20.00    -0.031 C 
ENDROOT
BRANCH   3   4
HETATM    4  C6  UNL     1     -35.034  17.165  -4.140  1.00 20.00     0.080 C 
BRANCH   4   5
HETATM    5  S9  UNL     1     -33.669  18.120  -4.880  1.00 20.00    -0.181 SA
HETATM    6  H28 UNL     1     -32.781  17.858  -3.912  1.00 20.00     0.101 HD
ENDBRANCH   4   5
ENDBRANCH   3   4
BRANCH   3   7
HETATM    7  C7  UNL     1     -35.460  14.628  -3.714  1.00 20.00     0.083 C 
BRANCH   7   8
HETATM    8  S10 UNL     1     -34.700  13.483  -4.911  1.00 20.00    -0.168 SA
BRANCH   8   9
HETATM    9  C5  UNL     1     -35.414  14.178  -6.417  1.00 20.00     0.073 C 
BRANCH   9  10
HETATM   10  C4  UNL     1     -34.380  15.016  -7.161  1.00 20.00     0.006 C 
HETATM   11  C1  UNL     1     -35.029  16.214  -7.838  1.00 20.00     0.006 C 
ENDBRANCH   9  10
ENDBRANCH   8   9
ENDBRANCH   7   8
ENDBRANCH   3   7
TORSDOF 6
ENDMDL
MODEL 8
REMARK VINA RESULT:      -3.3      1.792      3.969
REMARK  6 active torsions:
REMARK  status: ('A' for Active; 'I' for Inactive)
REMARK    1  A    between atoms: C4_4  and  C5_5 
REMARK    2  A    between atoms: C5_5  and  S10_10 
REMARK    3  A    between atoms: C6_6  and  C8_8 
REMARK    4  A    between atoms: C6_6  and  S9_9 
REMARK    5  A    between atoms: C7_7  and  C8_8 
REMARK    6  A    between atoms: C7_7  and  S10_10 
ROOT
HETATM    1  C2  UNL     1     -35.828  15.306  -3.146  1.00 20.00     0.016 C 
HETATM    2  C3  UNL     1     -34.489  16.502  -1.425  1.00 20.00     0.016 C 
HETATM    3  C8  UNL     1     -34.556  16.159  -2.931  1.00 20.00    -0.031 C 
ENDROOT
BRANCH   3   4
HETATM    4  C6  UNL     1     -33.333  15.289  -3.337  1.00 20.00     0.080 C 
BRANCH   4   5
HETATM    5  S9  UNL     1     -33.702  13.588  -3.880  1.00 20.00    -0.181 SA
HETATM    6  H28 UNL     1     -34.606  13.935  -4.806  1.00 20.00     0.101 HD
ENDBRANCH   4   5
ENDBRANCH   3   4
BRANCH   3   7
HETATM    7  C7  UNL     1     -34.669  17.496  -3.714  1.00 20.00     0.083 C 
BRANCH   7   8
HETATM    8  S10 UNL     1     -33.670  17.627  -5.233  1.00 20.00    -0.168 SA
BRANCH   8   9
HETATM    9  C5  UNL     1     -34.850  16.879  -6.379  1.00 20.00     0.073 C 
BRANCH   9  10
HETATM   10  C4  UNL     1     -34.260  15.622  -7.007  1.00 20.00     0.006 C 
HETATM   11  C1  UNL     1     -35.326  14.552  -7.197  1.00 20.00     0.006 C 
ENDBRANCH   9  10
ENDBRANCH   8   9
ENDBRANCH   7   8
ENDBRANCH   3   7
TORSDOF 6
ENDMDL
MODEL 9
REMARK VINA RESULT:      -3.3      1.587      3.792
REMARK  6 active torsions:
REMARK  status: ('A' for Active; 'I' for Inactive)
REMARK    1  A    between atoms: C4_4  and  C5_5 
REMARK    2  A    between atoms: C5_5  and  S10_10 
REMARK    3  A    between atoms: C6_6  and  C8_8 
REMARK    4  A    between atoms: C6_6  and  S9_9 
REMARK    5  A    between atoms: C7_7  and  C8_8 
REMARK    6  A    between atoms: C7_7  and  S10_10 
ROOT
HETATM    1  C2  UNL     1     -34.551  16.263  -1.660  1.00 20.00     0.016 C 
HETATM    2  C3  UNL     1     -33.148  15.375  -3.510  1.00 20.00     0.016 C 
HETATM    3  C8  UNL     1     -34.543  15.949  -3.174  1.00 20.00    -0.031 C 
ENDROOT
BRANCH   3   4
HETATM    4  C6  UNL     1     -35.640  14.881  -3.439  1.00 20.00     0.080 C 
BRANCH   4   5
HETATM    5  S9  UNL     1     -35.093  13.354  -4.269  1.00 20.00    -0.181 SA
HETATM    6  H28 UNL     1     -36.319  12.943  -4.618  1.00 20.00     0.101 HD
ENDBRANCH   4   5
ENDBRANCH   3   4
BRANCH   3   7
HETATM    7  C7  UNL     1     -34.723  17.258  -3.993  1.00 20.00     0.083 C 
BRANCH   7   8
HETATM    8  S10 UNL     1     -33.643  17.451  -5.449  1.00 20.00    -0.168 SA
BRANCH   8   9
HETATM    9  C5  UNL     1     -34.789  16.828  -6.699  1.00 20.00     0.073 C 
BRANCH   9  10
HETATM   10  C4  UNL     1     -34.277  15.516  -7.285  1.00 20.00     0.006 C 
HETATM   11  C1  UNL     1     -35.430  14.623  -7.718  1.00 20.00     0.006 C 
ENDBRANCH   9  10
ENDBRANCH   8   9
ENDBRANCH   7   8
ENDBRANCH   3   7
TORSDOF 6
ENDMDL
