MODEL 1
REMARK VINA RESULT:      -3.5      0.000      0.000
REMARK  5 active torsions:
REMARK  status: ('A' for Active; 'I' for Inactive)
REMARK    1  A    between atoms: C4_4  and  C7_7 
REMARK    2  A    between atoms: C4_4  and  O8_8 
REMARK    3  A    between atoms: C5_5  and  C7_7 
REMARK    4  A    between atoms: C5_5  and  S9_9 
REMARK    5  A    between atoms: C6_6  and  C7_7 
ROOT
HETATM    1  C7  UNL     1     -35.323  14.113  -3.937  1.00 20.00     0.022 C 
ENDROOT
BRANCH   1   2
HETATM    2  C4  UNL     1     -36.619  14.939  -4.083  1.00 20.00     0.172 C 
BRANCH   2   3
HETATM    3  O8  UNL     1     -37.751  14.165  -3.707  1.00 20.00    -0.396 OA
HETATM    4  C3  UNL     1     -38.959  14.747  -4.176  1.00 20.00     0.201 C 
ENDBRANCH   2   3
ENDBRANCH   1   2
BRANCH   1   5
HETATM    5  C5  UNL     1     -34.775  13.653  -5.312  1.00 20.00     0.077 C 
BRANCH   5   6
HETATM    6  S9  UNL     1     -35.449  14.541  -6.751  1.00 20.00    -0.182 SA
HETATM    7  H25 UNL     1     -35.807  15.642  -6.076  1.00 20.00     0.101 HD
ENDBRANCH   5   6
ENDBRANCH   1   5
BRANCH   1   8
HETATM    8  C6  UNL     1     -34.270  14.841  -3.043  1.00 20.00    -0.016 C 
HETATM    9  C1  UNL     1     -33.103  15.405  -3.865  1.00 20.00     0.010 C 
HETATM   10  C2  UNL     1     -34.888  15.989  -2.234  1.00 20.00     0.010 C 
ENDBRANCH   1   8
TORSDOF 5
ENDMDL
MODEL 2
REMARK VINA RESULT:      -3.5      0.492      1.257
REMARK  5 active torsions:
REMARK  status: ('A' for Active; 'I' for Inactive)
REMARK    1  A    between atoms: C4_4  and  C7_7 
REMARK    2  A    between atoms: C4_4  and  O8_8 
REMARK    3  A    between atoms: C5_5  and  C7_7 
REMARK    4  A    between atoms: C5_5  and  S9_9 
REMARK    5  A    between atoms: C6_6  and  C7_7 
ROOT
HETATM    1  C7  UNL     1     -35.415  14.519  -3.650  1.00 20.00     0.022 C 
ENDROOT
BRANCH   1   2
HETATM    2  C4  UNL     1     -36.816  15.161  -3.736  1.00 20.00     0.172 C 
BRANCH   2   3
HETATM    3  O8  UNL     1     -37.825  14.158  -3.755  1.00 20.00    -0.396 OA
HETATM    4  C3  UNL     1     -39.040  14.653  -4.300  1.00 20.00     0.201 C 
ENDBRANCH   2   3
ENDBRANCH   1   2
BRANCH   1   5
HETATM    5  C5  UNL     1     -35.114  13.624  -4.879  1.00 20.00     0.077 C 
BRANCH   5   6
HETATM    6  S9  UNL     1     -35.290  14.444  -6.495  1.00 20.00    -0.182 SA
HETATM    7  H25 UNL     1     -34.084  14.091  -6.959  1.00 20.00     0.101 HD
ENDBRANCH   5   6
ENDBRANCH   1   5
BRANCH   1   8
HETATM    8  C6  UNL     1     -34.310  15.580  -3.349  1.00 20.00    -0.016 C 
HETATM    9  C1  UNL     1     -34.400  16.117  -1.914  1.00 20.00     0.010 C 
HETATM   10  C2  UNL     1     -32.896  15.025  -3.568  1.00 20.00     0.010 C 
ENDBRANCH   1   8
TORSDOF 5
ENDMDL
MODEL 3
REMARK VINA RESULT:      -3.5      2.195      3.179
REMARK  5 active torsions:
REMARK  status: ('A' for Active; 'I' for Inactive)
REMARK    1  A    between atoms: C4_4  and  C7_7 
REMARK    2  A    between atoms: C4_4  and  O8_8 
REMARK    3  A    between atoms: C5_5  and  C7_7 
REMARK    4  A    between atoms: C5_5  and  S9_9 
REMARK    5  A    between atoms: C6_6  and  C7_7 
ROOT
HETATM    1  C7  UNL     1     -33.608  16.086  -3.056  1.00 20.00     0.022 C 
ENDROOT
BRANCH   1   2
HETATM    2  C4  UNL     1     -33.305  14.715  -3.698  1.00 20.00     0.172 C 
BRANCH   2   3
HETATM    3  O8  UNL     1     -34.306  13.767  -3.348  1.00 20.00    -0.396 OA
HETATM    4  C3  UNL     1     -34.953  13.245  -4.500  1.00 20.00     0.201 C 
ENDBRANCH   2   3
ENDBRANCH   1   2
BRANCH   1   5
HETATM    5  C5  UNL     1     -33.662  17.219  -4.113  1.00 20.00     0.077 C 
BRANCH   5   6
HETATM    6  S9  UNL     1     -33.840  16.660  -5.836  1.00 20.00    -0.182 SA
HETATM    7  H25 UNL     1     -34.023  15.366  -5.542  1.00 20.00     0.101 HD
ENDBRANCH   5   6
ENDBRANCH   1   5
BRANCH   1   8
HETATM    8  C6  UNL     1     -34.859  16.025  -2.123  1.00 20.00    -0.016 C 
HETATM    9  C1  UNL     1     -34.593  16.674  -0.757  1.00 20.00     0.010 C 
HETATM   10  C2  UNL     1     -36.084  16.703  -2.749  1.00 20.00     0.010 C 
ENDBRANCH   1   8
TORSDOF 5
ENDMDL
MODEL 4
REMARK VINA RESULT:      -3.4      2.767      3.729
REMARK  5 active torsions:
REMARK  status: ('A' for Active; 'I' for Inactive)
REMARK    1  A    between atoms: C4_4  and  C7_7 
REMARK    2  A    between atoms: C4_4  and  O8_8 
REMARK    3  A    between atoms: C5_5  and  C7_7 
REMARK    4  A    between atoms: C5_5  and  S9_9 
REMARK    5  A    between atoms: C6_6  and  C7_7 
ROOT
HETATM    1  C7  UNL     1     -34.322  16.340  -3.112  1.00 20.00     0.022 C 
ENDROOT
BRANCH   1   2
HETATM    2  C4  UNL     1     -33.243  15.530  -3.862  1.00 20.00     0.172 C 
BRANCH   2   3
HETATM    3  O8  UNL     1     -32.675  16.306  -4.910  1.00 20.00    -0.396 OA
HETATM    4  C3  UNL     1     -33.660  17.085  -5.575  1.00 20.00     0.201 C 
ENDBRANCH   2   3
ENDBRANCH   1   2
BRANCH   1   5
HETATM    5  C5  UNL     1     -35.639  15.537  -2.953  1.00 20.00     0.077 C 
BRANCH   5   6
HETATM    6  S9  UNL     1     -35.905  14.234  -4.196  1.00 20.00    -0.182 SA
HETATM    7  H25 UNL     1     -36.902  14.860  -4.838  1.00 20.00     0.101 HD
ENDBRANCH   5   6
ENDBRANCH   1   5
BRANCH   1   8
HETATM    8  C6  UNL     1     -33.775  16.936  -1.776  1.00 20.00    -0.016 C 
HETATM    9  C1  UNL     1     -33.493  18.441  -1.888  1.00 20.00     0.010 C 
HETATM   10  C2  UNL     1     -34.736  16.711  -0.602  1.00 20.00     0.010 C 
ENDBRANCH   1   8
TORSDOF 5
ENDMDL
MODEL 5
REMARK VINA RESULT:      -3.3      2.584      3.594
REMARK  5 active torsions:
REMARK  status: ('A' for Active; 'I' for Inactive)
REMARK    1  A    between atoms: C4_4  and  C7_7 
REMARK    2  A    between atoms: C4_4  and  O8_8 
REMARK    3  A    between atoms: C5_5  and  C7_7 
REMARK    4  A    between atoms: C5_5  and  S9_9 
REMARK    5  A    between atoms: C6_6  and  C7_7 
ROOT
HETATM    1  C7  UNL     1     -34.906  15.400  -3.351  1.00 20.00     0.022 C 
ENDROOT
BRANCH   1   2
HETATM    2  C4  UNL     1     -34.051  16.156  -2.312  1.00 20.00     0.172 C 
BRANCH   2   3
HETATM    3  O8  UNL     1     -34.719  16.210  -1.058  1.00 20.00    -0.396 OA
HETATM    4  C3  UNL     1     -34.396  17.396  -0.346  1.00 20.00     0.201 C 
ENDBRANCH   2   3
ENDBRANCH   1   2
BRANCH   1   5
HETATM    5  C5  UNL     1     -35.066  16.207  -4.664  1.00 20.00     0.077 C 
BRANCH   5   6
HETATM    6  S9  UNL     1     -33.616  17.197  -5.146  1.00 20.00    -0.182 SA
HETATM    7  H25 UNL     1     -34.022  18.330  -4.556  1.00 20.00     0.101 HD
ENDBRANCH   5   6
ENDBRANCH   1   5
BRANCH   1   8
HETATM    8  C6  UNL     1     -34.403  13.936  -3.560  1.00 20.00    -0.016 C 
HETATM    9  C1  UNL     1     -34.891  13.341  -4.888  1.00 20.00     0.010 C 
HETATM   10  C2  UNL     1     -32.873  13.836  -3.520  1.00 20.00     0.010 C 
ENDBRANCH   1   8
TORSDOF 5
ENDMDL
MODEL 6
REMARK VINA RESULT:      -3.3      2.906      4.249
REMARK  5 active torsions:
REMARK  status: ('A' for Active; 'I' for Inactive)
REMARK    1  A    between atoms: C4_4  and  C7_7 
REMARK    2  A    between atoms: C4_4  and  O8_8 
REMARK    3  A    between atoms: C5_5  and  C7_7 
REMARK    4  A    between atoms: C5_5  and  S9_9 
REMARK    5  A    between atoms: C6_6  and  C7_7 
ROOT
HETATM    1  C7  UNL     1     -34.286  15.100  -2.970  1.00 20.00     0.022 C 
ENDROOT
BRANCH   1   2
HETATM    2  C4  UNL     1     -33.176  15.671  -3.879  1.00 20.00     0.172 C 
BRANCH   2   3
HETATM    3  O8  UNL     1     -33.520  16.976  -4.329  1.00 20.00    -0.396 OA
HETATM    4  C3  UNL     1     -33.712  17.007  -5.736  1.00 20.00     0.201 C 
ENDBRANCH   2   3
ENDBRANCH   1   2
BRANCH   1   5
HETATM    5  C5  UNL     1     -35.157  16.222  -2.349  1.00 20.00     0.077 C 
BRANCH   5   6
HETATM    6  S9  UNL     1     -34.587  16.840  -0.735  1.00 20.00    -0.182 SA
HETATM    7  H25 UNL     1     -33.278  16.756  -1.011  1.00 20.00     0.101 HD
ENDBRANCH   5   6
ENDBRANCH   1   5
BRANCH   1   8
HETATM    8  C6  UNL     1     -35.105  13.982  -3.690  1.00 20.00    -0.016 C 
HETATM    9  C1  UNL     1     -36.444  14.503  -4.230  1.00 20.00     0.010 C 
HETATM   10  C2  UNL     1     -34.330  13.351  -4.853  1.00 20.00     0.010 C 
ENDBRANCH   1   8
TORSDOF 5
ENDMDL
MODEL 7
REMARK VINA RESULT:      -3.3      2.342      3.573
REMARK  5 active torsions:
REMARK  status: ('A' for Active; 'I' for Inactive)
REMARK    1  A    between atoms: C4_4  and  C7_7 
REMARK    2  A    between atoms: C4_4  and  O8_8 
REMARK    3  A    between atoms: C5_5  and  C7_7 
REMARK    4  A    between atoms: C5_5  and  S9_9 
REMARK    5  A    between atoms: C6_6  and  C7_7 
ROOT
HETATM    1  C7  UNL     1     -35.083  15.090  -2.996  1.00 20.00     0.022 C 
ENDROOT
BRANCH   1   2
HETATM    2  C4  UNL     1     -34.414  16.290  -2.292  1.00 20.00     0.172 C 
BRANCH   2   3
HETATM    3  O8  UNL     1     -34.696  16.272  -0.898  1.00 20.00    -0.396 OA
HETATM    4  C3  UNL     1     -34.325  17.494  -0.276  1.00 20.00     0.201 C 
ENDBRANCH   2   3
ENDBRANCH   1   2
BRANCH   1   5
HETATM    5  C5  UNL     1     -36.068  15.547  -4.103  1.00 20.00     0.077 C 
BRANCH   5   6
HETATM    6  S9  UNL     1     -37.785  14.980  -3.893  1.00 20.00    -0.182 SA
HETATM    7  H25 UNL     1     -37.672  14.681  -2.592  1.00 20.00     0.101 HD
ENDBRANCH   5   6
ENDBRANCH   1   5
BRANCH   1   8
HETATM    8  C6  UNL     1     -34.032  14.039  -3.474  1.00 20.00    -0.016 C 
HETATM    9  C1  UNL     1     -34.453  13.353  -4.780  1.00 20.00     0.010 C 
HETATM   10  C2  UNL     1     -32.644  14.658  -3.680  1.00 20.00     0.010 C 
ENDBRANCH   1   8
TORSDOF 5
ENDMDL
MODEL 8
REMARK VINA RESULT:      -3.2      2.950      3.873
REMARK  5 active torsions:
REMARK  status: ('A' for Active; 'I' for Inactive)
REMARK    1  A    between atoms: C4_4  and  C7_7 
REMARK    2  A    between atoms: C4_4  and  O8_8 
REMARK    3  A    between atoms: C5_5  and  C7_7 
REMARK    4  A    between atoms: C5_5  and  S9_9 
REMARK    5  A    between atoms: C6_6  and  C7_7 
ROOT
HETATM    1  C7  UNL     1     -34.115  15.787  -4.305  1.00 20.00     0.022 C 
ENDROOT
BRANCH   1   2
HETATM    2  C4  UNL     1     -33.193  14.729  -3.661  1.00 20.00     0.172 C 
BRANCH   2   3
HETATM    3  O8  UNL     1     -33.596  13.418  -4.037  1.00 20.00    -0.396 OA
HETATM    4  C3  UNL     1     -35.008  13.320  -4.152  1.00 20.00     0.201 C 
ENDBRANCH   2   3
ENDBRANCH   1   2
BRANCH   1   5
HETATM    5  C5  UNL     1     -34.506  16.900  -3.299  1.00 20.00     0.077 C 
BRANCH   5   6
HETATM    6  S9  UNL     1     -34.595  16.373  -1.558  1.00 20.00    -0.182 SA
HETATM    7  H25 UNL     1     -35.862  15.941  -1.611  1.00 20.00     0.101 HD
ENDBRANCH   5   6
ENDBRANCH   1   5
BRANCH   1   8
HETATM    8  C6  UNL     1     -33.532  16.321  -5.651  1.00 20.00    -0.016 C 
HETATM    9  C1  UNL     1     -34.207  15.675  -6.870  1.00 20.00     0.010 C 
HETATM   10  C2  UNL     1     -33.664  17.844  -5.778  1.00 20.00     0.010 C 
ENDBRANCH   1   8
TORSDOF 5
ENDMDL
MODEL 9
REMARK VINA RESULT:      -3.2      1.934      2.797
REMARK  5 active torsions:
REMARK  status: ('A' for Active; 'I' for Inactive)
REMARK    1  A    between atoms: C4_4  and  C7_7 
REMARK    2  A    between atoms: C4_4  and  O8_8 
REMARK    3  A    between atoms: C5_5  and  C7_7 
REMARK    4  A    between atoms: C5_5  and  S9_9 
REMARK    5  A    between atoms: C6_6  and  C7_7 
ROOT
HETATM    1  C7  UNL     1     -35.333  14.737  -4.352  1.00 20.00     0.022 C 
ENDROOT
BRANCH   1   2
HETATM    2  C4  UNL     1     -34.905  13.627  -5.335  1.00 20.00     0.172 C 
BRANCH   2   3
HETATM    3  O8  UNL     1     -35.228  13.990  -6.672  1.00 20.00    -0.396 OA
HETATM    4  C3  UNL     1     -34.442  15.086  -7.118  1.00 20.00     0.201 C 
ENDBRANCH   2   3
ENDBRANCH   1   2
BRANCH   1   5
HETATM    5  C5  UNL     1     -36.818  14.593  -3.931  1.00 20.00     0.077 C 
BRANCH   5   6
HETATM    6  S9  UNL     1     -37.958  15.789  -4.695  1.00 20.00    -0.182 SA
HETATM    7  H25 UNL     1     -37.474  15.663  -5.939  1.00 20.00     0.101 HD
ENDBRANCH   5   6
ENDBRANCH   1   5
BRANCH   1   8
HETATM    8  C6  UNL     1     -34.340  14.863  -3.153  1.00 20.00    -0.016 C 
HETATM    9  C1  UNL     1     -32.905  15.148  -3.618  1.00 20.00     0.010 C 
HETATM   10  C2  UNL     1     -34.755  15.964  -2.168  1.00 20.00     0.010 C 
ENDBRANCH   1   8
TORSDOF 5
ENDMDL
