MODEL 1
REMARK VINA RESULT:      -3.7      0.000      0.000
REMARK  5 active torsions:
REMARK  status: ('A' for Active; 'I' for Inactive)
REMARK    1  A    between atoms: C4_4  and  C6_6 
REMARK    2  A    between atoms: C4_4  and  O8_8 
REMARK    3  A    between atoms: C5_5  and  C6_6 
REMARK    4  A    between atoms: C5_5  and  S9_9 
REMARK    5  A    between atoms: C7_7  and  O8_8 
ROOT
HETATM    1  C4  UNL     1     -32.914   6.135   3.182  1.00 20.00     0.173 C 
ENDROOT
BRANCH   1   2
HETATM    2  C6  UNL     1     -32.347   7.561   3.142  1.00 20.00     0.014 C 
HETATM    3  C1  UNL     1     -31.180   7.724   4.124  1.00 20.00     0.012 C 
BRANCH   2   4
HETATM    4  C5  UNL     1     -31.986   8.000   1.712  1.00 20.00     0.077 C 
BRANCH   4   5
HETATM    5  S9  UNL     1     -32.415   9.718   1.286  1.00 20.00    -0.182 SA
HETATM    6  H25 UNL     1     -31.556  10.289   2.140  1.00 20.00     0.101 HD
ENDBRANCH   4   5
ENDBRANCH   2   4
ENDBRANCH   1   2
BRANCH   1   7
HETATM    7  O8  UNL     1     -34.147   6.129   3.891  1.00 20.00    -0.386 OA
BRANCH   7   8
HETATM    8  C7  UNL     1     -34.037   5.424   5.119  1.00 20.00     0.113 C 
HETATM    9  C2  UNL     1     -34.103   6.413   6.272  1.00 20.00     0.039 C 
HETATM   10  C3  UNL     1     -35.145   4.384   5.201  1.00 20.00     0.039 C 
ENDBRANCH   7   8
ENDBRANCH   1   7
TORSDOF 5
ENDMDL
MODEL 2
REMARK VINA RESULT:      -3.6      2.825      4.721
REMARK  5 active torsions:
REMARK  status: ('A' for Active; 'I' for Inactive)
REMARK    1  A    between atoms: C4_4  and  C6_6 
REMARK    2  A    between atoms: C4_4  and  O8_8 
REMARK    3  A    between atoms: C5_5  and  C6_6 
REMARK    4  A    between atoms: C5_5  and  S9_9 
REMARK    5  A    between atoms: C7_7  and  O8_8 
ROOT
HETATM    1  C4  UNL     1     -32.198   6.564   3.175  1.00 20.00     0.173 C 
ENDROOT
BRANCH   1   2
HETATM    2  C6  UNL     1     -33.633   6.502   3.715  1.00 20.00     0.014 C 
HETATM    3  C1  UNL     1     -34.451   5.420   3.001  1.00 20.00     0.012 C 
BRANCH   2   4
HETATM    4  C5  UNL     1     -33.669   6.362   5.247  1.00 20.00     0.077 C 
BRANCH   4   5
HETATM    5  S9  UNL     1     -34.727   5.026   5.889  1.00 20.00    -0.182 SA
HETATM    6  H25 UNL     1     -34.091   4.898   7.060  1.00 20.00     0.101 HD
ENDBRANCH   4   5
ENDBRANCH   2   4
ENDBRANCH   1   2
BRANCH   1   7
HETATM    7  O8  UNL     1     -31.812   7.921   2.992  1.00 20.00    -0.386 OA
BRANCH   7   8
HETATM    8  C7  UNL     1     -32.440   8.491   1.852  1.00 20.00     0.113 C 
HETATM    9  C2  UNL     1     -32.768   9.948   2.137  1.00 20.00     0.039 C 
HETATM   10  C3  UNL     1     -31.522   8.342   0.648  1.00 20.00     0.039 C 
ENDBRANCH   7   8
ENDBRANCH   1   7
TORSDOF 5
ENDMDL
MODEL 3
REMARK VINA RESULT:      -3.5      1.002      1.938
REMARK  5 active torsions:
REMARK  status: ('A' for Active; 'I' for Inactive)
REMARK    1  A    between atoms: C4_4  and  C6_6 
REMARK    2  A    between atoms: C4_4  and  O8_8 
REMARK    3  A    between atoms: C5_5  and  C6_6 
REMARK    4  A    between atoms: C5_5  and  S9_9 
REMARK    5  A    between atoms: C7_7  and  O8_8 
ROOT
HETATM    1  C4  UNL     1     -33.864   6.764   4.155  1.00 20.00     0.173 C 
ENDROOT
BRANCH   1   2
HETATM    2  C6  UNL     1     -32.510   6.376   3.546  1.00 20.00     0.014 C 
HETATM    3  C1  UNL     1     -32.688   5.461   2.328  1.00 20.00     0.012 C 
BRANCH   2   4
HETATM    4  C5  UNL     1     -31.638   7.607   3.242  1.00 20.00     0.077 C 
BRANCH   4   5
HETATM    5  S9  UNL     1     -32.055   8.508   1.716  1.00 20.00    -0.182 SA
HETATM    6  H25 UNL     1     -33.327   8.759   2.048  1.00 20.00     0.101 HD
ENDBRANCH   4   5
ENDBRANCH   2   4
ENDBRANCH   1   2
BRANCH   1   7
HETATM    7  O8  UNL     1     -34.750   5.652   4.100  1.00 20.00    -0.386 OA
BRANCH   7   8
HETATM    8  C7  UNL     1     -35.078   5.185   5.401  1.00 20.00     0.113 C 
HETATM    9  C2  UNL     1     -34.704   3.715   5.513  1.00 20.00     0.039 C 
HETATM   10  C3  UNL     1     -34.355   6.033   6.436  1.00 20.00     0.039 C 
ENDBRANCH   7   8
ENDBRANCH   1   7
TORSDOF 5
ENDMDL
MODEL 4
REMARK VINA RESULT:      -3.4     10.698     12.237
REMARK  5 active torsions:
REMARK  status: ('A' for Active; 'I' for Inactive)
REMARK    1  A    between atoms: C4_4  and  C6_6 
REMARK    2  A    between atoms: C4_4  and  O8_8 
REMARK    3  A    between atoms: C5_5  and  C6_6 
REMARK    4  A    between atoms: C5_5  and  S9_9 
REMARK    5  A    between atoms: C7_7  and  O8_8 
ROOT
HETATM    1  C4  UNL     1     -35.629  14.108  -4.338  1.00 20.00     0.173 C 
ENDROOT
BRANCH   1   2
HETATM    2  C6  UNL     1     -34.522  14.423  -3.323  1.00 20.00     0.014 C 
HETATM    3  C1  UNL     1     -33.207  13.731  -3.700  1.00 20.00     0.012 C 
BRANCH   2   4
HETATM    4  C5  UNL     1     -34.354  15.937  -3.102  1.00 20.00     0.077 C 
BRANCH   4   5
HETATM    5  S9  UNL     1     -34.598  16.513  -1.392  1.00 20.00    -0.182 SA
HETATM    6  H25 UNL     1     -35.666  17.277  -1.655  1.00 20.00     0.101 HD
ENDBRANCH   4   5
ENDBRANCH   2   4
ENDBRANCH   1   2
BRANCH   1   7
HETATM    7  O8  UNL     1     -35.055  13.563  -5.520  1.00 20.00    -0.386 OA
BRANCH   7   8
HETATM    8  C7  UNL     1     -35.389  14.336  -6.664  1.00 20.00     0.113 C 
HETATM    9  C2  UNL     1     -36.643  15.144  -6.373  1.00 20.00     0.039 C 
HETATM   10  C3  UNL     1     -34.211  15.229  -7.028  1.00 20.00     0.039 C 
ENDBRANCH   7   8
ENDBRANCH   1   7
TORSDOF 5
ENDMDL
MODEL 5
REMARK VINA RESULT:      -3.3      2.849      4.907
REMARK  5 active torsions:
REMARK  status: ('A' for Active; 'I' for Inactive)
REMARK    1  A    between atoms: C4_4  and  C6_6 
REMARK    2  A    between atoms: C4_4  and  O8_8 
REMARK    3  A    between atoms: C5_5  and  C6_6 
REMARK    4  A    between atoms: C5_5  and  S9_9 
REMARK    5  A    between atoms: C7_7  and  O8_8 
ROOT
HETATM    1  C4  UNL     1     -32.569   6.939   3.573  1.00 20.00     0.173 C 
ENDROOT
BRANCH   1   2
HETATM    2  C6  UNL     1     -33.959   6.496   4.048  1.00 20.00     0.014 C 
HETATM    3  C1  UNL     1     -34.523   5.383   3.158  1.00 20.00     0.012 C 
BRANCH   2   4
HETATM    4  C5  UNL     1     -33.968   6.124   5.542  1.00 20.00     0.077 C 
BRANCH   4   5
HETATM    5  S9  UNL     1     -34.844   4.584   5.963  1.00 20.00    -0.182 SA
HETATM    6  H25 UNL     1     -33.763   3.928   6.403  1.00 20.00     0.101 HD
ENDBRANCH   4   5
ENDBRANCH   2   4
ENDBRANCH   1   2
BRANCH   1   7
HETATM    7  O8  UNL     1     -32.616   7.263   2.188  1.00 20.00    -0.386 OA
BRANCH   7   8
HETATM    8  C7  UNL     1     -31.933   8.478   1.915  1.00 20.00     0.113 C 
HETATM    9  C2  UNL     1     -31.445   8.465   0.475  1.00 20.00     0.039 C 
HETATM   10  C3  UNL     1     -32.865   9.649   2.187  1.00 20.00     0.039 C 
ENDBRANCH   7   8
ENDBRANCH   1   7
TORSDOF 5
ENDMDL
MODEL 6
REMARK VINA RESULT:      -3.3     10.956     11.690
REMARK  5 active torsions:
REMARK  status: ('A' for Active; 'I' for Inactive)
REMARK    1  A    between atoms: C4_4  and  C6_6 
REMARK    2  A    between atoms: C4_4  and  O8_8 
REMARK    3  A    between atoms: C5_5  and  C6_6 
REMARK    4  A    between atoms: C5_5  and  S9_9 
REMARK    5  A    between atoms: C7_7  and  O8_8 
ROOT
HETATM    1  C4  UNL     1     -34.973  16.062  -2.382  1.00 20.00     0.173 C 
ENDROOT
BRANCH   1   2
HETATM    2  C6  UNL     1     -33.912  15.249  -3.135  1.00 20.00     0.014 C 
HETATM    3  C1  UNL     1     -34.491  13.929  -3.660  1.00 20.00     0.012 C 
BRANCH   2   4
HETATM    4  C5  UNL     1     -33.222  16.075  -4.234  1.00 20.00     0.077 C 
BRANCH   4   5
HETATM    5  S9  UNL     1     -33.857  17.766  -4.462  1.00 20.00    -0.182 SA
HETATM    6  H25 UNL     1     -32.671  18.322  -4.738  1.00 20.00     0.101 HD
ENDBRANCH   4   5
ENDBRANCH   2   4
ENDBRANCH   1   2
BRANCH   1   7
HETATM    7  O8  UNL     1     -34.619  16.158  -1.007  1.00 20.00    -0.386 OA
BRANCH   7   8
HETATM    8  C7  UNL     1     -34.652  17.503  -0.554  1.00 20.00     0.113 C 
HETATM    9  C2  UNL     1     -35.196  17.540   0.866  1.00 20.00     0.039 C 
HETATM   10  C3  UNL     1     -33.253  18.096  -0.640  1.00 20.00     0.039 C 
ENDBRANCH   7   8
ENDBRANCH   1   7
TORSDOF 5
ENDMDL
MODEL 7
REMARK VINA RESULT:      -3.3     11.171     11.932
REMARK  5 active torsions:
REMARK  status: ('A' for Active; 'I' for Inactive)
REMARK    1  A    between atoms: C4_4  and  C6_6 
REMARK    2  A    between atoms: C4_4  and  O8_8 
REMARK    3  A    between atoms: C5_5  and  C6_6 
REMARK    4  A    between atoms: C5_5  and  S9_9 
REMARK    5  A    between atoms: C7_7  and  O8_8 
ROOT
HETATM    1  C4  UNL     1     -33.375  14.850  -3.618  1.00 20.00     0.173 C 
ENDROOT
BRANCH   1   2
HETATM    2  C6  UNL     1     -34.098  14.188  -4.798  1.00 20.00     0.014 C 
HETATM    3  C1  UNL     1     -35.324  13.396  -4.328  1.00 20.00     0.012 C 
BRANCH   2   4
HETATM    4  C5  UNL     1     -34.433  15.197  -5.911  1.00 20.00     0.077 C 
BRANCH   4   5
HETATM    5  S9  UNL     1     -35.409  14.539  -7.300  1.00 20.00    -0.182 SA
HETATM    6  H25 UNL     1     -35.956  13.526  -6.617  1.00 20.00     0.101 HD
ENDBRANCH   4   5
ENDBRANCH   2   4
ENDBRANCH   1   2
BRANCH   1   7
HETATM    7  O8  UNL     1     -34.331  15.361  -2.696  1.00 20.00    -0.386 OA
BRANCH   7   8
HETATM    8  C7  UNL     1     -33.866  16.548  -2.069  1.00 20.00     0.113 C 
HETATM    9  C2  UNL     1     -34.081  17.726  -3.006  1.00 20.00     0.039 C 
HETATM   10  C3  UNL     1     -34.594  16.735  -0.746  1.00 20.00     0.039 C 
ENDBRANCH   7   8
ENDBRANCH   1   7
TORSDOF 5
ENDMDL
MODEL 8
REMARK VINA RESULT:      -3.2     11.133     12.061
REMARK  5 active torsions:
REMARK  status: ('A' for Active; 'I' for Inactive)
REMARK    1  A    between atoms: C4_4  and  C6_6 
REMARK    2  A    between atoms: C4_4  and  O8_8 
REMARK    3  A    between atoms: C5_5  and  C6_6 
REMARK    4  A    between atoms: C5_5  and  S9_9 
REMARK    5  A    between atoms: C7_7  and  O8_8 
ROOT
HETATM    1  C4  UNL     1     -33.371  15.200  -3.598  1.00 20.00     0.173 C 
ENDROOT
BRANCH   1   2
HETATM    2  C6  UNL     1     -33.664  16.435  -2.735  1.00 20.00     0.014 C 
HETATM    3  C1  UNL     1     -33.947  17.667  -3.603  1.00 20.00     0.012 C 
BRANCH   2   4
HETATM    4  C5  UNL     1     -34.773  16.168  -1.702  1.00 20.00     0.077 C 
BRANCH   4   5
HETATM    5  S9  UNL     1     -34.735  17.224  -0.219  1.00 20.00    -0.182 SA
HETATM    6  H25 UNL     1     -34.310  16.269   0.618  1.00 20.00     0.101 HD
ENDBRANCH   4   5
ENDBRANCH   2   4
ENDBRANCH   1   2
BRANCH   1   7
HETATM    7  O8  UNL     1     -33.971  15.356  -4.879  1.00 20.00    -0.386 OA
BRANCH   7   8
HETATM    8  C7  UNL     1     -34.437  14.115  -5.389  1.00 20.00     0.113 C 
HETATM    9  C2  UNL     1     -35.214  13.388  -4.303  1.00 20.00     0.039 C 
HETATM   10  C3  UNL     1     -35.291  14.370  -6.623  1.00 20.00     0.039 C 
ENDBRANCH   7   8
ENDBRANCH   1   7
TORSDOF 5
ENDMDL
MODEL 9
REMARK VINA RESULT:      -3.2     10.882     11.959
REMARK  5 active torsions:
REMARK  status: ('A' for Active; 'I' for Inactive)
REMARK    1  A    between atoms: C4_4  and  C6_6 
REMARK    2  A    between atoms: C4_4  and  O8_8 
REMARK    3  A    between atoms: C5_5  and  C6_6 
REMARK    4  A    between atoms: C5_5  and  S9_9 
REMARK    5  A    between atoms: C7_7  and  O8_8 
ROOT
HETATM    1  C4  UNL     1     -35.664  15.844  -3.953  1.00 20.00     0.173 C 
ENDROOT
BRANCH   1   2
HETATM    2  C6  UNL     1     -34.994  16.865  -3.024  1.00 20.00     0.014 C 
HETATM    3  C1  UNL     1     -34.783  16.286  -1.620  1.00 20.00     0.012 C 
BRANCH   2   4
HETATM    4  C5  UNL     1     -33.701  17.438  -3.631  1.00 20.00     0.077 C 
BRANCH   4   5
HETATM    5  S9  UNL     1     -33.702  17.632  -5.442  1.00 20.00    -0.182 SA
HETATM    6  H25 UNL     1     -33.047  16.494  -5.702  1.00 20.00     0.101 HD
ENDBRANCH   4   5
ENDBRANCH   2   4
ENDBRANCH   1   2
BRANCH   1   7
HETATM    7  O8  UNL     1     -35.581  14.545  -3.378  1.00 20.00    -0.386 OA
BRANCH   7   8
HETATM    8  C7  UNL     1     -34.883  13.645  -4.226  1.00 20.00     0.113 C 
HETATM    9  C2  UNL     1     -35.068  14.073  -5.673  1.00 20.00     0.039 C 
HETATM   10  C3  UNL     1     -33.415  13.617  -3.827  1.00 20.00     0.039 C 
ENDBRANCH   7   8
ENDBRANCH   1   7
TORSDOF 5
ENDMDL
