MODEL 1
REMARK VINA RESULT:      -3.2      0.000      0.000
REMARK  6 active torsions:
REMARK  status: ('A' for Active; 'I' for Inactive)
REMARK    1  A    between atoms: C3_3  and  C5_5 
REMARK    2  A    between atoms: C3_3  and  C7_7 
REMARK    3  A    between atoms: C4_4  and  C6_6 
REMARK    4  A    between atoms: C4_4  and  C7_7 
REMARK    5  A    between atoms: C5_5  and  S8_8 
REMARK    6  A    between atoms: C6_6  and  S9_9 
ROOT
HETATM    1  C1  UNL     1     -32.574  14.483  -3.578  1.00 20.00     0.010 C 
HETATM    2  C7  UNL     1     -34.037  14.031  -3.534  1.00 20.00    -0.017 C 
ENDROOT
BRANCH   2   3
HETATM    3  C3  UNL     1     -34.488  13.442  -4.890  1.00 20.00     0.014 C 
BRANCH   3   4
HETATM    4  C5  UNL     1     -35.416  14.342  -5.705  1.00 20.00     0.071 C 
BRANCH   4   5
HETATM    5  S8  UNL     1     -34.518  15.080  -7.103  1.00 20.00    -0.182 SA
HETATM    6  H25 UNL     1     -33.303  14.665  -6.724  1.00 20.00     0.101 HD
ENDBRANCH   4   5
ENDBRANCH   3   4
ENDBRANCH   2   3
BRANCH   2   7
HETATM    7  C4  UNL     1     -34.978  15.160  -3.062  1.00 20.00     0.014 C 
BRANCH   7   8
HETATM    8  C6  UNL     1     -34.225  16.409  -2.606  1.00 20.00     0.073 C 
BRANCH   8   9
HETATM    9  S9  UNL     1     -34.586  16.774  -0.863  1.00 20.00    -0.173 SA
HETATM   10  C2  UNL     1     -33.370  18.088  -0.614  1.00 20.00     0.089 C 
ENDBRANCH   8   9
ENDBRANCH   7   8
ENDBRANCH   2   7
TORSDOF 6
ENDMDL
MODEL 2
REMARK VINA RESULT:      -3.2     10.890     12.043
REMARK  6 active torsions:
REMARK  status: ('A' for Active; 'I' for Inactive)
REMARK    1  A    between atoms: C3_3  and  C5_5 
REMARK    2  A    between atoms: C3_3  and  C7_7 
REMARK    3  A    between atoms: C4_4  and  C6_6 
REMARK    4  A    between atoms: C4_4  and  C7_7 
REMARK    5  A    between atoms: C5_5  and  S8_8 
REMARK    6  A    between atoms: C6_6  and  S9_9 
ROOT
HETATM    1  C1  UNL     1     -34.995   5.791   3.123  1.00 20.00     0.010 C 
HETATM    2  C7  UNL     1     -33.672   5.727   3.892  1.00 20.00    -0.017 C 
ENDROOT
BRANCH   2   3
HETATM    3  C3  UNL     1     -33.727   6.577   5.182  1.00 20.00     0.014 C 
BRANCH   3   4
HETATM    4  C5  UNL     1     -34.413   5.901   6.369  1.00 20.00     0.071 C 
BRANCH   4   5
HETATM    5  S8  UNL     1     -34.743   4.151   6.000  1.00 20.00    -0.182 SA
HETATM    6  H25 UNL     1     -33.776   3.658   6.783  1.00 20.00     0.101 HD
ENDBRANCH   4   5
ENDBRANCH   3   4
ENDBRANCH   2   3
BRANCH   2   7
HETATM    7  C4  UNL     1     -32.468   6.112   3.007  1.00 20.00     0.014 C 
BRANCH   7   8
HETATM    8  C6  UNL     1     -32.129   7.601   3.081  1.00 20.00     0.073 C 
BRANCH   8   9
HETATM    9  S9  UNL     1     -31.895   8.288   1.415  1.00 20.00    -0.173 SA
HETATM   10  C2  UNL     1     -32.597   9.927   1.708  1.00 20.00     0.089 C 
ENDBRANCH   8   9
ENDBRANCH   7   8
ENDBRANCH   2   7
TORSDOF 6
ENDMDL
MODEL 3
REMARK VINA RESULT:      -3.2      1.583      4.799
REMARK  6 active torsions:
REMARK  status: ('A' for Active; 'I' for Inactive)
REMARK    1  A    between atoms: C3_3  and  C5_5 
REMARK    2  A    between atoms: C3_3  and  C7_7 
REMARK    3  A    between atoms: C4_4  and  C6_6 
REMARK    4  A    between atoms: C4_4  and  C7_7 
REMARK    5  A    between atoms: C5_5  and  S8_8 
REMARK    6  A    between atoms: C6_6  and  S9_9 
ROOT
HETATM    1  C1  UNL     1     -33.646  17.426  -4.481  1.00 20.00     0.010 C 
HETATM    2  C7  UNL     1     -33.863  16.327  -3.436  1.00 20.00    -0.017 C 
ENDROOT
BRANCH   2   3
HETATM    3  C3  UNL     1     -33.678  16.869  -2.000  1.00 20.00     0.014 C 
BRANCH   3   4
HETATM    4  C5  UNL     1     -34.775  16.468  -1.015  1.00 20.00     0.071 C 
BRANCH   4   5
HETATM    5  S8  UNL     1     -34.834  17.633   0.380  1.00 20.00    -0.182 SA
HETATM    6  H25 UNL     1     -35.954  18.257  -0.006  1.00 20.00     0.101 HD
ENDBRANCH   4   5
ENDBRANCH   3   4
ENDBRANCH   2   3
BRANCH   2   7
HETATM    7  C4  UNL     1     -32.973  15.094  -3.699  1.00 20.00     0.014 C 
BRANCH   7   8
HETATM    8  C6  UNL     1     -33.761  13.784  -3.702  1.00 20.00     0.073 C 
BRANCH   8   9
HETATM    9  S9  UNL     1     -35.456  14.058  -4.297  1.00 20.00    -0.173 SA
HETATM   10  C2  UNL     1     -35.102  14.133  -6.068  1.00 20.00     0.089 C 
ENDBRANCH   8   9
ENDBRANCH   7   8
ENDBRANCH   2   7
TORSDOF 6
ENDMDL
MODEL 4
REMARK VINA RESULT:      -3.2      2.155      4.217
REMARK  6 active torsions:
REMARK  status: ('A' for Active; 'I' for Inactive)
REMARK    1  A    between atoms: C3_3  and  C5_5 
REMARK    2  A    between atoms: C3_3  and  C7_7 
REMARK    3  A    between atoms: C4_4  and  C6_6 
REMARK    4  A    between atoms: C4_4  and  C7_7 
REMARK    5  A    between atoms: C5_5  and  S8_8 
REMARK    6  A    between atoms: C6_6  and  S9_9 
ROOT
HETATM    1  C1  UNL     1     -34.738  16.836  -0.454  1.00 20.00     0.010 C 
HETATM    2  C7  UNL     1     -34.067  16.549  -1.800  1.00 20.00    -0.017 C 
ENDROOT
BRANCH   2   3
HETATM    3  C3  UNL     1     -33.773  17.855  -2.574  1.00 20.00     0.014 C 
BRANCH   3   4
HETATM    4  C5  UNL     1     -34.686  18.112  -3.772  1.00 20.00     0.071 C 
BRANCH   4   5
HETATM    5  S8  UNL     1     -33.721  18.142  -5.312  1.00 20.00    -0.182 SA
HETATM    6  H25 UNL     1     -34.029  19.402  -5.645  1.00 20.00     0.101 HD
ENDBRANCH   4   5
ENDBRANCH   3   4
ENDBRANCH   2   3
BRANCH   2   7
HETATM    7  C4  UNL     1     -34.881  15.552  -2.653  1.00 20.00     0.014 C 
BRANCH   7   8
HETATM    8  C6  UNL     1     -33.998  14.562  -3.411  1.00 20.00     0.073 C 
BRANCH   8   9
HETATM    9  S9  UNL     1     -35.010  13.472  -4.456  1.00 20.00    -0.173 SA
HETATM   10  C2  UNL     1     -34.820  14.359  -6.019  1.00 20.00     0.089 C 
ENDBRANCH   8   9
ENDBRANCH   7   8
ENDBRANCH   2   7
TORSDOF 6
ENDMDL
MODEL 5
REMARK VINA RESULT:      -3.1      1.549      4.790
REMARK  6 active torsions:
REMARK  status: ('A' for Active; 'I' for Inactive)
REMARK    1  A    between atoms: C3_3  and  C5_5 
REMARK    2  A    between atoms: C3_3  and  C7_7 
REMARK    3  A    between atoms: C4_4  and  C6_6 
REMARK    4  A    between atoms: C4_4  and  C7_7 
REMARK    5  A    between atoms: C5_5  and  S8_8 
REMARK    6  A    between atoms: C6_6  and  S9_9 
ROOT
HETATM    1  C1  UNL     1     -33.673  13.882  -3.818  1.00 20.00     0.010 C 
HETATM    2  C7  UNL     1     -33.343  15.328  -3.432  1.00 20.00    -0.017 C 
ENDROOT
BRANCH   2   3
HETATM    3  C3  UNL     1     -34.332  15.870  -2.376  1.00 20.00     0.014 C 
BRANCH   3   4
HETATM    4  C5  UNL     1     -33.821  17.064  -1.570  1.00 20.00     0.071 C 
BRANCH   4   5
HETATM    5  S8  UNL     1     -34.814  17.285  -0.063  1.00 20.00    -0.182 SA
HETATM    6  H25 UNL     1     -35.888  17.796  -0.677  1.00 20.00     0.101 HD
ENDBRANCH   4   5
ENDBRANCH   3   4
ENDBRANCH   2   3
BRANCH   2   7
HETATM    7  C4  UNL     1     -33.261  16.252  -4.665  1.00 20.00     0.014 C 
BRANCH   7   8
HETATM    8  C6  UNL     1     -34.636  16.627  -5.217  1.00 20.00     0.073 C 
BRANCH   8   9
HETATM    9  S9  UNL     1     -34.605  16.677  -7.034  1.00 20.00    -0.173 SA
HETATM   10  C2  UNL     1     -34.614  14.897  -7.344  1.00 20.00     0.089 C 
ENDBRANCH   8   9
ENDBRANCH   7   8
ENDBRANCH   2   7
TORSDOF 6
ENDMDL
MODEL 6
REMARK VINA RESULT:      -3.1     10.730     11.647
REMARK  6 active torsions:
REMARK  status: ('A' for Active; 'I' for Inactive)
REMARK    1  A    between atoms: C3_3  and  C5_5 
REMARK    2  A    between atoms: C3_3  and  C7_7 
REMARK    3  A    between atoms: C4_4  and  C6_6 
REMARK    4  A    between atoms: C4_4  and  C7_7 
REMARK    5  A    between atoms: C5_5  and  S8_8 
REMARK    6  A    between atoms: C6_6  and  S9_9 
ROOT
HETATM    1  C1  UNL     1     -32.109   5.182   2.996  1.00 20.00     0.010 C 
HETATM    2  C7  UNL     1     -32.961   6.449   2.871  1.00 20.00    -0.017 C 
ENDROOT
BRANCH   2   3
HETATM    3  C3  UNL     1     -32.088   7.724   2.919  1.00 20.00     0.014 C 
BRANCH   3   4
HETATM    4  C5  UNL     1     -31.768   8.336   1.555  1.00 20.00     0.071 C 
BRANCH   4   5
HETATM    5  S8  UNL     1     -32.568   9.959   1.384  1.00 20.00    -0.182 SA
HETATM    6  H25 UNL     1     -31.439  10.651   1.186  1.00 20.00     0.101 HD
ENDBRANCH   4   5
ENDBRANCH   3   4
ENDBRANCH   2   3
BRANCH   2   7
HETATM    7  C4  UNL     1     -34.092   6.494   3.920  1.00 20.00     0.014 C 
BRANCH   7   8
HETATM    8  C6  UNL     1     -34.960   5.236   3.910  1.00 20.00     0.073 C 
BRANCH   8   9
HETATM    9  S9  UNL     1     -34.944   4.435   5.542  1.00 20.00    -0.173 SA
HETATM   10  C2  UNL     1     -34.386   5.848   6.521  1.00 20.00     0.089 C 
ENDBRANCH   8   9
ENDBRANCH   7   8
ENDBRANCH   2   7
TORSDOF 6
ENDMDL
MODEL 7
REMARK VINA RESULT:      -3.1      1.367      1.802
REMARK  6 active torsions:
REMARK  status: ('A' for Active; 'I' for Inactive)
REMARK    1  A    between atoms: C3_3  and  C5_5 
REMARK    2  A    between atoms: C3_3  and  C7_7 
REMARK    3  A    between atoms: C4_4  and  C6_6 
REMARK    4  A    between atoms: C4_4  and  C7_7 
REMARK    5  A    between atoms: C5_5  and  S8_8 
REMARK    6  A    between atoms: C6_6  and  S9_9 
ROOT
HETATM    1  C1  UNL     1     -32.760  14.039  -3.583  1.00 20.00     0.010 C 
HETATM    2  C7  UNL     1     -34.284  13.956  -3.448  1.00 20.00    -0.017 C 
ENDROOT
BRANCH   2   3
HETATM    3  C3  UNL     1     -34.941  13.467  -4.759  1.00 20.00     0.014 C 
BRANCH   3   4
HETATM    4  C5  UNL     1     -35.750  14.527  -5.506  1.00 20.00     0.071 C 
BRANCH   4   5
HETATM    5  S8  UNL     1     -35.297  14.547  -7.267  1.00 20.00    -0.182 SA
HETATM    6  H25 UNL     1     -34.298  13.661  -7.164  1.00 20.00     0.101 HD
ENDBRANCH   4   5
ENDBRANCH   3   4
ENDBRANCH   2   3
BRANCH   2   7
HETATM    7  C4  UNL     1     -34.896  15.288  -2.966  1.00 20.00     0.014 C 
BRANCH   7   8
HETATM    8  C6  UNL     1     -33.841  16.296  -2.511  1.00 20.00     0.073 C 
BRANCH   8   9
HETATM    9  S9  UNL     1     -34.069  17.888  -3.358  1.00 20.00    -0.173 SA
HETATM   10  C2  UNL     1     -33.465  17.403  -4.991  1.00 20.00     0.089 C 
ENDBRANCH   8   9
ENDBRANCH   7   8
ENDBRANCH   2   7
TORSDOF 6
ENDMDL
MODEL 8
REMARK VINA RESULT:      -3.1      1.754      2.025
REMARK  6 active torsions:
REMARK  status: ('A' for Active; 'I' for Inactive)
REMARK    1  A    between atoms: C3_3  and  C5_5 
REMARK    2  A    between atoms: C3_3  and  C7_7 
REMARK    3  A    between atoms: C4_4  and  C6_6 
REMARK    4  A    between atoms: C4_4  and  C7_7 
REMARK    5  A    between atoms: C5_5  and  S8_8 
REMARK    6  A    between atoms: C6_6  and  S9_9 
ROOT
HETATM    1  C1  UNL     1     -33.294  16.192  -4.888  1.00 20.00     0.010 C 
HETATM    2  C7  UNL     1     -33.396  15.734  -3.430  1.00 20.00    -0.017 C 
ENDROOT
BRANCH   2   3
HETATM    3  C3  UNL     1     -34.256  14.457  -3.298  1.00 20.00     0.014 C 
BRANCH   3   4
HETATM    4  C5  UNL     1     -35.208  14.200  -4.466  1.00 20.00     0.071 C 
BRANCH   4   5
HETATM    5  S8  UNL     1     -36.900  14.707  -4.030  1.00 20.00    -0.182 SA
HETATM    6  H25 UNL     1     -36.565  15.359  -2.909  1.00 20.00     0.101 HD
ENDBRANCH   4   5
ENDBRANCH   3   4
ENDBRANCH   2   3
BRANCH   2   7
HETATM    7  C4  UNL     1     -33.901  16.860  -2.503  1.00 20.00     0.014 C 
BRANCH   7   8
HETATM    8  C6  UNL     1     -34.682  16.332  -1.300  1.00 20.00     0.073 C 
BRANCH   8   9
HETATM    9  S9  UNL     1     -34.677  17.548   0.051  1.00 20.00    -0.173 SA
HETATM   10  C2  UNL     1     -33.104  18.353  -0.329  1.00 20.00     0.089 C 
ENDBRANCH   8   9
ENDBRANCH   7   8
ENDBRANCH   2   7
TORSDOF 6
ENDMDL
MODEL 9
REMARK VINA RESULT:      -3.1      1.187      4.792
REMARK  6 active torsions:
REMARK  status: ('A' for Active; 'I' for Inactive)
REMARK    1  A    between atoms: C3_3  and  C5_5 
REMARK    2  A    between atoms: C3_3  and  C7_7 
REMARK    3  A    between atoms: C4_4  and  C6_6 
REMARK    4  A    between atoms: C4_4  and  C7_7 
REMARK    5  A    between atoms: C5_5  and  S8_8 
REMARK    6  A    between atoms: C6_6  and  S9_9 
ROOT
HETATM    1  C1  UNL     1     -32.732  15.114  -3.596  1.00 20.00     0.010 C 
HETATM    2  C7  UNL     1     -34.261  15.180  -3.537  1.00 20.00    -0.017 C 
ENDROOT
BRANCH   2   3
HETATM    3  C3  UNL     1     -34.750  15.775  -2.197  1.00 20.00     0.014 C 
BRANCH   3   4
HETATM    4  C5  UNL     1     -33.904  16.929  -1.659  1.00 20.00     0.071 C 
BRANCH   4   5
HETATM    5  S8  UNL     1     -34.569  17.519  -0.073  1.00 20.00    -0.182 SA
HETATM    6  H25 UNL     1     -34.086  16.510   0.664  1.00 20.00     0.101 HD
ENDBRANCH   4   5
ENDBRANCH   3   4
ENDBRANCH   2   3
BRANCH   2   7
HETATM    7  C4  UNL     1     -34.911  13.809  -3.823  1.00 20.00     0.014 C 
BRANCH   7   8
HETATM    8  C6  UNL     1     -34.914  13.452  -5.309  1.00 20.00     0.073 C 
BRANCH   8   9
HETATM    9  S9  UNL     1     -35.777  14.730  -6.272  1.00 20.00    -0.173 SA
HETATM   10  C2  UNL     1     -34.480  15.060  -7.487  1.00 20.00     0.089 C 
ENDBRANCH   8   9
ENDBRANCH   7   8
ENDBRANCH   2   7
TORSDOF 6
ENDMDL
