MODEL 1
REMARK VINA RESULT:      -3.7      0.000      0.000
REMARK  5 active torsions:
REMARK  status: ('A' for Active; 'I' for Inactive)
REMARK    1  A    between atoms: C1_1  and  C7_7 
REMARK    2  A    between atoms: C2_2  and  C8_8 
REMARK    3  A    between atoms: C5_5  and  N9_9 
REMARK    4  A    between atoms: C7_7  and  N9_9 
REMARK    5  A    between atoms: C8_8  and  S10_10 
ROOT
HETATM    1  C7  UNL     1     -33.300  15.221  -3.936  1.00 20.00     0.299 C 
ENDROOT
BRANCH   1   2
HETATM    2  C1  UNL     1     -34.111  15.501  -2.708  1.00 20.00    -0.000 C 
HETATM    3  C2  UNL     1     -33.926  16.571  -1.919  1.00 20.00    -0.019 C 
BRANCH   3   4
HETATM    4  C8  UNL     1     -34.740  16.849  -0.696  1.00 20.00     0.097 C 
BRANCH   4   5
HETATM    5  S10 UNL     1     -33.999  18.205   0.252  1.00 20.00    -0.178 SA
HETATM    6  H25 UNL     1     -34.252  19.165  -0.648  1.00 20.00     0.101 HD
ENDBRANCH   4   5
ENDBRANCH   3   4
ENDBRANCH   1   2
BRANCH   1   7
HETATM    7  N9  UNL     1     -34.019  14.361  -4.870  1.00 20.00     0.092 N 
HETATM    8  C6  UNL     1     -34.948  13.486  -4.154  1.00 20.00     0.310 C 
BRANCH   7   9
HETATM    9  C5  UNL     1     -34.739  15.165  -5.859  1.00 20.00     0.223 A 
HETATM   10  C3  UNL     1     -34.372  15.089  -7.316  1.00 20.00     0.038 A 
HETATM   11  C4  UNL     1     -35.674  14.513  -6.841  1.00 20.00     0.038 A 
ENDBRANCH   7   9
ENDBRANCH   1   7
TORSDOF 5
ENDMDL
MODEL 2
REMARK VINA RESULT:      -3.6      1.296      2.044
REMARK  5 active torsions:
REMARK  status: ('A' for Active; 'I' for Inactive)
REMARK    1  A    between atoms: C1_1  and  C7_7 
REMARK    2  A    between atoms: C2_2  and  C8_8 
REMARK    3  A    between atoms: C5_5  and  N9_9 
REMARK    4  A    between atoms: C7_7  and  N9_9 
REMARK    5  A    between atoms: C8_8  and  S10_10 
ROOT
HETATM    1  C7  UNL     1     -33.492  16.021  -2.905  1.00 20.00     0.299 C 
ENDROOT
BRANCH   1   2
HETATM    2  C1  UNL     1     -34.442  16.310  -1.783  1.00 20.00    -0.000 C 
HETATM    3  C2  UNL     1     -34.167  17.142  -0.767  1.00 20.00    -0.019 C 
BRANCH   3   4
HETATM    4  C8  UNL     1     -35.120  17.431   0.349  1.00 20.00     0.097 C 
BRANCH   4   5
HETATM    5  S10 UNL     1     -34.321  18.475   1.598  1.00 20.00    -0.178 SA
HETATM    6  H25 UNL     1     -34.324  17.558   2.576  1.00 20.00     0.101 HD
ENDBRANCH   4   5
ENDBRANCH   3   4
ENDBRANCH   1   2
BRANCH   1   7
HETATM    7  N9  UNL     1     -34.199  15.762  -4.154  1.00 20.00     0.092 N 
HETATM    8  C6  UNL     1     -33.663  16.595  -5.232  1.00 20.00     0.310 C 
BRANCH   7   9
HETATM    9  C5  UNL     1     -34.108  14.346  -4.514  1.00 20.00     0.223 A 
HETATM   10  C3  UNL     1     -35.274  13.425  -4.281  1.00 20.00     0.038 A 
HETATM   11  C4  UNL     1     -34.884  13.801  -5.681  1.00 20.00     0.038 A 
ENDBRANCH   7   9
ENDBRANCH   1   7
TORSDOF 5
ENDMDL
MODEL 3
REMARK VINA RESULT:      -3.6      1.133      1.287
REMARK  5 active torsions:
REMARK  status: ('A' for Active; 'I' for Inactive)
REMARK    1  A    between atoms: C1_1  and  C7_7 
REMARK    2  A    between atoms: C2_2  and  C8_8 
REMARK    3  A    between atoms: C5_5  and  N9_9 
REMARK    4  A    between atoms: C7_7  and  N9_9 
REMARK    5  A    between atoms: C8_8  and  S10_10 
ROOT
HETATM    1  C7  UNL     1     -34.909  14.962  -3.213  1.00 20.00     0.299 C 
ENDROOT
BRANCH   1   2
HETATM    2  C1  UNL     1     -34.152  16.047  -2.511  1.00 20.00    -0.000 C 
HETATM    3  C2  UNL     1     -34.517  16.569  -1.330  1.00 20.00    -0.019 C 
BRANCH   3   4
HETATM    4  C8  UNL     1     -33.757  17.650  -0.630  1.00 20.00     0.097 C 
BRANCH   4   5
HETATM    5  S10 UNL     1     -33.460  19.037  -1.761  1.00 20.00    -0.178 SA
HETATM    6  H25 UNL     1     -34.731  19.165  -2.168  1.00 20.00     0.101 HD
ENDBRANCH   4   5
ENDBRANCH   3   4
ENDBRANCH   1   2
BRANCH   1   7
HETATM    7  N9  UNL     1     -34.277  14.598  -4.477  1.00 20.00     0.092 N 
HETATM    8  C6  UNL     1     -34.426  13.164  -4.733  1.00 20.00     0.310 C 
BRANCH   7   9
HETATM    9  C5  UNL     1     -34.846  15.373  -5.579  1.00 20.00     0.223 A 
HETATM   10  C3  UNL     1     -33.997  16.357  -6.337  1.00 20.00     0.038 A 
HETATM   11  C4  UNL     1     -34.447  15.088  -7.001  1.00 20.00     0.038 A 
ENDBRANCH   7   9
ENDBRANCH   1   7
TORSDOF 5
ENDMDL
MODEL 4
REMARK VINA RESULT:      -3.4     10.809     12.110
REMARK  5 active torsions:
REMARK  status: ('A' for Active; 'I' for Inactive)
REMARK    1  A    between atoms: C1_1  and  C7_7 
REMARK    2  A    between atoms: C2_2  and  C8_8 
REMARK    3  A    between atoms: C5_5  and  N9_9 
REMARK    4  A    between atoms: C7_7  and  N9_9 
REMARK    5  A    between atoms: C8_8  and  S10_10 
ROOT
HETATM    1  C7  UNL     1     -32.434   6.282   3.336  1.00 20.00     0.299 C 
ENDROOT
BRANCH   1   2
HETATM    2  C1  UNL     1     -32.411   7.322   2.257  1.00 20.00    -0.000 C 
HETATM    3  C2  UNL     1     -32.340   8.641   2.492  1.00 20.00    -0.019 C 
BRANCH   3   4
HETATM    4  C8  UNL     1     -32.314   9.675   1.413  1.00 20.00     0.097 C 
BRANCH   4   5
HETATM    5  S10 UNL     1     -32.359   8.878  -0.216  1.00 20.00    -0.178 SA
HETATM    6  H25 UNL     1     -33.689   8.719  -0.262  1.00 20.00     0.101 HD
ENDBRANCH   4   5
ENDBRANCH   3   4
ENDBRANCH   1   2
BRANCH   1   7
HETATM    7  N9  UNL     1     -33.738   6.212   3.986  1.00 20.00     0.092 N 
HETATM    8  C6  UNL     1     -34.658   5.381   3.207  1.00 20.00     0.310 C 
BRANCH   7   9
HETATM    9  C5  UNL     1     -33.607   5.687   5.346  1.00 20.00     0.223 A 
HETATM   10  C3  UNL     1     -34.133   6.470   6.518  1.00 20.00     0.038 A 
HETATM   11  C4  UNL     1     -34.816   5.202   6.098  1.00 20.00     0.038 A 
ENDBRANCH   7   9
ENDBRANCH   1   7
TORSDOF 5
ENDMDL
MODEL 5
REMARK VINA RESULT:      -3.4      2.738      5.108
REMARK  5 active torsions:
REMARK  status: ('A' for Active; 'I' for Inactive)
REMARK    1  A    between atoms: C1_1  and  C7_7 
REMARK    2  A    between atoms: C2_2  and  C8_8 
REMARK    3  A    between atoms: C5_5  and  N9_9 
REMARK    4  A    between atoms: C7_7  and  N9_9 
REMARK    5  A    between atoms: C8_8  and  S10_10 
ROOT
HETATM    1  C7  UNL     1     -35.306  14.306  -3.934  1.00 20.00     0.299 C 
ENDROOT
BRANCH   1   2
HETATM    2  C1  UNL     1     -35.188  14.900  -5.304  1.00 20.00    -0.000 C 
HETATM    3  C2  UNL     1     -35.269  14.186  -6.438  1.00 20.00    -0.019 C 
BRANCH   3   4
HETATM    4  C8  UNL     1     -35.155  14.783  -7.804  1.00 20.00     0.097 C 
BRANCH   4   5
HETATM    5  S10 UNL     1     -34.995  16.585  -7.685  1.00 20.00    -0.178 SA
HETATM    6  H25 UNL     1     -34.629  16.613  -6.396  1.00 20.00     0.101 HD
ENDBRANCH   4   5
ENDBRANCH   3   4
ENDBRANCH   1   2
BRANCH   1   7
HETATM    7  N9  UNL     1     -34.327  14.877  -3.015  1.00 20.00     0.092 N 
HETATM    8  C6  UNL     1     -33.033  15.043  -3.679  1.00 20.00     0.310 C 
BRANCH   7   9
HETATM    9  C5  UNL     1     -34.798  16.160  -2.493  1.00 20.00     0.223 A 
HETATM   10  C3  UNL     1     -34.725  16.455  -1.019  1.00 20.00     0.038 A 
HETATM   11  C4  UNL     1     -33.822  17.180  -1.974  1.00 20.00     0.038 A 
ENDBRANCH   7   9
ENDBRANCH   1   7
TORSDOF 5
ENDMDL
MODEL 6
REMARK VINA RESULT:      -3.3     10.370     11.415
REMARK  5 active torsions:
REMARK  status: ('A' for Active; 'I' for Inactive)
REMARK    1  A    between atoms: C1_1  and  C7_7 
REMARK    2  A    between atoms: C2_2  and  C8_8 
REMARK    3  A    between atoms: C5_5  and  N9_9 
REMARK    4  A    between atoms: C7_7  and  N9_9 
REMARK    5  A    between atoms: C8_8  and  S10_10 
ROOT
HETATM    1  C7  UNL     1     -32.507   6.439   2.533  1.00 20.00     0.299 C 
ENDROOT
BRANCH   1   2
HETATM    2  C1  UNL     1     -33.327   5.841   3.635  1.00 20.00    -0.000 C 
HETATM    3  C2  UNL     1     -34.597   5.435   3.484  1.00 20.00    -0.019 C 
BRANCH   3   4
HETATM    4  C8  UNL     1     -35.411   4.835   4.585  1.00 20.00     0.097 C 
BRANCH   4   5
HETATM    5  S10 UNL     1     -34.638   5.175   6.190  1.00 20.00    -0.178 SA
HETATM    6  H25 UNL     1     -34.875   6.494   6.187  1.00 20.00     0.101 HD
ENDBRANCH   4   5
ENDBRANCH   3   4
ENDBRANCH   1   2
BRANCH   1   7
HETATM    7  N9  UNL     1     -32.266   7.861   2.754  1.00 20.00     0.092 N 
HETATM    8  C6  UNL     1     -31.291   8.058   3.827  1.00 20.00     0.310 C 
BRANCH   7   9
HETATM    9  C5  UNL     1     -31.802   8.502   1.523  1.00 20.00     0.223 A 
HETATM   10  C3  UNL     1     -32.775   8.838   0.426  1.00 20.00     0.038 A 
HETATM   11  C4  UNL     1     -32.147   9.937   1.231  1.00 20.00     0.038 A 
ENDBRANCH   7   9
ENDBRANCH   1   7
TORSDOF 5
ENDMDL
MODEL 7
REMARK VINA RESULT:      -3.3      3.314      5.259
REMARK  5 active torsions:
REMARK  status: ('A' for Active; 'I' for Inactive)
REMARK    1  A    between atoms: C1_1  and  C7_7 
REMARK    2  A    between atoms: C2_2  and  C8_8 
REMARK    3  A    between atoms: C5_5  and  N9_9 
REMARK    4  A    between atoms: C7_7  and  N9_9 
REMARK    5  A    between atoms: C8_8  and  S10_10 
ROOT
HETATM    1  C7  UNL     1     -33.816  17.460  -3.428  1.00 20.00     0.299 C 
ENDROOT
BRANCH   1   2
HETATM    2  C1  UNL     1     -34.044  16.002  -3.688  1.00 20.00    -0.000 C 
HETATM    3  C2  UNL     1     -33.087  15.067  -3.585  1.00 20.00    -0.019 C 
BRANCH   3   4
HETATM    4  C8  UNL     1     -33.320  13.612  -3.842  1.00 20.00     0.097 C 
BRANCH   4   5
HETATM    5  S10 UNL     1     -34.886  13.376  -4.723  1.00 20.00    -0.178 SA
HETATM    6  H25 UNL     1     -35.144  14.678  -4.911  1.00 20.00     0.101 HD
ENDBRANCH   4   5
ENDBRANCH   3   4
ENDBRANCH   1   2
BRANCH   1   7
HETATM    7  N9  UNL     1     -34.564  17.921  -2.263  1.00 20.00     0.092 N 
HETATM    8  C6  UNL     1     -35.985  17.595  -2.401  1.00 20.00     0.310 C 
BRANCH   7   9
HETATM    9  C5  UNL     1     -34.025  17.330  -1.038  1.00 20.00     0.223 A 
HETATM   10  C3  UNL     1     -33.705  18.197   0.149  1.00 20.00     0.038 A 
HETATM   11  C4  UNL     1     -34.866  17.248   0.206  1.00 20.00     0.038 A 
ENDBRANCH   7   9
ENDBRANCH   1   7
TORSDOF 5
ENDMDL
MODEL 8
REMARK VINA RESULT:      -3.3      1.988      2.336
REMARK  5 active torsions:
REMARK  status: ('A' for Active; 'I' for Inactive)
REMARK    1  A    between atoms: C1_1  and  C7_7 
REMARK    2  A    between atoms: C2_2  and  C8_8 
REMARK    3  A    between atoms: C5_5  and  N9_9 
REMARK    4  A    between atoms: C7_7  and  N9_9 
REMARK    5  A    between atoms: C8_8  and  S10_10 
ROOT
HETATM    1  C7  UNL     1     -34.170  15.523  -2.960  1.00 20.00     0.299 C 
ENDROOT
BRANCH   1   2
HETATM    2  C1  UNL     1     -34.819  16.118  -1.747  1.00 20.00    -0.000 C 
HETATM    3  C2  UNL     1     -34.199  16.961  -0.907  1.00 20.00    -0.019 C 
BRANCH   3   4
HETATM    4  C8  UNL     1     -34.851  17.556   0.300  1.00 20.00     0.097 C 
BRANCH   4   5
HETATM    5  S10 UNL     1     -36.322  18.497  -0.185  1.00 20.00    -0.178 SA
HETATM    6  H25 UNL     1     -37.177  17.466  -0.136  1.00 20.00     0.101 HD
ENDBRANCH   4   5
ENDBRANCH   3   4
ENDBRANCH   1   2
BRANCH   1   7
HETATM    7  N9  UNL     1     -35.160  15.026  -3.909  1.00 20.00     0.092 N 
HETATM    8  C6  UNL     1     -35.031  13.578  -4.079  1.00 20.00     0.310 C 
BRANCH   7   9
HETATM    9  C5  UNL     1     -36.513  15.366  -3.467  1.00 20.00     0.223 A 
HETATM   10  C3  UNL     1     -37.423  16.173  -4.352  1.00 20.00     0.038 A 
HETATM   11  C4  UNL     1     -37.712  14.721  -4.106  1.00 20.00     0.038 A 
ENDBRANCH   7   9
ENDBRANCH   1   7
TORSDOF 5
ENDMDL
MODEL 9
REMARK VINA RESULT:      -3.2     10.605     12.211
REMARK  5 active torsions:
REMARK  status: ('A' for Active; 'I' for Inactive)
REMARK    1  A    between atoms: C1_1  and  C7_7 
REMARK    2  A    between atoms: C2_2  and  C8_8 
REMARK    3  A    between atoms: C5_5  and  N9_9 
REMARK    4  A    between atoms: C7_7  and  N9_9 
REMARK    5  A    between atoms: C8_8  and  S10_10 
ROOT
HETATM    1  C7  UNL     1     -43.186   7.384  -2.289  1.00 20.00     0.299 C 
ENDROOT
BRANCH   1   2
HETATM    2  C1  UNL     1     -42.310   7.846  -3.413  1.00 20.00    -0.000 C 
HETATM    3  C2  UNL     1     -42.696   8.729  -4.346  1.00 20.00    -0.019 C 
BRANCH   3   4
HETATM    4  C8  UNL     1     -41.817   9.190  -5.465  1.00 20.00     0.097 C 
BRANCH   4   5
HETATM    5  S10 UNL     1     -41.938  10.989  -5.654  1.00 20.00    -0.178 SA
HETATM    6  H25 UNL     1     -40.653  11.251  -5.376  1.00 20.00     0.101 HD
ENDBRANCH   4   5
ENDBRANCH   3   4
ENDBRANCH   1   2
BRANCH   1   7
HETATM    7  N9  UNL     1     -42.806   6.055  -1.823  1.00 20.00     0.092 N 
HETATM    8  C6  UNL     1     -43.135   5.043  -2.828  1.00 20.00     0.310 C 
BRANCH   7   9
HETATM    9  C5  UNL     1     -41.378   6.009  -1.505  1.00 20.00     0.223 A 
HETATM   10  C3  UNL     1     -40.918   5.907  -0.077  1.00 20.00     0.038 A 
HETATM   11  C4  UNL     1     -40.745   4.740  -1.004  1.00 20.00     0.038 A 
ENDBRANCH   7   9
ENDBRANCH   1   7
TORSDOF 5
ENDMDL
