MODEL 1
REMARK VINA RESULT:      -3.3      0.000      0.000
REMARK  5 active torsions:
REMARK  status: ('A' for Active; 'I' for Inactive)
REMARK    1  A    between atoms: C3_3  and  C6_6 
REMARK    2  A    between atoms: C4_4  and  C6_6 
REMARK    3  A    between atoms: C4_4  and  O7_7 
REMARK    4  A    between atoms: C5_5  and  C6_6 
REMARK    5  A    between atoms: C5_5  and  S8_8 
ROOT
HETATM    1  C6  UNL     1     -33.749  15.645  -3.819  1.00 20.00     0.018 C 
ENDROOT
BRANCH   1   2
HETATM    2  C3  UNL     1     -33.591  16.395  -2.480  1.00 20.00     0.003 C 
HETATM    3  C1  UNL     1     -34.788  16.255  -1.551  1.00 20.00     0.005 C 
ENDBRANCH   1   2
BRANCH   1   4
HETATM    4  C4  UNL     1     -33.113  14.250  -3.704  1.00 20.00     0.172 C 
BRANCH   4   5
HETATM    5  O7  UNL     1     -34.109  13.275  -3.425  1.00 20.00    -0.396 OA
HETATM    6  C2  UNL     1     -35.198  13.367  -4.331  1.00 20.00     0.201 C 
ENDBRANCH   4   5
ENDBRANCH   1   4
BRANCH   1   7
HETATM    7  C5  UNL     1     -33.261  16.432  -5.055  1.00 20.00     0.077 C 
BRANCH   7   8
HETATM    8  S8  UNL     1     -33.667  18.205  -5.063  1.00 20.00    -0.182 SA
HETATM    9  H22 UNL     1     -34.911  18.065  -4.586  1.00 20.00     0.101 HD
ENDBRANCH   7   8
ENDBRANCH   1   7
TORSDOF 5
ENDMDL
MODEL 2
REMARK VINA RESULT:      -3.2      2.108      2.264
REMARK  5 active torsions:
REMARK  status: ('A' for Active; 'I' for Inactive)
REMARK    1  A    between atoms: C3_3  and  C6_6 
REMARK    2  A    between atoms: C4_4  and  C6_6 
REMARK    3  A    between atoms: C4_4  and  O7_7 
REMARK    4  A    between atoms: C5_5  and  C6_6 
REMARK    5  A    between atoms: C5_5  and  S8_8 
ROOT
HETATM    1  C6  UNL     1     -34.781  15.599  -2.630  1.00 20.00     0.018 C 
ENDROOT
BRANCH   1   2
HETATM    2  C3  UNL     1     -34.028  16.601  -1.730  1.00 20.00     0.003 C 
HETATM    3  C1  UNL     1     -34.729  16.889  -0.410  1.00 20.00     0.005 C 
ENDBRANCH   1   2
BRANCH   1   4
HETATM    4  C4  UNL     1     -33.768  14.795  -3.462  1.00 20.00     0.172 C 
BRANCH   4   5
HETATM    5  O7  UNL     1     -34.170  13.435  -3.549  1.00 20.00    -0.396 OA
HETATM    6  C2  UNL     1     -34.528  13.080  -4.877  1.00 20.00     0.201 C 
ENDBRANCH   4   5
ENDBRANCH   1   4
BRANCH   1   7
HETATM    7  C5  UNL     1     -35.903  16.225  -3.486  1.00 20.00     0.077 C 
BRANCH   7   8
HETATM    8  S8  UNL     1     -37.404  15.213  -3.668  1.00 20.00    -0.182 SA
HETATM    9  H22 UNL     1     -38.031  15.700  -2.589  1.00 20.00     0.101 HD
ENDBRANCH   7   8
ENDBRANCH   1   7
TORSDOF 5
ENDMDL
MODEL 3
REMARK VINA RESULT:      -3.2      2.436      3.047
REMARK  5 active torsions:
REMARK  status: ('A' for Active; 'I' for Inactive)
REMARK    1  A    between atoms: C3_3  and  C6_6 
REMARK    2  A    between atoms: C4_4  and  C6_6 
REMARK    3  A    between atoms: C4_4  and  O7_7 
REMARK    4  A    between atoms: C5_5  and  C6_6 
REMARK    5  A    between atoms: C5_5  and  S8_8 
ROOT
HETATM    1  C6  UNL     1     -33.589  15.842  -3.050  1.00 20.00     0.018 C 
ENDROOT
BRANCH   1   2
HETATM    2  C3  UNL     1     -34.822  15.894  -2.123  1.00 20.00     0.003 C 
HETATM    3  C1  UNL     1     -34.587  16.663  -0.831  1.00 20.00     0.005 C 
ENDBRANCH   1   2
BRANCH   1   4
HETATM    4  C4  UNL     1     -33.636  17.026  -4.031  1.00 20.00     0.172 C 
BRANCH   4   5
HETATM    5  O7  UNL     1     -33.229  16.609  -5.327  1.00 20.00    -0.396 OA
HETATM    6  C2  UNL     1     -34.164  17.004  -6.321  1.00 20.00     0.201 C 
ENDBRANCH   4   5
ENDBRANCH   1   4
BRANCH   1   7
HETATM    7  C5  UNL     1     -33.373  14.484  -3.753  1.00 20.00     0.077 C 
BRANCH   7   8
HETATM    8  S8  UNL     1     -34.891  13.581  -4.191  1.00 20.00    -0.182 SA
HETATM    9  H22 UNL     1     -34.471  12.386  -3.758  1.00 20.00     0.101 HD
ENDBRANCH   7   8
ENDBRANCH   1   7
TORSDOF 5
ENDMDL
MODEL 4
REMARK VINA RESULT:      -3.1      1.441      2.932
REMARK  5 active torsions:
REMARK  status: ('A' for Active; 'I' for Inactive)
REMARK    1  A    between atoms: C3_3  and  C6_6 
REMARK    2  A    between atoms: C4_4  and  C6_6 
REMARK    3  A    between atoms: C4_4  and  O7_7 
REMARK    4  A    between atoms: C5_5  and  C6_6 
REMARK    5  A    between atoms: C5_5  and  S8_8 
ROOT
HETATM    1  C6  UNL     1     -33.560  15.428  -3.478  1.00 20.00     0.018 C 
ENDROOT
BRANCH   1   2
HETATM    2  C3  UNL     1     -33.644  13.900  -3.676  1.00 20.00     0.003 C 
HETATM    3  C1  UNL     1     -34.991  13.421  -4.198  1.00 20.00     0.005 C 
ENDBRANCH   1   2
BRANCH   1   4
HETATM    4  C4  UNL     1     -34.858  15.933  -2.827  1.00 20.00     0.172 C 
BRANCH   4   5
HETATM    5  O7  UNL     1     -34.696  16.033  -1.418  1.00 20.00    -0.396 OA
HETATM    6  C2  UNL     1     -33.965  17.197  -1.058  1.00 20.00     0.201 C 
ENDBRANCH   4   5
ENDBRANCH   1   4
BRANCH   1   7
HETATM    7  C5  UNL     1     -33.175  16.218  -4.748  1.00 20.00     0.077 C 
BRANCH   7   8
HETATM    8  S8  UNL     1     -33.752  17.943  -4.800  1.00 20.00    -0.182 SA
HETATM    9  H22 UNL     1     -34.866  17.737  -4.086  1.00 20.00     0.101 HD
ENDBRANCH   7   8
ENDBRANCH   1   7
TORSDOF 5
ENDMDL
MODEL 5
REMARK VINA RESULT:      -3.0     11.692     12.515
REMARK  5 active torsions:
REMARK  status: ('A' for Active; 'I' for Inactive)
REMARK    1  A    between atoms: C3_3  and  C6_6 
REMARK    2  A    between atoms: C4_4  and  C6_6 
REMARK    3  A    between atoms: C4_4  and  O7_7 
REMARK    4  A    between atoms: C5_5  and  C6_6 
REMARK    5  A    between atoms: C5_5  and  S8_8 
ROOT
HETATM    1  C6  UNL     1     -33.852   6.493   4.199  1.00 20.00     0.018 C 
ENDROOT
BRANCH   1   2
HETATM    2  C3  UNL     1     -34.885   5.714   3.360  1.00 20.00     0.003 C 
HETATM    3  C1  UNL     1     -34.288   5.002   2.154  1.00 20.00     0.005 C 
ENDBRANCH   1   2
BRANCH   1   4
HETATM    4  C4  UNL     1     -32.447   6.273   3.614  1.00 20.00     0.172 C 
BRANCH   4   5
HETATM    5  O7  UNL     1     -31.787   7.519   3.434  1.00 20.00    -0.396 OA
HETATM    6  C2  UNL     1     -32.098   8.097   2.174  1.00 20.00     0.201 C 
ENDBRANCH   4   5
ENDBRANCH   1   4
BRANCH   1   7
HETATM    7  C5  UNL     1     -33.923   6.221   5.718  1.00 20.00     0.077 C 
BRANCH   7   8
HETATM    8  S8  UNL     1     -34.769   4.683   6.196  1.00 20.00    -0.182 SA
HETATM    9  H22 UNL     1     -34.175   4.563   7.390  1.00 20.00     0.101 HD
ENDBRANCH   7   8
ENDBRANCH   1   7
TORSDOF 5
ENDMDL
MODEL 6
REMARK VINA RESULT:      -3.0      2.753      3.557
REMARK  5 active torsions:
REMARK  status: ('A' for Active; 'I' for Inactive)
REMARK    1  A    between atoms: C3_3  and  C6_6 
REMARK    2  A    between atoms: C4_4  and  C6_6 
REMARK    3  A    between atoms: C4_4  and  O7_7 
REMARK    4  A    between atoms: C5_5  and  C6_6 
REMARK    5  A    between atoms: C5_5  and  S8_8 
ROOT
HETATM    1  C6  UNL     1     -35.548  14.797  -4.500  1.00 20.00     0.018 C 
ENDROOT
BRANCH   1   2
HETATM    2  C3  UNL     1     -34.833  13.514  -4.029  1.00 20.00     0.003 C 
HETATM    3  C1  UNL     1     -33.349  13.704  -3.747  1.00 20.00     0.005 C 
ENDBRANCH   1   2
BRANCH   1   4
HETATM    4  C4  UNL     1     -36.726  15.102  -3.559  1.00 20.00     0.172 C 
BRANCH   4   5
HETATM    5  O7  UNL     1     -37.776  14.165  -3.764  1.00 20.00    -0.396 OA
HETATM    6  C2  UNL     1     -39.026  14.814  -3.949  1.00 20.00     0.201 C 
ENDBRANCH   4   5
ENDBRANCH   1   4
BRANCH   1   7
HETATM    7  C5  UNL     1     -35.951  14.796  -5.991  1.00 20.00     0.077 C 
BRANCH   7   8
HETATM    8  S8  UNL     1     -34.585  15.038  -7.168  1.00 20.00    -0.182 SA
HETATM    9  H22 UNL     1     -33.604  14.761  -6.301  1.00 20.00     0.101 HD
ENDBRANCH   7   8
ENDBRANCH   1   7
TORSDOF 5
ENDMDL
MODEL 7
REMARK VINA RESULT:      -3.0      2.551      3.549
REMARK  5 active torsions:
REMARK  status: ('A' for Active; 'I' for Inactive)
REMARK    1  A    between atoms: C3_3  and  C6_6 
REMARK    2  A    between atoms: C4_4  and  C6_6 
REMARK    3  A    between atoms: C4_4  and  O7_7 
REMARK    4  A    between atoms: C5_5  and  C6_6 
REMARK    5  A    between atoms: C5_5  and  S8_8 
ROOT
HETATM    1  C6  UNL     1     -35.104  14.356  -3.546  1.00 20.00     0.018 C 
ENDROOT
BRANCH   1   2
HETATM    2  C3  UNL     1     -34.876  13.523  -4.824  1.00 20.00     0.003 C 
HETATM    3  C1  UNL     1     -34.828  14.352  -6.099  1.00 20.00     0.005 C 
ENDBRANCH   1   2
BRANCH   1   4
HETATM    4  C4  UNL     1     -36.469  15.059  -3.630  1.00 20.00     0.172 C 
BRANCH   4   5
HETATM    5  O7  UNL     1     -37.509  14.100  -3.772  1.00 20.00    -0.396 OA
HETATM    6  C2  UNL     1     -38.751  14.718  -4.079  1.00 20.00     0.201 C 
ENDBRANCH   4   5
ENDBRANCH   1   4
BRANCH   1   7
HETATM    7  C5  UNL     1     -33.950  15.320  -3.195  1.00 20.00     0.077 C 
BRANCH   7   8
HETATM    8  S8  UNL     1     -34.305  16.513  -1.867  1.00 20.00    -0.182 SA
HETATM    9  H22 UNL     1     -35.566  16.764  -2.241  1.00 20.00     0.101 HD
ENDBRANCH   7   8
ENDBRANCH   1   7
TORSDOF 5
ENDMDL
MODEL 8
REMARK VINA RESULT:      -3.0      2.272      3.488
REMARK  5 active torsions:
REMARK  status: ('A' for Active; 'I' for Inactive)
REMARK    1  A    between atoms: C3_3  and  C6_6 
REMARK    2  A    between atoms: C4_4  and  C6_6 
REMARK    3  A    between atoms: C4_4  and  O7_7 
REMARK    4  A    between atoms: C5_5  and  C6_6 
REMARK    5  A    between atoms: C5_5  and  S8_8 
ROOT
HETATM    1  C6  UNL     1     -34.557  15.442  -3.664  1.00 20.00     0.018 C 
ENDROOT
BRANCH   1   2
HETATM    2  C3  UNL     1     -34.389  13.912  -3.560  1.00 20.00     0.003 C 
HETATM    3  C1  UNL     1     -34.604  13.179  -4.877  1.00 20.00     0.005 C 
ENDBRANCH   1   2
BRANCH   1   4
HETATM    4  C4  UNL     1     -33.171  16.105  -3.744  1.00 20.00     0.172 C 
BRANCH   4   5
HETATM    5  O7  UNL     1     -32.855  16.423  -5.093  1.00 20.00    -0.396 OA
HETATM    6  C2  UNL     1     -33.732  17.410  -5.616  1.00 20.00     0.201 C 
ENDBRANCH   4   5
ENDBRANCH   1   4
BRANCH   1   7
HETATM    7  C5  UNL     1     -35.461  16.062  -2.576  1.00 20.00     0.077 C 
BRANCH   7   8
HETATM    8  S8  UNL     1     -34.599  16.647  -1.085  1.00 20.00    -0.182 SA
HETATM    9  H22 UNL     1     -35.506  16.190  -0.212  1.00 20.00     0.101 HD
ENDBRANCH   7   8
ENDBRANCH   1   7
TORSDOF 5
ENDMDL
MODEL 9
REMARK VINA RESULT:      -3.0      2.669      3.382
REMARK  5 active torsions:
REMARK  status: ('A' for Active; 'I' for Inactive)
REMARK    1  A    between atoms: C3_3  and  C6_6 
REMARK    2  A    between atoms: C4_4  and  C6_6 
REMARK    3  A    between atoms: C4_4  and  O7_7 
REMARK    4  A    between atoms: C5_5  and  C6_6 
REMARK    5  A    between atoms: C5_5  and  S8_8 
ROOT
HETATM    1  C6  UNL     1     -35.342  15.246  -2.955  1.00 20.00     0.018 C 
ENDROOT
BRANCH   1   2
HETATM    2  C3  UNL     1     -33.898  14.964  -3.420  1.00 20.00     0.003 C 
HETATM    3  C1  UNL     1     -33.679  13.542  -3.919  1.00 20.00     0.005 C 
ENDBRANCH   1   2
BRANCH   1   4
HETATM    4  C4  UNL     1     -36.314  14.989  -4.119  1.00 20.00     0.172 C 
BRANCH   4   5
HETATM    5  O7  UNL     1     -37.397  14.178  -3.686  1.00 20.00    -0.396 OA
HETATM    6  C2  UNL     1     -38.650  14.791  -3.956  1.00 20.00     0.201 C 
ENDBRANCH   4   5
ENDBRANCH   1   4
BRANCH   1   7
HETATM    7  C5  UNL     1     -35.543  16.626  -2.294  1.00 20.00     0.077 C 
BRANCH   7   8
HETATM    8  S8  UNL     1     -34.616  16.896  -0.751  1.00 20.00    -0.182 SA
HETATM    9  H22 UNL     1     -33.654  17.650  -1.298  1.00 20.00     0.101 HD
ENDBRANCH   7   8
ENDBRANCH   1   7
TORSDOF 5
ENDMDL
