MODEL 1
REMARK VINA RESULT:      -3.0      0.000      0.000
REMARK  6 active torsions:
REMARK  status: ('A' for Active; 'I' for Inactive)
REMARK    1  A    between atoms: C2_2  and  C3_3 
REMARK    2  A    between atoms: C2_2  and  O6_6 
REMARK    3  A    between atoms: C3_3  and  S8_8 
REMARK    4  A    between atoms: C4_4  and  C5_5 
REMARK    5  A    between atoms: C4_4  and  S7_7 
REMARK    6  A    between atoms: C5_5  and  S8_8 
ROOT
HETATM    1  S8  UNL     1     -33.647   6.475   4.346  1.00 20.00    -0.166 SA
ENDROOT
BRANCH   1   2
HETATM    2  C3  UNL     1     -32.469   6.465   2.959  1.00 20.00     0.100 C 
BRANCH   2   3
HETATM    3  C2  UNL     1     -31.809   7.824   2.782  1.00 20.00     0.177 C 
BRANCH   3   4
HETATM    4  O6  UNL     1     -31.992   8.284   1.450  1.00 20.00    -0.395 OA
HETATM    5  C1  UNL     1     -32.421   9.638   1.420  1.00 20.00     0.201 C 
ENDBRANCH   3   4
ENDBRANCH   2   3
ENDBRANCH   1   2
BRANCH   1   6
HETATM    6  C5  UNL     1     -34.883   5.360   3.643  1.00 20.00     0.084 C 
BRANCH   6   7
HETATM    7  C4  UNL     1     -35.267   4.295   4.661  1.00 20.00     0.081 C 
BRANCH   7   8
HETATM    8  S7  UNL     1     -34.730   4.795   6.324  1.00 20.00    -0.181 SA
HETATM    9  H20 UNL     1     -35.952   4.797   6.870  1.00 20.00     0.101 HD
ENDBRANCH   7   8
ENDBRANCH   6   7
ENDBRANCH   1   6
TORSDOF 6
ENDMDL
MODEL 2
REMARK VINA RESULT:      -2.9     11.162     11.541
REMARK  6 active torsions:
REMARK  status: ('A' for Active; 'I' for Inactive)
REMARK    1  A    between atoms: C2_2  and  C3_3 
REMARK    2  A    between atoms: C2_2  and  O6_6 
REMARK    3  A    between atoms: C3_3  and  S8_8 
REMARK    4  A    between atoms: C4_4  and  C5_5 
REMARK    5  A    between atoms: C4_4  and  S7_7 
REMARK    6  A    between atoms: C5_5  and  S8_8 
ROOT
HETATM    1  S8  UNL     1     -33.951  16.991  -3.322  1.00 20.00    -0.166 SA
ENDROOT
BRANCH   1   2
HETATM    2  C3  UNL     1     -33.499  15.597  -4.399  1.00 20.00     0.100 C 
BRANCH   2   3
HETATM    3  C2  UNL     1     -32.721  14.536  -3.636  1.00 20.00     0.177 C 
BRANCH   3   4
HETATM    4  O6  UNL     1     -33.334  13.265  -3.807  1.00 20.00    -0.395 OA
HETATM    5  C1  UNL     1     -34.411  13.326  -4.732  1.00 20.00     0.201 C 
ENDBRANCH   3   4
ENDBRANCH   2   3
ENDBRANCH   1   2
BRANCH   1   6
HETATM    6  C5  UNL     1     -34.813  16.057  -2.037  1.00 20.00     0.084 C 
BRANCH   6   7
HETATM    7  C4  UNL     1     -34.630  16.733  -0.685  1.00 20.00     0.081 C 
BRANCH   7   8
HETATM    8  S7  UNL     1     -33.460  18.117  -0.831  1.00 20.00    -0.181 SA
HETATM    9  H20 UNL     1     -32.358  17.360  -0.911  1.00 20.00     0.101 HD
ENDBRANCH   7   8
ENDBRANCH   6   7
ENDBRANCH   1   6
TORSDOF 6
ENDMDL
MODEL 3
REMARK VINA RESULT:      -2.8      2.895      5.233
REMARK  6 active torsions:
REMARK  status: ('A' for Active; 'I' for Inactive)
REMARK    1  A    between atoms: C2_2  and  C3_3 
REMARK    2  A    between atoms: C2_2  and  O6_6 
REMARK    3  A    between atoms: C3_3  and  S8_8 
REMARK    4  A    between atoms: C4_4  and  C5_5 
REMARK    5  A    between atoms: C4_4  and  S7_7 
REMARK    6  A    between atoms: C5_5  and  S8_8 
ROOT
HETATM    1  S8  UNL     1     -32.538   5.996   3.149  1.00 20.00    -0.166 SA
ENDROOT
BRANCH   1   2
HETATM    2  C3  UNL     1     -33.991   6.281   4.204  1.00 20.00     0.100 C 
BRANCH   2   3
HETATM    3  C2  UNL     1     -35.138   5.353   3.833  1.00 20.00     0.177 C 
BRANCH   3   4
HETATM    4  O6  UNL     1     -35.191   4.258   4.737  1.00 20.00    -0.395 OA
HETATM    5  C1  UNL     1     -34.881   4.661   6.064  1.00 20.00     0.201 C 
ENDBRANCH   3   4
ENDBRANCH   2   3
ENDBRANCH   1   2
BRANCH   1   6
HETATM    6  C5  UNL     1     -31.945   7.700   3.057  1.00 20.00     0.084 C 
BRANCH   6   7
HETATM    7  C4  UNL     1     -31.860   8.148   1.605  1.00 20.00     0.081 C 
BRANCH   7   8
HETATM    8  S7  UNL     1     -32.528   9.829   1.430  1.00 20.00    -0.181 SA
HETATM    9  H20 UNL     1     -32.405   9.890   0.098  1.00 20.00     0.101 HD
ENDBRANCH   7   8
ENDBRANCH   6   7
ENDBRANCH   1   6
TORSDOF 6
ENDMDL
MODEL 4
REMARK VINA RESULT:      -2.8     11.093     12.122
REMARK  6 active torsions:
REMARK  status: ('A' for Active; 'I' for Inactive)
REMARK    1  A    between atoms: C2_2  and  C3_3 
REMARK    2  A    between atoms: C2_2  and  O6_6 
REMARK    3  A    between atoms: C3_3  and  S8_8 
REMARK    4  A    between atoms: C4_4  and  C5_5 
REMARK    5  A    between atoms: C4_4  and  S7_7 
REMARK    6  A    between atoms: C5_5  and  S8_8 
ROOT
HETATM    1  S8  UNL     1     -35.081  14.451  -5.896  1.00 20.00    -0.166 SA
ENDROOT
BRANCH   1   2
HETATM    2  C3  UNL     1     -36.738  15.048  -5.443  1.00 20.00     0.100 C 
BRANCH   2   3
HETATM    3  C2  UNL     1     -37.001  14.879  -3.954  1.00 20.00     0.177 C 
BRANCH   3   4
HETATM    4  O6  UNL     1     -38.204  14.151  -3.751  1.00 20.00    -0.395 OA
HETATM    5  C1  UNL     1     -39.343  14.908  -4.137  1.00 20.00     0.201 C 
ENDBRANCH   3   4
ENDBRANCH   2   3
ENDBRANCH   1   2
BRANCH   1   6
HETATM    6  C5  UNL     1     -34.806  13.353  -4.488  1.00 20.00     0.084 C 
BRANCH   6   7
HETATM    7  C4  UNL     1     -33.492  13.698  -3.802  1.00 20.00     0.081 C 
BRANCH   7   8
HETATM    8  S7  UNL     1     -33.203  15.491  -3.869  1.00 20.00    -0.181 SA
HETATM    9  H20 UNL     1     -33.969  15.715  -4.944  1.00 20.00     0.101 HD
ENDBRANCH   7   8
ENDBRANCH   6   7
ENDBRANCH   1   6
TORSDOF 6
ENDMDL
MODEL 5
REMARK VINA RESULT:      -2.8     10.994     12.257
REMARK  6 active torsions:
REMARK  status: ('A' for Active; 'I' for Inactive)
REMARK    1  A    between atoms: C2_2  and  C3_3 
REMARK    2  A    between atoms: C2_2  and  O6_6 
REMARK    3  A    between atoms: C3_3  and  S8_8 
REMARK    4  A    between atoms: C4_4  and  C5_5 
REMARK    5  A    between atoms: C4_4  and  S7_7 
REMARK    6  A    between atoms: C5_5  and  S8_8 
ROOT
HETATM    1  S8  UNL     1     -34.641  13.343  -4.718  1.00 20.00    -0.166 SA
ENDROOT
BRANCH   1   2
HETATM    2  C3  UNL     1     -33.323  14.112  -3.728  1.00 20.00     0.100 C 
BRANCH   2   3
HETATM    3  C2  UNL     1     -33.484  15.624  -3.668  1.00 20.00     0.177 C 
BRANCH   3   4
HETATM    4  O6  UNL     1     -32.792  16.231  -4.750  1.00 20.00    -0.395 OA
HETATM    5  C1  UNL     1     -33.469  17.388  -5.219  1.00 20.00     0.201 C 
ENDBRANCH   3   4
ENDBRANCH   2   3
ENDBRANCH   1   2
BRANCH   1   6
HETATM    6  C5  UNL     1     -35.933  14.573  -4.430  1.00 20.00     0.084 C 
BRANCH   6   7
HETATM    7  C4  UNL     1     -36.446  15.115  -5.757  1.00 20.00     0.081 C 
BRANCH   7   8
HETATM    8  S7  UNL     1     -35.357  14.585  -7.112  1.00 20.00    -0.181 SA
HETATM    9  H20 UNL     1     -36.272  14.708  -8.083  1.00 20.00     0.101 HD
ENDBRANCH   7   8
ENDBRANCH   6   7
ENDBRANCH   1   6
TORSDOF 6
ENDMDL
MODEL 6
REMARK VINA RESULT:      -2.8     11.016     12.191
REMARK  6 active torsions:
REMARK  status: ('A' for Active; 'I' for Inactive)
REMARK    1  A    between atoms: C2_2  and  C3_3 
REMARK    2  A    between atoms: C2_2  and  O6_6 
REMARK    3  A    between atoms: C3_3  and  S8_8 
REMARK    4  A    between atoms: C4_4  and  C5_5 
REMARK    5  A    between atoms: C4_4  and  S7_7 
REMARK    6  A    between atoms: C5_5  and  S8_8 
ROOT
HETATM    1  S8  UNL     1     -33.948  14.135  -3.695  1.00 20.00    -0.166 SA
ENDROOT
BRANCH   1   2
HETATM    2  C3  UNL     1     -35.559  13.562  -4.314  1.00 20.00     0.100 C 
BRANCH   2   3
HETATM    3  C2  UNL     1     -36.624  14.639  -4.172  1.00 20.00     0.177 C 
BRANCH   3   4
HETATM    4  O6  UNL     1     -37.835  14.068  -3.699  1.00 20.00    -0.395 OA
HETATM    5  C1  UNL     1     -38.966  14.813  -4.127  1.00 20.00     0.201 C 
ENDBRANCH   3   4
ENDBRANCH   2   3
ENDBRANCH   1   2
BRANCH   1   6
HETATM    6  C5  UNL     1     -34.523  15.577  -2.771  1.00 20.00     0.084 C 
BRANCH   6   7
HETATM    7  C4  UNL     1     -33.697  16.801  -3.141  1.00 20.00     0.081 C 
BRANCH   7   8
HETATM    8  S7  UNL     1     -33.487  16.892  -4.944  1.00 20.00    -0.181 SA
HETATM    9  H20 UNL     1     -32.240  17.380  -4.914  1.00 20.00     0.101 HD
ENDBRANCH   7   8
ENDBRANCH   6   7
ENDBRANCH   1   6
TORSDOF 6
ENDMDL
MODEL 7
REMARK VINA RESULT:      -2.7     11.307     12.599
REMARK  6 active torsions:
REMARK  status: ('A' for Active; 'I' for Inactive)
REMARK    1  A    between atoms: C2_2  and  C3_3 
REMARK    2  A    between atoms: C2_2  and  O6_6 
REMARK    3  A    between atoms: C3_3  and  S8_8 
REMARK    4  A    between atoms: C4_4  and  C5_5 
REMARK    5  A    between atoms: C4_4  and  S7_7 
REMARK    6  A    between atoms: C5_5  and  S8_8 
ROOT
HETATM    1  S8  UNL     1     -36.484  15.275  -5.599  1.00 20.00    -0.166 SA
ENDROOT
BRANCH   1   2
HETATM    2  C3  UNL     1     -35.998  14.437  -4.059  1.00 20.00     0.100 C 
BRANCH   2   3
HETATM    3  C2  UNL     1     -35.117  13.229  -4.339  1.00 20.00     0.177 C 
BRANCH   3   4
HETATM    4  O6  UNL     1     -33.970  13.258  -3.501  1.00 20.00    -0.395 OA
HETATM    5  C1  UNL     1     -33.214  14.445  -3.692  1.00 20.00     0.201 C 
ENDBRANCH   3   4
ENDBRANCH   2   3
ENDBRANCH   1   2
BRANCH   1   6
HETATM    6  C5  UNL     1     -35.423  14.358  -6.739  1.00 20.00     0.084 C 
BRANCH   6   7
HETATM    7  C4  UNL     1     -34.313  15.259  -7.262  1.00 20.00     0.081 C 
BRANCH   7   8
HETATM    8  S7  UNL     1     -34.494  16.935  -6.581  1.00 20.00    -0.181 SA
HETATM    9  H20 UNL     1     -33.262  17.350  -6.905  1.00 20.00     0.101 HD
ENDBRANCH   7   8
ENDBRANCH   6   7
ENDBRANCH   1   6
TORSDOF 6
ENDMDL
MODEL 8
REMARK VINA RESULT:      -2.7     11.346     11.776
REMARK  6 active torsions:
REMARK  status: ('A' for Active; 'I' for Inactive)
REMARK    1  A    between atoms: C2_2  and  C3_3 
REMARK    2  A    between atoms: C2_2  and  O6_6 
REMARK    3  A    between atoms: C3_3  and  S8_8 
REMARK    4  A    between atoms: C4_4  and  C5_5 
REMARK    5  A    between atoms: C4_4  and  S7_7 
REMARK    6  A    between atoms: C5_5  and  S8_8 
ROOT
HETATM    1  S8  UNL     1     -33.329  15.838  -4.420  1.00 20.00    -0.166 SA
ENDROOT
BRANCH   1   2
HETATM    2  C3  UNL     1     -33.995  16.818  -3.040  1.00 20.00     0.100 C 
BRANCH   2   3
HETATM    3  C2  UNL     1     -34.765  15.946  -2.060  1.00 20.00     0.177 C 
BRANCH   3   4
HETATM    4  O6  UNL     1     -34.646  16.470  -0.745  1.00 20.00    -0.395 OA
HETATM    5  C1  UNL     1     -33.767  17.585  -0.704  1.00 20.00     0.201 C 
ENDBRANCH   3   4
ENDBRANCH   2   3
ENDBRANCH   1   2
BRANCH   1   6
HETATM    6  C5  UNL     1     -33.653  14.192  -3.748  1.00 20.00     0.084 C 
BRANCH   6   7
HETATM    7  C4  UNL     1     -34.432  13.358  -4.756  1.00 20.00     0.081 C 
BRANCH   7   8
HETATM    8  S7  UNL     1     -35.036  14.413  -6.107  1.00 20.00    -0.181 SA
HETATM    9  H20 UNL     1     -36.330  14.103  -5.959  1.00 20.00     0.101 HD
ENDBRANCH   7   8
ENDBRANCH   6   7
ENDBRANCH   1   6
TORSDOF 6
ENDMDL
MODEL 9
REMARK VINA RESULT:      -2.7     11.143     11.973
REMARK  6 active torsions:
REMARK  status: ('A' for Active; 'I' for Inactive)
REMARK    1  A    between atoms: C2_2  and  C3_3 
REMARK    2  A    between atoms: C2_2  and  O6_6 
REMARK    3  A    between atoms: C3_3  and  S8_8 
REMARK    4  A    between atoms: C4_4  and  C5_5 
REMARK    5  A    between atoms: C4_4  and  S7_7 
REMARK    6  A    between atoms: C5_5  and  S8_8 
ROOT
HETATM    1  S8  UNL     1     -34.750  15.829  -5.664  1.00 20.00    -0.166 SA
ENDROOT
BRANCH   1   2
HETATM    2  C3  UNL     1     -33.329  16.471  -4.729  1.00 20.00     0.100 C 
BRANCH   2   3
HETATM    3  C2  UNL     1     -33.766  17.092  -3.411  1.00 20.00     0.177 C 
BRANCH   3   4
HETATM    4  O6  UNL     1     -33.727  16.118  -2.377  1.00 20.00    -0.395 OA
HETATM    5  C1  UNL     1     -34.574  16.474  -1.293  1.00 20.00     0.201 C 
ENDBRANCH   3   4
ENDBRANCH   2   3
ENDBRANCH   1   2
BRANCH   1   6
HETATM    6  C5  UNL     1     -34.475  14.067  -5.376  1.00 20.00     0.084 C 
BRANCH   6   7
HETATM    7  C4  UNL     1     -35.366  13.575  -4.243  1.00 20.00     0.081 C 
BRANCH   7   8
HETATM    8  S7  UNL     1     -36.771  14.706  -4.017  1.00 20.00    -0.181 SA
HETATM    9  H20 UNL     1     -36.713  15.246  -5.241  1.00 20.00     0.101 HD
ENDBRANCH   7   8
ENDBRANCH   6   7
ENDBRANCH   1   6
TORSDOF 6
ENDMDL
