MODEL 1
REMARK VINA RESULT:      -5.2      0.000      0.000
REMARK  1 active torsions:
REMARK  status: ('A' for Active; 'I' for Inactive)
REMARK    1  A    between atoms: C4_4  and  C11_11 
ROOT
HETATM    1  C1  UNL     1     -34.899  14.455  -4.716  1.00 20.00     0.008 A 
HETATM    2  C2  UNL     1     -35.012  14.620  -3.334  1.00 20.00     0.008 A 
HETATM    3  C3  UNL     1     -33.976  16.694  -4.957  1.00 20.00     0.016 A 
HETATM    4  C4  UNL     1     -34.384  15.483  -5.521  1.00 20.00    -0.053 A 
HETATM    5  C5  UNL     1     -34.596  15.819  -2.781  1.00 20.00    -0.050 A 
HETATM    6  C6  UNL     1     -34.087  16.850  -3.584  1.00 20.00    -0.033 A 
HETATM    7  C7  UNL     1     -34.648  16.238  -1.345  1.00 20.00     0.041 C 
HETATM    8  C8  UNL     1     -33.676  17.431  -1.351  1.00 20.00     0.030 C 
HETATM    9  C12 UNL     1     -33.745  18.052  -2.758  1.00 20.00     0.116 C 
HETATM   10 CL13 UNL     1     -35.041  19.262  -2.870  1.00 20.00    -0.120 Cl
ENDROOT
BRANCH   4  11
HETATM   11  C11 UNL     1     -34.275  15.282  -6.994  1.00 20.00     0.018 A 
HETATM   12  C9  UNL     1     -35.292  15.929  -7.898  1.00 20.00     0.010 A 
HETATM   13  C10 UNL     1     -35.311  14.446  -7.699  1.00 20.00     0.010 A 
ENDBRANCH   4  11
TORSDOF 1
ENDMDL
MODEL 2
REMARK VINA RESULT:      -5.1      1.852      5.119
REMARK  1 active torsions:
REMARK  status: ('A' for Active; 'I' for Inactive)
REMARK    1  A    between atoms: C4_4  and  C11_11 
ROOT
HETATM    1  C1  UNL     1     -33.610  17.262  -2.956  1.00 20.00     0.008 A 
HETATM    2  C2  UNL     1     -33.476  17.124  -4.339  1.00 20.00     0.008 A 
HETATM    3  C3  UNL     1     -35.295  15.506  -2.895  1.00 20.00     0.016 A 
HETATM    4  C4  UNL     1     -34.511  16.459  -2.240  1.00 20.00    -0.053 A 
HETATM    5  C5  UNL     1     -34.249  16.171  -4.981  1.00 20.00    -0.050 A 
HETATM    6  C6  UNL     1     -35.154  15.372  -4.268  1.00 20.00    -0.033 A 
HETATM    7  C7  UNL     1     -34.304  15.863  -6.445  1.00 20.00     0.041 C 
HETATM    8  C8  UNL     1     -34.983  14.484  -6.430  1.00 20.00     0.030 C 
HETATM    9  C12 UNL     1     -35.893  14.451  -5.189  1.00 20.00     0.116 C 
HETATM   10 CL13 UNL     1     -37.505  15.107  -5.549  1.00 20.00    -0.120 Cl
ENDROOT
BRANCH   4  11
HETATM   11  C11 UNL     1     -34.636  16.626  -0.763  1.00 20.00     0.018 A 
HETATM   12  C9  UNL     1     -35.453  17.771  -0.224  1.00 20.00     0.010 A 
HETATM   13  C10 UNL     1     -33.961  17.797  -0.099  1.00 20.00     0.010 A 
ENDBRANCH   4  11
TORSDOF 1
ENDMDL
MODEL 3
REMARK VINA RESULT:      -5.1      1.726      4.682
REMARK  1 active torsions:
REMARK  status: ('A' for Active; 'I' for Inactive)
REMARK    1  A    between atoms: C4_4  and  C11_11 
ROOT
HETATM    1  C1  UNL     1     -33.839  14.574  -3.434  1.00 20.00     0.008 A 
HETATM    2  C2  UNL     1     -34.186  13.933  -4.625  1.00 20.00     0.008 A 
HETATM    3  C3  UNL     1     -34.720  16.688  -4.259  1.00 20.00     0.016 A 
HETATM    4  C4  UNL     1     -34.105  15.940  -3.252  1.00 20.00    -0.053 A 
HETATM    5  C5  UNL     1     -34.805  14.678  -5.614  1.00 20.00    -0.050 A 
HETATM    6  C6  UNL     1     -35.066  16.044  -5.437  1.00 20.00    -0.033 A 
HETATM    7  C7  UNL     1     -35.237  14.224  -6.974  1.00 20.00     0.041 C 
HETATM    8  C8  UNL     1     -36.199  15.357  -7.369  1.00 20.00     0.030 C 
HETATM    9  C12 UNL     1     -35.703  16.629  -6.659  1.00 20.00     0.116 C 
HETATM   10 CL13 UNL     1     -34.489  17.484  -7.634  1.00 20.00    -0.120 Cl
ENDROOT
BRANCH   4  11
HETATM   11  C11 UNL     1     -33.724  16.602  -1.971  1.00 20.00     0.018 A 
HETATM   12  C9  UNL     1     -34.702  16.594  -0.825  1.00 20.00     0.010 A 
HETATM   13  C10 UNL     1     -34.431  17.868  -1.562  1.00 20.00     0.010 A 
ENDBRANCH   4  11
TORSDOF 1
ENDMDL
MODEL 4
REMARK VINA RESULT:      -5.0      2.399      5.709
REMARK  1 active torsions:
REMARK  status: ('A' for Active; 'I' for Inactive)
REMARK    1  A    between atoms: C4_4  and  C11_11 
ROOT
HETATM    1  C1  UNL     1     -34.076  18.914  -1.600  1.00 20.00     0.008 A 
HETATM    2  C2  UNL     1     -33.632  18.518  -2.863  1.00 20.00     0.008 A 
HETATM    3  C3  UNL     1     -34.775  16.642  -1.079  1.00 20.00     0.016 A 
HETATM    4  C4  UNL     1     -34.642  17.984  -0.714  1.00 20.00    -0.053 A 
HETATM    5  C5  UNL     1     -33.758  17.184  -3.213  1.00 20.00    -0.050 A 
HETATM    6  C6  UNL     1     -34.329  16.255  -2.333  1.00 20.00    -0.033 A 
HETATM    7  C7  UNL     1     -33.388  16.534  -4.510  1.00 20.00     0.041 C 
HETATM    8  C8  UNL     1     -33.369  15.052  -4.101  1.00 20.00     0.030 C 
HETATM    9  C12 UNL     1     -34.387  14.894  -2.957  1.00 20.00     0.116 C 
HETATM   10 CL13 UNL     1     -36.019  14.575  -3.582  1.00 20.00    -0.120 Cl
ENDROOT
BRANCH   4  11
HETATM   11  C11 UNL     1     -35.109  18.432   0.629  1.00 20.00     0.018 A 
HETATM   12  C9  UNL     1     -34.149  18.388   1.789  1.00 20.00     0.010 A 
HETATM   13  C10 UNL     1     -35.281  17.411   1.723  1.00 20.00     0.010 A 
ENDBRANCH   4  11
TORSDOF 1
ENDMDL
MODEL 5
REMARK VINA RESULT:      -5.0      1.957      5.327
REMARK  1 active torsions:
REMARK  status: ('A' for Active; 'I' for Inactive)
REMARK    1  A    between atoms: C4_4  and  C11_11 
ROOT
HETATM    1  C1  UNL     1     -33.798  17.936  -2.374  1.00 20.00     0.008 A 
HETATM    2  C2  UNL     1     -33.712  17.644  -3.737  1.00 20.00     0.008 A 
HETATM    3  C3  UNL     1     -34.830  15.778  -1.927  1.00 20.00     0.016 A 
HETATM    4  C4  UNL     1     -34.351  17.010  -1.476  1.00 20.00    -0.053 A 
HETATM    5  C5  UNL     1     -34.179  16.416  -4.175  1.00 20.00    -0.050 A 
HETATM    6  C6  UNL     1     -34.739  15.493  -3.280  1.00 20.00    -0.033 A 
HETATM    7  C7  UNL     1     -34.222  15.895  -5.577  1.00 20.00     0.041 C 
HETATM    8  C8  UNL     1     -34.427  14.392  -5.325  1.00 20.00     0.030 C 
HETATM    9  C12 UNL     1     -35.202  14.264  -4.001  1.00 20.00     0.116 C 
HETATM   10 CL13 UNL     1     -36.957  14.335  -4.268  1.00 20.00    -0.120 Cl
ENDROOT
BRANCH   4  11
HETATM   11  C11 UNL     1     -34.433  17.347  -0.026  1.00 20.00     0.018 A 
HETATM   12  C9  UNL     1     -35.669  18.029   0.498  1.00 20.00     0.010 A 
HETATM   13  C10 UNL     1     -34.386  18.792   0.395  1.00 20.00     0.010 A 
ENDBRANCH   4  11
TORSDOF 1
ENDMDL
MODEL 6
REMARK VINA RESULT:      -5.0      2.212      3.118
REMARK  1 active torsions:
REMARK  status: ('A' for Active; 'I' for Inactive)
REMARK    1  A    between atoms: C4_4  and  C11_11 
ROOT
HETATM    1  C1  UNL     1     -35.997  16.503  -3.893  1.00 20.00     0.008 A 
HETATM    2  C2  UNL     1     -36.564  17.466  -3.056  1.00 20.00     0.008 A 
HETATM    3  C3  UNL     1     -34.354  15.924  -2.194  1.00 20.00     0.016 A 
HETATM    4  C4  UNL     1     -34.901  15.737  -3.465  1.00 20.00    -0.053 A 
HETATM    5  C5  UNL     1     -36.023  17.638  -1.794  1.00 20.00    -0.050 A 
HETATM    6  C6  UNL     1     -34.924  16.878  -1.367  1.00 20.00    -0.033 A 
HETATM    7  C7  UNL     1     -36.435  18.619  -0.741  1.00 20.00     0.041 C 
HETATM    8  C8  UNL     1     -35.764  18.014   0.503  1.00 20.00     0.030 C 
HETATM    9  C12 UNL     1     -34.504  17.277   0.015  1.00 20.00     0.116 C 
HETATM   10 CL13 UNL     1     -33.103  18.368  -0.061  1.00 20.00    -0.120 Cl
ENDROOT
BRANCH   4  11
HETATM   11  C11 UNL     1     -34.313  14.715  -4.378  1.00 20.00     0.018 A 
HETATM   12  C9  UNL     1     -34.844  13.306  -4.338  1.00 20.00     0.010 A 
HETATM   13  C10 UNL     1     -33.482  13.603  -3.794  1.00 20.00     0.010 A 
ENDBRANCH   4  11
TORSDOF 1
ENDMDL
MODEL 7
REMARK VINA RESULT:      -4.9     11.434     12.912
REMARK  1 active torsions:
REMARK  status: ('A' for Active; 'I' for Inactive)
REMARK    1  A    between atoms: C4_4  and  C11_11 
ROOT
HETATM    1  C1  UNL     1     -33.627   6.382   2.117  1.00 20.00     0.008 A 
HETATM    2  C2  UNL     1     -34.496   5.532   2.804  1.00 20.00     0.008 A 
HETATM    3  C3  UNL     1     -32.571   7.066   4.200  1.00 20.00     0.016 A 
HETATM    4  C4  UNL     1     -32.672   7.142   2.809  1.00 20.00    -0.053 A 
HETATM    5  C5  UNL     1     -34.384   5.454   4.181  1.00 20.00    -0.050 A 
HETATM    6  C6  UNL     1     -33.434   6.217   4.876  1.00 20.00    -0.033 A 
HETATM    7  C7  UNL     1     -35.215   4.646   5.129  1.00 20.00     0.041 C 
HETATM    8  C8  UNL     1     -34.330   4.665   6.386  1.00 20.00     0.030 C 
HETATM    9  C12 UNL     1     -33.538   5.985   6.352  1.00 20.00     0.116 C 
HETATM   10 CL13 UNL     1     -34.446   7.306   7.118  1.00 20.00    -0.120 Cl
ENDROOT
BRANCH   4  11
HETATM   11  C11 UNL     1     -31.756   8.043   2.052  1.00 20.00     0.018 A 
HETATM   12  C9  UNL     1     -32.241   9.414   1.657  1.00 20.00     0.010 A 
HETATM   13  C10 UNL     1     -32.063   8.358   0.611  1.00 20.00     0.010 A 
ENDBRANCH   4  11
TORSDOF 1
ENDMDL
MODEL 8
REMARK VINA RESULT:      -4.6      2.390      5.135
REMARK  1 active torsions:
REMARK  status: ('A' for Active; 'I' for Inactive)
REMARK    1  A    between atoms: C4_4  and  C11_11 
ROOT
HETATM    1  C1  UNL     1     -33.312  16.649  -2.244  1.00 20.00     0.008 A 
HETATM    2  C2  UNL     1     -33.097  15.682  -3.227  1.00 20.00     0.008 A 
HETATM    3  C3  UNL     1     -35.709  16.229  -2.285  1.00 20.00     0.016 A 
HETATM    4  C4  UNL     1     -34.607  16.920  -1.776  1.00 20.00    -0.053 A 
HETATM    5  C5  UNL     1     -34.193  14.993  -3.719  1.00 20.00    -0.050 A 
HETATM    6  C6  UNL     1     -35.488  15.267  -3.258  1.00 20.00    -0.033 A 
HETATM    7  C7  UNL     1     -34.218  13.944  -4.787  1.00 20.00     0.041 C 
HETATM    8  C8  UNL     1     -35.600  13.314  -4.548  1.00 20.00     0.030 C 
HETATM    9  C12 UNL     1     -36.499  14.421  -3.969  1.00 20.00     0.116 C 
HETATM   10 CL13 UNL     1     -37.284  15.358  -5.259  1.00 20.00    -0.120 Cl
ENDROOT
BRANCH   4  11
HETATM   11  C11 UNL     1     -34.810  17.960  -0.726  1.00 20.00     0.018 A 
HETATM   12  C9  UNL     1     -35.027  17.525   0.701  1.00 20.00     0.010 A 
HETATM   13  C10 UNL     1     -36.166  18.098  -0.084  1.00 20.00     0.010 A 
ENDBRANCH   4  11
TORSDOF 1
ENDMDL
MODEL 9
REMARK VINA RESULT:      -4.5     11.719     13.065
REMARK  1 active torsions:
REMARK  status: ('A' for Active; 'I' for Inactive)
REMARK    1  A    between atoms: C4_4  and  C11_11 
ROOT
HETATM    1  C1  UNL     1     -43.372   8.342  -2.077  1.00 20.00     0.008 A 
HETATM    2  C2  UNL     1     -43.344   7.834  -0.777  1.00 20.00     0.008 A 
HETATM    3  C3  UNL     1     -42.615   6.213  -2.978  1.00 20.00     0.016 A 
HETATM    4  C4  UNL     1     -43.012   7.538  -3.169  1.00 20.00    -0.053 A 
HETATM    5  C5  UNL     1     -42.959   6.516  -0.597  1.00 20.00    -0.050 A 
HETATM    6  C6  UNL     1     -42.592   5.713  -1.686  1.00 20.00    -0.033 A 
HETATM    7  C7  UNL     1     -42.821   5.765   0.691  1.00 20.00     0.041 C 
HETATM    8  C8  UNL     1     -42.797   4.314   0.183  1.00 20.00     0.030 C 
HETATM    9  C12 UNL     1     -42.182   4.347  -1.228  1.00 20.00     0.116 C 
HETATM   10 CL13 UNL     1     -40.411   4.228  -1.166  1.00 20.00    -0.120 Cl
ENDROOT
BRANCH   4  11
HETATM   11  C11 UNL     1     -43.050   8.105  -4.548  1.00 20.00     0.018 A 
HETATM   12  C9  UNL     1     -41.926   9.000  -5.002  1.00 20.00     0.010 A 
HETATM   13  C10 UNL     1     -43.276   9.584  -4.726  1.00 20.00     0.010 A 
ENDBRANCH   4  11
TORSDOF 1
ENDMDL
