MODEL 1
REMARK VINA RESULT:      -4.8      0.000      0.000
REMARK  2 active torsions:
REMARK  status: ('A' for Active; 'I' for Inactive)
REMARK    1  A    between atoms: C5_5  and  C10_10 
REMARK    2  A    between atoms: C6_6  and  C11_11 
ROOT
HETATM    1  C1  UNL     1     -35.921  15.422  -2.845  1.00 20.00     0.008 A 
HETATM    2  C2  UNL     1     -33.557  15.811  -3.158  1.00 20.00     0.008 A 
HETATM    3  C3  UNL     1     -35.995  14.849  -4.115  1.00 20.00     0.010 A 
HETATM    4  C4  UNL     1     -33.631  15.238  -4.429  1.00 20.00     0.010 A 
HETATM    5  C5  UNL     1     -34.702  15.903  -2.367  1.00 20.00    -0.054 A 
HETATM    6  C6  UNL     1     -34.851  14.757  -4.906  1.00 20.00    -0.027 A 
ENDROOT
BRANCH   5   7
HETATM    7  C10 UNL     1     -34.624  16.515  -1.011  1.00 20.00     0.018 A 
HETATM    8  C7  UNL     1     -35.108  17.929  -0.817  1.00 20.00     0.010 A 
HETATM    9  C8  UNL     1     -33.642  17.631  -0.766  1.00 20.00     0.010 A 
ENDBRANCH   5   7
BRANCH   6  10
HETATM   10  C11 UNL     1     -34.929  14.145  -6.264  1.00 20.00     0.178 A 
HETATM   11  C9  UNL     1     -35.674  14.861  -7.358  1.00 20.00     0.205 A 
HETATM   12  O12 UNL     1     -34.246  14.835  -7.319  1.00 20.00    -0.376 OA
ENDBRANCH   6  10
TORSDOF 2
ENDMDL
MODEL 2
REMARK VINA RESULT:      -4.8      0.072      1.396
REMARK  2 active torsions:
REMARK  status: ('A' for Active; 'I' for Inactive)
REMARK    1  A    between atoms: C5_5  and  C10_10 
REMARK    2  A    between atoms: C6_6  and  C11_11 
ROOT
HETATM    1  C1  UNL     1     -33.523  15.819  -3.089  1.00 20.00     0.008 A 
HETATM    2  C2  UNL     1     -35.895  15.462  -2.798  1.00 20.00     0.008 A 
HETATM    3  C3  UNL     1     -33.591  15.237  -4.356  1.00 20.00     0.010 A 
HETATM    4  C4  UNL     1     -35.963  14.880  -4.065  1.00 20.00     0.010 A 
HETATM    5  C5  UNL     1     -34.676  15.932  -2.311  1.00 20.00    -0.054 A 
HETATM    6  C6  UNL     1     -34.810  14.767  -4.842  1.00 20.00    -0.027 A 
ENDROOT
BRANCH   5   7
HETATM    7  C10 UNL     1     -34.603  16.553  -0.959  1.00 20.00     0.018 A 
HETATM    8  C7  UNL     1     -35.083  17.970  -0.778  1.00 20.00     0.010 A 
HETATM    9  C8  UNL     1     -33.619  17.669  -0.717  1.00 20.00     0.010 A 
ENDBRANCH   5   7
BRANCH   6  10
HETATM   10  C11 UNL     1     -34.883  14.145  -6.195  1.00 20.00     0.178 A 
HETATM   11  C9  UNL     1     -35.647  14.839  -7.291  1.00 20.00     0.205 A 
HETATM   12  O12 UNL     1     -34.217  14.841  -7.258  1.00 20.00    -0.376 OA
ENDBRANCH   6  10
TORSDOF 2
ENDMDL
MODEL 3
REMARK VINA RESULT:      -4.6      1.773      2.758
REMARK  2 active torsions:
REMARK  status: ('A' for Active; 'I' for Inactive)
REMARK    1  A    between atoms: C5_5  and  C10_10 
REMARK    2  A    between atoms: C6_6  and  C11_11 
ROOT
HETATM    1  C1  UNL     1     -34.401  16.801  -0.979  1.00 20.00     0.008 A 
HETATM    2  C2  UNL     1     -33.621  18.257  -2.742  1.00 20.00     0.008 A 
HETATM    3  C3  UNL     1     -34.780  15.852  -1.930  1.00 20.00     0.010 A 
HETATM    4  C4  UNL     1     -34.001  17.308  -3.693  1.00 20.00     0.010 A 
HETATM    5  C5  UNL     1     -33.821  18.002  -1.386  1.00 20.00    -0.054 A 
HETATM    6  C6  UNL     1     -34.580  16.106  -3.286  1.00 20.00    -0.027 A 
ENDROOT
BRANCH   5   7
HETATM    7  C10 UNL     1     -33.417  19.014  -0.370  1.00 20.00     0.018 A 
HETATM    8  C7  UNL     1     -32.056  18.907   0.268  1.00 20.00     0.010 A 
HETATM    9  C8  UNL     1     -33.279  18.593   1.070  1.00 20.00     0.010 A 
ENDBRANCH   5   7
BRANCH   6  10
HETATM   10  C11 UNL     1     -34.986  15.093  -4.302  1.00 20.00     0.178 A 
HETATM   11  C9  UNL     1     -34.102  13.901  -4.554  1.00 20.00     0.205 A 
HETATM   12  O12 UNL     1     -35.318  13.788  -3.810  1.00 20.00    -0.376 OA
ENDBRANCH   6  10
TORSDOF 2
ENDMDL
MODEL 4
REMARK VINA RESULT:      -4.6      1.777      2.929
REMARK  2 active torsions:
REMARK  status: ('A' for Active; 'I' for Inactive)
REMARK    1  A    between atoms: C5_5  and  C10_10 
REMARK    2  A    between atoms: C6_6  and  C11_11 
ROOT
HETATM    1  C1  UNL     1     -33.640  18.251  -2.735  1.00 20.00     0.008 A 
HETATM    2  C2  UNL     1     -34.397  16.787  -0.969  1.00 20.00     0.008 A 
HETATM    3  C3  UNL     1     -34.026  17.304  -3.685  1.00 20.00     0.010 A 
HETATM    4  C4  UNL     1     -34.783  15.840  -1.919  1.00 20.00     0.010 A 
HETATM    5  C5  UNL     1     -33.826  17.991  -1.377  1.00 20.00    -0.054 A 
HETATM    6  C6  UNL     1     -34.597  16.100  -3.277  1.00 20.00    -0.027 A 
ENDROOT
BRANCH   5   7
HETATM    7  C10 UNL     1     -33.413  19.002  -0.363  1.00 20.00     0.018 A 
HETATM    8  C7  UNL     1     -32.049  18.892   0.268  1.00 20.00     0.010 A 
HETATM    9  C8  UNL     1     -33.269  18.581   1.076  1.00 20.00     0.010 A 
ENDBRANCH   5   7
BRANCH   6  10
HETATM   10  C11 UNL     1     -35.009  15.088  -4.291  1.00 20.00     0.178 A 
HETATM   11  C9  UNL     1     -34.119  13.905  -4.564  1.00 20.00     0.205 A 
HETATM   12  O12 UNL     1     -35.321  13.777  -3.801  1.00 20.00    -0.376 OA
ENDBRANCH   6  10
TORSDOF 2
ENDMDL
MODEL 5
REMARK VINA RESULT:      -4.6      2.814      4.889
REMARK  2 active torsions:
REMARK  status: ('A' for Active; 'I' for Inactive)
REMARK    1  A    between atoms: C5_5  and  C10_10 
REMARK    2  A    between atoms: C6_6  and  C11_11 
ROOT
HETATM    1  C1  UNL     1     -32.936  18.899   0.358  1.00 20.00     0.008 A 
HETATM    2  C2  UNL     1     -34.814  17.543   1.044  1.00 20.00     0.008 A 
HETATM    3  C3  UNL     1     -33.065  18.417  -0.946  1.00 20.00     0.010 A 
HETATM    4  C4  UNL     1     -34.942  17.061  -0.260  1.00 20.00     0.010 A 
HETATM    5  C5  UNL     1     -33.811  18.461   1.352  1.00 20.00    -0.054 A 
HETATM    6  C6  UNL     1     -34.067  17.499  -1.254  1.00 20.00    -0.027 A 
ENDROOT
BRANCH   5   7
HETATM    7  C10 UNL     1     -33.673  18.975   2.743  1.00 20.00     0.018 A 
HETATM    8  C7  UNL     1     -32.606  18.395   3.636  1.00 20.00     0.010 A 
HETATM    9  C8  UNL     1     -34.045  18.080   3.896  1.00 20.00     0.010 A 
ENDBRANCH   5   7
BRANCH   6  10
HETATM   10  C11 UNL     1     -34.205  16.984  -2.647  1.00 20.00     0.178 A 
HETATM   11  C9  UNL     1     -33.477  15.730  -3.049  1.00 20.00     0.205 A 
HETATM   12  O12 UNL     1     -34.885  15.731  -2.803  1.00 20.00    -0.376 OA
ENDBRANCH   6  10
TORSDOF 2
ENDMDL
MODEL 6
REMARK VINA RESULT:      -4.5      2.179      5.054
REMARK  2 active torsions:
REMARK  status: ('A' for Active; 'I' for Inactive)
REMARK    1  A    between atoms: C5_5  and  C10_10 
REMARK    2  A    between atoms: C6_6  and  C11_11 
ROOT
HETATM    1  C1  UNL     1     -35.986  15.272  -4.168  1.00 20.00     0.008 A 
HETATM    2  C2  UNL     1     -33.590  14.968  -4.176  1.00 20.00     0.008 A 
HETATM    3  C3  UNL     1     -35.909  15.848  -2.899  1.00 20.00     0.010 A 
HETATM    4  C4  UNL     1     -33.512  15.544  -2.907  1.00 20.00     0.010 A 
HETATM    5  C5  UNL     1     -34.826  14.832  -4.805  1.00 20.00    -0.054 A 
HETATM    6  C6  UNL     1     -34.673  15.983  -2.269  1.00 20.00    -0.027 A 
ENDROOT
BRANCH   5   7
HETATM    7  C10 UNL     1     -34.909  14.217  -6.160  1.00 20.00     0.018 A 
HETATM    8  C7  UNL     1     -34.503  15.033  -7.360  1.00 20.00     0.010 A 
HETATM    9  C8  UNL     1     -35.948  14.718  -7.130  1.00 20.00     0.010 A 
ENDBRANCH   5   7
BRANCH   6  10
HETATM   10  C11 UNL     1     -34.590  16.598  -0.913  1.00 20.00     0.178 A 
HETATM   11  C9  UNL     1     -34.145  18.029  -0.774  1.00 20.00     0.205 A 
HETATM   12  O12 UNL     1     -35.517  17.656  -0.631  1.00 20.00    -0.376 OA
ENDBRANCH   6  10
TORSDOF 2
ENDMDL
MODEL 7
REMARK VINA RESULT:      -4.5      1.937      3.120
REMARK  2 active torsions:
REMARK  status: ('A' for Active; 'I' for Inactive)
REMARK    1  A    between atoms: C5_5  and  C10_10 
REMARK    2  A    between atoms: C6_6  and  C11_11 
ROOT
HETATM    1  C1  UNL     1     -34.776  16.593  -0.699  1.00 20.00     0.008 A 
HETATM    2  C2  UNL     1     -34.035  18.777  -1.418  1.00 20.00     0.008 A 
HETATM    3  C3  UNL     1     -34.371  16.053  -1.921  1.00 20.00     0.010 A 
HETATM    4  C4  UNL     1     -33.630  18.237  -2.640  1.00 20.00     0.010 A 
HETATM    5  C5  UNL     1     -34.608  17.955  -0.449  1.00 20.00    -0.054 A 
HETATM    6  C6  UNL     1     -33.799  16.875  -2.891  1.00 20.00    -0.027 A 
ENDROOT
BRANCH   5   7
HETATM    7  C10 UNL     1     -35.040  18.530   0.855  1.00 20.00     0.018 A 
HETATM    8  C7  UNL     1     -34.106  18.453   2.036  1.00 20.00     0.010 A 
HETATM    9  C8  UNL     1     -35.336  17.602   2.005  1.00 20.00     0.010 A 
ENDBRANCH   5   7
BRANCH   6  10
HETATM   10  C11 UNL     1     -33.367  16.299  -4.196  1.00 20.00     0.178 A 
HETATM   11  C9  UNL     1     -34.257  16.443  -5.401  1.00 20.00     0.205 A 
HETATM   12  O12 UNL     1     -33.076  17.233  -5.245  1.00 20.00    -0.376 OA
ENDBRANCH   6  10
TORSDOF 2
ENDMDL
MODEL 8
REMARK VINA RESULT:      -4.4     11.758     12.589
REMARK  2 active torsions:
REMARK  status: ('A' for Active; 'I' for Inactive)
REMARK    1  A    between atoms: C5_5  and  C10_10 
REMARK    2  A    between atoms: C6_6  and  C11_11 
ROOT
HETATM    1  C1  UNL     1     -32.756   7.391   4.233  1.00 20.00     0.008 A 
HETATM    2  C2  UNL     1     -33.278   6.260   2.164  1.00 20.00     0.008 A 
HETATM    3  C3  UNL     1     -33.607   6.524   4.922  1.00 20.00     0.010 A 
HETATM    4  C4  UNL     1     -34.128   5.393   2.852  1.00 20.00     0.010 A 
HETATM    5  C5  UNL     1     -32.592   7.258   2.855  1.00 20.00    -0.054 A 
HETATM    6  C6  UNL     1     -34.292   5.526   4.231  1.00 20.00    -0.027 A 
ENDROOT
BRANCH   5   7
HETATM    7  C10 UNL     1     -31.685   8.183   2.121  1.00 20.00     0.018 A 
HETATM    8  C7  UNL     1     -32.241   9.471   1.570  1.00 20.00     0.010 A 
HETATM    9  C8  UNL     1     -31.866   8.365   0.636  1.00 20.00     0.010 A 
ENDBRANCH   5   7
BRANCH   6  10
HETATM   10  C11 UNL     1     -35.201   4.600   4.966  1.00 20.00     0.178 A 
HETATM   11  C9  UNL     1     -34.627   3.651   5.983  1.00 20.00     0.205 A 
HETATM   12  O12 UNL     1     -35.342   4.825   6.375  1.00 20.00    -0.376 OA
ENDBRANCH   6  10
TORSDOF 2
ENDMDL
MODEL 9
REMARK VINA RESULT:      -4.4      2.907      4.911
REMARK  2 active torsions:
REMARK  status: ('A' for Active; 'I' for Inactive)
REMARK    1  A    between atoms: C5_5  and  C10_10 
REMARK    2  A    between atoms: C6_6  and  C11_11 
ROOT
HETATM    1  C1  UNL     1     -32.680  18.500  -0.087  1.00 20.00     0.008 A 
HETATM    2  C2  UNL     1     -34.505  17.873   1.367  1.00 20.00     0.008 A 
HETATM    3  C3  UNL     1     -33.288  17.819  -1.143  1.00 20.00     0.010 A 
HETATM    4  C4  UNL     1     -35.112  17.192   0.311  1.00 20.00     0.010 A 
HETATM    5  C5  UNL     1     -33.289  18.526   1.168  1.00 20.00    -0.054 A 
HETATM    6  C6  UNL     1     -34.503  17.166  -0.944  1.00 20.00    -0.027 A 
ENDROOT
BRANCH   5   7
HETATM    7  C10 UNL     1     -32.640  19.252   2.294  1.00 20.00     0.018 A 
HETATM    8  C7  UNL     1     -31.434  18.642   2.961  1.00 20.00     0.010 A 
HETATM    9  C8  UNL     1     -32.741  18.687   3.687  1.00 20.00     0.010 A 
ENDBRANCH   5   7
BRANCH   6  10
HETATM   10  C11 UNL     1     -35.153  16.439  -2.072  1.00 20.00     0.178 A 
HETATM   11  C9  UNL     1     -36.107  17.173  -2.975  1.00 20.00     0.205 A 
HETATM   12  O12 UNL     1     -34.781  16.845  -3.396  1.00 20.00    -0.376 OA
ENDBRANCH   6  10
TORSDOF 2
ENDMDL
