MODEL 1
REMARK VINA RESULT:      -3.3      0.000      0.000
REMARK  5 active torsions:
REMARK  status: ('A' for Active; 'I' for Inactive)
REMARK    1  A    between atoms: C5_5  and  C7_7 
REMARK    2  A    between atoms: C5_5  and  S9_9 
REMARK    3  A    between atoms: C6_6  and  C7_7 
REMARK    4  A    between atoms: C6_6  and  S10_10 
REMARK    5  A    between atoms: C7_7  and  C8_8 
ROOT
HETATM    1  C7  UNL     1     -34.199  16.073  -4.108  1.00 20.00     0.011 C 
ENDROOT
BRANCH   1   2
HETATM    2  C5  UNL     1     -33.346  16.778  -5.195  1.00 20.00     0.077 C 
BRANCH   2   3
HETATM    3  S9  UNL     1     -33.770  18.532  -5.456  1.00 20.00    -0.182 SA
HETATM    4  H28 UNL     1     -34.809  18.300  -6.268  1.00 20.00     0.101 HD
ENDBRANCH   2   3
ENDBRANCH   1   2
BRANCH   1   5
HETATM    5  C6  UNL     1     -33.574  16.122  -2.685  1.00 20.00     0.079 C 
BRANCH   5   6
HETATM    6  S10 UNL     1     -34.658  16.621  -1.316  1.00 20.00    -0.173 SA
HETATM    7  C4  UNL     1     -35.872  17.559  -2.272  1.00 20.00     0.089 C 
ENDBRANCH   5   6
ENDBRANCH   1   5
BRANCH   1   8
HETATM    8  C8  UNL     1     -34.689  14.627  -4.547  1.00 20.00    -0.046 C 
HETATM    9  C1  UNL     1     -33.757  13.527  -3.993  1.00 20.00     0.015 C 
HETATM   10  C2  UNL     1     -36.129  14.301  -4.108  1.00 20.00     0.015 C 
HETATM   11  C3  UNL     1     -34.639  14.511  -6.092  1.00 20.00     0.015 C 
ENDBRANCH   1   8
TORSDOF 5
ENDMDL
MODEL 2
REMARK VINA RESULT:      -3.3      0.890      1.621
REMARK  5 active torsions:
REMARK  status: ('A' for Active; 'I' for Inactive)
REMARK    1  A    between atoms: C5_5  and  C7_7 
REMARK    2  A    between atoms: C5_5  and  S9_9 
REMARK    3  A    between atoms: C6_6  and  C7_7 
REMARK    4  A    between atoms: C6_6  and  S10_10 
REMARK    5  A    between atoms: C7_7  and  C8_8 
ROOT
HETATM    1  C7  UNL     1     -34.241  16.010  -4.165  1.00 20.00     0.011 C 
ENDROOT
BRANCH   1   2
HETATM    2  C5  UNL     1     -33.344  16.722  -5.213  1.00 20.00     0.077 C 
BRANCH   2   3
HETATM    3  S9  UNL     1     -33.730  18.488  -5.450  1.00 20.00    -0.182 SA
HETATM    4  H28 UNL     1     -35.039  18.375  -5.194  1.00 20.00     0.101 HD
ENDBRANCH   2   3
ENDBRANCH   1   2
BRANCH   1   5
HETATM    5  C6  UNL     1     -33.629  15.969  -2.736  1.00 20.00     0.079 C 
BRANCH   5   6
HETATM    6  S10 UNL     1     -34.664  16.570  -1.369  1.00 20.00    -0.173 SA
HETATM    7  C4  UNL     1     -33.559  17.862  -0.754  1.00 20.00     0.089 C 
ENDBRANCH   5   6
ENDBRANCH   1   5
BRANCH   1   8
HETATM    8  C8  UNL     1     -34.792  14.609  -4.671  1.00 20.00    -0.046 C 
HETATM    9  C1  UNL     1     -36.219  14.345  -4.144  1.00 20.00     0.015 C 
HETATM   10  C2  UNL     1     -34.813  14.470  -6.205  1.00 20.00     0.015 C 
HETATM   11  C3  UNL     1     -33.898  13.472  -4.117  1.00 20.00     0.015 C 
ENDBRANCH   1   8
TORSDOF 5
ENDMDL
MODEL 3
REMARK VINA RESULT:      -3.3      1.805      2.888
REMARK  5 active torsions:
REMARK  status: ('A' for Active; 'I' for Inactive)
REMARK    1  A    between atoms: C5_5  and  C7_7 
REMARK    2  A    between atoms: C5_5  and  S9_9 
REMARK    3  A    between atoms: C6_6  and  C7_7 
REMARK    4  A    between atoms: C6_6  and  S10_10 
REMARK    5  A    between atoms: C7_7  and  C8_8 
ROOT
HETATM    1  C7  UNL     1     -35.347  15.079  -3.310  1.00 20.00     0.011 C 
ENDROOT
BRANCH   1   2
HETATM    2  C5  UNL     1     -36.709  14.649  -3.918  1.00 20.00     0.077 C 
BRANCH   2   3
HETATM    3  S9  UNL     1     -38.050  15.862  -3.681  1.00 20.00    -0.182 SA
HETATM    4  H28 UNL     1     -39.009  14.958  -3.449  1.00 20.00     0.101 HD
ENDBRANCH   2   3
ENDBRANCH   1   2
BRANCH   1   5
HETATM    5  C6  UNL     1     -35.363  16.497  -2.670  1.00 20.00     0.079 C 
BRANCH   5   6
HETATM    6  S10 UNL     1     -34.645  16.669  -1.010  1.00 20.00    -0.173 SA
HETATM    7  C4  UNL     1     -33.594  18.104  -1.328  1.00 20.00     0.089 C 
ENDBRANCH   5   6
ENDBRANCH   1   5
BRANCH   1   8
HETATM    8  C8  UNL     1     -34.124  14.828  -4.291  1.00 20.00    -0.046 C 
HETATM    9  C1  UNL     1     -34.604  14.326  -5.670  1.00 20.00     0.015 C 
HETATM   10  C2  UNL     1     -33.243  16.072  -4.513  1.00 20.00     0.015 C 
HETATM   11  C3  UNL     1     -33.214  13.717  -3.708  1.00 20.00     0.015 C 
ENDBRANCH   1   8
TORSDOF 5
ENDMDL
MODEL 4
REMARK VINA RESULT:      -3.2      2.381      4.063
REMARK  5 active torsions:
REMARK  status: ('A' for Active; 'I' for Inactive)
REMARK    1  A    between atoms: C5_5  and  C7_7 
REMARK    2  A    between atoms: C5_5  and  S9_9 
REMARK    3  A    between atoms: C6_6  and  C7_7 
REMARK    4  A    between atoms: C6_6  and  S10_10 
REMARK    5  A    between atoms: C7_7  and  C8_8 
ROOT
HETATM    1  C7  UNL     1     -35.376  14.868  -4.821  1.00 20.00     0.011 C 
ENDROOT
BRANCH   1   2
HETATM    2  C5  UNL     1     -36.605  14.347  -4.030  1.00 20.00     0.077 C 
BRANCH   2   3
HETATM    3  S9  UNL     1     -38.135  15.296  -4.316  1.00 20.00    -0.182 SA
HETATM    4  H28 UNL     1     -37.662  16.006  -5.347  1.00 20.00     0.101 HD
ENDBRANCH   2   3
ENDBRANCH   1   2
BRANCH   1   5
HETATM    5  C6  UNL     1     -35.038  14.029  -6.086  1.00 20.00     0.079 C 
BRANCH   5   6
HETATM    6  S10 UNL     1     -35.600  14.675  -7.688  1.00 20.00    -0.173 SA
HETATM    7  C4  UNL     1     -35.822  16.404  -7.210  1.00 20.00     0.089 C 
ENDBRANCH   5   6
ENDBRANCH   1   5
BRANCH   1   8
HETATM    8  C8  UNL     1     -34.122  15.166  -3.892  1.00 20.00    -0.046 C 
HETATM    9  C1  UNL     1     -33.167  16.186  -4.549  1.00 20.00     0.015 C 
HETATM   10  C2  UNL     1     -34.499  15.693  -2.495  1.00 20.00     0.015 C 
HETATM   11  C3  UNL     1     -33.307  13.864  -3.690  1.00 20.00     0.015 C 
ENDBRANCH   1   8
TORSDOF 5
ENDMDL
MODEL 5
REMARK VINA RESULT:      -3.2      2.083      2.601
REMARK  5 active torsions:
REMARK  status: ('A' for Active; 'I' for Inactive)
REMARK    1  A    between atoms: C5_5  and  C7_7 
REMARK    2  A    between atoms: C5_5  and  S9_9 
REMARK    3  A    between atoms: C6_6  and  C7_7 
REMARK    4  A    between atoms: C6_6  and  S10_10 
REMARK    5  A    between atoms: C7_7  and  C8_8 
ROOT
HETATM    1  C7  UNL     1     -35.230  15.322  -3.050  1.00 20.00     0.011 C 
ENDROOT
BRANCH   1   2
HETATM    2  C5  UNL     1     -36.450  16.050  -3.673  1.00 20.00     0.077 C 
BRANCH   2   3
HETATM    3  S9  UNL     1     -37.912  14.986  -3.915  1.00 20.00    -0.182 SA
HETATM    4  H28 UNL     1     -37.666  14.711  -5.202  1.00 20.00     0.101 HD
ENDBRANCH   2   3
ENDBRANCH   1   2
BRANCH   1   5
HETATM    5  C6  UNL     1     -34.552  16.107  -1.892  1.00 20.00     0.079 C 
BRANCH   5   6
HETATM    6  S10 UNL     1     -35.369  17.629  -1.328  1.00 20.00    -0.173 SA
HETATM    7  C4  UNL     1     -35.033  17.466   0.441  1.00 20.00     0.089 C 
ENDBRANCH   5   6
ENDBRANCH   1   5
BRANCH   1   8
HETATM    8  C8  UNL     1     -34.213  14.775  -4.141  1.00 20.00    -0.046 C 
HETATM    9  C1  UNL     1     -32.753  14.882  -3.648  1.00 20.00     0.015 C 
HETATM   10  C2  UNL     1     -34.474  13.315  -4.553  1.00 20.00     0.015 C 
HETATM   11  C3  UNL     1     -34.312  15.642  -5.421  1.00 20.00     0.015 C 
ENDBRANCH   1   8
TORSDOF 5
ENDMDL
MODEL 6
REMARK VINA RESULT:      -3.2      1.754      3.297
REMARK  5 active torsions:
REMARK  status: ('A' for Active; 'I' for Inactive)
REMARK    1  A    between atoms: C5_5  and  C7_7 
REMARK    2  A    between atoms: C5_5  and  S9_9 
REMARK    3  A    between atoms: C6_6  and  C7_7 
REMARK    4  A    between atoms: C6_6  and  S10_10 
REMARK    5  A    between atoms: C7_7  and  C8_8 
ROOT
HETATM    1  C7  UNL     1     -34.531  15.752  -5.160  1.00 20.00     0.011 C 
ENDROOT
BRANCH   1   2
HETATM    2  C5  UNL     1     -33.285  16.668  -5.042  1.00 20.00     0.077 C 
BRANCH   2   3
HETATM    3  S9  UNL     1     -33.643  18.446  -5.235  1.00 20.00    -0.182 SA
HETATM    4  H28 UNL     1     -34.904  18.284  -5.653  1.00 20.00     0.101 HD
ENDBRANCH   2   3
ENDBRANCH   1   2
BRANCH   1   5
HETATM    5  C6  UNL     1     -35.790  16.470  -5.724  1.00 20.00     0.079 C 
BRANCH   5   6
HETATM    6  S10 UNL     1     -36.356  15.982  -7.380  1.00 20.00    -0.173 SA
HETATM    7  C4  UNL     1     -35.388  14.466  -7.551  1.00 20.00     0.089 C 
ENDBRANCH   5   6
ENDBRANCH   1   5
BRANCH   1   8
HETATM    8  C8  UNL     1     -34.806  14.908  -3.843  1.00 20.00    -0.046 C 
HETATM    9  C1  UNL     1     -33.926  13.640  -3.795  1.00 20.00     0.015 C 
HETATM   10  C2  UNL     1     -34.578  15.700  -2.542  1.00 20.00     0.015 C 
HETATM   11  C3  UNL     1     -36.278  14.424  -3.837  1.00 20.00     0.015 C 
ENDBRANCH   1   8
TORSDOF 5
ENDMDL
MODEL 7
REMARK VINA RESULT:      -3.2      2.391      3.346
REMARK  5 active torsions:
REMARK  status: ('A' for Active; 'I' for Inactive)
REMARK    1  A    between atoms: C5_5  and  C7_7 
REMARK    2  A    between atoms: C5_5  and  S9_9 
REMARK    3  A    between atoms: C6_6  and  C7_7 
REMARK    4  A    between atoms: C6_6  and  S10_10 
REMARK    5  A    between atoms: C7_7  and  C8_8 
ROOT
HETATM    1  C7  UNL     1     -35.403  14.921  -4.863  1.00 20.00     0.011 C 
ENDROOT
BRANCH   1   2
HETATM    2  C5  UNL     1     -35.062  14.010  -6.072  1.00 20.00     0.077 C 
BRANCH   2   3
HETATM    3  S9  UNL     1     -35.139  14.853  -7.688  1.00 20.00    -0.182 SA
HETATM    4  H28 UNL     1     -34.942  13.752  -8.423  1.00 20.00     0.101 HD
ENDBRANCH   2   3
ENDBRANCH   1   2
BRANCH   1   5
HETATM    5  C6  UNL     1     -36.162  16.223  -5.250  1.00 20.00     0.079 C 
BRANCH   5   6
HETATM    6  S10 UNL     1     -37.969  16.220  -5.062  1.00 20.00    -0.173 SA
HETATM    7  C4  UNL     1     -38.112  14.823  -3.926  1.00 20.00     0.089 C 
ENDBRANCH   5   6
ENDBRANCH   1   5
BRANCH   1   8
HETATM    8  C8  UNL     1     -34.164  15.159  -3.898  1.00 20.00    -0.046 C 
HETATM    9  C1  UNL     1     -33.165  16.167  -4.507  1.00 20.00     0.015 C 
HETATM   10  C2  UNL     1     -34.560  15.662  -2.497  1.00 20.00     0.015 C 
HETATM   11  C3  UNL     1     -33.392  13.829  -3.711  1.00 20.00     0.015 C 
ENDBRANCH   1   8
TORSDOF 5
ENDMDL
MODEL 8
REMARK VINA RESULT:      -3.2      1.874      2.846
REMARK  5 active torsions:
REMARK  status: ('A' for Active; 'I' for Inactive)
REMARK    1  A    between atoms: C5_5  and  C7_7 
REMARK    2  A    between atoms: C5_5  and  S9_9 
REMARK    3  A    between atoms: C6_6  and  C7_7 
REMARK    4  A    between atoms: C6_6  and  S10_10 
REMARK    5  A    between atoms: C7_7  and  C8_8 
ROOT
HETATM    1  C7  UNL     1     -34.595  15.678  -5.251  1.00 20.00     0.011 C 
ENDROOT
BRANCH   1   2
HETATM    2  C5  UNL     1     -34.467  14.745  -6.484  1.00 20.00     0.077 C 
BRANCH   2   3
HETATM    3  S9  UNL     1     -35.908  14.783  -7.602  1.00 20.00    -0.182 SA
HETATM    4  H28 UNL     1     -35.714  16.037  -8.029  1.00 20.00     0.101 HD
ENDBRANCH   2   3
ENDBRANCH   1   2
BRANCH   1   5
HETATM    5  C6  UNL     1     -33.367  16.606  -5.033  1.00 20.00     0.079 C 
BRANCH   5   6
HETATM    6  S10 UNL     1     -33.643  18.397  -5.167  1.00 20.00    -0.173 SA
HETATM    7  C4  UNL     1     -35.425  18.365  -5.467  1.00 20.00     0.089 C 
ENDBRANCH   5   6
ENDBRANCH   1   5
BRANCH   1   8
HETATM    8  C8  UNL     1     -35.064  14.911  -3.941  1.00 20.00    -0.046 C 
HETATM    9  C1  UNL     1     -34.480  15.564  -2.669  1.00 20.00     0.015 C 
HETATM   10  C2  UNL     1     -36.594  14.836  -3.783  1.00 20.00     0.015 C 
HETATM   11  C3  UNL     1     -34.531  13.456  -3.975  1.00 20.00     0.015 C 
ENDBRANCH   1   8
TORSDOF 5
ENDMDL
MODEL 9
REMARK VINA RESULT:      -3.2      2.413      3.341
REMARK  5 active torsions:
REMARK  status: ('A' for Active; 'I' for Inactive)
REMARK    1  A    between atoms: C5_5  and  C7_7 
REMARK    2  A    between atoms: C5_5  and  S9_9 
REMARK    3  A    between atoms: C6_6  and  C7_7 
REMARK    4  A    between atoms: C6_6  and  S10_10 
REMARK    5  A    between atoms: C7_7  and  C8_8 
ROOT
HETATM    1  C7  UNL     1     -35.371  14.936  -4.931  1.00 20.00     0.011 C 
ENDROOT
BRANCH   1   2
HETATM    2  C5  UNL     1     -35.027  14.071  -6.172  1.00 20.00     0.077 C 
BRANCH   2   3
HETATM    3  S9  UNL     1     -35.709  14.709  -7.739  1.00 20.00    -0.182 SA
HETATM    4  H28 UNL     1     -34.686  14.307  -8.504  1.00 20.00     0.101 HD
ENDBRANCH   2   3
ENDBRANCH   1   2
BRANCH   1   5
HETATM    5  C6  UNL     1     -36.091  16.271  -5.273  1.00 20.00     0.079 C 
BRANCH   5   6
HETATM    6  S10 UNL     1     -37.819  16.446  -4.741  1.00 20.00    -0.173 SA
HETATM    7  C4  UNL     1     -38.026  14.818  -3.985  1.00 20.00     0.089 C 
ENDBRANCH   5   6
ENDBRANCH   1   5
BRANCH   1   8
HETATM    8  C8  UNL     1     -34.147  15.100  -3.932  1.00 20.00    -0.046 C 
HETATM    9  C1  UNL     1     -34.614  15.618  -2.554  1.00 20.00     0.015 C 
HETATM   10  C2  UNL     1     -33.350  13.801  -3.711  1.00 20.00     0.015 C 
HETATM   11  C3  UNL     1     -33.162  16.157  -4.491  1.00 20.00     0.015 C 
ENDBRANCH   1   8
TORSDOF 5
ENDMDL
