MODEL 1
REMARK VINA RESULT:      -3.0      0.000      0.000
REMARK  4 active torsions:
REMARK  status: ('A' for Active; 'I' for Inactive)
REMARK    1  A    between atoms: C3_3  and  C5_5 
REMARK    2  A    between atoms: C3_3  and  C6_6 
REMARK    3  A    between atoms: C5_5  and  S7_7 
REMARK    4  A    between atoms: C6_6  and  S8_8 
ROOT
HETATM    1  C1  UNL     1     -33.616  17.122  -1.521  1.00 20.00     0.012 A 
HETATM    2  C2  UNL     1     -34.813  16.217  -1.558  1.00 20.00     0.012 A 
HETATM    3  C3  UNL     1     -34.087  16.553  -2.839  1.00 20.00    -0.024 A 
ENDROOT
BRANCH   3   4
HETATM    4  C5  UNL     1     -34.762  17.485  -3.809  1.00 20.00     0.080 C 
BRANCH   4   5
HETATM    5  S7  UNL     1     -33.690  17.827  -5.236  1.00 20.00    -0.181 SA
HETATM    6  H20 UNL     1     -34.666  18.264  -6.042  1.00 20.00     0.101 HD
ENDBRANCH   4   5
ENDBRANCH   3   4
BRANCH   3   7
HETATM    7  C6  UNL     1     -33.256  15.477  -3.481  1.00 20.00     0.083 C 
BRANCH   7   8
HETATM    8  S8  UNL     1     -34.213  13.943  -3.672  1.00 20.00    -0.173 SA
HETATM    9  C4  UNL     1     -34.572  14.079  -5.438  1.00 20.00     0.089 C 
ENDBRANCH   7   8
ENDBRANCH   3   7
TORSDOF 4
ENDMDL
MODEL 2
REMARK VINA RESULT:      -2.9      1.861      3.485
REMARK  4 active torsions:
REMARK  status: ('A' for Active; 'I' for Inactive)
REMARK    1  A    between atoms: C3_3  and  C5_5 
REMARK    2  A    between atoms: C3_3  and  C6_6 
REMARK    3  A    between atoms: C5_5  and  S7_7 
REMARK    4  A    between atoms: C6_6  and  S8_8 
ROOT
HETATM    1  C1  UNL     1     -35.009  13.297  -4.255  1.00 20.00     0.012 A 
HETATM    2  C2  UNL     1     -33.626  13.711  -3.843  1.00 20.00     0.012 A 
HETATM    3  C3  UNL     1     -34.614  14.755  -4.308  1.00 20.00    -0.024 A 
ENDROOT
BRANCH   3   4
HETATM    4  C5  UNL     1     -34.398  15.377  -5.661  1.00 20.00     0.080 C 
BRANCH   4   5
HETATM    5  S7  UNL     1     -35.621  16.684  -5.979  1.00 20.00    -0.181 SA
HETATM    6  H20 UNL     1     -36.341  15.987  -6.869  1.00 20.00     0.101 HD
ENDBRANCH   4   5
ENDBRANCH   3   4
BRANCH   3   7
HETATM    7  C6  UNL     1     -35.198  15.682  -3.279  1.00 20.00     0.083 C 
BRANCH   7   8
HETATM    8  S8  UNL     1     -33.889  16.603  -2.416  1.00 20.00    -0.173 SA
HETATM    9  C4  UNL     1     -34.636  16.638  -0.771  1.00 20.00     0.089 C 
ENDBRANCH   7   8
ENDBRANCH   3   7
TORSDOF 4
ENDMDL
MODEL 3
REMARK VINA RESULT:      -2.9      1.923      3.483
REMARK  4 active torsions:
REMARK  status: ('A' for Active; 'I' for Inactive)
REMARK    1  A    between atoms: C3_3  and  C5_5 
REMARK    2  A    between atoms: C3_3  and  C6_6 
REMARK    3  A    between atoms: C5_5  and  S7_7 
REMARK    4  A    between atoms: C6_6  and  S8_8 
ROOT
HETATM    1  C1  UNL     1     -33.492  13.569  -3.806  1.00 20.00     0.012 A 
HETATM    2  C2  UNL     1     -34.391  13.894  -4.964  1.00 20.00     0.012 A 
HETATM    3  C3  UNL     1     -34.065  14.961  -3.945  1.00 20.00    -0.024 A 
ENDROOT
BRANCH   3   4
HETATM    4  C5  UNL     1     -35.148  15.376  -2.987  1.00 20.00     0.080 C 
BRANCH   4   5
HETATM    5  S7  UNL     1     -34.490  16.475  -1.697  1.00 20.00    -0.181 SA
HETATM    6  H20 UNL     1     -34.966  17.611  -2.227  1.00 20.00     0.101 HD
ENDBRANCH   4   5
ENDBRANCH   3   4
BRANCH   3   7
HETATM    7  C6  UNL     1     -33.135  16.068  -4.357  1.00 20.00     0.083 C 
BRANCH   7   8
HETATM    8  S8  UNL     1     -33.893  17.109  -5.641  1.00 20.00    -0.173 SA
HETATM    9  C4  UNL     1     -33.578  18.722  -4.889  1.00 20.00     0.089 C 
ENDBRANCH   7   8
ENDBRANCH   3   7
TORSDOF 4
ENDMDL
MODEL 4
REMARK VINA RESULT:      -2.9      1.227      1.227
REMARK  4 active torsions:
REMARK  status: ('A' for Active; 'I' for Inactive)
REMARK    1  A    between atoms: C3_3  and  C5_5 
REMARK    2  A    between atoms: C3_3  and  C6_6 
REMARK    3  A    between atoms: C5_5  and  S7_7 
REMARK    4  A    between atoms: C6_6  and  S8_8 
ROOT
HETATM    1  C1  UNL     1     -33.640  17.216  -1.564  1.00 20.00     0.012 A 
HETATM    2  C2  UNL     1     -34.772  16.232  -1.499  1.00 20.00     0.012 A 
HETATM    3  C3  UNL     1     -34.146  16.568  -2.832  1.00 20.00    -0.024 A 
ENDROOT
BRANCH   3   4
HETATM    4  C5  UNL     1     -34.938  17.416  -3.789  1.00 20.00     0.080 C 
BRANCH   4   5
HETATM    5  S7  UNL     1     -36.697  16.959  -3.761  1.00 20.00    -0.181 SA
HETATM    6  H20 UNL     1     -36.755  16.708  -2.446  1.00 20.00     0.101 HD
ENDBRANCH   4   5
ENDBRANCH   3   4
BRANCH   3   7
HETATM    7  C6  UNL     1     -33.281  15.527  -3.487  1.00 20.00     0.083 C 
BRANCH   7   8
HETATM    8  S8  UNL     1     -34.174  13.953  -3.659  1.00 20.00    -0.173 SA
HETATM    9  C4  UNL     1     -34.583  14.077  -5.415  1.00 20.00     0.089 C 
ENDBRANCH   7   8
ENDBRANCH   3   7
TORSDOF 4
ENDMDL
MODEL 5
REMARK VINA RESULT:      -2.9      1.420      2.866
REMARK  4 active torsions:
REMARK  status: ('A' for Active; 'I' for Inactive)
REMARK    1  A    between atoms: C3_3  and  C5_5 
REMARK    2  A    between atoms: C3_3  and  C6_6 
REMARK    3  A    between atoms: C5_5  and  S7_7 
REMARK    4  A    between atoms: C6_6  and  S8_8 
ROOT
HETATM    1  C1  UNL     1     -34.875  15.975  -1.892  1.00 20.00     0.012 A 
HETATM    2  C2  UNL     1     -33.577  16.572  -2.355  1.00 20.00     0.012 A 
HETATM    3  C3  UNL     1     -34.350  15.651  -3.271  1.00 20.00    -0.024 A 
ENDROOT
BRANCH   3   4
HETATM    4  C5  UNL     1     -33.800  14.270  -3.509  1.00 20.00     0.080 C 
BRANCH   4   5
HETATM    5  S7  UNL     1     -34.825  13.359  -4.703  1.00 20.00    -0.181 SA
HETATM    6  H20 UNL     1     -34.729  14.263  -5.687  1.00 20.00     0.101 HD
ENDBRANCH   4   5
ENDBRANCH   3   4
BRANCH   3   7
HETATM    7  C6  UNL     1     -35.051  16.258  -4.454  1.00 20.00     0.083 C 
BRANCH   7   8
HETATM    8  S8  UNL     1     -33.865  17.075  -5.563  1.00 20.00    -0.173 SA
HETATM    9  C4  UNL     1     -34.446  16.378  -7.126  1.00 20.00     0.089 C 
ENDBRANCH   7   8
ENDBRANCH   3   7
TORSDOF 4
ENDMDL
MODEL 6
REMARK VINA RESULT:      -2.8      2.081      2.891
REMARK  4 active torsions:
REMARK  status: ('A' for Active; 'I' for Inactive)
REMARK    1  A    between atoms: C3_3  and  C5_5 
REMARK    2  A    between atoms: C3_3  and  C6_6 
REMARK    3  A    between atoms: C5_5  and  S7_7 
REMARK    4  A    between atoms: C6_6  and  S8_8 
ROOT
HETATM    1  C1  UNL     1     -33.376  13.656  -3.733  1.00 20.00     0.012 A 
HETATM    2  C2  UNL     1     -34.820  13.478  -4.105  1.00 20.00     0.012 A 
HETATM    3  C3  UNL     1     -34.267  14.867  -3.883  1.00 20.00    -0.024 A 
ENDROOT
BRANCH   3   4
HETATM    4  C5  UNL     1     -34.679  15.598  -2.634  1.00 20.00     0.080 C 
BRANCH   4   5
HETATM    5  S7  UNL     1     -34.001  17.284  -2.614  1.00 20.00    -0.181 SA
HETATM    6  H20 UNL     1     -32.915  17.007  -3.348  1.00 20.00     0.101 HD
ENDBRANCH   4   5
ENDBRANCH   3   4
BRANCH   3   7
HETATM    7  C6  UNL     1     -34.066  15.746  -5.085  1.00 20.00     0.083 C 
BRANCH   7   8
HETATM    8  S8  UNL     1     -35.540  15.740  -6.149  1.00 20.00    -0.173 SA
HETATM    9  C4  UNL     1     -34.831  14.882  -7.572  1.00 20.00     0.089 C 
ENDBRANCH   7   8
ENDBRANCH   3   7
TORSDOF 4
ENDMDL
MODEL 7
REMARK VINA RESULT:      -2.8      2.204      3.644
REMARK  4 active torsions:
REMARK  status: ('A' for Active; 'I' for Inactive)
REMARK    1  A    between atoms: C3_3  and  C5_5 
REMARK    2  A    between atoms: C3_3  and  C6_6 
REMARK    3  A    between atoms: C5_5  and  S7_7 
REMARK    4  A    between atoms: C6_6  and  S8_8 
ROOT
HETATM    1  C1  UNL     1     -33.510  13.644  -3.838  1.00 20.00     0.012 A 
HETATM    2  C2  UNL     1     -34.618  13.268  -4.779  1.00 20.00     0.012 A 
HETATM    3  C3  UNL     1     -34.466  14.704  -4.334  1.00 20.00    -0.024 A 
ENDROOT
BRANCH   3   4
HETATM    4  C5  UNL     1     -35.477  15.252  -3.362  1.00 20.00     0.080 C 
BRANCH   4   5
HETATM    5  S7  UNL     1     -37.171  14.892  -3.914  1.00 20.00    -0.181 SA
HETATM    6  H20 UNL     1     -37.783  15.591  -2.949  1.00 20.00     0.101 HD
ENDBRANCH   4   5
ENDBRANCH   3   4
BRANCH   3   7
HETATM    7  C6  UNL     1     -33.955  15.703  -5.335  1.00 20.00     0.083 C 
BRANCH   7   8
HETATM    8  S8  UNL     1     -33.729  17.335  -4.567  1.00 20.00    -0.173 SA
HETATM    9  C4  UNL     1     -33.779  18.338  -6.069  1.00 20.00     0.089 C 
ENDBRANCH   7   8
ENDBRANCH   3   7
TORSDOF 4
ENDMDL
MODEL 8
REMARK VINA RESULT:      -2.8      2.543      3.409
REMARK  4 active torsions:
REMARK  status: ('A' for Active; 'I' for Inactive)
REMARK    1  A    between atoms: C3_3  and  C5_5 
REMARK    2  A    between atoms: C3_3  and  C6_6 
REMARK    3  A    between atoms: C5_5  and  S7_7 
REMARK    4  A    between atoms: C6_6  and  S8_8 
ROOT
HETATM    1  C1  UNL     1     -33.452  13.823  -3.783  1.00 20.00     0.012 A 
HETATM    2  C2  UNL     1     -33.853  15.164  -3.240  1.00 20.00     0.012 A 
HETATM    3  C3  UNL     1     -34.573  14.595  -4.440  1.00 20.00    -0.024 A 
ENDROOT
BRANCH   3   4
HETATM    4  C5  UNL     1     -34.306  15.219  -5.783  1.00 20.00     0.080 C 
BRANCH   4   5
HETATM    5  S7  UNL     1     -35.386  14.504  -7.058  1.00 20.00    -0.181 SA
HETATM    6  H20 UNL     1     -34.535  13.542  -7.438  1.00 20.00     0.101 HD
ENDBRANCH   4   5
ENDBRANCH   3   4
BRANCH   3   7
HETATM    7  C6  UNL     1     -35.978  14.098  -4.248  1.00 20.00     0.083 C 
BRANCH   7   8
HETATM    8  S8  UNL     1     -37.048  15.412  -3.589  1.00 20.00    -0.173 SA
HETATM    9  C4  UNL     1     -38.644  14.716  -4.075  1.00 20.00     0.089 C 
ENDBRANCH   7   8
ENDBRANCH   3   7
TORSDOF 4
ENDMDL
MODEL 9
REMARK VINA RESULT:      -2.8      2.199      3.609
REMARK  4 active torsions:
REMARK  status: ('A' for Active; 'I' for Inactive)
REMARK    1  A    between atoms: C3_3  and  C5_5 
REMARK    2  A    between atoms: C3_3  and  C6_6 
REMARK    3  A    between atoms: C5_5  and  S7_7 
REMARK    4  A    between atoms: C6_6  and  S8_8 
ROOT
HETATM    1  C1  UNL     1     -34.237  13.719  -3.689  1.00 20.00     0.012 A 
HETATM    2  C2  UNL     1     -34.206  14.696  -4.829  1.00 20.00     0.012 A 
HETATM    3  C3  UNL     1     -34.672  15.148  -3.465  1.00 20.00    -0.024 A 
ENDROOT
BRANCH   3   4
HETATM    4  C5  UNL     1     -36.140  15.416  -3.275  1.00 20.00     0.080 C 
BRANCH   4   5
HETATM    5  S7  UNL     1     -36.770  16.536  -4.560  1.00 20.00    -0.181 SA
HETATM    6  H20 UNL     1     -35.691  16.461  -5.351  1.00 20.00     0.101 HD
ENDBRANCH   4   5
ENDBRANCH   3   4
BRANCH   3   7
HETATM    7  C6  UNL     1     -33.764  16.047  -2.672  1.00 20.00     0.083 C 
BRANCH   7   8
HETATM    8  S8  UNL     1     -34.588  16.634  -1.161  1.00 20.00    -0.173 SA
HETATM    9  C4  UNL     1     -33.442  17.966  -0.741  1.00 20.00     0.089 C 
ENDBRANCH   7   8
ENDBRANCH   3   7
TORSDOF 4
ENDMDL
