MODEL 1
REMARK VINA RESULT:      -3.5      0.000      0.000
REMARK  5 active torsions:
REMARK  status: ('A' for Active; 'I' for Inactive)
REMARK    1  A    between atoms: C5_5  and  C8_8 
REMARK    2  A    between atoms: C5_5  and  N9_9 
REMARK    3  A    between atoms: C6_6  and  C8_8 
REMARK    4  A    between atoms: C6_6  and  S10_10 
REMARK    5  A    between atoms: C7_7  and  C8_8 
ROOT
HETATM    1  C8  UNL     1     -34.951  15.221  -2.788  1.00 20.00     0.024 C 
ENDROOT
BRANCH   1   2
HETATM    2  C5  UNL     1     -36.026  15.804  -3.733  1.00 20.00     0.239 C 
BRANCH   2   3
HETATM    3  N9  UNL     1     -37.366  15.806  -3.103  1.00 20.00    -0.078 N 
HETATM    4  C3  UNL     1     -37.937  17.196  -2.952  1.00 20.00     0.269 C 
HETATM    5  C4  UNL     1     -38.342  14.891  -3.804  1.00 20.00     0.269 C 
HETATM    6  H29 UNL     1     -37.267  15.434  -2.142  1.00 20.00     0.278 HD
ENDBRANCH   2   3
ENDBRANCH   1   2
BRANCH   1   7
HETATM    7  C6  UNL     1     -34.047  14.162  -3.469  1.00 20.00     0.077 C 
BRANCH   7   8
HETATM    8  S10 UNL     1     -34.747  13.404  -4.971  1.00 20.00    -0.182 SA
HETATM    9  H30 UNL     1     -36.017  13.415  -4.548  1.00 20.00     0.101 HD
ENDBRANCH   7   8
ENDBRANCH   1   7
BRANCH   1  10
HETATM   10  C7  UNL     1     -34.065  16.325  -2.114  1.00 20.00    -0.016 C 
HETATM   11  C1  UNL     1     -34.588  16.739  -0.732  1.00 20.00     0.010 C 
HETATM   12  C2  UNL     1     -33.953  17.591  -2.979  1.00 20.00     0.010 C 
ENDBRANCH   1  10
TORSDOF 5
ENDMDL
MODEL 2
REMARK VINA RESULT:      -3.5      2.315      3.111
REMARK  5 active torsions:
REMARK  status: ('A' for Active; 'I' for Inactive)
REMARK    1  A    between atoms: C5_5  and  C8_8 
REMARK    2  A    between atoms: C5_5  and  N9_9 
REMARK    3  A    between atoms: C6_6  and  C8_8 
REMARK    4  A    between atoms: C6_6  and  S10_10 
REMARK    5  A    between atoms: C7_7  and  C8_8 
ROOT
HETATM    1  C8  UNL     1     -33.752  16.380  -3.039  1.00 20.00     0.024 C 
ENDROOT
BRANCH   1   2
HETATM    2  C5  UNL     1     -34.955  15.413  -3.111  1.00 20.00     0.239 C 
BRANCH   2   3
HETATM    3  N9  UNL     1     -34.523  14.018  -3.359  1.00 20.00    -0.078 N 
HETATM    4  C3  UNL     1     -35.306  13.354  -4.467  1.00 20.00     0.269 C 
HETATM    5  C4  UNL     1     -33.037  13.901  -3.599  1.00 20.00     0.269 C 
HETATM    6  H29 UNL     1     -34.717  13.467  -2.505  1.00 20.00     0.278 HD
ENDBRANCH   2   3
ENDBRANCH   1   2
BRANCH   1   7
HETATM    7  C6  UNL     1     -33.757  17.448  -4.164  1.00 20.00     0.077 C 
BRANCH   7   8
HETATM    8  S10 UNL     1     -34.059  16.798  -5.839  1.00 20.00    -0.182 SA
HETATM    9  H30 UNL     1     -34.585  15.633  -5.440  1.00 20.00     0.101 HD
ENDBRANCH   7   8
ENDBRANCH   1   7
BRANCH   1  10
HETATM   10  C7  UNL     1     -33.610  17.076  -1.642  1.00 20.00    -0.016 C 
HETATM   11  C1  UNL     1     -34.732  16.685  -0.671  1.00 20.00     0.010 C 
HETATM   12  C2  UNL     1     -33.590  18.609  -1.754  1.00 20.00     0.010 C 
ENDBRANCH   1  10
TORSDOF 5
ENDMDL
MODEL 3
REMARK VINA RESULT:      -3.4      1.930      3.359
REMARK  5 active torsions:
REMARK  status: ('A' for Active; 'I' for Inactive)
REMARK    1  A    between atoms: C5_5  and  C8_8 
REMARK    2  A    between atoms: C5_5  and  N9_9 
REMARK    3  A    between atoms: C6_6  and  C8_8 
REMARK    4  A    between atoms: C6_6  and  S10_10 
REMARK    5  A    between atoms: C7_7  and  C8_8 
ROOT
HETATM    1  C8  UNL     1     -35.566  14.942  -3.292  1.00 20.00     0.024 C 
ENDROOT
BRANCH   1   2
HETATM    2  C5  UNL     1     -35.192  16.404  -2.957  1.00 20.00     0.239 C 
BRANCH   2   3
HETATM    3  N9  UNL     1     -35.707  16.811  -1.629  1.00 20.00    -0.078 N 
HETATM    4  C3  UNL     1     -34.632  16.822  -0.567  1.00 20.00     0.269 C 
HETATM    5  C4  UNL     1     -36.447  18.126  -1.668  1.00 20.00     0.269 C 
HETATM    6  H29 UNL     1     -36.398  16.103  -1.325  1.00 20.00     0.278 HD
ENDBRANCH   2   3
ENDBRANCH   1   2
BRANCH   1   7
HETATM    7  C6  UNL     1     -36.582  14.822  -4.456  1.00 20.00     0.077 C 
BRANCH   7   8
HETATM    8  S10 UNL     1     -38.333  14.909  -3.960  1.00 20.00    -0.182 SA
HETATM    9  H30 UNL     1     -38.101  15.376  -2.727  1.00 20.00     0.101 HD
ENDBRANCH   7   8
ENDBRANCH   1   7
BRANCH   1  10
HETATM   10  C7  UNL     1     -34.315  14.041  -3.579  1.00 20.00    -0.016 C 
HETATM   11  C1  UNL     1     -33.017  14.853  -3.692  1.00 20.00     0.010 C 
HETATM   12  C2  UNL     1     -34.475  13.216  -4.866  1.00 20.00     0.010 C 
ENDBRANCH   1  10
TORSDOF 5
ENDMDL
MODEL 4
REMARK VINA RESULT:      -3.4      2.445      3.383
REMARK  5 active torsions:
REMARK  status: ('A' for Active; 'I' for Inactive)
REMARK    1  A    between atoms: C5_5  and  C8_8 
REMARK    2  A    between atoms: C5_5  and  N9_9 
REMARK    3  A    between atoms: C6_6  and  C8_8 
REMARK    4  A    between atoms: C6_6  and  S10_10 
REMARK    5  A    between atoms: C7_7  and  C8_8 
ROOT
HETATM    1  C8  UNL     1     -34.334  16.388  -3.138  1.00 20.00     0.024 C 
ENDROOT
BRANCH   1   2
HETATM    2  C5  UNL     1     -33.258  15.659  -3.974  1.00 20.00     0.239 C 
BRANCH   2   3
HETATM    3  N9  UNL     1     -33.258  16.115  -5.384  1.00 20.00    -0.078 N 
HETATM    4  C3  UNL     1     -34.155  15.278  -6.266  1.00 20.00     0.269 C 
HETATM    5  C4  UNL     1     -33.576  17.584  -5.523  1.00 20.00     0.269 C 
HETATM    6  H29 UNL     1     -32.300  15.994  -5.758  1.00 20.00     0.278 HD
ENDBRANCH   2   3
ENDBRANCH   1   2
BRANCH   1   7
HETATM    7  C6  UNL     1     -35.582  15.514  -2.852  1.00 20.00     0.077 C 
BRANCH   7   8
HETATM    8  S10 UNL     1     -37.074  15.975  -3.791  1.00 20.00    -0.182 SA
HETATM    9  H30 UNL     1     -36.443  16.189  -4.952  1.00 20.00     0.101 HD
ENDBRANCH   7   8
ENDBRANCH   1   7
BRANCH   1  10
HETATM   10  C7  UNL     1     -33.773  16.974  -1.797  1.00 20.00    -0.016 C 
HETATM   11  C1  UNL     1     -34.693  16.695  -0.600  1.00 20.00     0.010 C 
HETATM   12  C2  UNL     1     -33.540  18.490  -1.876  1.00 20.00     0.010 C 
ENDBRANCH   1  10
TORSDOF 5
ENDMDL
MODEL 5
REMARK VINA RESULT:      -3.4      2.466      3.856
REMARK  5 active torsions:
REMARK  status: ('A' for Active; 'I' for Inactive)
REMARK    1  A    between atoms: C5_5  and  C8_8 
REMARK    2  A    between atoms: C5_5  and  N9_9 
REMARK    3  A    between atoms: C6_6  and  C8_8 
REMARK    4  A    between atoms: C6_6  and  S10_10 
REMARK    5  A    between atoms: C7_7  and  C8_8 
ROOT
HETATM    1  C8  UNL     1     -34.288  15.687  -4.436  1.00 20.00     0.024 C 
ENDROOT
BRANCH   1   2
HETATM    2  C5  UNL     1     -33.983  15.504  -2.932  1.00 20.00     0.239 C 
BRANCH   2   3
HETATM    3  N9  UNL     1     -35.123  15.928  -2.087  1.00 20.00    -0.078 N 
HETATM    4  C3  UNL     1     -34.692  16.761  -0.903  1.00 20.00     0.269 C 
HETATM    5  C4  UNL     1     -36.208  16.622  -2.874  1.00 20.00     0.269 C 
HETATM    6  H29 UNL     1     -35.560  15.077  -1.690  1.00 20.00     0.278 HD
ENDBRANCH   2   3
ENDBRANCH   1   2
BRANCH   1   7
HETATM    7  C6  UNL     1     -33.289  16.631  -5.153  1.00 20.00     0.077 C 
BRANCH   7   8
HETATM    8  S10 UNL     1     -33.657  18.408  -4.987  1.00 20.00    -0.182 SA
HETATM    9  H30 UNL     1     -34.518  18.464  -6.010  1.00 20.00     0.101 HD
ENDBRANCH   7   8
ENDBRANCH   1   7
BRANCH   1  10
HETATM   10  C7  UNL     1     -34.386  14.326  -5.209  1.00 20.00    -0.016 C 
HETATM   11  C1  UNL     1     -35.112  14.464  -6.555  1.00 20.00     0.010 C 
HETATM   12  C2  UNL     1     -35.102  13.241  -4.390  1.00 20.00     0.010 C 
ENDBRANCH   1  10
TORSDOF 5
ENDMDL
MODEL 6
REMARK VINA RESULT:      -3.4      2.728      4.052
REMARK  5 active torsions:
REMARK  status: ('A' for Active; 'I' for Inactive)
REMARK    1  A    between atoms: C5_5  and  C8_8 
REMARK    2  A    between atoms: C5_5  and  N9_9 
REMARK    3  A    between atoms: C6_6  and  C8_8 
REMARK    4  A    between atoms: C6_6  and  S10_10 
REMARK    5  A    between atoms: C7_7  and  C8_8 
ROOT
HETATM    1  C8  UNL     1     -33.990  15.532  -3.185  1.00 20.00     0.024 C 
ENDROOT
BRANCH   1   2
HETATM    2  C5  UNL     1     -33.252  16.106  -4.416  1.00 20.00     0.239 C 
BRANCH   2   3
HETATM    3  N9  UNL     1     -34.098  17.065  -5.164  1.00 20.00    -0.078 N 
HETATM    4  C3  UNL     1     -33.490  18.446  -5.232  1.00 20.00     0.269 C 
HETATM    5  C4  UNL     1     -34.470  16.566  -6.539  1.00 20.00     0.269 C 
HETATM    6  H29 UNL     1     -34.989  17.173  -4.649  1.00 20.00     0.278 HD
ENDBRANCH   2   3
ENDBRANCH   1   2
BRANCH   1   7
HETATM    7  C6  UNL     1     -34.934  16.557  -2.505  1.00 20.00     0.077 C 
BRANCH   7   8
HETATM    8  S10 UNL     1     -34.598  16.857  -0.739  1.00 20.00    -0.182 SA
HETATM    9  H30 UNL     1     -35.573  16.063  -0.279  1.00 20.00     0.101 HD
ENDBRANCH   7   8
ENDBRANCH   1   7
BRANCH   1  10
HETATM   10  C7  UNL     1     -34.774  14.212  -3.503  1.00 20.00    -0.016 C 
HETATM   11  C1  UNL     1     -34.125  13.397  -4.630  1.00 20.00     0.010 C 
HETATM   12  C2  UNL     1     -36.236  14.482  -3.891  1.00 20.00     0.010 C 
ENDBRANCH   1  10
TORSDOF 5
ENDMDL
MODEL 7
REMARK VINA RESULT:      -3.4      2.825      3.678
REMARK  5 active torsions:
REMARK  status: ('A' for Active; 'I' for Inactive)
REMARK    1  A    between atoms: C5_5  and  C8_8 
REMARK    2  A    between atoms: C5_5  and  N9_9 
REMARK    3  A    between atoms: C6_6  and  C8_8 
REMARK    4  A    between atoms: C6_6  and  S10_10 
REMARK    5  A    between atoms: C7_7  and  C8_8 
ROOT
HETATM    1  C8  UNL     1     -35.184  14.914  -4.427  1.00 20.00     0.024 C 
ENDROOT
BRANCH   1   2
HETATM    2  C5  UNL     1     -34.663  14.032  -5.584  1.00 20.00     0.239 C 
BRANCH   2   3
HETATM    3  N9  UNL     1     -34.365  14.835  -6.793  1.00 20.00    -0.078 N 
HETATM    4  C3  UNL     1     -35.339  14.576  -7.918  1.00 20.00     0.269 C 
HETATM    5  C4  UNL     1     -34.251  16.311  -6.500  1.00 20.00     0.269 C 
HETATM    6  H29 UNL     1     -33.438  14.542  -7.148  1.00 20.00     0.278 HD
ENDBRANCH   2   3
ENDBRANCH   1   2
BRANCH   1   7
HETATM    7  C6  UNL     1     -36.658  14.618  -4.047  1.00 20.00     0.077 C 
BRANCH   7   8
HETATM    8  S10 UNL     1     -37.901  15.379  -5.141  1.00 20.00    -0.182 SA
HETATM    9  H30 UNL     1     -38.943  14.686  -4.664  1.00 20.00     0.101 HD
ENDBRANCH   7   8
ENDBRANCH   1   7
BRANCH   1  10
HETATM   10  C7  UNL     1     -34.279  14.843  -3.149  1.00 20.00    -0.016 C 
HETATM   11  C1  UNL     1     -34.560  15.985  -2.163  1.00 20.00     0.010 C 
HETATM   12  C2  UNL     1     -32.781  14.869  -3.494  1.00 20.00     0.010 C 
ENDBRANCH   1  10
TORSDOF 5
ENDMDL
MODEL 8
REMARK VINA RESULT:      -3.3      2.273      2.778
REMARK  5 active torsions:
REMARK  status: ('A' for Active; 'I' for Inactive)
REMARK    1  A    between atoms: C5_5  and  C8_8 
REMARK    2  A    between atoms: C5_5  and  N9_9 
REMARK    3  A    between atoms: C6_6  and  C8_8 
REMARK    4  A    between atoms: C6_6  and  S10_10 
REMARK    5  A    between atoms: C7_7  and  C8_8 
ROOT
HETATM    1  C8  UNL     1     -34.072  16.051  -3.637  1.00 20.00     0.024 C 
ENDROOT
BRANCH   1   2
HETATM    2  C5  UNL     1     -33.404  16.730  -4.854  1.00 20.00     0.239 C 
BRANCH   2   3
HETATM    3  N9  UNL     1     -34.385  17.033  -5.921  1.00 20.00    -0.078 N 
HETATM    4  C3  UNL     1     -34.354  16.023  -7.044  1.00 20.00     0.269 C 
HETATM    5  C4  UNL     1     -35.787  17.213  -5.391  1.00 20.00     0.269 C 
HETATM    6  H29 UNL     1     -34.123  17.939  -6.347  1.00 20.00     0.278 HD
ENDBRANCH   2   3
ENDBRANCH   1   2
BRANCH   1   7
HETATM    7  C6  UNL     1     -33.770  14.534  -3.540  1.00 20.00     0.077 C 
BRANCH   7   8
HETATM    8  S10 UNL     1     -35.020  13.450  -4.304  1.00 20.00    -0.182 SA
HETATM    9  H30 UNL     1     -34.240  13.031  -5.309  1.00 20.00     0.101 HD
ENDBRANCH   7   8
ENDBRANCH   1   7
BRANCH   1  10
HETATM   10  C7  UNL     1     -33.727  16.753  -2.279  1.00 20.00    -0.016 C 
HETATM   11  C1  UNL     1     -34.724  16.405  -1.165  1.00 20.00     0.010 C 
HETATM   12  C2  UNL     1     -33.675  18.283  -2.410  1.00 20.00     0.010 C 
ENDBRANCH   1  10
TORSDOF 5
ENDMDL
MODEL 9
REMARK VINA RESULT:      -3.3      2.206      3.805
REMARK  5 active torsions:
REMARK  status: ('A' for Active; 'I' for Inactive)
REMARK    1  A    between atoms: C5_5  and  C8_8 
REMARK    2  A    between atoms: C5_5  and  N9_9 
REMARK    3  A    between atoms: C6_6  and  C8_8 
REMARK    4  A    between atoms: C6_6  and  S10_10 
REMARK    5  A    between atoms: C7_7  and  C8_8 
ROOT
HETATM    1  C8  UNL     1     -34.950  15.590  -2.978  1.00 20.00     0.024 C 
ENDROOT
BRANCH   1   2
HETATM    2  C5  UNL     1     -33.816  16.639  -2.977  1.00 20.00     0.239 C 
BRANCH   2   3
HETATM    3  N9  UNL     1     -33.606  17.219  -1.630  1.00 20.00    -0.078 N 
HETATM    4  C3  UNL     1     -33.510  18.727  -1.655  1.00 20.00     0.269 C 
HETATM    5  C4  UNL     1     -34.636  16.757  -0.629  1.00 20.00     0.269 C 
HETATM    6  H29 UNL     1     -32.694  16.883  -1.277  1.00 20.00     0.278 HD
ENDBRANCH   2   3
ENDBRANCH   1   2
BRANCH   1   7
HETATM    7  C6  UNL     1     -36.121  15.954  -3.926  1.00 20.00     0.077 C 
BRANCH   7   8
HETATM    8  S10 UNL     1     -35.767  17.299  -5.104  1.00 20.00    -0.182 SA
HETATM    9  H30 UNL     1     -35.564  16.503  -6.161  1.00 20.00     0.101 HD
ENDBRANCH   7   8
ENDBRANCH   1   7
BRANCH   1  10
HETATM   10  C7  UNL     1     -34.442  14.140  -3.289  1.00 20.00    -0.016 C 
HETATM   11  C1  UNL     1     -32.957  14.106  -3.676  1.00 20.00     0.010 C 
HETATM   12  C2  UNL     1     -35.244  13.471  -4.416  1.00 20.00     0.010 C 
ENDBRANCH   1  10
TORSDOF 5
ENDMDL
