MODEL 1
REMARK VINA RESULT:      -4.5      0.000      0.000
REMARK  4 active torsions:
REMARK  status: ('A' for Active; 'I' for Inactive)
REMARK    1  A    between atoms: C1_1  and  C9_9 
REMARK    2  A    between atoms: C2_2  and  C10_10 
REMARK    3  A    between atoms: C9_9  and  N11_11 
REMARK    4  A    between atoms: C10_10  and  S12_12 
ROOT
HETATM    1  C3  UNL     1     -34.642  13.290  -4.119  1.00 20.00     0.002 C 
HETATM    2  C4  UNL     1     -35.768  14.150  -4.680  1.00 20.00     0.002 C 
HETATM    3  C5  UNL     1     -33.341  14.029  -3.825  1.00 20.00     0.030 C 
HETATM    4  C6  UNL     1     -36.508  14.917  -3.587  1.00 20.00     0.030 C 
HETATM    5  C7  UNL     1     -33.439  15.499  -3.417  1.00 20.00     0.272 C 
HETATM    6  C8  UNL     1     -35.749  16.095  -2.975  1.00 20.00     0.272 C 
HETATM    7  N11 UNL     1     -34.447  15.751  -2.376  1.00 20.00     0.091 N 
ENDROOT
BRANCH   7   8
HETATM    8  C9  UNL     1     -34.006  16.862  -1.523  1.00 20.00     0.299 C 
BRANCH   8   9
HETATM    9  C1  UNL     1     -34.830  16.959  -0.275  1.00 20.00    -0.000 C 
HETATM   10  C2  UNL     1     -34.503  17.722   0.778  1.00 20.00    -0.019 C 
BRANCH  10  11
HETATM   11  C10 UNL     1     -35.331  17.820   2.020  1.00 20.00     0.097 C 
BRANCH  11  12
HETATM   12  S12 UNL     1     -34.300  18.330   3.421  1.00 20.00    -0.178 SA
HETATM   13  H31 UNL     1     -35.209  18.075   4.371  1.00 20.00     0.101 HD
ENDBRANCH  11  12
ENDBRANCH  10  11
ENDBRANCH   8   9
ENDBRANCH   7   8
TORSDOF 4
ENDMDL
MODEL 2
REMARK VINA RESULT:      -4.5      1.137      1.160
REMARK  4 active torsions:
REMARK  status: ('A' for Active; 'I' for Inactive)
REMARK    1  A    between atoms: C1_1  and  C9_9 
REMARK    2  A    between atoms: C2_2  and  C10_10 
REMARK    3  A    between atoms: C9_9  and  N11_11 
REMARK    4  A    between atoms: C10_10  and  S12_12 
ROOT
HETATM    1  C3  UNL     1     -34.675  13.284  -4.871  1.00 20.00     0.002 C 
HETATM    2  C4  UNL     1     -34.837  14.347  -5.950  1.00 20.00     0.002 C 
HETATM    3  C5  UNL     1     -33.523  13.513  -3.898  1.00 20.00     0.030 C 
HETATM    4  C6  UNL     1     -35.579  15.580  -5.439  1.00 20.00     0.030 C 
HETATM    5  C7  UNL     1     -33.130  14.958  -3.595  1.00 20.00     0.272 C 
HETATM    6  C8  UNL     1     -34.786  16.485  -4.495  1.00 20.00     0.272 C 
HETATM    7  N11 UNL     1     -34.277  15.823  -3.281  1.00 20.00     0.091 N 
ENDROOT
BRANCH   7   8
HETATM    8  C9  UNL     1     -33.870  16.849  -2.313  1.00 20.00     0.299 C 
BRANCH   8   9
HETATM    9  C1  UNL     1     -34.629  16.726  -1.026  1.00 20.00    -0.000 C 
HETATM   10  C2  UNL     1     -34.495  17.574   0.005  1.00 20.00    -0.019 C 
BRANCH  10  11
HETATM   11  C10 UNL     1     -35.258  17.449   1.285  1.00 20.00     0.097 C 
BRANCH  11  12
HETATM   12  S12 UNL     1     -34.477  18.451   2.578  1.00 20.00    -0.178 SA
HETATM   13  H31 UNL     1     -34.604  17.547   3.559  1.00 20.00     0.101 HD
ENDBRANCH  11  12
ENDBRANCH  10  11
ENDBRANCH   8   9
ENDBRANCH   7   8
TORSDOF 4
ENDMDL
MODEL 3
REMARK VINA RESULT:      -4.2     10.625     12.334
REMARK  4 active torsions:
REMARK  status: ('A' for Active; 'I' for Inactive)
REMARK    1  A    between atoms: C1_1  and  C9_9 
REMARK    2  A    between atoms: C2_2  and  C10_10 
REMARK    3  A    between atoms: C9_9  and  N11_11 
REMARK    4  A    between atoms: C10_10  and  S12_12 
ROOT
HETATM    1  C3  UNL     1     -40.764   4.625  -1.172  1.00 20.00     0.002 C 
HETATM    2  C4  UNL     1     -41.098   5.682  -0.127  1.00 20.00     0.002 C 
HETATM    3  C5  UNL     1     -41.892   4.287  -2.142  1.00 20.00     0.030 C 
HETATM    4  C6  UNL     1     -40.979   7.100  -0.681  1.00 20.00     0.030 C 
HETATM    5  C7  UNL     1     -42.885   5.398  -2.485  1.00 20.00     0.272 C 
HETATM    6  C8  UNL     1     -42.086   7.529  -1.644  1.00 20.00     0.272 C 
HETATM    7  N11 UNL     1     -42.240   6.672  -2.834  1.00 20.00     0.091 N 
ENDROOT
BRANCH   7   8
HETATM    8  C9  UNL     1     -43.056   7.380  -3.829  1.00 20.00     0.299 C 
BRANCH   8   9
HETATM    9  C1  UNL     1     -42.264   8.433  -4.543  1.00 20.00    -0.000 C 
HETATM   10  C2  UNL     1     -42.744   9.647  -4.854  1.00 20.00    -0.019 C 
BRANCH  10  11
HETATM   11  C10 UNL     1     -41.948  10.696  -5.563  1.00 20.00     0.097 C 
BRANCH  11  12
HETATM   12  S12 UNL     1     -41.480  10.116  -7.215  1.00 20.00    -0.178 SA
HETATM   13  H31 UNL     1     -42.418  10.804  -7.881  1.00 20.00     0.101 HD
ENDBRANCH  11  12
ENDBRANCH  10  11
ENDBRANCH   8   9
ENDBRANCH   7   8
TORSDOF 4
ENDMDL
MODEL 4
REMARK VINA RESULT:      -4.2      1.665      2.063
REMARK  4 active torsions:
REMARK  status: ('A' for Active; 'I' for Inactive)
REMARK    1  A    between atoms: C1_1  and  C9_9 
REMARK    2  A    between atoms: C2_2  and  C10_10 
REMARK    3  A    between atoms: C9_9  and  N11_11 
REMARK    4  A    between atoms: C10_10  and  S12_12 
ROOT
HETATM    1  C3  UNL     1     -34.518  14.560  -6.215  1.00 20.00     0.002 C 
HETATM    2  C4  UNL     1     -35.203  13.691  -5.168  1.00 20.00     0.002 C 
HETATM    3  C5  UNL     1     -34.746  16.061  -6.067  1.00 20.00     0.030 C 
HETATM    4  C6  UNL     1     -34.413  13.631  -3.862  1.00 20.00     0.030 C 
HETATM    5  C7  UNL     1     -34.953  16.608  -4.655  1.00 20.00     0.272 C 
HETATM    6  C8  UNL     1     -34.448  14.899  -3.009  1.00 20.00     0.272 C 
HETATM    7  N11 UNL     1     -33.964  16.116  -3.685  1.00 20.00     0.091 N 
ENDROOT
BRANCH   7   8
HETATM    8  C9  UNL     1     -33.706  17.152  -2.676  1.00 20.00     0.299 C 
BRANCH   8   9
HETATM    9  C1  UNL     1     -34.463  16.888  -1.410  1.00 20.00    -0.000 C 
HETATM   10  C2  UNL     1     -34.392  17.670  -0.321  1.00 20.00    -0.019 C 
BRANCH  10  11
HETATM   11  C10 UNL     1     -35.154  17.405   0.939  1.00 20.00     0.097 C 
BRANCH  11  12
HETATM   12  S12 UNL     1     -36.627  18.459   1.012  1.00 20.00    -0.178 SA
HETATM   13  H31 UNL     1     -36.236  19.321   0.063  1.00 20.00     0.101 HD
ENDBRANCH  11  12
ENDBRANCH  10  11
ENDBRANCH   8   9
ENDBRANCH   7   8
TORSDOF 4
ENDMDL
MODEL 5
REMARK VINA RESULT:      -4.1      1.696      2.112
REMARK  4 active torsions:
REMARK  status: ('A' for Active; 'I' for Inactive)
REMARK    1  A    between atoms: C1_1  and  C9_9 
REMARK    2  A    between atoms: C2_2  and  C10_10 
REMARK    3  A    between atoms: C9_9  and  N11_11 
REMARK    4  A    between atoms: C10_10  and  S12_12 
ROOT
HETATM    1  C3  UNL     1     -35.483  14.582  -6.893  1.00 20.00     0.002 C 
HETATM    2  C4  UNL     1     -36.739  15.155  -6.249  1.00 20.00     0.002 C 
HETATM    3  C5  UNL     1     -34.214  15.405  -6.693  1.00 20.00     0.030 C 
HETATM    4  C6  UNL     1     -36.824  14.831  -4.760  1.00 20.00     0.030 C 
HETATM    5  C7  UNL     1     -34.095  16.218  -5.404  1.00 20.00     0.272 C 
HETATM    6  C8  UNL     1     -35.862  15.606  -3.858  1.00 20.00     0.272 C 
HETATM    7  N11 UNL     1     -34.435  15.453  -4.196  1.00 20.00     0.091 N 
ENDROOT
BRANCH   7   8
HETATM    8  C9  UNL     1     -33.624  15.928  -3.068  1.00 20.00     0.299 C 
BRANCH   8   9
HETATM    9  C1  UNL     1     -34.469  16.214  -1.863  1.00 20.00    -0.000 C 
HETATM   10  C2  UNL     1     -34.134  17.094  -0.908  1.00 20.00    -0.019 C 
BRANCH  10  11
HETATM   11  C10 UNL     1     -34.983  17.380   0.290  1.00 20.00     0.097 C 
BRANCH  11  12
HETATM   12  S12 UNL     1     -34.115  18.502   1.418  1.00 20.00    -0.178 SA
HETATM   13  H31 UNL     1     -34.840  18.205   2.505  1.00 20.00     0.101 HD
ENDBRANCH  11  12
ENDBRANCH  10  11
ENDBRANCH   8   9
ENDBRANCH   7   8
TORSDOF 4
ENDMDL
MODEL 6
REMARK VINA RESULT:      -4.1     13.442     15.307
REMARK  4 active torsions:
REMARK  status: ('A' for Active; 'I' for Inactive)
REMARK    1  A    between atoms: C1_1  and  C9_9 
REMARK    2  A    between atoms: C2_2  and  C10_10 
REMARK    3  A    between atoms: C9_9  and  N11_11 
REMARK    4  A    between atoms: C10_10  and  S12_12 
ROOT
HETATM    1  C3  UNL     1     -40.783   6.127  -0.242  1.00 20.00     0.002 C 
HETATM    2  C4  UNL     1     -41.679   7.187  -0.871  1.00 20.00     0.002 C 
HETATM    3  C5  UNL     1     -41.445   4.774   0.001  1.00 20.00     0.030 C 
HETATM    4  C6  UNL     1     -41.789   7.025  -2.385  1.00 20.00     0.030 C 
HETATM    5  C7  UNL     1     -42.554   4.347  -0.961  1.00 20.00     0.272 C 
HETATM    6  C8  UNL     1     -42.639   5.848  -2.865  1.00 20.00     0.272 C 
HETATM    7  N11 UNL     1     -42.203   4.527  -2.377  1.00 20.00     0.091 N 
ENDROOT
BRANCH   7   8
HETATM    8  C9  UNL     1     -42.851   3.484  -3.181  1.00 20.00     0.299 C 
BRANCH   8   9
HETATM    9  C1  UNL     1     -41.991   2.262  -3.296  1.00 20.00    -0.000 C 
HETATM   10  C2  UNL     1     -42.401   1.108  -3.845  1.00 20.00    -0.019 C 
BRANCH  10  11
HETATM   11  C10 UNL     1     -41.537  -0.107  -3.961  1.00 20.00     0.097 C 
BRANCH  11  12
HETATM   12  S12 UNL     1     -42.434  -1.569  -3.374  1.00 20.00    -0.178 SA
HETATM   13  H31 UNL     1     -42.339  -2.266  -4.515  1.00 20.00     0.101 HD
ENDBRANCH  11  12
ENDBRANCH  10  11
ENDBRANCH   8   9
ENDBRANCH   7   8
TORSDOF 4
ENDMDL
MODEL 7
REMARK VINA RESULT:      -4.0      1.409      2.332
REMARK  4 active torsions:
REMARK  status: ('A' for Active; 'I' for Inactive)
REMARK    1  A    between atoms: C1_1  and  C9_9 
REMARK    2  A    between atoms: C2_2  and  C10_10 
REMARK    3  A    between atoms: C9_9  and  N11_11 
REMARK    4  A    between atoms: C10_10  and  S12_12 
ROOT
HETATM    1  C3  UNL     1     -34.693  13.527  -4.778  1.00 20.00     0.002 C 
HETATM    2  C4  UNL     1     -33.506  13.454  -3.826  1.00 20.00     0.002 C 
HETATM    3  C5  UNL     1     -35.963  14.136  -4.191  1.00 20.00     0.030 C 
HETATM    4  C6  UNL     1     -32.762  14.784  -3.728  1.00 20.00     0.030 C 
HETATM    5  C7  UNL     1     -35.800  15.203  -3.109  1.00 20.00     0.272 C 
HETATM    6  C8  UNL     1     -33.478  15.886  -2.945  1.00 20.00     0.272 C 
HETATM    7  N11 UNL     1     -34.815  16.240  -3.452  1.00 20.00     0.091 N 
ENDROOT
BRANCH   7   8
HETATM    8  C9  UNL     1     -35.225  17.521  -2.864  1.00 20.00     0.299 C 
BRANCH   8   9
HETATM    9  C1  UNL     1     -34.408  17.858  -1.653  1.00 20.00    -0.000 C 
HETATM   10  C2  UNL     1     -34.902  17.901  -0.407  1.00 20.00    -0.019 C 
BRANCH  10  11
HETATM   11  C10 UNL     1     -34.081  18.233   0.799  1.00 20.00     0.097 C 
BRANCH  11  12
HETATM   12  S12 UNL     1     -32.490  18.942   0.296  1.00 20.00    -0.178 SA
HETATM   13  H31 UNL     1     -31.948  17.793  -0.130  1.00 20.00     0.101 HD
ENDBRANCH  11  12
ENDBRANCH  10  11
ENDBRANCH   8   9
ENDBRANCH   7   8
TORSDOF 4
ENDMDL
MODEL 8
REMARK VINA RESULT:      -4.0      3.966      6.214
REMARK  4 active torsions:
REMARK  status: ('A' for Active; 'I' for Inactive)
REMARK    1  A    between atoms: C1_1  and  C9_9 
REMARK    2  A    between atoms: C2_2  and  C10_10 
REMARK    3  A    between atoms: C9_9  and  N11_11 
REMARK    4  A    between atoms: C10_10  and  S12_12 
ROOT
HETATM    1  C3  UNL     1     -34.344  16.930  -0.914  1.00 20.00     0.002 C 
HETATM    2  C4  UNL     1     -34.631  18.375  -1.303  1.00 20.00     0.002 C 
HETATM    3  C5  UNL     1     -34.793  15.881  -1.926  1.00 20.00     0.030 C 
HETATM    4  C6  UNL     1     -33.586  18.931  -2.268  1.00 20.00     0.030 C 
HETATM    5  C7  UNL     1     -34.792  16.277  -3.403  1.00 20.00     0.272 C 
HETATM    6  C8  UNL     1     -33.662  18.403  -3.701  1.00 20.00     0.272 C 
HETATM    7  N11 UNL     1     -33.551  16.939  -3.831  1.00 20.00     0.091 N 
ENDROOT
BRANCH   7   8
HETATM    8  C9  UNL     1     -33.272  16.604  -5.233  1.00 20.00     0.299 C 
BRANCH   8   9
HETATM    9  C1  UNL     1     -34.298  15.664  -5.789  1.00 20.00    -0.000 C 
HETATM   10  C2  UNL     1     -34.425  15.386  -7.096  1.00 20.00    -0.019 C 
BRANCH  10  11
HETATM   11  C10 UNL     1     -35.448  14.443  -7.646  1.00 20.00     0.097 C 
BRANCH  11  12
HETATM   12  S12 UNL     1     -37.101  15.176  -7.529  1.00 20.00    -0.178 SA
HETATM   13  H31 UNL     1     -37.257  14.973  -6.213  1.00 20.00     0.101 HD
ENDBRANCH  11  12
ENDBRANCH  10  11
ENDBRANCH   8   9
ENDBRANCH   7   8
TORSDOF 4
ENDMDL
MODEL 9
REMARK VINA RESULT:      -4.0      1.863      2.638
REMARK  4 active torsions:
REMARK  status: ('A' for Active; 'I' for Inactive)
REMARK    1  A    between atoms: C1_1  and  C9_9 
REMARK    2  A    between atoms: C2_2  and  C10_10 
REMARK    3  A    between atoms: C9_9  and  N11_11 
REMARK    4  A    between atoms: C10_10  and  S12_12 
ROOT
HETATM    1  C3  UNL     1     -35.608  15.871  -6.277  1.00 20.00     0.002 C 
HETATM    2  C4  UNL     1     -34.097  15.709  -6.375  1.00 20.00     0.002 C 
HETATM    3  C5  UNL     1     -36.280  15.069  -5.167  1.00 20.00     0.030 C 
HETATM    4  C6  UNL     1     -33.356  16.582  -5.364  1.00 20.00     0.030 C 
HETATM    5  C7  UNL     1     -35.469  14.800  -3.900  1.00 20.00     0.272 C 
HETATM    6  C8  UNL     1     -33.433  16.120  -3.909  1.00 20.00     0.272 C 
HETATM    7  N11 UNL     1     -34.799  15.996  -3.368  1.00 20.00     0.091 N 
ENDROOT
BRANCH   7   8
HETATM    8  C9  UNL     1     -34.727  15.910  -1.904  1.00 20.00     0.299 C 
BRANCH   8   9
HETATM    9  C1  UNL     1     -34.256  17.198  -1.299  1.00 20.00    -0.000 C 
HETATM   10  C2  UNL     1     -34.379  17.500   0.003  1.00 20.00    -0.019 C 
BRANCH  10  11
HETATM   11  C10 UNL     1     -33.903  18.785   0.603  1.00 20.00     0.097 C 
BRANCH  11  12
HETATM   12  S12 UNL     1     -32.129  18.997   0.302  1.00 20.00    -0.178 SA
HETATM   13  H31 UNL     1     -31.736  18.736   1.556  1.00 20.00     0.101 HD
ENDBRANCH  11  12
ENDBRANCH  10  11
ENDBRANCH   8   9
ENDBRANCH   7   8
TORSDOF 4
ENDMDL
