MODEL 1
REMARK VINA RESULT:      -6.4      0.000      0.000
REMARK  1 active torsions:
REMARK  status: ('A' for Active; 'I' for Inactive)
REMARK    1  A    between atoms: C5_5  and  C12_12 
ROOT
HETATM    1  C1  UNL     1     -33.172   6.105   2.143  1.00 20.00     0.008 A 
HETATM    2  C2  UNL     1     -33.999   5.166   2.770  1.00 20.00     0.009 A 
HETATM    3  C3  UNL     1     -32.871   7.309   4.234  1.00 20.00     0.023 A 
HETATM    4  C4  UNL     1     -33.691   6.367   4.824  1.00 20.00     0.017 A 
HETATM    5  C5  UNL     1     -32.612   7.168   2.870  1.00 20.00    -0.053 A 
HETATM    6  C6  UNL     1     -34.255   5.308   4.124  1.00 20.00    -0.044 A 
HETATM    7  C7  UNL     1     -34.121   6.274   6.210  1.00 20.00     0.160 A 
HETATM    8  C8  UNL     1     -35.103   4.428   4.985  1.00 20.00     0.047 A 
HETATM    9  C9  UNL     1     -35.016   5.071   6.381  1.00 20.00     0.088 A 
HETATM   10  O13 UNL     1     -33.795   7.058   7.083  1.00 20.00    -0.292 OA
ENDROOT
BRANCH   5  11
HETATM   11  C12 UNL     1     -31.735   8.155   2.177  1.00 20.00     0.018 A 
HETATM   12  C10 UNL     1     -32.343   9.425   1.641  1.00 20.00     0.010 A 
HETATM   13  C11 UNL     1     -31.890   8.358   0.693  1.00 20.00     0.010 A 
ENDBRANCH   5  11
TORSDOF 1
ENDMDL
MODEL 2
REMARK VINA RESULT:      -5.8     11.271     12.636
REMARK  1 active torsions:
REMARK  status: ('A' for Active; 'I' for Inactive)
REMARK    1  A    between atoms: C5_5  and  C12_12 
ROOT
HETATM    1  C1  UNL     1     -33.824  17.485  -3.442  1.00 20.00     0.008 A 
HETATM    2  C2  UNL     1     -33.895  17.222  -4.814  1.00 20.00     0.009 A 
HETATM    3  C3  UNL     1     -34.453  15.196  -2.919  1.00 20.00     0.023 A 
HETATM    4  C4  UNL     1     -34.514  14.966  -4.281  1.00 20.00     0.017 A 
HETATM    5  C5  UNL     1     -34.101  16.480  -2.502  1.00 20.00    -0.053 A 
HETATM    6  C6  UNL     1     -34.244  15.947  -5.227  1.00 20.00    -0.044 A 
HETATM    7  C7  UNL     1     -34.850  13.738  -4.983  1.00 20.00     0.160 A 
HETATM    8  C8  UNL     1     -34.378  15.452  -6.631  1.00 20.00     0.047 A 
HETATM    9  C9  UNL     1     -34.784  13.975  -6.472  1.00 20.00     0.088 A 
HETATM   10  O13 UNL     1     -35.137  12.691  -4.433  1.00 20.00    -0.292 OA
ENDROOT
BRANCH   5  11
HETATM   11  C12 UNL     1     -34.020  16.788  -1.045  1.00 20.00     0.018 A 
HETATM   12  C10 UNL     1     -35.142  17.556  -0.396  1.00 20.00     0.010 A 
HETATM   13  C11 UNL     1     -33.814  18.215  -0.608  1.00 20.00     0.010 A 
ENDBRANCH   5  11
TORSDOF 1
ENDMDL
MODEL 3
REMARK VINA RESULT:      -5.3     10.943     12.108
REMARK  1 active torsions:
REMARK  status: ('A' for Active; 'I' for Inactive)
REMARK    1  A    between atoms: C5_5  and  C12_12 
ROOT
HETATM    1  C1  UNL     1     -35.853  17.287  -2.496  1.00 20.00     0.008 A 
HETATM    2  C2  UNL     1     -36.326  16.651  -3.649  1.00 20.00     0.009 A 
HETATM    3  C3  UNL     1     -34.089  15.633  -2.246  1.00 20.00     0.023 A 
HETATM    4  C4  UNL     1     -34.579  15.027  -3.388  1.00 20.00     0.017 A 
HETATM    5  C5  UNL     1     -34.743  16.782  -1.800  1.00 20.00    -0.053 A 
HETATM    6  C6  UNL     1     -35.676  15.510  -4.091  1.00 20.00    -0.044 A 
HETATM    7  C7  UNL     1     -34.096  13.834  -4.065  1.00 20.00     0.160 A 
HETATM    8  C8  UNL     1     -36.010  14.680  -5.288  1.00 20.00     0.047 A 
HETATM    9  C9  UNL     1     -34.956  13.558  -5.274  1.00 20.00     0.088 A 
HETATM   10  O13 UNL     1     -33.142  13.175  -3.694  1.00 20.00    -0.292 OA
ENDROOT
BRANCH   5  11
HETATM   11  C12 UNL     1     -34.260  17.478  -0.573  1.00 20.00     0.018 A 
HETATM   12  C10 UNL     1     -35.075  17.383   0.691  1.00 20.00     0.010 A 
HETATM   13  C11 UNL     1     -35.020  18.675  -0.064  1.00 20.00     0.010 A 
ENDBRANCH   5  11
TORSDOF 1
ENDMDL
MODEL 4
REMARK VINA RESULT:      -5.2     11.330     12.261
REMARK  1 active torsions:
REMARK  status: ('A' for Active; 'I' for Inactive)
REMARK    1  A    between atoms: C5_5  and  C12_12 
ROOT
HETATM    1  C1  UNL     1     -32.414  18.689   0.023  1.00 20.00     0.008 A 
HETATM    2  C2  UNL     1     -31.648  19.044   1.139  1.00 20.00     0.009 A 
HETATM    3  C3  UNL     1     -34.309  18.130   1.440  1.00 20.00     0.023 A 
HETATM    4  C4  UNL     1     -33.528  18.488   2.522  1.00 20.00     0.017 A 
HETATM    5  C5  UNL     1     -33.734  18.235   0.173  1.00 20.00    -0.053 A 
HETATM    6  C6  UNL     1     -32.220  18.939   2.396  1.00 20.00    -0.044 A 
HETATM    7  C7  UNL     1     -33.869  18.477   3.935  1.00 20.00     0.160 A 
HETATM    8  C8  UNL     1     -31.587  19.263   3.711  1.00 20.00     0.047 A 
HETATM    9  C9  UNL     1     -32.687  18.954   4.743  1.00 20.00     0.088 A 
HETATM   10  O13 UNL     1     -34.950  18.131   4.376  1.00 20.00    -0.292 OA
ENDROOT
BRANCH   5  11
HETATM   11  C12 UNL     1     -34.528  17.861  -1.033  1.00 20.00     0.018 A 
HETATM   12  C10 UNL     1     -34.728  16.403  -1.355  1.00 20.00     0.010 A 
HETATM   13  C11 UNL     1     -33.824  17.237  -2.209  1.00 20.00     0.010 A 
ENDBRANCH   5  11
TORSDOF 1
ENDMDL
MODEL 5
REMARK VINA RESULT:      -5.2     11.573     12.715
REMARK  1 active torsions:
REMARK  status: ('A' for Active; 'I' for Inactive)
REMARK    1  A    between atoms: C5_5  and  C12_12 
ROOT
HETATM    1  C1  UNL     1     -33.338  16.065  -2.941  1.00 20.00     0.008 A 
HETATM    2  C2  UNL     1     -33.205  15.702  -4.286  1.00 20.00     0.009 A 
HETATM    3  C3  UNL     1     -35.751  15.789  -3.054  1.00 20.00     0.023 A 
HETATM    4  C4  UNL     1     -35.587  15.434  -4.379  1.00 20.00     0.017 A 
HETATM    5  C5  UNL     1     -34.601  16.108  -2.330  1.00 20.00    -0.053 A 
HETATM    6  C6  UNL     1     -34.347  15.386  -5.003  1.00 20.00    -0.044 A 
HETATM    7  C7  UNL     1     -36.600  15.059  -5.353  1.00 20.00     0.160 A 
HETATM    8  C8  UNL     1     -34.434  14.975  -6.438  1.00 20.00     0.047 A 
HETATM    9  C9  UNL     1     -35.939  14.757  -6.676  1.00 20.00     0.088 A 
HETATM   10  O13 UNL     1     -37.792  15.004  -5.115  1.00 20.00    -0.292 OA
ENDROOT
BRANCH   5  11
HETATM   11  C12 UNL     1     -34.715  16.499  -0.896  1.00 20.00     0.018 A 
HETATM   12  C10 UNL     1     -35.342  17.824  -0.546  1.00 20.00     0.010 A 
HETATM   13  C11 UNL     1     -33.867  17.630  -0.375  1.00 20.00     0.010 A 
ENDBRANCH   5  11
TORSDOF 1
ENDMDL
MODEL 6
REMARK VINA RESULT:      -5.1     11.481     13.280
REMARK  1 active torsions:
REMARK  status: ('A' for Active; 'I' for Inactive)
REMARK    1  A    between atoms: C5_5  and  C12_12 
ROOT
HETATM    1  C1  UNL     1     -34.420  14.394  -3.352  1.00 20.00     0.008 A 
HETATM    2  C2  UNL     1     -34.797  13.822  -4.572  1.00 20.00     0.009 A 
HETATM    3  C3  UNL     1     -34.070  16.552  -4.415  1.00 20.00     0.023 A 
HETATM    4  C4  UNL     1     -34.448  15.959  -5.605  1.00 20.00     0.017 A 
HETATM    5  C5  UNL     1     -34.059  15.749  -3.274  1.00 20.00    -0.053 A 
HETATM    6  C6  UNL     1     -34.807  14.621  -5.703  1.00 20.00    -0.044 A 
HETATM    7  C7  UNL     1     -34.547  16.554  -6.928  1.00 20.00     0.160 A 
HETATM    8  C8  UNL     1     -35.174  14.219  -7.095  1.00 20.00     0.047 A 
HETATM    9  C9  UNL     1     -35.000  15.509  -7.917  1.00 20.00     0.088 A 
HETATM   10  O13 UNL     1     -34.298  17.720  -7.175  1.00 20.00    -0.292 OA
ENDROOT
BRANCH   5  11
HETATM   11  C12 UNL     1     -33.660  16.333  -1.962  1.00 20.00     0.018 A 
HETATM   12  C10 UNL     1     -34.730  16.695  -0.965  1.00 20.00     0.010 A 
HETATM   13  C11 UNL     1     -33.978  17.777  -1.676  1.00 20.00     0.010 A 
ENDBRANCH   5  11
TORSDOF 1
ENDMDL
MODEL 7
REMARK VINA RESULT:      -5.0     11.692     13.247
REMARK  1 active torsions:
REMARK  status: ('A' for Active; 'I' for Inactive)
REMARK    1  A    between atoms: C5_5  and  C12_12 
ROOT
HETATM    1  C1  UNL     1     -34.369  16.668  -1.166  1.00 20.00     0.008 A 
HETATM    2  C2  UNL     1     -34.649  15.701  -2.137  1.00 20.00     0.009 A 
HETATM    3  C3  UNL     1     -33.638  18.239  -2.871  1.00 20.00     0.023 A 
HETATM    4  C4  UNL     1     -33.924  17.263  -3.807  1.00 20.00     0.017 A 
HETATM    5  C5  UNL     1     -33.867  17.928  -1.531  1.00 20.00    -0.053 A 
HETATM    6  C6  UNL     1     -34.421  16.011  -3.467  1.00 20.00    -0.044 A 
HETATM    7  C7  UNL     1     -33.782  17.318  -5.253  1.00 20.00     0.160 A 
HETATM    8  C8  UNL     1     -34.648  15.134  -4.657  1.00 20.00     0.047 A 
HETATM    9  C9  UNL     1     -34.222  16.005  -5.852  1.00 20.00     0.088 A 
HETATM   10  O13 UNL     1     -33.369  18.287  -5.864  1.00 20.00    -0.292 OA
ENDROOT
BRANCH   5  11
HETATM   11  C12 UNL     1     -33.576  18.941  -0.476  1.00 20.00     0.018 A 
HETATM   12  C10 UNL     1     -32.233  18.921   0.207  1.00 20.00     0.010 A 
HETATM   13  C11 UNL     1     -33.456  18.493   0.957  1.00 20.00     0.010 A 
ENDBRANCH   5  11
TORSDOF 1
ENDMDL
MODEL 8
REMARK VINA RESULT:      -4.9     11.346     11.962
REMARK  1 active torsions:
REMARK  status: ('A' for Active; 'I' for Inactive)
REMARK    1  A    between atoms: C5_5  and  C12_12 
ROOT
HETATM    1  C1  UNL     1     -33.345  16.628  -2.250  1.00 20.00     0.008 A 
HETATM    2  C2  UNL     1     -33.105  15.617  -3.187  1.00 20.00     0.009 A 
HETATM    3  C3  UNL     1     -35.734  16.184  -2.309  1.00 20.00     0.023 A 
HETATM    4  C4  UNL     1     -35.466  15.191  -3.232  1.00 20.00     0.017 A 
HETATM    5  C5  UNL     1     -34.650  16.909  -1.814  1.00 20.00    -0.053 A 
HETATM    6  C6  UNL     1     -34.182  14.898  -3.677  1.00 20.00    -0.044 A 
HETATM    7  C7  UNL     1     -36.394  14.294  -3.901  1.00 20.00     0.160 A 
HETATM    8  C8  UNL     1     -34.154  13.785  -4.674  1.00 20.00     0.047 A 
HETATM    9  C9  UNL     1     -35.631  13.379  -4.828  1.00 20.00     0.088 A 
HETATM   10  O13 UNL     1     -37.599  14.299  -3.725  1.00 20.00    -0.292 OA
ENDROOT
BRANCH   5  11
HETATM   11  C12 UNL     1     -34.878  17.993  -0.816  1.00 20.00     0.018 A 
HETATM   12  C10 UNL     1     -34.893  17.647   0.650  1.00 20.00     0.010 A 
HETATM   13  C11 UNL     1     -36.169  18.014  -0.041  1.00 20.00     0.010 A 
ENDBRANCH   5  11
TORSDOF 1
ENDMDL
MODEL 9
REMARK VINA RESULT:      -4.9      9.989     11.339
REMARK  1 active torsions:
REMARK  status: ('A' for Active; 'I' for Inactive)
REMARK    1  A    between atoms: C5_5  and  C12_12 
ROOT
HETATM    1  C1  UNL     1     -43.291   4.228  -3.453  1.00 20.00     0.008 A 
HETATM    2  C2  UNL     1     -43.417   5.600  -3.211  1.00 20.00     0.009 A 
HETATM    3  C3  UNL     1     -41.501   4.053  -1.818  1.00 20.00     0.023 A 
HETATM    4  C4  UNL     1     -41.650   5.410  -1.600  1.00 20.00     0.017 A 
HETATM    5  C5  UNL     1     -42.340   3.460  -2.762  1.00 20.00    -0.053 A 
HETATM    6  C6  UNL     1     -42.584   6.187  -2.274  1.00 20.00    -0.044 A 
HETATM    7  C7  UNL     1     -40.918   6.271  -0.685  1.00 20.00     0.160 A 
HETATM    8  C8  UNL     1     -42.548   7.624  -1.862  1.00 20.00     0.047 A 
HETATM    9  C9  UNL     1     -41.435   7.684  -0.801  1.00 20.00     0.088 A 
HETATM   10  O13 UNL     1     -40.028   5.888   0.052  1.00 20.00    -0.292 OA
ENDROOT
BRANCH   5  11
HETATM   11  C12 UNL     1     -42.226   2.000  -3.040  1.00 20.00     0.018 A 
HETATM   12  C10 UNL     1     -41.172   1.519  -4.003  1.00 20.00     0.010 A 
HETATM   13  C11 UNL     1     -42.615   1.481  -4.399  1.00 20.00     0.010 A 
ENDBRANCH   5  11
TORSDOF 1
ENDMDL
