MODEL 1
REMARK VINA RESULT:      -4.1      0.000      0.000
REMARK  6 active torsions:
REMARK  status: ('A' for Active; 'I' for Inactive)
REMARK    1  A    between atoms: C4_4  and  C7_7 
REMARK    2  A    between atoms: C5_5  and  C9_9 
REMARK    3  A    between atoms: C6_6  and  C9_9 
REMARK    4  A    between atoms: C7_7  and  C10_10 
REMARK    5  A    between atoms: C8_8  and  C10_10 
REMARK    6  A    between atoms: C9_9  and  C10_10 
ROOT
HETATM    1  C10 UNL     1     -33.586  16.306  -3.233  1.00 20.00     0.003 C 
ENDROOT
BRANCH   1   2
HETATM    2  C7  UNL     1     -32.986  14.972  -3.763  1.00 20.00     0.005 C 
BRANCH   2   3
HETATM    3  C4  UNL     1     -33.864  13.737  -3.532  1.00 20.00    -0.004 C 
HETATM    4  C1  UNL     1     -34.504  13.262  -4.830  1.00 20.00     0.005 C 
ENDBRANCH   2   3
ENDBRANCH   1   2
BRANCH   1   5
HETATM    5  C8  UNL     1     -33.857  17.319  -4.367  1.00 20.00     0.119 C 
HETATM    6 CL11 UNL     1     -33.824  16.586  -5.989  1.00 20.00    -0.130 Cl
ENDBRANCH   1   5
BRANCH   1   7
HETATM    7  C9  UNL     1     -34.851  16.054  -2.324  1.00 20.00    -0.010 C 
BRANCH   7   8
HETATM    8  C5  UNL     1     -34.672  16.568  -0.872  1.00 20.00     0.000 C 
HETATM    9  C2  UNL     1     -33.630  17.665  -0.702  1.00 20.00     0.005 C 
ENDBRANCH   7   8
BRANCH   7  10
HETATM   10  C6  UNL     1     -36.143  16.608  -2.980  1.00 20.00     0.000 C 
HETATM   11  C3  UNL     1     -37.092  15.545  -3.522  1.00 20.00     0.005 C 
ENDBRANCH   7  10
ENDBRANCH   1   7
TORSDOF 6
ENDMDL
MODEL 2
REMARK VINA RESULT:      -3.9      0.937      3.577
REMARK  6 active torsions:
REMARK  status: ('A' for Active; 'I' for Inactive)
REMARK    1  A    between atoms: C4_4  and  C7_7 
REMARK    2  A    between atoms: C5_5  and  C9_9 
REMARK    3  A    between atoms: C6_6  and  C9_9 
REMARK    4  A    between atoms: C7_7  and  C10_10 
REMARK    5  A    between atoms: C8_8  and  C10_10 
REMARK    6  A    between atoms: C9_9  and  C10_10 
ROOT
HETATM    1  C10 UNL     1     -34.329  16.383  -3.206  1.00 20.00     0.003 C 
ENDROOT
BRANCH   1   2
HETATM    2  C7  UNL     1     -33.761  16.861  -1.840  1.00 20.00     0.005 C 
BRANCH   2   3
HETATM    3  C4  UNL     1     -34.718  16.697  -0.653  1.00 20.00    -0.004 C 
HETATM    4  C1  UNL     1     -34.500  17.784   0.389  1.00 20.00     0.005 C 
ENDBRANCH   2   3
ENDBRANCH   1   2
BRANCH   1   5
HETATM    5  C8  UNL     1     -33.286  16.477  -4.341  1.00 20.00     0.119 C 
HETATM    6 CL11 UNL     1     -34.014  16.705  -5.949  1.00 20.00    -0.130 Cl
ENDBRANCH   1   5
BRANCH   1   7
HETATM    7  C9  UNL     1     -34.983  14.951  -3.095  1.00 20.00    -0.010 C 
BRANCH   7   8
HETATM    8  C5  UNL     1     -36.414  14.884  -3.688  1.00 20.00     0.000 C 
HETATM    9  C2  UNL     1     -37.135  16.222  -3.779  1.00 20.00     0.005 C 
ENDBRANCH   7   8
BRANCH   7  10
HETATM   10  C6  UNL     1     -34.059  13.855  -3.688  1.00 20.00     0.000 C 
HETATM   11  C3  UNL     1     -34.635  13.111  -4.887  1.00 20.00     0.005 C 
ENDBRANCH   7  10
ENDBRANCH   1   7
TORSDOF 6
ENDMDL
MODEL 3
REMARK VINA RESULT:      -3.9      1.445      4.157
REMARK  6 active torsions:
REMARK  status: ('A' for Active; 'I' for Inactive)
REMARK    1  A    between atoms: C4_4  and  C7_7 
REMARK    2  A    between atoms: C5_5  and  C9_9 
REMARK    3  A    between atoms: C6_6  and  C9_9 
REMARK    4  A    between atoms: C7_7  and  C10_10 
REMARK    5  A    between atoms: C8_8  and  C10_10 
REMARK    6  A    between atoms: C9_9  and  C10_10 
ROOT
HETATM    1  C10 UNL     1     -34.818  15.835  -2.389  1.00 20.00     0.003 C 
ENDROOT
BRANCH   1   2
HETATM    2  C7  UNL     1     -34.662  16.536  -1.010  1.00 20.00     0.005 C 
BRANCH   2   3
HETATM    3  C4  UNL     1     -33.582  17.624  -0.960  1.00 20.00    -0.004 C 
HETATM    4  C1  UNL     1     -33.611  18.372   0.365  1.00 20.00     0.005 C 
ENDBRANCH   2   3
ENDBRANCH   1   2
BRANCH   1   5
HETATM    5  C8  UNL     1     -36.173  16.152  -3.059  1.00 20.00     0.119 C 
HETATM    6 CL11 UNL     1     -36.975  14.716  -3.739  1.00 20.00    -0.130 Cl
ENDBRANCH   1   5
BRANCH   1   7
HETATM    7  C9  UNL     1     -33.587  16.127  -3.332  1.00 20.00    -0.010 C 
BRANCH   7   8
HETATM    8  C5  UNL     1     -32.732  14.868  -3.629  1.00 20.00     0.000 C 
HETATM    9  C2  UNL     1     -33.527  13.590  -3.861  1.00 20.00     0.005 C 
ENDBRANCH   7   8
BRANCH   7  10
HETATM   10  C6  UNL     1     -34.025  16.849  -4.633  1.00 20.00     0.000 C 
HETATM   11  C3  UNL     1     -33.580  18.303  -4.740  1.00 20.00     0.005 C 
ENDBRANCH   7  10
ENDBRANCH   1   7
TORSDOF 6
ENDMDL
MODEL 4
REMARK VINA RESULT:      -3.9      1.905      3.338
REMARK  6 active torsions:
REMARK  status: ('A' for Active; 'I' for Inactive)
REMARK    1  A    between atoms: C4_4  and  C7_7 
REMARK    2  A    between atoms: C5_5  and  C9_9 
REMARK    3  A    between atoms: C6_6  and  C9_9 
REMARK    4  A    between atoms: C7_7  and  C10_10 
REMARK    5  A    between atoms: C8_8  and  C10_10 
REMARK    6  A    between atoms: C9_9  and  C10_10 
ROOT
HETATM    1  C10 UNL     1     -34.886  16.865  -4.112  1.00 20.00     0.003 C 
ENDROOT
BRANCH   1   2
HETATM    2  C7  UNL     1     -34.095  16.876  -5.451  1.00 20.00     0.005 C 
BRANCH   2   3
HETATM    3  C4  UNL     1     -34.884  16.378  -6.668  1.00 20.00    -0.004 C 
HETATM    4  C1  UNL     1     -34.386  15.016  -7.130  1.00 20.00     0.005 C 
ENDBRANCH   2   3
ENDBRANCH   1   2
BRANCH   1   5
HETATM    5  C8  UNL     1     -36.372  16.495  -4.312  1.00 20.00     0.119 C 
HETATM    6 CL11 UNL     1     -36.782  14.873  -3.705  1.00 20.00    -0.130 Cl
ENDBRANCH   1   5
BRANCH   1   7
HETATM    7  C9  UNL     1     -34.176  15.969  -3.025  1.00 20.00    -0.010 C 
BRANCH   7   8
HETATM    8  C5  UNL     1     -33.014  15.116  -3.598  1.00 20.00     0.000 C 
HETATM    9  C2  UNL     1     -33.320  13.632  -3.748  1.00 20.00     0.005 C 
ENDBRANCH   7   8
BRANCH   7  10
HETATM   10  C6  UNL     1     -33.728  16.807  -1.799  1.00 20.00     0.000 C 
HETATM   11  C3  UNL     1     -34.679  16.762  -0.609  1.00 20.00     0.005 C 
ENDBRANCH   7  10
ENDBRANCH   1   7
TORSDOF 6
ENDMDL
MODEL 5
REMARK VINA RESULT:      -3.8      1.816      2.727
REMARK  6 active torsions:
REMARK  status: ('A' for Active; 'I' for Inactive)
REMARK    1  A    between atoms: C4_4  and  C7_7 
REMARK    2  A    between atoms: C5_5  and  C9_9 
REMARK    3  A    between atoms: C6_6  and  C9_9 
REMARK    4  A    between atoms: C7_7  and  C10_10 
REMARK    5  A    between atoms: C8_8  and  C10_10 
REMARK    6  A    between atoms: C9_9  and  C10_10 
ROOT
HETATM    1  C10 UNL     1     -34.050  17.070  -4.182  1.00 20.00     0.003 C 
ENDROOT
BRANCH   1   2
HETATM    2  C7  UNL     1     -33.389  16.680  -5.535  1.00 20.00     0.005 C 
BRANCH   2   3
HETATM    3  C4  UNL     1     -34.369  16.504  -6.701  1.00 20.00    -0.004 C 
HETATM    4  C1  UNL     1     -34.420  15.057  -7.168  1.00 20.00     0.005 C 
ENDBRANCH   2   3
ENDBRANCH   1   2
BRANCH   1   5
HETATM    5  C8  UNL     1     -35.575  17.281  -4.313  1.00 20.00     0.119 C 
HETATM    6 CL11 UNL     1     -36.121  18.861  -3.703  1.00 20.00    -0.130 Cl
ENDBRANCH   1   5
BRANCH   1   7
HETATM    7  C9  UNL     1     -33.671  16.053  -3.036  1.00 20.00    -0.010 C 
BRANCH   7   8
HETATM    8  C5  UNL     1     -34.768  15.921  -1.948  1.00 20.00     0.000 C 
HETATM    9  C2  UNL     1     -34.550  16.776  -0.707  1.00 20.00     0.005 C 
ENDBRANCH   7   8
BRANCH   7  10
HETATM   10  C6  UNL     1     -33.257  14.674  -3.611  1.00 20.00     0.000 C 
HETATM   11  C3  UNL     1     -34.381  13.647  -3.687  1.00 20.00     0.005 C 
ENDBRANCH   7  10
ENDBRANCH   1   7
TORSDOF 6
ENDMDL
MODEL 6
REMARK VINA RESULT:      -3.8      1.570      3.125
REMARK  6 active torsions:
REMARK  status: ('A' for Active; 'I' for Inactive)
REMARK    1  A    between atoms: C4_4  and  C7_7 
REMARK    2  A    between atoms: C5_5  and  C9_9 
REMARK    3  A    between atoms: C6_6  and  C9_9 
REMARK    4  A    between atoms: C7_7  and  C10_10 
REMARK    5  A    between atoms: C8_8  and  C10_10 
REMARK    6  A    between atoms: C9_9  and  C10_10 
ROOT
HETATM    1  C10 UNL     1     -34.928  14.884  -3.048  1.00 20.00     0.003 C 
ENDROOT
BRANCH   1   2
HETATM    2  C7  UNL     1     -36.404  14.852  -3.537  1.00 20.00     0.005 C 
BRANCH   2   3
HETATM    3  C4  UNL     1     -36.899  16.159  -4.169  1.00 20.00    -0.004 C 
HETATM    4  C1  UNL     1     -37.143  15.994  -5.662  1.00 20.00     0.005 C 
ENDBRANCH   2   3
ENDBRANCH   1   2
BRANCH   1   5
HETATM    5  C8  UNL     1     -34.073  13.770  -3.692  1.00 20.00     0.119 C 
HETATM    6 CL11 UNL     1     -34.747  13.160  -5.222  1.00 20.00    -0.130 Cl
ENDBRANCH   1   5
BRANCH   1   7
HETATM    7  C9  UNL     1     -34.290  16.317  -3.216  1.00 20.00    -0.010 C 
BRANCH   7   8
HETATM    8  C5  UNL     1     -33.755  16.908  -1.885  1.00 20.00     0.000 C 
HETATM    9  C2  UNL     1     -34.667  16.711  -0.682  1.00 20.00     0.005 C 
ENDBRANCH   7   8
BRANCH   7  10
HETATM   10  C6  UNL     1     -33.212  16.334  -4.331  1.00 20.00     0.000 C 
HETATM   11  C3  UNL     1     -33.561  17.186  -5.546  1.00 20.00     0.005 C 
ENDBRANCH   7  10
ENDBRANCH   1   7
TORSDOF 6
ENDMDL
MODEL 7
REMARK VINA RESULT:      -3.8      2.014      3.658
REMARK  6 active torsions:
REMARK  status: ('A' for Active; 'I' for Inactive)
REMARK    1  A    between atoms: C4_4  and  C7_7 
REMARK    2  A    between atoms: C5_5  and  C9_9 
REMARK    3  A    between atoms: C6_6  and  C9_9 
REMARK    4  A    between atoms: C7_7  and  C10_10 
REMARK    5  A    between atoms: C8_8  and  C10_10 
REMARK    6  A    between atoms: C9_9  and  C10_10 
ROOT
HETATM    1  C10 UNL     1     -33.963  16.382  -3.107  1.00 20.00     0.003 C 
ENDROOT
BRANCH   1   2
HETATM    2  C7  UNL     1     -34.275  17.377  -4.260  1.00 20.00     0.005 C 
BRANCH   2   3
HETATM    3  C4  UNL     1     -33.486  17.131  -5.552  1.00 20.00    -0.004 C 
HETATM    4  C1  UNL     1     -34.231  16.185  -6.483  1.00 20.00     0.005 C 
ENDBRANCH   2   3
ENDBRANCH   1   2
BRANCH   1   5
HETATM    5  C8  UNL     1     -33.638  17.104  -1.780  1.00 20.00     0.119 C 
HETATM    6 CL11 UNL     1     -34.732  16.656  -0.449  1.00 20.00    -0.130 Cl
ENDBRANCH   1   5
BRANCH   1   7
HETATM    7  C9  UNL     1     -35.101  15.299  -2.949  1.00 20.00    -0.010 C 
BRANCH   7   8
HETATM    8  C5  UNL     1     -36.477  15.777  -3.479  1.00 20.00     0.000 C 
HETATM    9  C2  UNL     1     -37.366  14.677  -4.044  1.00 20.00     0.005 C 
ENDBRANCH   7   8
BRANCH   7  10
HETATM   10  C6  UNL     1     -34.682  13.939  -3.567  1.00 20.00     0.000 C 
HETATM   11  C3  UNL     1     -33.180  13.751  -3.744  1.00 20.00     0.005 C 
ENDBRANCH   7  10
ENDBRANCH   1   7
TORSDOF 6
ENDMDL
MODEL 8
REMARK VINA RESULT:      -3.8      2.050      3.163
REMARK  6 active torsions:
REMARK  status: ('A' for Active; 'I' for Inactive)
REMARK    1  A    between atoms: C4_4  and  C7_7 
REMARK    2  A    between atoms: C5_5  and  C9_9 
REMARK    3  A    between atoms: C6_6  and  C9_9 
REMARK    4  A    between atoms: C7_7  and  C10_10 
REMARK    5  A    between atoms: C8_8  and  C10_10 
REMARK    6  A    between atoms: C9_9  and  C10_10 
ROOT
HETATM    1  C10 UNL     1     -34.112  16.110  -3.220  1.00 20.00     0.003 C 
ENDROOT
BRANCH   1   2
HETATM    2  C7  UNL     1     -32.999  15.138  -3.704  1.00 20.00     0.005 C 
BRANCH   2   3
HETATM    3  C4  UNL     1     -33.385  13.654  -3.678  1.00 20.00    -0.004 C 
HETATM    4  C1  UNL     1     -34.408  13.330  -4.757  1.00 20.00     0.005 C 
ENDBRANCH   2   3
ENDBRANCH   1   2
BRANCH   1   5
HETATM    5  C8  UNL     1     -33.689  16.909  -1.967  1.00 20.00     0.119 C 
HETATM    6 CL11 UNL     1     -34.736  16.615  -0.558  1.00 20.00    -0.130 Cl
ENDBRANCH   1   5
BRANCH   1   7
HETATM    7  C9  UNL     1     -34.625  17.036  -4.390  1.00 20.00    -0.010 C 
BRANCH   7   8
HETATM    8  C5  UNL     1     -33.742  16.960  -5.662  1.00 20.00     0.000 C 
HETATM    9  C2  UNL     1     -34.446  16.427  -6.902  1.00 20.00     0.005 C 
ENDBRANCH   7   8
BRANCH   7  10
HETATM   10  C6  UNL     1     -36.122  16.776  -4.707  1.00 20.00     0.000 C 
HETATM   11  C3  UNL     1     -36.860  15.934  -3.672  1.00 20.00     0.005 C 
ENDBRANCH   7  10
ENDBRANCH   1   7
TORSDOF 6
ENDMDL
MODEL 9
REMARK VINA RESULT:      -3.8      2.133      3.897
REMARK  6 active torsions:
REMARK  status: ('A' for Active; 'I' for Inactive)
REMARK    1  A    between atoms: C4_4  and  C7_7 
REMARK    2  A    between atoms: C5_5  and  C9_9 
REMARK    3  A    between atoms: C6_6  and  C9_9 
REMARK    4  A    between atoms: C7_7  and  C10_10 
REMARK    5  A    between atoms: C8_8  and  C10_10 
REMARK    6  A    between atoms: C9_9  and  C10_10 
ROOT
HETATM    1  C10 UNL     1     -33.406  16.034  -4.435  1.00 20.00     0.003 C 
ENDROOT
BRANCH   1   2
HETATM    2  C7  UNL     1     -34.029  17.102  -3.493  1.00 20.00     0.005 C 
BRANCH   2   3
HETATM    3  C4  UNL     1     -33.650  16.955  -2.014  1.00 20.00    -0.004 C 
HETATM    4  C1  UNL     1     -34.828  16.461  -1.187  1.00 20.00     0.005 C 
ENDBRANCH   2   3
ENDBRANCH   1   2
BRANCH   1   5
HETATM    5  C8  UNL     1     -32.489  15.047  -3.678  1.00 20.00     0.119 C 
HETATM    6 CL11 UNL     1     -33.116  13.381  -3.654  1.00 20.00    -0.130 Cl
ENDBRANCH   1   5
BRANCH   1   7
HETATM    7  C9  UNL     1     -34.508  15.303  -5.296  1.00 20.00    -0.010 C 
BRANCH   7   8
HETATM    8  C5  UNL     1     -35.955  15.646  -4.856  1.00 20.00     0.000 C 
HETATM    9  C2  UNL     1     -36.677  14.539  -4.101  1.00 20.00     0.005 C 
ENDBRANCH   7   8
BRANCH   7  10
HETATM   10  C6  UNL     1     -34.294  15.539  -6.814  1.00 20.00     0.000 C 
HETATM   11  C3  UNL     1     -35.191  14.709  -7.725  1.00 20.00     0.005 C 
ENDBRANCH   7  10
ENDBRANCH   1   7
TORSDOF 6
ENDMDL
