MODEL 1
REMARK VINA RESULT:      -4.1      0.000      0.000
REMARK  6 active torsions:
REMARK  status: ('A' for Active; 'I' for Inactive)
REMARK    1  A    between atoms: C5_5  and  C7_7 
REMARK    2  A    between atoms: C6_6  and  C11_11 
REMARK    3  A    between atoms: C7_7  and  C8_8 
REMARK    4  A    between atoms: C8_8  and  C11_11 
REMARK    5  A    between atoms: C9_9  and  C11_11 
REMARK    6  A    between atoms: C10_10  and  C11_11 
ROOT
HETATM    1  C11 UNL     1     -34.092  16.101  -3.225  1.00 20.00    -0.025 C 
ENDROOT
BRANCH   1   2
HETATM    2  C6  UNL     1     -35.316  15.148  -2.955  1.00 20.00     0.006 C 
HETATM    3  C2  UNL     1     -36.512  15.295  -3.892  1.00 20.00     0.006 C 
ENDBRANCH   1   2
BRANCH   1   4
HETATM    4  C8  UNL     1     -34.502  17.080  -4.380  1.00 20.00     0.011 C 
BRANCH   4   5
HETATM    5  C7  UNL     1     -33.638  17.033  -5.652  1.00 20.00     0.000 C 
BRANCH   5   6
HETATM    6  C5  UNL     1     -34.460  16.565  -6.855  1.00 20.00    -0.005 C 
HETATM    7  C1  UNL     1     -34.393  15.055  -7.022  1.00 20.00     0.005 C 
ENDBRANCH   5   6
ENDBRANCH   4   5
ENDBRANCH   1   4
BRANCH   1   8
HETATM    8  C9  UNL     1     -32.893  15.183  -3.634  1.00 20.00     0.124 C 
HETATM    9 CL12 UNL     1     -33.251  13.442  -3.798  1.00 20.00    -0.130 Cl
ENDBRANCH   1   8
BRANCH   1  10
HETATM   10  C10 UNL     1     -33.743  16.917  -1.904  1.00 20.00    -0.013 C 
HETATM   11  C3  UNL     1     -33.660  18.440  -2.118  1.00 20.00     0.010 C 
HETATM   12  C4  UNL     1     -34.666  16.667  -0.702  1.00 20.00     0.010 C 
ENDBRANCH   1  10
TORSDOF 6
ENDMDL
MODEL 2
REMARK VINA RESULT:      -4.1      1.644      4.416
REMARK  6 active torsions:
REMARK  status: ('A' for Active; 'I' for Inactive)
REMARK    1  A    between atoms: C5_5  and  C7_7 
REMARK    2  A    between atoms: C6_6  and  C11_11 
REMARK    3  A    between atoms: C7_7  and  C8_8 
REMARK    4  A    between atoms: C8_8  and  C11_11 
REMARK    5  A    between atoms: C9_9  and  C11_11 
REMARK    6  A    between atoms: C10_10  and  C11_11 
ROOT
HETATM    1  C11 UNL     1     -34.536  15.375  -5.228  1.00 20.00    -0.025 C 
ENDROOT
BRANCH   1   2
HETATM    2  C6  UNL     1     -34.350  13.880  -4.771  1.00 20.00     0.006 C 
HETATM    3  C2  UNL     1     -33.298  13.623  -3.695  1.00 20.00     0.006 C 
ENDBRANCH   1   2
BRANCH   1   4
HETATM    4  C8  UNL     1     -33.456  16.234  -4.481  1.00 20.00     0.011 C 
BRANCH   4   5
HETATM    5  C7  UNL     1     -33.988  17.304  -3.512  1.00 20.00     0.000 C 
BRANCH   5   6
HETATM    6  C5  UNL     1     -33.595  16.979  -2.069  1.00 20.00    -0.005 C 
HETATM    7  C1  UNL     1     -34.756  16.369  -1.299  1.00 20.00     0.005 C 
ENDBRANCH   5   6
ENDBRANCH   4   5
ENDBRANCH   1   4
BRANCH   1   8
HETATM    8  C9  UNL     1     -35.991  15.787  -4.826  1.00 20.00     0.124 C 
HETATM    9 CL12 UNL     1     -36.882  14.635  -3.794  1.00 20.00    -0.130 Cl
ENDBRANCH   1   8
BRANCH   1  10
HETATM   10  C10 UNL     1     -34.341  15.486  -6.803  1.00 20.00    -0.013 C 
HETATM   11  C3  UNL     1     -35.238  14.530  -7.610  1.00 20.00     0.010 C 
HETATM   12  C4  UNL     1     -34.509  16.892  -7.399  1.00 20.00     0.010 C 
ENDBRANCH   1  10
TORSDOF 6
ENDMDL
MODEL 3
REMARK VINA RESULT:      -4.1      1.842      4.318
REMARK  6 active torsions:
REMARK  status: ('A' for Active; 'I' for Inactive)
REMARK    1  A    between atoms: C5_5  and  C7_7 
REMARK    2  A    between atoms: C6_6  and  C11_11 
REMARK    3  A    between atoms: C7_7  and  C8_8 
REMARK    4  A    between atoms: C8_8  and  C11_11 
REMARK    5  A    between atoms: C9_9  and  C11_11 
REMARK    6  A    between atoms: C10_10  and  C11_11 
ROOT
HETATM    1  C11 UNL     1     -34.272  16.038  -3.564  1.00 20.00    -0.025 C 
ENDROOT
BRANCH   1   2
HETATM    2  C6  UNL     1     -35.610  16.783  -3.933  1.00 20.00     0.006 C 
HETATM    3  C2  UNL     1     -35.530  18.301  -4.064  1.00 20.00     0.006 C 
ENDBRANCH   1   2
BRANCH   1   4
HETATM    4  C8  UNL     1     -33.754  16.643  -2.213  1.00 20.00     0.011 C 
BRANCH   4   5
HETATM    5  C7  UNL     1     -34.676  16.474  -0.993  1.00 20.00     0.000 C 
BRANCH   5   6
HETATM    6  C5  UNL     1     -34.430  17.580   0.037  1.00 20.00    -0.005 C 
HETATM    7  C1  UNL     1     -33.162  18.358  -0.274  1.00 20.00     0.005 C 
ENDBRANCH   5   6
ENDBRANCH   4   5
ENDBRANCH   1   4
BRANCH   1   8
HETATM    8  C9  UNL     1     -33.276  16.300  -4.743  1.00 20.00     0.124 C 
HETATM    9 CL12 UNL     1     -33.917  16.047  -6.389  1.00 20.00    -0.130 Cl
ENDBRANCH   1   8
BRANCH   1  10
HETATM   10  C10 UNL     1     -34.548  14.480  -3.405  1.00 20.00    -0.013 C 
HETATM   11  C3  UNL     1     -35.792  13.987  -4.166  1.00 20.00     0.010 C 
HETATM   12  C4  UNL     1     -33.380  13.554  -3.778  1.00 20.00     0.010 C 
ENDBRANCH   1  10
TORSDOF 6
ENDMDL
MODEL 4
REMARK VINA RESULT:      -4.1      1.794      2.773
REMARK  6 active torsions:
REMARK  status: ('A' for Active; 'I' for Inactive)
REMARK    1  A    between atoms: C5_5  and  C7_7 
REMARK    2  A    between atoms: C6_6  and  C11_11 
REMARK    3  A    between atoms: C7_7  and  C8_8 
REMARK    4  A    between atoms: C8_8  and  C11_11 
REMARK    5  A    between atoms: C9_9  and  C11_11 
REMARK    6  A    between atoms: C10_10  and  C11_11 
ROOT
HETATM    1  C11 UNL     1     -34.289  16.321  -3.189  1.00 20.00    -0.025 C 
ENDROOT
BRANCH   1   2
HETATM    2  C6  UNL     1     -33.213  16.551  -4.315  1.00 20.00     0.006 C 
HETATM    3  C2  UNL     1     -33.634  17.432  -5.489  1.00 20.00     0.006 C 
ENDBRANCH   1   2
BRANCH   1   4
HETATM    4  C8  UNL     1     -34.451  14.773  -3.001  1.00 20.00     0.011 C 
BRANCH   4   5
HETATM    5  C7  UNL     1     -33.784  13.884  -4.065  1.00 20.00     0.000 C 
BRANCH   5   6
HETATM    6  C5  UNL     1     -34.833  13.231  -4.969  1.00 20.00    -0.005 C 
HETATM    7  C1  UNL     1     -35.115  14.080  -6.199  1.00 20.00     0.005 C 
ENDBRANCH   5   6
ENDBRANCH   4   5
ENDBRANCH   1   4
BRANCH   1   8
HETATM    8  C9  UNL     1     -35.611  16.992  -3.690  1.00 20.00     0.124 C 
HETATM    9 CL12 UNL     1     -37.081  15.983  -3.629  1.00 20.00    -0.130 Cl
ENDBRANCH   1   8
BRANCH   1  10
HETATM   10  C10 UNL     1     -33.802  16.996  -1.833  1.00 20.00    -0.013 C 
HETATM   11  C3  UNL     1     -33.606  18.520  -1.931  1.00 20.00     0.010 C 
HETATM   12  C4  UNL     1     -34.676  16.721  -0.599  1.00 20.00     0.010 C 
ENDBRANCH   1  10
TORSDOF 6
ENDMDL
MODEL 5
REMARK VINA RESULT:      -4.0      1.947      3.267
REMARK  6 active torsions:
REMARK  status: ('A' for Active; 'I' for Inactive)
REMARK    1  A    between atoms: C5_5  and  C7_7 
REMARK    2  A    between atoms: C6_6  and  C11_11 
REMARK    3  A    between atoms: C7_7  and  C8_8 
REMARK    4  A    between atoms: C8_8  and  C11_11 
REMARK    5  A    between atoms: C9_9  and  C11_11 
REMARK    6  A    between atoms: C10_10  and  C11_11 
ROOT
HETATM    1  C11 UNL     1     -34.483  16.032  -3.719  1.00 20.00    -0.025 C 
ENDROOT
BRANCH   1   2
HETATM    2  C6  UNL     1     -33.885  16.791  -2.475  1.00 20.00     0.006 C 
HETATM    3  C2  UNL     1     -34.559  16.530  -1.130  1.00 20.00     0.006 C 
ENDBRANCH   1   2
BRANCH   1   4
HETATM    4  C8  UNL     1     -33.525  16.291  -4.933  1.00 20.00     0.011 C 
BRANCH   4   5
HETATM    5  C7  UNL     1     -34.197  16.456  -6.307  1.00 20.00     0.000 C 
BRANCH   5   6
HETATM    6  C5  UNL     1     -34.177  15.139  -7.088  1.00 20.00    -0.005 C 
HETATM    7  C1  UNL     1     -35.556  14.784  -7.618  1.00 20.00     0.005 C 
ENDBRANCH   5   6
ENDBRANCH   4   5
ENDBRANCH   1   4
BRANCH   1   8
HETATM    8  C9  UNL     1     -35.910  16.627  -3.961  1.00 20.00     0.124 C 
HETATM    9 CL12 UNL     1     -36.049  18.404  -3.880  1.00 20.00    -0.130 Cl
ENDBRANCH   1   8
BRANCH   1  10
HETATM   10  C10 UNL     1     -34.575  14.475  -3.406  1.00 20.00    -0.013 C 
HETATM   11  C3  UNL     1     -35.783  13.779  -4.060  1.00 20.00     0.010 C 
HETATM   12  C4  UNL     1     -33.324  13.651  -3.750  1.00 20.00     0.010 C 
ENDBRANCH   1  10
TORSDOF 6
ENDMDL
MODEL 6
REMARK VINA RESULT:      -4.0      1.650      4.475
REMARK  6 active torsions:
REMARK  status: ('A' for Active; 'I' for Inactive)
REMARK    1  A    between atoms: C5_5  and  C7_7 
REMARK    2  A    between atoms: C6_6  and  C11_11 
REMARK    3  A    between atoms: C7_7  and  C8_8 
REMARK    4  A    between atoms: C8_8  and  C11_11 
REMARK    5  A    between atoms: C9_9  and  C11_11 
REMARK    6  A    between atoms: C10_10  and  C11_11 
ROOT
HETATM    1  C11 UNL     1     -34.438  15.671  -4.104  1.00 20.00    -0.025 C 
ENDROOT
BRANCH   1   2
HETATM    2  C6  UNL     1     -34.380  14.097  -4.125  1.00 20.00     0.006 C 
HETATM    3  C2  UNL     1     -33.094  13.457  -3.610  1.00 20.00     0.006 C 
ENDBRANCH   1   2
BRANCH   1   4
HETATM    4  C8  UNL     1     -33.757  16.149  -2.774  1.00 20.00     0.011 C 
BRANCH   4   5
HETATM    5  C7  UNL     1     -34.672  16.259  -1.542  1.00 20.00     0.000 C 
BRANCH   5   6
HETATM    6  C5  UNL     1     -34.184  17.357  -0.594  1.00 20.00    -0.005 C 
HETATM    7  C1  UNL     1     -35.041  17.432   0.660  1.00 20.00     0.005 C 
ENDBRANCH   5   6
ENDBRANCH   4   5
ENDBRANCH   1   4
BRANCH   1   8
HETATM    8  C9  UNL     1     -35.951  16.064  -4.162  1.00 20.00     0.124 C 
HETATM    9 CL12 UNL     1     -37.119  14.758  -3.820  1.00 20.00    -0.130 Cl
ENDBRANCH   1   8
BRANCH   1  10
HETATM   10  C10 UNL     1     -33.662  16.255  -5.365  1.00 20.00    -0.013 C 
HETATM   11  C3  UNL     1     -34.197  15.745  -6.715  1.00 20.00     0.010 C 
HETATM   12  C4  UNL     1     -33.583  17.787  -5.448  1.00 20.00     0.010 C 
ENDBRANCH   1  10
TORSDOF 6
ENDMDL
MODEL 7
REMARK VINA RESULT:      -4.0      1.124      4.262
REMARK  6 active torsions:
REMARK  status: ('A' for Active; 'I' for Inactive)
REMARK    1  A    between atoms: C5_5  and  C7_7 
REMARK    2  A    between atoms: C6_6  and  C11_11 
REMARK    3  A    between atoms: C7_7  and  C8_8 
REMARK    4  A    between atoms: C8_8  and  C11_11 
REMARK    5  A    between atoms: C9_9  and  C11_11 
REMARK    6  A    between atoms: C10_10  and  C11_11 
ROOT
HETATM    1  C11 UNL     1     -34.028  16.059  -4.362  1.00 20.00    -0.025 C 
ENDROOT
BRANCH   1   2
HETATM    2  C6  UNL     1     -33.374  17.231  -5.186  1.00 20.00     0.006 C 
HETATM    3  C2  UNL     1     -33.677  18.649  -4.710  1.00 20.00     0.006 C 
ENDBRANCH   1   2
BRANCH   1   4
HETATM    4  C8  UNL     1     -34.893  16.708  -3.225  1.00 20.00     0.011 C 
BRANCH   4   5
HETATM    5  C7  UNL     1     -34.906  15.972  -1.875  1.00 20.00     0.000 C 
BRANCH   5   6
HETATM    6  C5  UNL     1     -34.676  16.947  -0.717  1.00 20.00    -0.005 C 
HETATM    7  C1  UNL     1     -33.427  17.786  -0.934  1.00 20.00     0.005 C 
ENDBRANCH   5   6
ENDBRANCH   4   5
ENDBRANCH   1   4
BRANCH   1   8
HETATM    8  C9  UNL     1     -32.850  15.206  -3.787  1.00 20.00     0.124 C 
HETATM    9 CL12 UNL     1     -33.109  13.441  -3.728  1.00 20.00    -0.130 Cl
ENDBRANCH   1   8
BRANCH   1  10
HETATM   10  C10 UNL     1     -34.943  15.174  -5.317  1.00 20.00    -0.013 C 
HETATM   11  C3  UNL     1     -36.422  15.602  -5.334  1.00 20.00     0.010 C 
HETATM   12  C4  UNL     1     -34.474  15.066  -6.776  1.00 20.00     0.010 C 
ENDBRANCH   1  10
TORSDOF 6
ENDMDL
MODEL 8
REMARK VINA RESULT:      -4.0      2.046      3.590
REMARK  6 active torsions:
REMARK  status: ('A' for Active; 'I' for Inactive)
REMARK    1  A    between atoms: C5_5  and  C7_7 
REMARK    2  A    between atoms: C6_6  and  C11_11 
REMARK    3  A    between atoms: C7_7  and  C8_8 
REMARK    4  A    between atoms: C8_8  and  C11_11 
REMARK    5  A    between atoms: C9_9  and  C11_11 
REMARK    6  A    between atoms: C10_10  and  C11_11 
ROOT
HETATM    1  C11 UNL     1     -34.680  15.717  -3.293  1.00 20.00    -0.025 C 
ENDROOT
BRANCH   1   2
HETATM    2  C6  UNL     1     -34.775  16.165  -1.786  1.00 20.00     0.006 C 
HETATM    3  C2  UNL     1     -33.748  17.191  -1.316  1.00 20.00     0.006 C 
ENDBRANCH   1   2
BRANCH   1   4
HETATM    4  C8  UNL     1     -33.499  16.515  -3.948  1.00 20.00     0.011 C 
BRANCH   4   5
HETATM    5  C7  UNL     1     -33.598  16.755  -5.464  1.00 20.00     0.000 C 
BRANCH   5   6
HETATM    6  C5  UNL     1     -33.642  18.253  -5.779  1.00 20.00    -0.005 C 
HETATM    7  C1  UNL     1     -33.513  19.092  -4.518  1.00 20.00     0.005 C 
ENDBRANCH   5   6
ENDBRANCH   4   5
ENDBRANCH   1   4
BRANCH   1   8
HETATM    8  C9  UNL     1     -36.057  16.064  -3.950  1.00 20.00     0.124 C 
HETATM    9 CL12 UNL     1     -36.748  17.658  -3.539  1.00 20.00    -0.130 Cl
ENDBRANCH   1   8
BRANCH   1  10
HETATM   10  C10 UNL     1     -34.404  14.152  -3.374  1.00 20.00    -0.013 C 
HETATM   11  C3  UNL     1     -35.230  13.430  -4.454  1.00 20.00     0.010 C 
HETATM   12  C4  UNL     1     -32.936  13.743  -3.562  1.00 20.00     0.010 C 
ENDBRANCH   1  10
TORSDOF 6
ENDMDL
MODEL 9
REMARK VINA RESULT:      -3.9      1.700      4.382
REMARK  6 active torsions:
REMARK  status: ('A' for Active; 'I' for Inactive)
REMARK    1  A    between atoms: C5_5  and  C7_7 
REMARK    2  A    between atoms: C6_6  and  C11_11 
REMARK    3  A    between atoms: C7_7  and  C8_8 
REMARK    4  A    between atoms: C8_8  and  C11_11 
REMARK    5  A    between atoms: C9_9  and  C11_11 
REMARK    6  A    between atoms: C10_10  and  C11_11 
ROOT
HETATM    1  C11 UNL     1     -34.156  16.183  -3.194  1.00 20.00    -0.025 C 
ENDROOT
BRANCH   1   2
HETATM    2  C6  UNL     1     -33.063  15.147  -3.656  1.00 20.00     0.006 C 
HETATM    3  C2  UNL     1     -33.524  13.701  -3.821  1.00 20.00     0.006 C 
ENDBRANCH   1   2
BRANCH   1   4
HETATM    4  C8  UNL     1     -33.702  16.758  -1.807  1.00 20.00     0.011 C 
BRANCH   4   5
HETATM    5  C7  UNL     1     -34.743  16.707  -0.675  1.00 20.00     0.000 C 
BRANCH   5   6
HETATM    6  C5  UNL     1     -34.447  17.766   0.390  1.00 20.00    -0.005 C 
HETATM    7  C1  UNL     1     -33.166  18.523   0.081  1.00 20.00     0.005 C 
ENDBRANCH   5   6
ENDBRANCH   4   5
ENDBRANCH   1   4
BRANCH   1   8
HETATM    8  C9  UNL     1     -35.503  15.395  -3.088  1.00 20.00     0.124 C 
HETATM    9 CL12 UNL     1     -36.908  16.118  -3.917  1.00 20.00    -0.130 Cl
ENDBRANCH   1   8
BRANCH   1  10
HETATM   10  C10 UNL     1     -34.278  17.352  -4.266  1.00 20.00    -0.013 C 
HETATM   11  C3  UNL     1     -33.788  18.719  -3.754  1.00 20.00     0.010 C 
HETATM   12  C4  UNL     1     -33.594  17.092  -5.617  1.00 20.00     0.010 C 
ENDBRANCH   1  10
TORSDOF 6
ENDMDL
