MODEL 1
REMARK VINA RESULT:      -4.0      0.000      0.000
REMARK  4 active torsions:
REMARK  status: ('A' for Active; 'I' for Inactive)
REMARK    1  A    between atoms: C5_5  and  C8_8 
REMARK    2  A    between atoms: C6_6  and  C8_8 
REMARK    3  A    between atoms: C7_7  and  C8_8 
REMARK    4  A    between atoms: C7_7  and  S10_10 
ROOT
HETATM    1  C1  UNL     1     -37.382  14.823  -3.903  1.00 20.00     0.074 C 
HETATM    2  C7  UNL     1     -36.038  15.368  -4.181  1.00 20.00     0.157 C 
HETATM    3  N9  UNL     1     -38.437  14.389  -3.690  1.00 20.00    -0.196 NA
ENDROOT
BRANCH   2   4
HETATM    4  C8  UNL     1     -35.018  14.955  -3.077  1.00 20.00     0.012 C 
BRANCH   4   5
HETATM    5  C5  UNL     1     -34.234  16.167  -2.502  1.00 20.00     0.002 C 
HETATM    6  C2  UNL     1     -34.609  16.510  -1.065  1.00 20.00     0.005 C 
ENDBRANCH   4   5
BRANCH   4   7
HETATM    7  C6  UNL     1     -34.036  13.847  -3.534  1.00 20.00     0.002 C 
HETATM    8  C3  UNL     1     -34.373  13.224  -4.883  1.00 20.00     0.005 C 
ENDBRANCH   4   7
ENDBRANCH   2   4
BRANCH   2   9
HETATM    9  S10 UNL     1     -36.131  17.173  -4.479  1.00 20.00    -0.154 SA
HETATM   10  C4  UNL     1     -35.217  17.213  -6.035  1.00 20.00     0.091 C 
ENDBRANCH   2   9
TORSDOF 4
ENDMDL
MODEL 2
REMARK VINA RESULT:      -4.0      1.912      2.579
REMARK  4 active torsions:
REMARK  status: ('A' for Active; 'I' for Inactive)
REMARK    1  A    between atoms: C5_5  and  C8_8 
REMARK    2  A    between atoms: C6_6  and  C8_8 
REMARK    3  A    between atoms: C7_7  and  C8_8 
REMARK    4  A    between atoms: C7_7  and  S10_10 
ROOT
HETATM    1  C1  UNL     1     -35.027  13.735  -4.413  1.00 20.00     0.074 C 
HETATM    2  C7  UNL     1     -35.311  15.161  -4.154  1.00 20.00     0.157 C 
HETATM    3  N9  UNL     1     -34.800  12.617  -4.623  1.00 20.00    -0.196 NA
ENDROOT
BRANCH   2   4
HETATM    4  C8  UNL     1     -34.242  15.793  -3.212  1.00 20.00     0.012 C 
BRANCH   4   5
HETATM    5  C5  UNL     1     -34.792  16.081  -1.789  1.00 20.00     0.002 C 
HETATM    6  C2  UNL     1     -34.019  17.163  -1.043  1.00 20.00     0.005 C 
ENDBRANCH   4   5
BRANCH   4   7
HETATM    7  C6  UNL     1     -33.581  17.065  -3.802  1.00 20.00     0.002 C 
HETATM    8  C3  UNL     1     -33.485  17.076  -5.322  1.00 20.00     0.005 C 
ENDBRANCH   4   7
ENDBRANCH   2   4
BRANCH   2   9
HETATM    9  S10 UNL     1     -37.037  15.371  -3.577  1.00 20.00    -0.154 SA
HETATM   10  C4  UNL     1     -37.384  16.938  -4.403  1.00 20.00     0.091 C 
ENDBRANCH   2   9
TORSDOF 4
ENDMDL
MODEL 3
REMARK VINA RESULT:      -3.9      2.199      2.997
REMARK  4 active torsions:
REMARK  status: ('A' for Active; 'I' for Inactive)
REMARK    1  A    between atoms: C5_5  and  C8_8 
REMARK    2  A    between atoms: C6_6  and  C8_8 
REMARK    3  A    between atoms: C7_7  and  C8_8 
REMARK    4  A    between atoms: C7_7  and  S10_10 
ROOT
HETATM    1  C1  UNL     1     -33.527  14.327  -3.694  1.00 20.00     0.074 C 
HETATM    2  C7  UNL     1     -33.572  15.799  -3.590  1.00 20.00     0.157 C 
HETATM    3  N9  UNL     1     -33.486  13.169  -3.770  1.00 20.00    -0.196 NA
ENDROOT
BRANCH   2   4
HETATM    4  C8  UNL     1     -34.838  16.276  -2.816  1.00 20.00     0.012 C 
BRANCH   4   5
HETATM    5  C5  UNL     1     -34.610  16.351  -1.282  1.00 20.00     0.002 C 
HETATM    6  C2  UNL     1     -33.773  17.548  -0.846  1.00 20.00     0.005 C 
ENDBRANCH   4   5
BRANCH   4   7
HETATM    7  C6  UNL     1     -36.102  15.438  -3.133  1.00 20.00     0.002 C 
HETATM    8  C3  UNL     1     -37.065  16.095  -4.113  1.00 20.00     0.005 C 
ENDBRANCH   4   7
ENDBRANCH   2   4
BRANCH   2   9
HETATM    9  S10 UNL     1     -33.373  16.561  -5.244  1.00 20.00    -0.154 SA
HETATM   10  C4  UNL     1     -33.679  18.274  -4.766  1.00 20.00     0.091 C 
ENDBRANCH   2   9
TORSDOF 4
ENDMDL
MODEL 4
REMARK VINA RESULT:      -3.9      1.780      2.836
REMARK  4 active torsions:
REMARK  status: ('A' for Active; 'I' for Inactive)
REMARK    1  A    between atoms: C5_5  and  C8_8 
REMARK    2  A    between atoms: C6_6  and  C8_8 
REMARK    3  A    between atoms: C7_7  and  C8_8 
REMARK    4  A    between atoms: C7_7  and  S10_10 
ROOT
HETATM    1  C1  UNL     1     -36.868  14.419  -3.810  1.00 20.00     0.074 C 
HETATM    2  C7  UNL     1     -35.391  14.442  -3.809  1.00 20.00     0.157 C 
HETATM    3  N9  UNL     1     -38.028  14.399  -3.804  1.00 20.00    -0.196 NA
ENDROOT
BRANCH   2   4
HETATM    4  C8  UNL     1     -34.844  15.852  -3.431  1.00 20.00     0.012 C 
BRANCH   4   5
HETATM    5  C5  UNL     1     -33.433  16.125  -4.019  1.00 20.00     0.002 C 
HETATM    6  C2  UNL     1     -33.409  17.239  -5.060  1.00 20.00     0.005 C 
ENDBRANCH   4   5
BRANCH   4   7
HETATM    7  C6  UNL     1     -34.854  16.125  -1.906  1.00 20.00     0.002 C 
HETATM    8  C3  UNL     1     -33.768  17.081  -1.430  1.00 20.00     0.005 C 
ENDBRANCH   4   7
ENDBRANCH   2   4
BRANCH   2   9
HETATM    9  S10 UNL     1     -34.743  13.785  -5.391  1.00 20.00    -0.154 SA
HETATM   10  C4  UNL     1     -35.792  14.743  -6.504  1.00 20.00     0.091 C 
ENDBRANCH   2   9
TORSDOF 4
ENDMDL
MODEL 5
REMARK VINA RESULT:      -3.9      1.963      3.178
REMARK  4 active torsions:
REMARK  status: ('A' for Active; 'I' for Inactive)
REMARK    1  A    between atoms: C5_5  and  C8_8 
REMARK    2  A    between atoms: C6_6  and  C8_8 
REMARK    3  A    between atoms: C7_7  and  C8_8 
REMARK    4  A    between atoms: C7_7  and  S10_10 
ROOT
HETATM    1  C1  UNL     1     -35.200  13.770  -4.497  1.00 20.00     0.074 C 
HETATM    2  C7  UNL     1     -35.716  15.153  -4.455  1.00 20.00     0.157 C 
HETATM    3  N9  UNL     1     -34.792  12.685  -4.538  1.00 20.00    -0.196 NA
ENDROOT
BRANCH   2   4
HETATM    4  C8  UNL     1     -34.733  16.105  -3.709  1.00 20.00     0.012 C 
BRANCH   4   5
HETATM    5  C5  UNL     1     -33.444  16.396  -4.526  1.00 20.00     0.002 C 
HETATM    6  C2  UNL     1     -33.668  17.335  -5.706  1.00 20.00     0.005 C 
ENDBRANCH   4   5
BRANCH   4   7
HETATM    7  C6  UNL     1     -34.368  15.616  -2.284  1.00 20.00     0.002 C 
HETATM    8  C3  UNL     1     -34.623  16.637  -1.184  1.00 20.00     0.005 C 
ENDBRANCH   4   7
ENDBRANCH   2   4
BRANCH   2   9
HETATM    9  S10 UNL     1     -37.425  15.175  -3.795  1.00 20.00    -0.154 SA
HETATM   10  C4  UNL     1     -37.589  16.961  -3.594  1.00 20.00     0.091 C 
ENDBRANCH   2   9
TORSDOF 4
ENDMDL
MODEL 6
REMARK VINA RESULT:      -3.9      1.928      3.349
REMARK  4 active torsions:
REMARK  status: ('A' for Active; 'I' for Inactive)
REMARK    1  A    between atoms: C5_5  and  C8_8 
REMARK    2  A    between atoms: C6_6  and  C8_8 
REMARK    3  A    between atoms: C7_7  and  C8_8 
REMARK    4  A    between atoms: C7_7  and  S10_10 
ROOT
HETATM    1  C1  UNL     1     -34.374  13.851  -3.891  1.00 20.00     0.074 C 
HETATM    2  C7  UNL     1     -33.833  15.155  -3.457  1.00 20.00     0.157 C 
HETATM    3  N9  UNL     1     -34.795  12.823  -4.227  1.00 20.00    -0.196 NA
ENDROOT
BRANCH   2   4
HETATM    4  C8  UNL     1     -34.793  15.864  -2.454  1.00 20.00     0.012 C 
BRANCH   4   5
HETATM    5  C5  UNL     1     -35.911  16.673  -3.165  1.00 20.00     0.002 C 
HETATM    6  C2  UNL     1     -37.168  15.859  -3.449  1.00 20.00     0.005 C 
ENDBRANCH   4   5
BRANCH   4   7
HETATM    7  C6  UNL     1     -34.053  16.757  -1.425  1.00 20.00     0.002 C 
HETATM    8  C3  UNL     1     -34.850  17.056  -0.163  1.00 20.00     0.005 C 
ENDBRANCH   4   7
ENDBRANCH   2   4
BRANCH   2   9
HETATM    9  S10 UNL     1     -33.382  16.173  -4.911  1.00 20.00    -0.154 SA
HETATM   10  C4  UNL     1     -34.358  15.289  -6.144  1.00 20.00     0.091 C 
ENDBRANCH   2   9
TORSDOF 4
ENDMDL
MODEL 7
REMARK VINA RESULT:      -3.9      1.447      2.625
REMARK  4 active torsions:
REMARK  status: ('A' for Active; 'I' for Inactive)
REMARK    1  A    between atoms: C5_5  and  C8_8 
REMARK    2  A    between atoms: C6_6  and  C8_8 
REMARK    3  A    between atoms: C7_7  and  C8_8 
REMARK    4  A    between atoms: C7_7  and  S10_10 
ROOT
HETATM    1  C1  UNL     1     -36.896  14.625  -4.113  1.00 20.00     0.074 C 
HETATM    2  C7  UNL     1     -35.601  15.001  -4.713  1.00 20.00     0.157 C 
HETATM    3  N9  UNL     1     -37.912  14.323  -3.639  1.00 20.00    -0.196 NA
ENDROOT
BRANCH   2   4
HETATM    4  C8  UNL     1     -34.721  15.808  -3.710  1.00 20.00     0.012 C 
BRANCH   4   5
HETATM    5  C5  UNL     1     -33.302  15.202  -3.536  1.00 20.00     0.002 C 
HETATM    6  C2  UNL     1     -33.252  13.693  -3.743  1.00 20.00     0.005 C 
ENDBRANCH   4   5
BRANCH   4   7
HETATM    7  C6  UNL     1     -35.395  16.009  -2.329  1.00 20.00     0.002 C 
HETATM    8  C3  UNL     1     -34.465  16.543  -1.247  1.00 20.00     0.005 C 
ENDBRANCH   4   7
ENDBRANCH   2   4
BRANCH   2   9
HETATM    9  S10 UNL     1     -35.863  15.837  -6.321  1.00 20.00    -0.154 SA
HETATM   10  C4  UNL     1     -35.277  14.505  -7.390  1.00 20.00     0.091 C 
ENDBRANCH   2   9
TORSDOF 4
ENDMDL
MODEL 8
REMARK VINA RESULT:      -3.8      1.782      2.996
REMARK  4 active torsions:
REMARK  status: ('A' for Active; 'I' for Inactive)
REMARK    1  A    between atoms: C5_5  and  C8_8 
REMARK    2  A    between atoms: C6_6  and  C8_8 
REMARK    3  A    between atoms: C7_7  and  C8_8 
REMARK    4  A    between atoms: C7_7  and  S10_10 
ROOT
HETATM    1  C1  UNL     1     -37.013  14.907  -4.233  1.00 20.00     0.074 C 
HETATM    2  C7  UNL     1     -35.901  15.648  -4.859  1.00 20.00     0.157 C 
HETATM    3  N9  UNL     1     -37.892  14.325  -3.747  1.00 20.00    -0.196 NA
ENDROOT
BRANCH   2   4
HETATM    4  C8  UNL     1     -34.840  14.679  -5.464  1.00 20.00     0.012 C 
BRANCH   4   5
HETATM    5  C5  UNL     1     -35.191  14.231  -6.908  1.00 20.00     0.002 C 
HETATM    6  C2  UNL     1     -35.200  15.373  -7.917  1.00 20.00     0.005 C 
ENDBRANCH   4   5
BRANCH   4   7
HETATM    7  C6  UNL     1     -34.558  13.445  -4.570  1.00 20.00     0.002 C 
HETATM    8  C3  UNL     1     -33.329  13.579  -3.681  1.00 20.00     0.005 C 
ENDBRANCH   4   7
ENDBRANCH   2   4
BRANCH   2   9
HETATM    9  S10 UNL     1     -35.214  16.876  -3.687  1.00 20.00    -0.154 SA
HETATM   10  C4  UNL     1     -33.693  17.251  -4.584  1.00 20.00     0.091 C 
ENDBRANCH   2   9
TORSDOF 4
ENDMDL
MODEL 9
REMARK VINA RESULT:      -3.7      1.971      2.736
REMARK  4 active torsions:
REMARK  status: ('A' for Active; 'I' for Inactive)
REMARK    1  A    between atoms: C5_5  and  C8_8 
REMARK    2  A    between atoms: C6_6  and  C8_8 
REMARK    3  A    between atoms: C7_7  and  C8_8 
REMARK    4  A    between atoms: C7_7  and  S10_10 
ROOT
HETATM    1  C1  UNL     1     -34.430  13.765  -4.829  1.00 20.00     0.074 C 
HETATM    2  C7  UNL     1     -34.040  15.181  -4.982  1.00 20.00     0.157 C 
HETATM    3  N9  UNL     1     -34.730  12.651  -4.705  1.00 20.00    -0.196 NA
ENDROOT
BRANCH   2   4
HETATM    4  C8  UNL     1     -34.669  16.069  -3.865  1.00 20.00     0.012 C 
BRANCH   4   5
HETATM    5  C5  UNL     1     -33.790  16.136  -2.587  1.00 20.00     0.002 C 
HETATM    6  C2  UNL     1     -34.585  16.388  -1.312  1.00 20.00     0.005 C 
ENDBRANCH   4   5
BRANCH   4   7
HETATM    7  C6  UNL     1     -36.119  15.659  -3.502  1.00 20.00     0.002 C 
HETATM    8  C3  UNL     1     -37.177  16.687  -3.880  1.00 20.00     0.005 C 
ENDBRANCH   4   7
ENDBRANCH   2   4
BRANCH   2   9
HETATM    9  S10 UNL     1     -34.390  15.758  -6.685  1.00 20.00    -0.154 SA
HETATM   10  C4  UNL     1     -34.314  17.533  -6.365  1.00 20.00     0.091 C 
ENDBRANCH   2   9
TORSDOF 4
ENDMDL
