MODEL 1
REMARK VINA RESULT:      -4.3      0.000      0.000
REMARK  5 active torsions:
REMARK  status: ('A' for Active; 'I' for Inactive)
REMARK    1  A    between atoms: C5_5  and  C7_7 
REMARK    2  A    between atoms: C6_6  and  C9_9 
REMARK    3  A    between atoms: C7_7  and  C10_10 
REMARK    4  A    between atoms: C8_8  and  C10_10 
REMARK    5  A    between atoms: C9_9  and  C10_10 
ROOT
HETATM    1  C4  UNL     1     -32.633  14.579  -3.586  1.00 20.00     0.016 C 
HETATM    2  C10 UNL     1     -33.773  15.622  -3.699  1.00 20.00    -0.028 C 
ENDROOT
BRANCH   2   3
HETATM    3  C7  UNL     1     -33.676  16.541  -2.434  1.00 20.00     0.010 C 
BRANCH   3   4
HETATM    4  C5  UNL     1     -34.774  16.341  -1.382  1.00 20.00    -0.004 C 
HETATM    5  C1  UNL     1     -34.554  17.248  -0.179  1.00 20.00     0.005 C 
ENDBRANCH   3   4
ENDBRANCH   2   3
BRANCH   2   6
HETATM    6  C8  UNL     1     -35.140  14.869  -3.729  1.00 20.00     0.124 C 
HETATM    7 CL11 UNL     1     -35.039  13.146  -4.196  1.00 20.00    -0.130 Cl
ENDBRANCH   2   6
BRANCH   2   8
HETATM    8  C9  UNL     1     -33.624  16.462  -5.045  1.00 20.00    -0.010 C 
HETATM    9  C3  UNL     1     -33.544  17.983  -4.810  1.00 20.00     0.011 C 
BRANCH   8  10
HETATM   10  C6  UNL     1     -34.732  16.159  -6.090  1.00 20.00     0.000 C 
HETATM   11  C2  UNL     1     -34.298  15.198  -7.193  1.00 20.00     0.005 C 
ENDBRANCH   8  10
ENDBRANCH   2   8
TORSDOF 5
ENDMDL
MODEL 2
REMARK VINA RESULT:      -4.3      1.884      4.504
REMARK  5 active torsions:
REMARK  status: ('A' for Active; 'I' for Inactive)
REMARK    1  A    between atoms: C5_5  and  C7_7 
REMARK    2  A    between atoms: C6_6  and  C9_9 
REMARK    3  A    between atoms: C7_7  and  C10_10 
REMARK    4  A    between atoms: C8_8  and  C10_10 
REMARK    5  A    between atoms: C9_9  and  C10_10 
ROOT
HETATM    1  C4  UNL     1     -34.038  13.670  -3.692  1.00 20.00     0.016 C 
HETATM    2  C10 UNL     1     -34.432  15.148  -3.937  1.00 20.00    -0.028 C 
ENDROOT
BRANCH   2   3
HETATM    3  C7  UNL     1     -35.412  15.161  -5.160  1.00 20.00     0.010 C 
BRANCH   3   4
HETATM    4  C5  UNL     1     -35.067  14.189  -6.296  1.00 20.00    -0.004 C 
HETATM    5  C1  UNL     1     -34.686  14.941  -7.564  1.00 20.00     0.005 C 
ENDBRANCH   3   4
ENDBRANCH   2   3
BRANCH   2   6
HETATM    6  C8  UNL     1     -33.140  15.964  -4.257  1.00 20.00     0.124 C 
HETATM    7 CL11 UNL     1     -33.411  17.470  -5.181  1.00 20.00    -0.130 Cl
ENDBRANCH   2   6
BRANCH   2   8
HETATM    8  C9  UNL     1     -35.114  15.764  -2.635  1.00 20.00    -0.010 C 
HETATM    9  C3  UNL     1     -36.313  16.680  -2.949  1.00 20.00     0.011 C 
BRANCH   8  10
HETATM   10  C6  UNL     1     -34.118  16.514  -1.710  1.00 20.00     0.000 C 
HETATM   11  C2  UNL     1     -34.719  16.954  -0.378  1.00 20.00     0.005 C 
ENDBRANCH   8  10
ENDBRANCH   2   8
TORSDOF 5
ENDMDL
MODEL 3
REMARK VINA RESULT:      -4.2      1.787      2.730
REMARK  5 active torsions:
REMARK  status: ('A' for Active; 'I' for Inactive)
REMARK    1  A    between atoms: C5_5  and  C7_7 
REMARK    2  A    between atoms: C6_6  and  C9_9 
REMARK    3  A    between atoms: C7_7  and  C10_10 
REMARK    4  A    between atoms: C8_8  and  C10_10 
REMARK    5  A    between atoms: C9_9  and  C10_10 
ROOT
HETATM    1  C4  UNL     1     -35.716  16.831  -3.786  1.00 20.00     0.016 C 
HETATM    2  C10 UNL     1     -34.300  16.323  -3.419  1.00 20.00    -0.028 C 
ENDROOT
BRANCH   2   3
HETATM    3  C7  UNL     1     -33.890  17.041  -2.087  1.00 20.00     0.010 C 
BRANCH   3   4
HETATM    4  C5  UNL     1     -34.633  16.577  -0.827  1.00 20.00    -0.004 C 
HETATM    5  C1  UNL     1     -34.549  17.623   0.275  1.00 20.00     0.005 C 
ENDBRANCH   3   4
ENDBRANCH   2   3
BRANCH   2   6
HETATM    6  C8  UNL     1     -33.317  16.699  -4.573  1.00 20.00     0.124 C 
HETATM    7 CL11 UNL     1     -34.038  16.683  -6.209  1.00 20.00    -0.130 Cl
ENDBRANCH   2   6
BRANCH   2   8
HETATM    8  C9  UNL     1     -34.305  14.738  -3.250  1.00 20.00    -0.010 C 
HETATM    9  C3  UNL     1     -32.942  14.087  -3.556  1.00 20.00     0.011 C 
BRANCH   8  10
HETATM   10  C6  UNL     1     -35.412  14.031  -4.077  1.00 20.00     0.000 C 
HETATM   11  C2  UNL     1     -34.891  13.281  -5.299  1.00 20.00     0.005 C 
ENDBRANCH   8  10
ENDBRANCH   2   8
TORSDOF 5
ENDMDL
MODEL 4
REMARK VINA RESULT:      -4.2      1.499      2.393
REMARK  5 active torsions:
REMARK  status: ('A' for Active; 'I' for Inactive)
REMARK    1  A    between atoms: C5_5  and  C7_7 
REMARK    2  A    between atoms: C6_6  and  C9_9 
REMARK    3  A    between atoms: C7_7  and  C10_10 
REMARK    4  A    between atoms: C8_8  and  C10_10 
REMARK    5  A    between atoms: C9_9  and  C10_10 
ROOT
HETATM    1  C4  UNL     1     -34.642  13.260  -4.634  1.00 20.00     0.016 C 
HETATM    2  C10 UNL     1     -34.956  14.734  -4.278  1.00 20.00    -0.028 C 
ENDROOT
BRANCH   2   3
HETATM    3  C7  UNL     1     -34.114  15.084  -3.003  1.00 20.00     0.010 C 
BRANCH   3   4
HETATM    4  C5  UNL     1     -34.812  15.981  -1.973  1.00 20.00    -0.004 C 
HETATM    5  C1  UNL     1     -33.868  17.058  -1.455  1.00 20.00     0.005 C 
ENDBRANCH   3   4
ENDBRANCH   2   3
BRANCH   2   6
HETATM    6  C8  UNL     1     -36.484  14.863  -3.982  1.00 20.00     0.124 C 
HETATM    7 CL11 UNL     1     -37.279  16.276  -4.734  1.00 20.00    -0.130 Cl
ENDBRANCH   2   6
BRANCH   2   8
HETATM    8  C9  UNL     1     -34.592  15.690  -5.499  1.00 20.00    -0.010 C 
HETATM    9  C3  UNL     1     -34.470  14.945  -6.843  1.00 20.00     0.011 C 
BRANCH   8  10
HETATM   10  C6  UNL     1     -33.314  16.540  -5.261  1.00 20.00     0.000 C 
HETATM   11  C2  UNL     1     -33.568  18.043  -5.207  1.00 20.00     0.005 C 
ENDBRANCH   8  10
ENDBRANCH   2   8
TORSDOF 5
ENDMDL
MODEL 5
REMARK VINA RESULT:      -4.2      2.052      2.880
REMARK  5 active torsions:
REMARK  status: ('A' for Active; 'I' for Inactive)
REMARK    1  A    between atoms: C5_5  and  C7_7 
REMARK    2  A    between atoms: C6_6  and  C9_9 
REMARK    3  A    between atoms: C7_7  and  C10_10 
REMARK    4  A    between atoms: C8_8  and  C10_10 
REMARK    5  A    between atoms: C9_9  and  C10_10 
ROOT
HETATM    1  C4  UNL     1     -35.698  17.009  -4.378  1.00 20.00     0.016 C 
HETATM    2  C10 UNL     1     -34.593  15.923  -4.358  1.00 20.00    -0.028 C 
ENDROOT
BRANCH   2   3
HETATM    3  C7  UNL     1     -34.369  15.530  -2.858  1.00 20.00     0.010 C 
BRANCH   3   4
HETATM    4  C5  UNL     1     -33.864  16.655  -1.945  1.00 20.00    -0.004 C 
HETATM    5  C1  UNL     1     -34.665  16.712  -0.651  1.00 20.00     0.005 C 
ENDBRANCH   3   4
ENDBRANCH   2   3
BRANCH   2   6
HETATM    6  C8  UNL     1     -33.289  16.524  -4.971  1.00 20.00     0.124 C 
HETATM    7 CL11 UNL     1     -33.473  18.156  -5.678  1.00 20.00    -0.130 Cl
ENDBRANCH   2   6
BRANCH   2   8
HETATM    8  C9  UNL     1     -35.034  14.666  -5.232  1.00 20.00    -0.010 C 
HETATM    9  C3  UNL     1     -34.633  13.316  -4.607  1.00 20.00     0.011 C 
BRANCH   8  10
HETATM   10  C6  UNL     1     -34.532  14.726  -6.700  1.00 20.00     0.000 C 
HETATM   11  C2  UNL     1     -35.636  14.561  -7.741  1.00 20.00     0.005 C 
ENDBRANCH   8  10
ENDBRANCH   2   8
TORSDOF 5
ENDMDL
MODEL 6
REMARK VINA RESULT:      -4.0      1.318      2.389
REMARK  5 active torsions:
REMARK  status: ('A' for Active; 'I' for Inactive)
REMARK    1  A    between atoms: C5_5  and  C7_7 
REMARK    2  A    between atoms: C6_6  and  C9_9 
REMARK    3  A    between atoms: C7_7  and  C10_10 
REMARK    4  A    between atoms: C8_8  and  C10_10 
REMARK    5  A    between atoms: C9_9  and  C10_10 
ROOT
HETATM    1  C4  UNL     1     -33.400  17.184  -5.227  1.00 20.00     0.016 C 
HETATM    2  C10 UNL     1     -33.997  16.104  -4.289  1.00 20.00    -0.028 C 
ENDROOT
BRANCH   2   3
HETATM    3  C7  UNL     1     -34.741  16.864  -3.138  1.00 20.00     0.010 C 
BRANCH   3   4
HETATM    4  C5  UNL     1     -34.740  16.164  -1.772  1.00 20.00    -0.004 C 
HETATM    5  C1  UNL     1     -34.277  17.111  -0.673  1.00 20.00     0.005 C 
ENDBRANCH   3   4
ENDBRANCH   2   3
BRANCH   2   6
HETATM    6  C8  UNL     1     -32.830  15.240  -3.715  1.00 20.00     0.124 C 
HETATM    7 CL11 UNL     1     -33.147  13.481  -3.676  1.00 20.00    -0.130 Cl
ENDBRANCH   2   6
BRANCH   2   8
HETATM    8  C9  UNL     1     -34.986  15.153  -5.097  1.00 20.00    -0.010 C 
HETATM    9  C3  UNL     1     -34.619  15.013  -6.587  1.00 20.00     0.011 C 
BRANCH   8  10
HETATM   10  C6  UNL     1     -36.479  15.560  -4.969  1.00 20.00     0.000 C 
HETATM   11  C2  UNL     1     -37.304  14.627  -4.088  1.00 20.00     0.005 C 
ENDBRANCH   8  10
ENDBRANCH   2   8
TORSDOF 5
ENDMDL
MODEL 7
REMARK VINA RESULT:      -4.0      2.050      3.931
REMARK  5 active torsions:
REMARK  status: ('A' for Active; 'I' for Inactive)
REMARK    1  A    between atoms: C5_5  and  C7_7 
REMARK    2  A    between atoms: C6_6  and  C9_9 
REMARK    3  A    between atoms: C7_7  and  C10_10 
REMARK    4  A    between atoms: C8_8  and  C10_10 
REMARK    5  A    between atoms: C9_9  and  C10_10 
ROOT
HETATM    1  C4  UNL     1     -33.009  15.124  -3.562  1.00 20.00     0.016 C 
HETATM    2  C10 UNL     1     -34.493  15.560  -3.470  1.00 20.00    -0.028 C 
ENDROOT
BRANCH   2   3
HETATM    3  C7  UNL     1     -34.676  16.762  -4.459  1.00 20.00     0.010 C 
BRANCH   3   4
HETATM    4  C5  UNL     1     -33.676  16.824  -5.620  1.00 20.00    -0.004 C 
HETATM    5  C1  UNL     1     -34.294  16.289  -6.905  1.00 20.00     0.005 C 
ENDBRANCH   3   4
ENDBRANCH   2   3
BRANCH   2   6
HETATM    6  C8  UNL     1     -34.795  16.002  -2.003  1.00 20.00     0.124 C 
HETATM    7 CL11 UNL     1     -33.634  17.175  -1.317  1.00 20.00    -0.130 Cl
ENDBRANCH   2   6
BRANCH   2   8
HETATM    8  C9  UNL     1     -35.453  14.344  -3.844  1.00 20.00    -0.010 C 
HETATM    9  C3  UNL     1     -34.748  13.234  -4.647  1.00 20.00     0.011 C 
BRANCH   8  10
HETATM   10  C6  UNL     1     -36.744  14.781  -4.589  1.00 20.00     0.000 C 
HETATM   11  C2  UNL     1     -37.964  14.924  -3.684  1.00 20.00     0.005 C 
ENDBRANCH   8  10
ENDBRANCH   2   8
TORSDOF 5
ENDMDL
MODEL 8
REMARK VINA RESULT:      -4.0      1.987      3.219
REMARK  5 active torsions:
REMARK  status: ('A' for Active; 'I' for Inactive)
REMARK    1  A    between atoms: C5_5  and  C7_7 
REMARK    2  A    between atoms: C6_6  and  C9_9 
REMARK    3  A    between atoms: C7_7  and  C10_10 
REMARK    4  A    between atoms: C8_8  and  C10_10 
REMARK    5  A    between atoms: C9_9  and  C10_10 
ROOT
HETATM    1  C4  UNL     1     -35.727  16.043  -2.937  1.00 20.00     0.016 C 
HETATM    2  C10 UNL     1     -34.227  16.385  -3.110  1.00 20.00    -0.028 C 
ENDROOT
BRANCH   2   3
HETATM    3  C7  UNL     1     -33.487  15.041  -3.428  1.00 20.00     0.010 C 
BRANCH   3   4
HETATM    4  C5  UNL     1     -34.378  13.793  -3.497  1.00 20.00    -0.004 C 
HETATM    5  C1  UNL     1     -34.464  13.260  -4.921  1.00 20.00     0.005 C 
ENDBRANCH   3   4
ENDBRANCH   2   3
BRANCH   2   6
HETATM    6  C8  UNL     1     -33.697  17.005  -1.778  1.00 20.00     0.124 C 
HETATM    7 CL11 UNL     1     -34.746  16.736  -0.355  1.00 20.00    -0.130 Cl
ENDBRANCH   2   6
BRANCH   2   8
HETATM    8  C9  UNL     1     -34.032  17.450  -4.280  1.00 20.00    -0.010 C 
HETATM    9  C3  UNL     1     -35.317  18.229  -4.617  1.00 20.00     0.011 C 
BRANCH   8  10
HETATM   10  C6  UNL     1     -33.441  16.840  -5.580  1.00 20.00     0.000 C 
HETATM   11  C2  UNL     1     -34.465  16.639  -6.693  1.00 20.00     0.005 C 
ENDBRANCH   8  10
ENDBRANCH   2   8
TORSDOF 5
ENDMDL
MODEL 9
REMARK VINA RESULT:      -4.0      1.194      4.270
REMARK  5 active torsions:
REMARK  status: ('A' for Active; 'I' for Inactive)
REMARK    1  A    between atoms: C5_5  and  C7_7 
REMARK    2  A    between atoms: C6_6  and  C9_9 
REMARK    3  A    between atoms: C7_7  and  C10_10 
REMARK    4  A    between atoms: C8_8  and  C10_10 
REMARK    5  A    between atoms: C9_9  and  C10_10 
ROOT
HETATM    1  C4  UNL     1     -35.728  14.313  -3.809  1.00 20.00     0.016 C 
HETATM    2  C10 UNL     1     -34.895  15.618  -3.753  1.00 20.00    -0.028 C 
ENDROOT
BRANCH   2   3
HETATM    3  C7  UNL     1     -35.110  16.354  -5.120  1.00 20.00     0.010 C 
BRANCH   3   4
HETATM    4  C5  UNL     1     -34.023  16.122  -6.177  1.00 20.00    -0.004 C 
HETATM    5  C1  UNL     1     -34.447  15.053  -7.175  1.00 20.00     0.005 C 
ENDBRANCH   3   4
ENDBRANCH   2   3
BRANCH   2   6
HETATM    6  C8  UNL     1     -33.391  15.244  -3.560  1.00 20.00     0.124 C 
HETATM    7 CL11 UNL     1     -33.031  13.496  -3.661  1.00 20.00    -0.130 Cl
ENDBRANCH   2   6
BRANCH   2   8
HETATM    8  C9  UNL     1     -35.358  16.520  -2.524  1.00 20.00    -0.010 C 
HETATM    9  C3  UNL     1     -35.732  17.958  -2.929  1.00 20.00     0.011 C 
BRANCH   8  10
HETATM   10  C6  UNL     1     -34.327  16.561  -1.363  1.00 20.00     0.000 C 
HETATM   11  C2  UNL     1     -34.875  17.153  -0.068  1.00 20.00     0.005 C 
ENDBRANCH   8  10
ENDBRANCH   2   8
TORSDOF 5
ENDMDL
