MODEL 1
REMARK VINA RESULT:      -4.2      0.000      0.000
REMARK  5 active torsions:
REMARK  status: ('A' for Active; 'I' for Inactive)
REMARK    1  A    between atoms: C1_1  and  C7_7 
REMARK    2  A    between atoms: C1_1  and  C11_11 
REMARK    3  A    between atoms: C7_7  and  C10_10 
REMARK    4  A    between atoms: C8_8  and  C10_10 
REMARK    5  A    between atoms: C9_9  and  C10_10 
ROOT
HETATM    1  C1  UNL     1     -36.528  15.099  -4.189  1.00 20.00     0.134 C 
HETATM    2  O12 UNL     1     -36.990  14.018  -3.818  1.00 20.00    -0.297 OA
ENDROOT
BRANCH   1   3
HETATM    3  C7  UNL     1     -36.044  16.135  -3.174  1.00 20.00     0.083 C 
BRANCH   3   4
HETATM    4  C10 UNL     1     -34.798  15.687  -2.382  1.00 20.00    -0.008 C 
BRANCH   4   5
HETATM    5  C8  UNL     1     -34.680  16.480  -1.060  1.00 20.00     0.000 C 
HETATM    6  C2  UNL     1     -33.616  17.569  -1.049  1.00 20.00     0.005 C 
ENDBRANCH   4   5
BRANCH   4   7
HETATM    7  C9  UNL     1     -33.538  15.773  -3.272  1.00 20.00     0.000 C 
HETATM    8  C3  UNL     1     -32.937  14.417  -3.615  1.00 20.00     0.005 C 
ENDBRANCH   4   7
ENDBRANCH   3   4
ENDBRANCH   1   3
BRANCH   1   9
HETATM    9  C11 UNL     1     -36.427  15.456  -5.687  1.00 20.00     0.009 C 
HETATM   10  C4  UNL     1     -37.821  15.356  -6.319  1.00 20.00     0.022 C 
HETATM   11  C5  UNL     1     -35.917  16.901  -5.837  1.00 20.00     0.022 C 
HETATM   12  C6  UNL     1     -35.447  14.518  -6.403  1.00 20.00     0.022 C 
ENDBRANCH   1   9
TORSDOF 5
ENDMDL
MODEL 2
REMARK VINA RESULT:      -4.2      2.237      2.736
REMARK  5 active torsions:
REMARK  status: ('A' for Active; 'I' for Inactive)
REMARK    1  A    between atoms: C1_1  and  C7_7 
REMARK    2  A    between atoms: C1_1  and  C11_11 
REMARK    3  A    between atoms: C7_7  and  C10_10 
REMARK    4  A    between atoms: C8_8  and  C10_10 
REMARK    5  A    between atoms: C9_9  and  C10_10 
ROOT
HETATM    1  C1  UNL     1     -33.719  17.337  -5.498  1.00 20.00     0.134 C 
HETATM    2  O12 UNL     1     -33.378  18.520  -5.419  1.00 20.00    -0.297 OA
ENDROOT
BRANCH   1   3
HETATM    3  C7  UNL     1     -33.238  16.313  -4.471  1.00 20.00     0.083 C 
BRANCH   3   4
HETATM    4  C10 UNL     1     -34.237  16.079  -3.318  1.00 20.00    -0.008 C 
BRANCH   4   5
HETATM    5  C8  UNL     1     -33.714  16.712  -2.009  1.00 20.00     0.000 C 
HETATM    6  C2  UNL     1     -34.675  16.650  -0.829  1.00 20.00     0.005 C 
ENDBRANCH   4   5
BRANCH   4   7
HETATM    7  C9  UNL     1     -34.566  14.575  -3.192  1.00 20.00     0.000 C 
HETATM    8  C3  UNL     1     -33.527  13.664  -3.832  1.00 20.00     0.005 C 
ENDBRANCH   4   7
ENDBRANCH   3   4
ENDBRANCH   1   3
BRANCH   1   9
HETATM    9  C11 UNL     1     -34.634  16.842  -6.638  1.00 20.00     0.009 C 
HETATM   10  C4  UNL     1     -36.095  16.933  -6.181  1.00 20.00     0.022 C 
HETATM   11  C5  UNL     1     -34.444  17.738  -7.875  1.00 20.00     0.022 C 
HETATM   12  C6  UNL     1     -34.284  15.400  -7.025  1.00 20.00     0.022 C 
ENDBRANCH   1   9
TORSDOF 5
ENDMDL
MODEL 3
REMARK VINA RESULT:      -4.2      2.252      2.999
REMARK  5 active torsions:
REMARK  status: ('A' for Active; 'I' for Inactive)
REMARK    1  A    between atoms: C1_1  and  C7_7 
REMARK    2  A    between atoms: C1_1  and  C11_11 
REMARK    3  A    between atoms: C7_7  and  C10_10 
REMARK    4  A    between atoms: C8_8  and  C10_10 
REMARK    5  A    between atoms: C9_9  and  C10_10 
ROOT
HETATM    1  C1  UNL     1     -33.745  17.225  -5.579  1.00 20.00     0.134 C 
HETATM    2  O12 UNL     1     -33.480  18.416  -5.399  1.00 20.00    -0.297 OA
ENDROOT
BRANCH   1   3
HETATM    3  C7  UNL     1     -33.158  16.145  -4.670  1.00 20.00     0.083 C 
BRANCH   3   4
HETATM    4  C10 UNL     1     -34.092  15.739  -3.511  1.00 20.00    -0.008 C 
BRANCH   4   5
HETATM    5  C8  UNL     1     -33.681  16.454  -2.205  1.00 20.00     0.000 C 
HETATM    6  C2  UNL     1     -34.749  16.488  -1.120  1.00 20.00     0.005 C 
ENDBRANCH   4   5
BRANCH   4   7
HETATM    7  C9  UNL     1     -34.152  14.201  -3.385  1.00 20.00     0.000 C 
HETATM    8  C3  UNL     1     -35.299  13.566  -4.160  1.00 20.00     0.005 C 
ENDBRANCH   4   7
ENDBRANCH   3   4
ENDBRANCH   1   3
BRANCH   1   9
HETATM    9  C11 UNL     1     -34.667  16.775  -6.732  1.00 20.00     0.009 C 
HETATM   10  C4  UNL     1     -34.268  15.359  -7.166  1.00 20.00     0.022 C 
HETATM   11  C5  UNL     1     -36.126  16.753  -6.243  1.00 20.00     0.022 C 
HETATM   12  C6  UNL     1     -34.567  17.745  -7.916  1.00 20.00     0.022 C 
ENDBRANCH   1   9
TORSDOF 5
ENDMDL
MODEL 4
REMARK VINA RESULT:      -4.1      1.917      2.768
REMARK  5 active torsions:
REMARK  status: ('A' for Active; 'I' for Inactive)
REMARK    1  A    between atoms: C1_1  and  C7_7 
REMARK    2  A    between atoms: C1_1  and  C11_11 
REMARK    3  A    between atoms: C7_7  and  C10_10 
REMARK    4  A    between atoms: C8_8  and  C10_10 
REMARK    5  A    between atoms: C9_9  and  C10_10 
ROOT
HETATM    1  C1  UNL     1     -33.933  15.124  -3.561  1.00 20.00     0.134 C 
HETATM    2  O12 UNL     1     -32.707  14.993  -3.520  1.00 20.00    -0.297 OA
ENDROOT
BRANCH   1   3
HETATM    3  C7  UNL     1     -34.706  15.647  -2.351  1.00 20.00     0.083 C 
BRANCH   3   4
HETATM    4  C10 UNL     1     -34.003  16.814  -1.626  1.00 20.00    -0.008 C 
BRANCH   4   5
HETATM    5  C8  UNL     1     -34.670  17.086  -0.259  1.00 20.00     0.000 C 
HETATM    6  C2  UNL     1     -34.015  18.177   0.578  1.00 20.00     0.005 C 
ENDBRANCH   4   5
BRANCH   4   7
HETATM    7  C9  UNL     1     -33.941  18.055  -2.543  1.00 20.00     0.000 C 
HETATM    8  C3  UNL     1     -35.305  18.524  -3.032  1.00 20.00     0.005 C 
ENDBRANCH   4   7
ENDBRANCH   3   4
ENDBRANCH   1   3
BRANCH   1   9
HETATM    9  C11 UNL     1     -34.735  14.758  -4.828  1.00 20.00     0.009 C 
HETATM   10  C4  UNL     1     -34.669  13.241  -5.039  1.00 20.00     0.022 C 
HETATM   11  C5  UNL     1     -36.207  15.170  -4.638  1.00 20.00     0.022 C 
HETATM   12  C6  UNL     1     -34.179  15.494  -6.053  1.00 20.00     0.022 C 
ENDBRANCH   1   9
TORSDOF 5
ENDMDL
MODEL 5
REMARK VINA RESULT:      -4.1      1.989      3.238
REMARK  5 active torsions:
REMARK  status: ('A' for Active; 'I' for Inactive)
REMARK    1  A    between atoms: C1_1  and  C7_7 
REMARK    2  A    between atoms: C1_1  and  C11_11 
REMARK    3  A    between atoms: C7_7  and  C10_10 
REMARK    4  A    between atoms: C8_8  and  C10_10 
REMARK    5  A    between atoms: C9_9  and  C10_10 
ROOT
HETATM    1  C1  UNL     1     -34.137  16.833  -5.263  1.00 20.00     0.134 C 
HETATM    2  O12 UNL     1     -32.946  17.142  -5.353  1.00 20.00    -0.297 OA
ENDROOT
BRANCH   1   3
HETATM    3  C7  UNL     1     -34.856  16.866  -3.915  1.00 20.00     0.083 C 
BRANCH   3   4
HETATM    4  C10 UNL     1     -34.264  15.891  -2.875  1.00 20.00    -0.008 C 
BRANCH   4   5
HETATM    5  C8  UNL     1     -34.585  14.429  -3.257  1.00 20.00     0.000 C 
HETATM    6  C2  UNL     1     -33.400  13.613  -3.755  1.00 20.00     0.005 C 
ENDBRANCH   4   5
BRANCH   4   7
HETATM    7  C9  UNL     1     -34.728  16.278  -1.454  1.00 20.00     0.000 C 
HETATM    8  C3  UNL     1     -33.913  17.401  -0.828  1.00 20.00     0.005 C 
ENDBRANCH   4   7
ENDBRANCH   3   4
ENDBRANCH   1   3
BRANCH   1   9
HETATM    9  C11 UNL     1     -34.946  16.393  -6.502  1.00 20.00     0.009 C 
HETATM   10  C4  UNL     1     -34.821  17.469  -7.588  1.00 20.00     0.022 C 
HETATM   11  C5  UNL     1     -34.373  15.071  -7.045  1.00 20.00     0.022 C 
HETATM   12  C6  UNL     1     -36.418  16.170  -6.136  1.00 20.00     0.022 C 
ENDBRANCH   1   9
TORSDOF 5
ENDMDL
MODEL 6
REMARK VINA RESULT:      -4.1      1.908      2.985
REMARK  5 active torsions:
REMARK  status: ('A' for Active; 'I' for Inactive)
REMARK    1  A    between atoms: C1_1  and  C7_7 
REMARK    2  A    between atoms: C1_1  and  C11_11 
REMARK    3  A    between atoms: C7_7  and  C10_10 
REMARK    4  A    between atoms: C8_8  and  C10_10 
REMARK    5  A    between atoms: C9_9  and  C10_10 
ROOT
HETATM    1  C1  UNL     1     -33.862  15.519  -4.185  1.00 20.00     0.134 C 
HETATM    2  O12 UNL     1     -32.849  16.123  -4.546  1.00 20.00    -0.297 OA
ENDROOT
BRANCH   1   3
HETATM    3  C7  UNL     1     -34.291  15.516  -2.718  1.00 20.00     0.083 C 
BRANCH   3   4
HETATM    4  C10 UNL     1     -34.292  16.917  -2.072  1.00 20.00    -0.008 C 
BRANCH   4   5
HETATM    5  C8  UNL     1     -34.594  16.819  -0.560  1.00 20.00     0.000 C 
HETATM    6  C2  UNL     1     -34.072  17.975   0.283  1.00 20.00     0.005 C 
ENDBRANCH   4   5
BRANCH   4   7
HETATM    7  C9  UNL     1     -35.250  17.858  -2.836  1.00 20.00     0.000 C 
HETATM    8  C3  UNL     1     -36.706  17.730  -2.407  1.00 20.00     0.005 C 
ENDBRANCH   4   7
ENDBRANCH   3   4
ENDBRANCH   1   3
BRANCH   1   9
HETATM    9  C11 UNL     1     -34.730  14.736  -5.192  1.00 20.00     0.009 C 
HETATM   10  C4  UNL     1     -34.286  15.092  -6.617  1.00 20.00     0.022 C 
HETATM   11  C5  UNL     1     -34.533  13.225  -4.973  1.00 20.00     0.022 C 
HETATM   12  C6  UNL     1     -36.215  15.065  -4.997  1.00 20.00     0.022 C 
ENDBRANCH   1   9
TORSDOF 5
ENDMDL
MODEL 7
REMARK VINA RESULT:      -3.9      1.742      3.378
REMARK  5 active torsions:
REMARK  status: ('A' for Active; 'I' for Inactive)
REMARK    1  A    between atoms: C1_1  and  C7_7 
REMARK    2  A    between atoms: C1_1  and  C11_11 
REMARK    3  A    between atoms: C7_7  and  C10_10 
REMARK    4  A    between atoms: C8_8  and  C10_10 
REMARK    5  A    between atoms: C9_9  and  C10_10 
ROOT
HETATM    1  C1  UNL     1     -35.250  15.493  -3.083  1.00 20.00     0.134 C 
HETATM    2  O12 UNL     1     -36.453  15.700  -3.256  1.00 20.00    -0.297 OA
ENDROOT
BRANCH   1   3
HETATM    3  C7  UNL     1     -34.547  15.973  -1.812  1.00 20.00     0.083 C 
BRANCH   3   4
HETATM    4  C10 UNL     1     -34.571  17.506  -1.635  1.00 20.00    -0.008 C 
BRANCH   4   5
HETATM    5  C8  UNL     1     -33.761  18.196  -2.756  1.00 20.00     0.000 C 
HETATM    6  C2  UNL     1     -34.567  19.104  -3.674  1.00 20.00     0.005 C 
ENDBRANCH   4   5
BRANCH   4   7
HETATM    7  C9  UNL     1     -34.110  17.887  -0.211  1.00 20.00     0.000 C 
HETATM    8  C3  UNL     1     -35.109  17.517   0.876  1.00 20.00     0.005 C 
ENDBRANCH   4   7
ENDBRANCH   3   4
ENDBRANCH   1   3
BRANCH   1   9
HETATM    9  C11 UNL     1     -34.403  14.754  -4.140  1.00 20.00     0.009 C 
HETATM   10  C4  UNL     1     -32.958  14.648  -3.637  1.00 20.00     0.022 C 
HETATM   11  C5  UNL     1     -34.963  13.335  -4.345  1.00 20.00     0.022 C 
HETATM   12  C6  UNL     1     -34.449  15.492  -5.484  1.00 20.00     0.022 C 
ENDBRANCH   1   9
TORSDOF 5
ENDMDL
MODEL 8
REMARK VINA RESULT:      -3.8      1.296      2.491
REMARK  5 active torsions:
REMARK  status: ('A' for Active; 'I' for Inactive)
REMARK    1  A    between atoms: C1_1  and  C7_7 
REMARK    2  A    between atoms: C1_1  and  C11_11 
REMARK    3  A    between atoms: C7_7  and  C10_10 
REMARK    4  A    between atoms: C8_8  and  C10_10 
REMARK    5  A    between atoms: C9_9  and  C10_10 
ROOT
HETATM    1  C1  UNL     1     -37.278  15.180  -3.967  1.00 20.00     0.134 C 
HETATM    2  O12 UNL     1     -37.888  14.119  -3.811  1.00 20.00    -0.297 OA
ENDROOT
BRANCH   1   3
HETATM    3  C7  UNL     1     -36.205  15.620  -2.971  1.00 20.00     0.083 C 
BRANCH   3   4
HETATM    4  C10 UNL     1     -34.765  15.353  -3.457  1.00 20.00    -0.008 C 
BRANCH   4   5
HETATM    5  C8  UNL     1     -34.478  13.835  -3.499  1.00 20.00     0.000 C 
HETATM    6  C2  UNL     1     -34.433  13.221  -4.892  1.00 20.00     0.005 C 
ENDBRANCH   4   5
BRANCH   4   7
HETATM    7  C9  UNL     1     -33.755  16.152  -2.604  1.00 20.00     0.000 C 
HETATM    8  C3  UNL     1     -34.336  16.676  -1.298  1.00 20.00     0.005 C 
ENDBRANCH   4   7
ENDBRANCH   3   4
ENDBRANCH   1   3
BRANCH   1   9
HETATM    9  C11 UNL     1     -37.578  16.108  -5.163  1.00 20.00     0.009 C 
HETATM   10  C4  UNL     1     -39.089  16.113  -5.424  1.00 20.00     0.022 C 
HETATM   11  C5  UNL     1     -37.128  17.541  -4.824  1.00 20.00     0.022 C 
HETATM   12  C6  UNL     1     -36.820  15.644  -6.412  1.00 20.00     0.022 C 
ENDBRANCH   1   9
TORSDOF 5
ENDMDL
MODEL 9
REMARK VINA RESULT:      -3.8      1.600      3.969
REMARK  5 active torsions:
REMARK  status: ('A' for Active; 'I' for Inactive)
REMARK    1  A    between atoms: C1_1  and  C7_7 
REMARK    2  A    between atoms: C1_1  and  C11_11 
REMARK    3  A    between atoms: C7_7  and  C10_10 
REMARK    4  A    between atoms: C8_8  and  C10_10 
REMARK    5  A    between atoms: C9_9  and  C10_10 
ROOT
HETATM    1  C1  UNL     1     -35.884  16.473  -3.386  1.00 20.00     0.134 C 
HETATM    2  O12 UNL     1     -37.080  16.246  -3.192  1.00 20.00    -0.297 OA
ENDROOT
BRANCH   1   3
HETATM    3  C7  UNL     1     -35.177  15.943  -4.634  1.00 20.00     0.083 C 
BRANCH   3   4
HETATM    4  C10 UNL     1     -35.558  14.490  -4.988  1.00 20.00    -0.008 C 
BRANCH   4   5
HETATM    5  C8  UNL     1     -34.841  13.495  -4.048  1.00 20.00     0.000 C 
HETATM    6  C2  UNL     1     -33.379  13.810  -3.762  1.00 20.00     0.005 C 
ENDBRANCH   4   5
BRANCH   4   7
HETATM    7  C9  UNL     1     -35.303  14.220  -6.487  1.00 20.00     0.000 C 
HETATM    8  C3  UNL     1     -34.330  15.200  -7.130  1.00 20.00     0.005 C 
ENDBRANCH   4   7
ENDBRANCH   3   4
ENDBRANCH   1   3
BRANCH   1   9
HETATM    9  C11 UNL     1     -35.049  17.290  -2.377  1.00 20.00     0.009 C 
HETATM   10  C4  UNL     1     -33.796  17.823  -3.082  1.00 20.00     0.022 C 
HETATM   11  C5  UNL     1     -35.880  18.483  -1.871  1.00 20.00     0.022 C 
HETATM   12  C6  UNL     1     -34.658  16.425  -1.172  1.00 20.00     0.022 C 
ENDBRANCH   1   9
TORSDOF 5
ENDMDL
