MODEL 1
REMARK VINA RESULT:      -4.6      0.000      0.000
REMARK  3 active torsions:
REMARK  status: ('A' for Active; 'I' for Inactive)
REMARK    1  A    between atoms: C4_4  and  C10_10 
REMARK    2  A    between atoms: C8_8  and  C10_10 
REMARK    3  A    between atoms: C9_9  and  C10_10 
ROOT
HETATM    1  C1  UNL     1     -34.184  14.359  -3.403  1.00 20.00     0.006 C 
HETATM    2  C2  UNL     1     -34.357  13.810  -4.811  1.00 20.00     0.020 C 
HETATM    3  C3  UNL     1     -33.592  16.079  -5.045  1.00 20.00     0.025 C 
HETATM    4  C4  UNL     1     -33.343  15.626  -3.595  1.00 20.00    -0.009 C 
HETATM    5  C5  UNL     1     -34.595  15.078  -5.616  1.00 20.00     0.082 C 
HETATM    6 CL11 UNL     1     -34.387  14.822  -7.354  1.00 20.00    -0.125 Cl
ENDROOT
BRANCH   4   7
HETATM    7  C10 UNL     1     -33.671  16.703  -2.571  1.00 20.00    -0.011 C 
BRANCH   7   8
HETATM    8  C8  UNL     1     -34.757  16.233  -1.582  1.00 20.00     0.000 C 
HETATM    9  C6  UNL     1     -34.740  16.973  -0.251  1.00 20.00     0.005 C 
ENDBRANCH   7   8
BRANCH   7  10
HETATM   10  C9  UNL     1     -34.138  18.007  -3.249  1.00 20.00     0.000 C 
HETATM   11  C7  UNL     1     -33.443  19.257  -2.725  1.00 20.00     0.005 C 
ENDBRANCH   7  10
ENDBRANCH   4   7
TORSDOF 3
ENDMDL
MODEL 2
REMARK VINA RESULT:      -4.3      1.325      2.018
REMARK  3 active torsions:
REMARK  status: ('A' for Active; 'I' for Inactive)
REMARK    1  A    between atoms: C4_4  and  C10_10 
REMARK    2  A    between atoms: C8_8  and  C10_10 
REMARK    3  A    between atoms: C9_9  and  C10_10 
ROOT
HETATM    1  C1  UNL     1     -34.828  13.731  -3.718  1.00 20.00     0.006 C 
HETATM    2  C2  UNL     1     -34.606  13.413  -5.189  1.00 20.00     0.020 C 
HETATM    3  C3  UNL     1     -34.401  15.799  -4.961  1.00 20.00     0.025 C 
HETATM    4  C4  UNL     1     -34.308  15.164  -3.562  1.00 20.00    -0.009 C 
HETATM    5  C5  UNL     1     -35.005  14.720  -5.857  1.00 20.00     0.082 C 
HETATM    6 CL11 UNL     1     -34.435  14.824  -7.528  1.00 20.00    -0.125 Cl
ENDROOT
BRANCH   4   7
HETATM    7  C10 UNL     1     -35.071  15.947  -2.502  1.00 20.00    -0.011 C 
BRANCH   7   8
HETATM    8  C8  UNL     1     -36.003  17.000  -3.136  1.00 20.00     0.000 C 
HETATM    9  C6  UNL     1     -37.459  16.563  -3.221  1.00 20.00     0.005 C 
ENDBRANCH   7   8
BRANCH   7  10
HETATM   10  C9  UNL     1     -34.114  16.649  -1.517  1.00 20.00     0.000 C 
HETATM   11  C7  UNL     1     -34.772  17.060  -0.207  1.00 20.00     0.005 C 
ENDBRANCH   7  10
ENDBRANCH   4   7
TORSDOF 3
ENDMDL
MODEL 3
REMARK VINA RESULT:      -4.3      1.729      3.040
REMARK  3 active torsions:
REMARK  status: ('A' for Active; 'I' for Inactive)
REMARK    1  A    between atoms: C4_4  and  C10_10 
REMARK    2  A    between atoms: C8_8  and  C10_10 
REMARK    3  A    between atoms: C9_9  and  C10_10 
ROOT
HETATM    1  C1  UNL     1     -33.381  16.648  -5.548  1.00 20.00     0.006 C 
HETATM    2  C2  UNL     1     -34.410  17.103  -6.572  1.00 20.00     0.020 C 
HETATM    3  C3  UNL     1     -35.504  17.150  -4.430  1.00 20.00     0.025 C 
HETATM    4  C4  UNL     1     -33.984  17.065  -4.201  1.00 20.00    -0.009 C 
HETATM    5  C5  UNL     1     -35.718  16.742  -5.886  1.00 20.00     0.082 C 
HETATM    6 CL11 UNL     1     -37.109  17.550  -6.622  1.00 20.00    -0.125 Cl
ENDROOT
BRANCH   4   7
HETATM    7  C10 UNL     1     -33.605  16.114  -3.075  1.00 20.00    -0.011 C 
BRANCH   7   8
HETATM    8  C8  UNL     1     -33.168  14.738  -3.618  1.00 20.00     0.000 C 
HETATM    9  C6  UNL     1     -34.278  13.694  -3.619  1.00 20.00     0.005 C 
ENDBRANCH   7   8
BRANCH   7  10
HETATM   10  C9  UNL     1     -34.769  15.916  -2.082  1.00 20.00     0.000 C 
HETATM   11  C7  UNL     1     -34.600  16.680  -0.776  1.00 20.00     0.005 C 
ENDBRANCH   7  10
ENDBRANCH   4   7
TORSDOF 3
ENDMDL
MODEL 4
REMARK VINA RESULT:      -4.3      2.613      4.805
REMARK  3 active torsions:
REMARK  status: ('A' for Active; 'I' for Inactive)
REMARK    1  A    between atoms: C4_4  and  C10_10 
REMARK    2  A    between atoms: C8_8  and  C10_10 
REMARK    3  A    between atoms: C9_9  and  C10_10 
ROOT
HETATM    1  C1  UNL     1     -35.413  17.145  -3.993  1.00 20.00     0.006 C 
HETATM    2  C2  UNL     1     -35.653  17.642  -2.576  1.00 20.00     0.020 C 
HETATM    3  C3  UNL     1     -33.745  16.179  -2.480  1.00 20.00     0.025 C 
HETATM    4  C4  UNL     1     -33.998  16.557  -3.950  1.00 20.00    -0.009 C 
HETATM    5  C5  UNL     1     -35.037  16.528  -1.743  1.00 20.00     0.082 C 
HETATM    6 CL11 UNL     1     -34.755  17.017  -0.067  1.00 20.00    -0.125 Cl
ENDROOT
BRANCH   4   7
HETATM    7  C10 UNL     1     -33.826  15.384  -4.904  1.00 20.00    -0.011 C 
BRANCH   7   8
HETATM    8  C8  UNL     1     -34.951  15.341  -5.959  1.00 20.00     0.000 C 
HETATM    9  C6  UNL     1     -34.463  15.036  -7.369  1.00 20.00     0.005 C 
ENDBRANCH   7   8
BRANCH   7  10
HETATM   10  C9  UNL     1     -33.792  14.039  -4.149  1.00 20.00     0.000 C 
HETATM   11  C7  UNL     1     -35.087  13.244  -4.250  1.00 20.00     0.005 C 
ENDBRANCH   7  10
ENDBRANCH   4   7
TORSDOF 3
ENDMDL
MODEL 5
REMARK VINA RESULT:      -4.2      2.972      4.743
REMARK  3 active torsions:
REMARK  status: ('A' for Active; 'I' for Inactive)
REMARK    1  A    between atoms: C4_4  and  C10_10 
REMARK    2  A    between atoms: C8_8  and  C10_10 
REMARK    3  A    between atoms: C9_9  and  C10_10 
ROOT
HETATM    1  C1  UNL     1     -33.655  18.276  -2.170  1.00 20.00     0.006 C 
HETATM    2  C2  UNL     1     -33.936  18.653  -0.724  1.00 20.00     0.020 C 
HETATM    3  C3  UNL     1     -34.676  16.380  -0.998  1.00 20.00     0.025 C 
HETATM    4  C4  UNL     1     -33.769  16.747  -2.187  1.00 20.00    -0.009 C 
HETATM    5  C5  UNL     1     -35.078  17.713  -0.369  1.00 20.00     0.082 C 
HETATM    6 CL11 UNL     1     -35.334  17.592   1.377  1.00 20.00    -0.125 Cl
ENDROOT
BRANCH   4   7
HETATM    7  C10 UNL     1     -34.287  16.218  -3.516  1.00 20.00    -0.011 C 
BRANCH   7   8
HETATM    8  C8  UNL     1     -34.641  14.718  -3.431  1.00 20.00     0.000 C 
HETATM    9  C6  UNL     1     -33.479  13.791  -3.764  1.00 20.00     0.005 C 
ENDBRANCH   7   8
BRANCH   7  10
HETATM   10  C9  UNL     1     -33.263  16.429  -4.650  1.00 20.00     0.000 C 
HETATM   11  C7  UNL     1     -33.754  17.352  -5.758  1.00 20.00     0.005 C 
ENDBRANCH   7  10
ENDBRANCH   4   7
TORSDOF 3
ENDMDL
MODEL 6
REMARK VINA RESULT:      -4.2      2.597      4.549
REMARK  3 active torsions:
REMARK  status: ('A' for Active; 'I' for Inactive)
REMARK    1  A    between atoms: C4_4  and  C10_10 
REMARK    2  A    between atoms: C8_8  and  C10_10 
REMARK    3  A    between atoms: C9_9  and  C10_10 
ROOT
HETATM    1  C1  UNL     1     -34.050  16.677  -1.384  1.00 20.00     0.006 C 
HETATM    2  C2  UNL     1     -35.239  17.462  -0.852  1.00 20.00     0.020 C 
HETATM    3  C3  UNL     1     -35.987  16.352  -2.852  1.00 20.00     0.025 C 
HETATM    4  C4  UNL     1     -34.667  15.704  -2.396  1.00 20.00    -0.009 C 
HETATM    5  C5  UNL     1     -36.058  17.688  -2.114  1.00 20.00     0.082 C 
HETATM    6 CL11 UNL     1     -37.719  18.183  -1.760  1.00 20.00    -0.125 Cl
ENDROOT
BRANCH   4   7
HETATM    7  C10 UNL     1     -33.727  15.394  -3.552  1.00 20.00    -0.011 C 
BRANCH   7   8
HETATM    8  C8  UNL     1     -34.207  16.046  -4.865  1.00 20.00     0.000 C 
HETATM    9  C6  UNL     1     -33.398  17.269  -5.278  1.00 20.00     0.005 C 
ENDBRANCH   7   8
BRANCH   7  10
HETATM   10  C9  UNL     1     -33.577  13.874  -3.770  1.00 20.00     0.000 C 
HETATM   11  C7  UNL     1     -34.703  13.256  -4.588  1.00 20.00     0.005 C 
ENDBRANCH   7  10
ENDBRANCH   4   7
TORSDOF 3
ENDMDL
MODEL 7
REMARK VINA RESULT:      -4.2      2.212      3.870
REMARK  3 active torsions:
REMARK  status: ('A' for Active; 'I' for Inactive)
REMARK    1  A    between atoms: C4_4  and  C10_10 
REMARK    2  A    between atoms: C8_8  and  C10_10 
REMARK    3  A    between atoms: C9_9  and  C10_10 
ROOT
HETATM    1  C1  UNL     1     -34.493  16.392  -1.260  1.00 20.00     0.006 C 
HETATM    2  C2  UNL     1     -34.283  16.213  -2.756  1.00 20.00     0.020 C 
HETATM    3  C3  UNL     1     -33.520  18.429  -2.214  1.00 20.00     0.025 C 
HETATM    4  C4  UNL     1     -33.651  17.624  -0.908  1.00 20.00    -0.009 C 
HETATM    5  C5  UNL     1     -34.323  17.650  -3.253  1.00 20.00     0.082 C 
HETATM    6 CL11 UNL     1     -33.665  17.815  -4.887  1.00 20.00    -0.125 Cl
ENDROOT
BRANCH   4   7
HETATM    7  C10 UNL     1     -34.253  18.433   0.232  1.00 20.00    -0.011 C 
BRANCH   7   8
HETATM    8  C8  UNL     1     -33.219  18.700   1.345  1.00 20.00     0.000 C 
HETATM    9  C6  UNL     1     -31.824  19.024   0.827  1.00 20.00     0.005 C 
ENDBRANCH   7   8
BRANCH   7  10
HETATM   10  C9  UNL     1     -35.480  17.726   0.843  1.00 20.00     0.000 C 
HETATM   11  C7  UNL     1     -35.414  17.579   2.358  1.00 20.00     0.005 C 
ENDBRANCH   7  10
ENDBRANCH   4   7
TORSDOF 3
ENDMDL
MODEL 8
REMARK VINA RESULT:      -4.1      1.731      3.207
REMARK  3 active torsions:
REMARK  status: ('A' for Active; 'I' for Inactive)
REMARK    1  A    between atoms: C4_4  and  C10_10 
REMARK    2  A    between atoms: C8_8  and  C10_10 
REMARK    3  A    between atoms: C9_9  and  C10_10 
ROOT
HETATM    1  C1  UNL     1     -33.763  17.804  -3.693  1.00 20.00     0.006 C 
HETATM    2  C2  UNL     1     -33.509  16.501  -4.437  1.00 20.00     0.020 C 
HETATM    3  C3  UNL     1     -34.410  15.903  -2.287  1.00 20.00     0.025 C 
HETATM    4  C4  UNL     1     -34.677  17.400  -2.530  1.00 20.00    -0.009 C 
HETATM    5  C5  UNL     1     -33.327  15.516  -3.293  1.00 20.00     0.082 C 
HETATM    6 CL11 UNL     1     -33.460  13.835  -3.824  1.00 20.00    -0.125 Cl
ENDROOT
BRANCH   4   7
HETATM    7  C10 UNL     1     -34.452  18.253  -1.291  1.00 20.00    -0.011 C 
BRANCH   7   8
HETATM    8  C8  UNL     1     -33.152  19.076  -1.397  1.00 20.00     0.000 C 
HETATM    9  C6  UNL     1     -32.314  19.072  -0.125  1.00 20.00     0.005 C 
ENDBRANCH   7   8
BRANCH   7  10
HETATM   10  C9  UNL     1     -34.400  17.393  -0.011  1.00 20.00     0.000 C 
HETATM   11  C7  UNL     1     -35.516  17.695   0.980  1.00 20.00     0.005 C 
ENDBRANCH   7  10
ENDBRANCH   4   7
TORSDOF 3
ENDMDL
MODEL 9
REMARK VINA RESULT:      -4.1      1.813      2.719
REMARK  3 active torsions:
REMARK  status: ('A' for Active; 'I' for Inactive)
REMARK    1  A    between atoms: C4_4  and  C10_10 
REMARK    2  A    between atoms: C8_8  and  C10_10 
REMARK    3  A    between atoms: C9_9  and  C10_10 
ROOT
HETATM    1  C1  UNL     1     -35.917  17.093  -2.312  1.00 20.00     0.006 C 
HETATM    2  C2  UNL     1     -35.739  16.686  -3.767  1.00 20.00     0.020 C 
HETATM    3  C3  UNL     1     -33.657  16.208  -2.659  1.00 20.00     0.025 C 
HETATM    4  C4  UNL     1     -34.743  16.421  -1.589  1.00 20.00    -0.009 C 
HETATM    5  C5  UNL     1     -34.233  16.800  -3.944  1.00 20.00     0.082 C 
HETATM    6 CL11 UNL     1     -33.661  15.965  -5.395  1.00 20.00    -0.125 Cl
ENDROOT
BRANCH   4   7
HETATM    7  C10 UNL     1     -34.253  17.231  -0.398  1.00 20.00    -0.011 C 
BRANCH   7   8
HETATM    8  C8  UNL     1     -35.428  17.823   0.408  1.00 20.00     0.000 C 
HETATM    9  C6  UNL     1     -35.360  17.532   1.901  1.00 20.00     0.005 C 
ENDBRANCH   7   8
BRANCH   7  10
HETATM   10  C9  UNL     1     -33.316  18.375  -0.836  1.00 20.00     0.000 C 
HETATM   11  C7  UNL     1     -32.300  18.779   0.224  1.00 20.00     0.005 C 
ENDBRANCH   7  10
ENDBRANCH   4   7
TORSDOF 3
ENDMDL
