MODEL 1
REMARK VINA RESULT:      -4.2      0.000      0.000
REMARK  4 active torsions:
REMARK  status: ('A' for Active; 'I' for Inactive)
REMARK    1  A    between atoms: C1_1  and  C9_9 
REMARK    2  A    between atoms: C1_1  and  C10_10 
REMARK    3  A    between atoms: C7_7  and  C9_9 
REMARK    4  A    between atoms: C8_8  and  C9_9 
ROOT
HETATM    1  C1  UNL     1     -33.755  16.140  -4.868  1.00 20.00     0.138 C 
HETATM    2  O11 UNL     1     -32.527  16.242  -4.958  1.00 20.00    -0.297 OA
ENDROOT
BRANCH   1   3
HETATM    3  C9  UNL     1     -34.387  15.628  -3.566  1.00 20.00     0.055 C 
BRANCH   3   4
HETATM    4  C7  UNL     1     -34.130  14.112  -3.476  1.00 20.00     0.007 C 
HETATM    5  C2  UNL     1     -35.150  13.284  -4.244  1.00 20.00     0.006 C 
ENDBRANCH   3   4
BRANCH   3   6
HETATM    6  C8  UNL     1     -33.805  16.374  -2.350  1.00 20.00     0.007 C 
HETATM    7  C3  UNL     1     -34.768  16.442  -1.172  1.00 20.00     0.006 C 
ENDBRANCH   3   6
ENDBRANCH   1   3
BRANCH   1   8
HETATM    8  C10 UNL     1     -34.679  16.507  -6.053  1.00 20.00     0.010 C 
HETATM    9  C4  UNL     1     -34.563  15.464  -7.172  1.00 20.00     0.022 C 
HETATM   10  C5  UNL     1     -36.132  16.608  -5.571  1.00 20.00     0.022 C 
HETATM   11  C6  UNL     1     -34.258  17.875  -6.622  1.00 20.00     0.022 C 
ENDBRANCH   1   8
TORSDOF 4
ENDMDL
MODEL 2
REMARK VINA RESULT:      -4.0      1.338      2.957
REMARK  4 active torsions:
REMARK  status: ('A' for Active; 'I' for Inactive)
REMARK    1  A    between atoms: C1_1  and  C9_9 
REMARK    2  A    between atoms: C1_1  and  C10_10 
REMARK    3  A    between atoms: C7_7  and  C9_9 
REMARK    4  A    between atoms: C8_8  and  C9_9 
ROOT
HETATM    1  C1  UNL     1     -33.937  15.433  -3.980  1.00 20.00     0.138 C 
HETATM    2  O11 UNL     1     -32.768  15.106  -3.754  1.00 20.00    -0.297 OA
ENDROOT
BRANCH   1   3
HETATM    3  C9  UNL     1     -34.580  16.576  -3.182  1.00 20.00     0.055 C 
BRANCH   3   4
HETATM    4  C7  UNL     1     -34.668  16.137  -1.708  1.00 20.00     0.007 C 
HETATM    5  C2  UNL     1     -34.194  17.205  -0.734  1.00 20.00     0.006 C 
ENDBRANCH   3   4
BRANCH   3   6
HETATM    6  C8  UNL     1     -33.763  17.873  -3.338  1.00 20.00     0.007 C 
HETATM    7  C3  UNL     1     -33.673  18.353  -4.781  1.00 20.00     0.006 C 
ENDBRANCH   3   6
ENDBRANCH   1   3
BRANCH   1   8
HETATM    8  C10 UNL     1     -34.782  14.702  -5.050  1.00 20.00     0.010 C 
HETATM    9  C4  UNL     1     -34.301  15.064  -6.460  1.00 20.00     0.022 C 
HETATM   10  C5  UNL     1     -34.701  13.185  -4.834  1.00 20.00     0.022 C 
HETATM   11  C6  UNL     1     -36.255  15.133  -4.916  1.00 20.00     0.022 C 
ENDBRANCH   1   8
TORSDOF 4
ENDMDL
MODEL 3
REMARK VINA RESULT:      -4.0      1.883      3.384
REMARK  4 active torsions:
REMARK  status: ('A' for Active; 'I' for Inactive)
REMARK    1  A    between atoms: C1_1  and  C9_9 
REMARK    2  A    between atoms: C1_1  and  C10_10 
REMARK    3  A    between atoms: C7_7  and  C9_9 
REMARK    4  A    between atoms: C8_8  and  C9_9 
ROOT
HETATM    1  C1  UNL     1     -35.013  15.575  -3.172  1.00 20.00     0.138 C 
HETATM    2  O11 UNL     1     -36.228  15.402  -3.036  1.00 20.00    -0.297 OA
ENDROOT
BRANCH   1   3
HETATM    3  C9  UNL     1     -34.304  16.677  -2.371  1.00 20.00     0.055 C 
BRANCH   3   4
HETATM    4  C7  UNL     1     -34.733  18.038  -2.951  1.00 20.00     0.007 C 
HETATM    5  C2  UNL     1     -33.710  18.631  -3.909  1.00 20.00     0.006 C 
ENDBRANCH   3   4
BRANCH   3   6
HETATM    6  C8  UNL     1     -34.647  16.566  -0.873  1.00 20.00     0.007 C 
HETATM    7  C3  UNL     1     -34.141  17.746  -0.054  1.00 20.00     0.006 C 
ENDBRANCH   3   6
ENDBRANCH   1   3
BRANCH   1   8
HETATM    8  C10 UNL     1     -34.183  14.710  -4.149  1.00 20.00     0.010 C 
HETATM    9  C4  UNL     1     -34.715  13.272  -4.183  1.00 20.00     0.022 C 
HETATM   10  C5  UNL     1     -34.222  15.324  -5.554  1.00 20.00     0.022 C 
HETATM   11  C6  UNL     1     -32.718  14.672  -3.675  1.00 20.00     0.022 C 
ENDBRANCH   1   8
TORSDOF 4
ENDMDL
MODEL 4
REMARK VINA RESULT:      -3.9      1.640      2.186
REMARK  4 active torsions:
REMARK  status: ('A' for Active; 'I' for Inactive)
REMARK    1  A    between atoms: C1_1  and  C9_9 
REMARK    2  A    between atoms: C1_1  and  C10_10 
REMARK    3  A    between atoms: C7_7  and  C9_9 
REMARK    4  A    between atoms: C8_8  and  C9_9 
ROOT
HETATM    1  C1  UNL     1     -35.237  16.009  -4.429  1.00 20.00     0.138 C 
HETATM    2  O11 UNL     1     -34.490  16.599  -5.215  1.00 20.00    -0.297 OA
ENDROOT
BRANCH   1   3
HETATM    3  C9  UNL     1     -34.645  15.258  -3.228  1.00 20.00     0.055 C 
BRANCH   3   4
HETATM    4  C7  UNL     1     -33.704  14.164  -3.767  1.00 20.00     0.007 C 
HETATM    5  C2  UNL     1     -34.402  13.172  -4.686  1.00 20.00     0.006 C 
ENDBRANCH   3   4
BRANCH   3   6
HETATM    6  C8  UNL     1     -33.905  16.230  -2.290  1.00 20.00     0.007 C 
HETATM    7  C3  UNL     1     -34.684  16.548  -1.021  1.00 20.00     0.006 C 
ENDBRANCH   3   6
ENDBRANCH   1   3
BRANCH   1   8
HETATM    8  C10 UNL     1     -36.770  15.997  -4.635  1.00 20.00     0.010 C 
HETATM    9  C4  UNL     1     -37.441  15.029  -3.652  1.00 20.00     0.022 C 
HETATM   10  C5  UNL     1     -37.334  17.412  -4.454  1.00 20.00     0.022 C 
HETATM   11  C6  UNL     1     -37.087  15.527  -6.068  1.00 20.00     0.022 C 
ENDBRANCH   1   8
TORSDOF 4
ENDMDL
MODEL 5
REMARK VINA RESULT:      -3.9      0.931      4.158
REMARK  4 active torsions:
REMARK  status: ('A' for Active; 'I' for Inactive)
REMARK    1  A    between atoms: C1_1  and  C9_9 
REMARK    2  A    between atoms: C1_1  and  C10_10 
REMARK    3  A    between atoms: C7_7  and  C9_9 
REMARK    4  A    between atoms: C8_8  and  C9_9 
ROOT
HETATM    1  C1  UNL     1     -33.914  15.878  -4.817  1.00 20.00     0.138 C 
HETATM    2  O11 UNL     1     -32.740  16.242  -4.703  1.00 20.00    -0.297 OA
ENDROOT
BRANCH   1   3
HETATM    3  C9  UNL     1     -34.683  16.166  -6.114  1.00 20.00     0.055 C 
BRANCH   3   4
HETATM    4  C7  UNL     1     -34.318  17.589  -6.578  1.00 20.00     0.007 C 
HETATM    5  C2  UNL     1     -35.037  18.678  -5.795  1.00 20.00     0.006 C 
ENDBRANCH   3   4
BRANCH   3   6
HETATM    6  C8  UNL     1     -34.345  15.116  -7.190  1.00 20.00     0.007 C 
HETATM    7  C3  UNL     1     -35.580  14.460  -7.795  1.00 20.00     0.006 C 
ENDBRANCH   3   6
ENDBRANCH   1   3
BRANCH   1   8
HETATM    8  C10 UNL     1     -34.641  15.143  -3.666  1.00 20.00     0.010 C 
HETATM    9  C4  UNL     1     -34.192  13.678  -3.591  1.00 20.00     0.022 C 
HETATM   10  C5  UNL     1     -34.363  15.851  -2.334  1.00 20.00     0.022 C 
HETATM   11  C6  UNL     1     -36.159  15.170  -3.924  1.00 20.00     0.022 C 
ENDBRANCH   1   8
TORSDOF 4
ENDMDL
MODEL 6
REMARK VINA RESULT:      -3.9      0.901      4.250
REMARK  4 active torsions:
REMARK  status: ('A' for Active; 'I' for Inactive)
REMARK    1  A    between atoms: C1_1  and  C9_9 
REMARK    2  A    between atoms: C1_1  and  C10_10 
REMARK    3  A    between atoms: C7_7  and  C9_9 
REMARK    4  A    between atoms: C8_8  and  C9_9 
ROOT
HETATM    1  C1  UNL     1     -33.930  15.944  -4.847  1.00 20.00     0.138 C 
HETATM    2  O11 UNL     1     -32.773  16.368  -4.784  1.00 20.00    -0.297 OA
ENDROOT
BRANCH   1   3
HETATM    3  C9  UNL     1     -34.796  16.264  -6.074  1.00 20.00     0.055 C 
BRANCH   3   4
HETATM    4  C7  UNL     1     -34.609  17.755  -6.413  1.00 20.00     0.007 C 
HETATM    5  C2  UNL     1     -34.533  18.026  -7.909  1.00 20.00     0.006 C 
ENDBRANCH   3   4
BRANCH   3   6
HETATM    6  C8  UNL     1     -34.412  15.360  -7.260  1.00 20.00     0.007 C 
HETATM    7  C3  UNL     1     -35.539  14.433  -7.697  1.00 20.00     0.006 C 
ENDBRANCH   3   6
ENDBRANCH   1   3
BRANCH   1   8
HETATM    8  C10 UNL     1     -34.540  15.101  -3.702  1.00 20.00     0.010 C 
HETATM    9  C4  UNL     1     -36.062  15.000  -3.856  1.00 20.00     0.022 C 
HETATM   10  C5  UNL     1     -33.913  13.701  -3.692  1.00 20.00     0.022 C 
HETATM   11  C6  UNL     1     -34.235  15.780  -2.353  1.00 20.00     0.022 C 
ENDBRANCH   1   8
TORSDOF 4
ENDMDL
MODEL 7
REMARK VINA RESULT:      -3.9      1.218      3.480
REMARK  4 active torsions:
REMARK  status: ('A' for Active; 'I' for Inactive)
REMARK    1  A    between atoms: C1_1  and  C9_9 
REMARK    2  A    between atoms: C1_1  and  C10_10 
REMARK    3  A    between atoms: C7_7  and  C9_9 
REMARK    4  A    between atoms: C8_8  and  C9_9 
ROOT
HETATM    1  C1  UNL     1     -33.810  16.117  -4.509  1.00 20.00     0.138 C 
HETATM    2  O11 UNL     1     -32.585  15.970  -4.563  1.00 20.00    -0.297 OA
ENDROOT
BRANCH   1   3
HETATM    3  C9  UNL     1     -34.706  15.459  -5.568  1.00 20.00     0.055 C 
BRANCH   3   4
HETATM    4  C7  UNL     1     -34.278  15.988  -6.950  1.00 20.00     0.007 C 
HETATM    5  C2  UNL     1     -34.594  17.463  -7.152  1.00 20.00     0.006 C 
ENDBRANCH   3   4
BRANCH   3   6
HETATM    6  C8  UNL     1     -34.599  13.924  -5.491  1.00 20.00     0.007 C 
HETATM    7  C3  UNL     1     -35.132  13.351  -4.184  1.00 20.00     0.006 C 
ENDBRANCH   3   6
ENDBRANCH   1   3
BRANCH   1   8
HETATM    8  C10 UNL     1     -34.468  16.969  -3.399  1.00 20.00     0.010 C 
HETATM    9  C4  UNL     1     -35.983  17.066  -3.617  1.00 20.00     0.022 C 
HETATM   10  C5  UNL     1     -34.169  16.358  -2.024  1.00 20.00     0.022 C 
HETATM   11  C6  UNL     1     -33.883  18.394  -3.436  1.00 20.00     0.022 C 
ENDBRANCH   1   8
TORSDOF 4
ENDMDL
MODEL 8
REMARK VINA RESULT:      -3.9      1.631      3.628
REMARK  4 active torsions:
REMARK  status: ('A' for Active; 'I' for Inactive)
REMARK    1  A    between atoms: C1_1  and  C9_9 
REMARK    2  A    between atoms: C1_1  and  C10_10 
REMARK    3  A    between atoms: C7_7  and  C9_9 
REMARK    4  A    between atoms: C8_8  and  C9_9 
ROOT
HETATM    1  C1  UNL     1     -34.894  16.309  -4.672  1.00 20.00     0.138 C 
HETATM    2  O11 UNL     1     -36.075  16.668  -4.701  1.00 20.00    -0.297 OA
ENDROOT
BRANCH   1   3
HETATM    3  C9  UNL     1     -33.914  16.818  -5.739  1.00 20.00     0.055 C 
BRANCH   3   4
HETATM    4  C7  UNL     1     -34.442  16.380  -7.118  1.00 20.00     0.007 C 
HETATM    5  C2  UNL     1     -34.465  14.869  -7.300  1.00 20.00     0.006 C 
ENDBRANCH   3   4
BRANCH   3   6
HETATM    6  C8  UNL     1     -33.761  18.348  -5.651  1.00 20.00     0.007 C 
HETATM    7  C3  UNL     1     -33.473  18.841  -4.239  1.00 20.00     0.006 C 
ENDBRANCH   3   6
ENDBRANCH   1   3
BRANCH   1   8
HETATM    8  C10 UNL     1     -34.375  15.339  -3.584  1.00 20.00     0.010 C 
HETATM    9  C4  UNL     1     -34.676  15.887  -2.184  1.00 20.00     0.022 C 
HETATM   10  C5  UNL     1     -35.020  13.959  -3.763  1.00 20.00     0.022 C 
HETATM   11  C6  UNL     1     -32.849  15.185  -3.725  1.00 20.00     0.022 C 
ENDBRANCH   1   8
TORSDOF 4
ENDMDL
MODEL 9
REMARK VINA RESULT:      -3.8      1.785      4.025
REMARK  4 active torsions:
REMARK  status: ('A' for Active; 'I' for Inactive)
REMARK    1  A    between atoms: C1_1  and  C9_9 
REMARK    2  A    between atoms: C1_1  and  C10_10 
REMARK    3  A    between atoms: C7_7  and  C9_9 
REMARK    4  A    between atoms: C8_8  and  C9_9 
ROOT
HETATM    1  C1  UNL     1     -35.428  15.902  -4.681  1.00 20.00     0.138 C 
HETATM    2  O11 UNL     1     -35.527  17.125  -4.821  1.00 20.00    -0.297 OA
ENDROOT
BRANCH   1   3
HETATM    3  C9  UNL     1     -36.300  14.963  -5.525  1.00 20.00     0.055 C 
BRANCH   3   4
HETATM    4  C7  UNL     1     -37.776  15.272  -5.210  1.00 20.00     0.007 C 
HETATM    5  C2  UNL     1     -38.190  14.857  -3.805  1.00 20.00     0.006 C 
ENDBRANCH   3   4
BRANCH   3   6
HETATM    6  C8  UNL     1     -35.992  15.137  -7.024  1.00 20.00     0.007 C 
HETATM    7  C3  UNL     1     -34.529  14.890  -7.368  1.00 20.00     0.006 C 
ENDBRANCH   3   6
ENDBRANCH   1   3
BRANCH   1   8
HETATM    8  C10 UNL     1     -34.446  15.289  -3.654  1.00 20.00     0.010 C 
HETATM    9  C4  UNL     1     -34.748  15.806  -2.242  1.00 20.00     0.022 C 
HETATM   10  C5  UNL     1     -34.540  13.758  -3.690  1.00 20.00     0.022 C 
HETATM   11  C6  UNL     1     -33.007  15.697  -4.021  1.00 20.00     0.022 C 
ENDBRANCH   1   8
TORSDOF 4
ENDMDL
