MODEL 1
REMARK VINA RESULT:      -4.2      0.000      0.000
REMARK  2 active torsions:
REMARK  status: ('A' for Active; 'I' for Inactive)
REMARK    1  A    between atoms: C4_4  and  C7_7 
REMARK    2  A    between atoms: C7_7  and  C8_8 
ROOT
HETATM    1  C1  UNL     1     -34.560  14.993  -5.391  1.00 20.00     0.033 C 
HETATM    2  C2  UNL     1     -34.777  13.536  -5.738  1.00 20.00     0.168 C 
HETATM    3  C3  UNL     1     -34.347  13.688  -3.454  1.00 20.00     0.172 C 
HETATM    4  C4  UNL     1     -33.717  14.887  -4.138  1.00 20.00     0.016 C 
HETATM    5  O9  UNL     1     -34.796  12.812  -4.499  1.00 20.00    -0.391 OA
ENDROOT
BRANCH   4   6
HETATM    6  C7  UNL     1     -33.707  16.143  -3.288  1.00 20.00     0.002 C 
HETATM    7  C5  UNL     1     -33.675  17.363  -4.180  1.00 20.00     0.011 C 
BRANCH   6   8
HETATM    8  C8  UNL     1     -34.880  16.130  -2.288  1.00 20.00     0.058 C 
HETATM    9  C6  UNL     1     -34.562  16.609  -0.878  1.00 20.00     0.022 C 
HETATM   10 BR10 UNL     1     -36.373  17.205  -2.986  1.00 20.00    -0.091 Br
ENDBRANCH   6   8
ENDBRANCH   4   6
TORSDOF 2
ENDMDL
MODEL 2
REMARK VINA RESULT:      -4.1      1.603      1.707
REMARK  2 active torsions:
REMARK  status: ('A' for Active; 'I' for Inactive)
REMARK    1  A    between atoms: C4_4  and  C7_7 
REMARK    2  A    between atoms: C7_7  and  C8_8 
ROOT
HETATM    1  C1  UNL     1     -33.978  14.033  -4.151  1.00 20.00     0.033 C 
HETATM    2  C2  UNL     1     -35.167  13.124  -4.376  1.00 20.00     0.168 C 
HETATM    3  C3  UNL     1     -35.943  15.143  -3.511  1.00 20.00     0.172 C 
HETATM    4  C4  UNL     1     -34.501  14.959  -3.074  1.00 20.00     0.016 C 
HETATM    5  O9  UNL     1     -36.343  13.907  -4.124  1.00 20.00    -0.391 OA
ENDROOT
BRANCH   4   6
HETATM    6  C7  UNL     1     -33.729  16.258  -2.944  1.00 20.00     0.002 C 
HETATM    7  C5  UNL     1     -33.447  16.824  -4.317  1.00 20.00     0.011 C 
BRANCH   6   8
HETATM    8  C8  UNL     1     -34.465  17.235  -2.005  1.00 20.00     0.058 C 
HETATM    9  C6  UNL     1     -34.608  16.791  -0.556  1.00 20.00     0.022 C 
HETATM   10 BR10 UNL     1     -33.578  18.992  -2.031  1.00 20.00    -0.091 Br
ENDBRANCH   6   8
ENDBRANCH   4   6
TORSDOF 2
ENDMDL
MODEL 3
REMARK VINA RESULT:      -4.0      2.860      4.498
REMARK  2 active torsions:
REMARK  status: ('A' for Active; 'I' for Inactive)
REMARK    1  A    between atoms: C4_4  and  C7_7 
REMARK    2  A    between atoms: C7_7  and  C8_8 
ROOT
HETATM    1  C1  UNL     1     -34.558  16.878  -0.511  1.00 20.00     0.033 C 
HETATM    2  C2  UNL     1     -33.741  18.109  -0.182  1.00 20.00     0.168 C 
HETATM    3  C3  UNL     1     -33.816  17.878  -2.499  1.00 20.00     0.172 C 
HETATM    4  C4  UNL     1     -34.019  16.508  -1.876  1.00 20.00     0.016 C 
HETATM    5  O9  UNL     1     -33.454  18.763  -1.427  1.00 20.00    -0.391 OA
ENDROOT
BRANCH   4   6
HETATM    6  C7  UNL     1     -34.930  15.600  -2.679  1.00 20.00     0.002 C 
HETATM    7  C5  UNL     1     -36.189  16.345  -3.059  1.00 20.00     0.011 C 
BRANCH   6   8
HETATM    8  C8  UNL     1     -34.174  14.997  -3.880  1.00 20.00     0.058 C 
HETATM    9  C6  UNL     1     -32.696  14.705  -3.663  1.00 20.00     0.022 C 
HETATM   10 BR10 UNL     1     -35.054  13.336  -4.465  1.00 20.00    -0.091 Br
ENDBRANCH   6   8
ENDBRANCH   4   6
TORSDOF 2
ENDMDL
MODEL 4
REMARK VINA RESULT:      -4.0      2.905      4.644
REMARK  2 active torsions:
REMARK  status: ('A' for Active; 'I' for Inactive)
REMARK    1  A    between atoms: C4_4  and  C7_7 
REMARK    2  A    between atoms: C7_7  and  C8_8 
ROOT
HETATM    1  C1  UNL     1     -34.735  16.926  -0.287  1.00 20.00     0.033 C 
HETATM    2  C2  UNL     1     -34.194  18.240   0.236  1.00 20.00     0.168 C 
HETATM    3  C3  UNL     1     -33.833  18.164  -2.064  1.00 20.00     0.172 C 
HETATM    4  C4  UNL     1     -33.917  16.739  -1.547  1.00 20.00     0.016 C 
HETATM    5  O9  UNL     1     -33.807  19.015  -0.908  1.00 20.00    -0.391 OA
ENDROOT
BRANCH   4   6
HETATM    6  C7  UNL     1     -34.519  15.761  -2.538  1.00 20.00     0.002 C 
HETATM    7  C5  UNL     1     -35.747  16.371  -3.175  1.00 20.00     0.011 C 
BRANCH   6   8
HETATM    8  C8  UNL     1     -33.457  15.293  -3.552  1.00 20.00     0.058 C 
HETATM    9  C6  UNL     1     -33.344  13.789  -3.757  1.00 20.00     0.022 C 
HETATM   10 BR10 UNL     1     -33.778  16.134  -5.303  1.00 20.00    -0.091 Br
ENDBRANCH   6   8
ENDBRANCH   4   6
TORSDOF 2
ENDMDL
MODEL 5
REMARK VINA RESULT:      -3.9      2.156      4.061
REMARK  2 active torsions:
REMARK  status: ('A' for Active; 'I' for Inactive)
REMARK    1  A    between atoms: C4_4  and  C7_7 
REMARK    2  A    between atoms: C7_7  and  C8_8 
ROOT
HETATM    1  C1  UNL     1     -34.669  15.517  -2.449  1.00 20.00     0.033 C 
HETATM    2  C2  UNL     1     -34.189  16.779  -1.763  1.00 20.00     0.168 C 
HETATM    3  C3  UNL     1     -33.526  16.861  -3.995  1.00 20.00     0.172 C 
HETATM    4  C4  UNL     1     -33.693  15.404  -3.600  1.00 20.00     0.016 C 
HETATM    5  O9  UNL     1     -33.645  17.626  -2.786  1.00 20.00    -0.391 OA
ENDROOT
BRANCH   4   6
HETATM    6  C7  UNL     1     -34.169  14.513  -4.731  1.00 20.00     0.002 C 
HETATM    7  C5  UNL     1     -35.055  13.418  -4.182  1.00 20.00     0.011 C 
BRANCH   6   8
HETATM    8  C8  UNL     1     -34.830  15.353  -5.843  1.00 20.00     0.058 C 
HETATM    9  C6  UNL     1     -34.465  14.978  -7.272  1.00 20.00     0.022 C 
HETATM   10 BR10 UNL     1     -36.789  15.283  -5.665  1.00 20.00    -0.091 Br
ENDBRANCH   6   8
ENDBRANCH   4   6
TORSDOF 2
ENDMDL
MODEL 6
REMARK VINA RESULT:      -3.9      2.883      4.286
REMARK  2 active torsions:
REMARK  status: ('A' for Active; 'I' for Inactive)
REMARK    1  A    between atoms: C4_4  and  C7_7 
REMARK    2  A    between atoms: C7_7  and  C8_8 
ROOT
HETATM    1  C1  UNL     1     -34.761  16.317  -1.227  1.00 20.00     0.033 C 
HETATM    2  C2  UNL     1     -34.672  17.487  -0.269  1.00 20.00     0.168 C 
HETATM    3  C3  UNL     1     -33.811  18.158  -2.327  1.00 20.00     0.172 C 
HETATM    4  C4  UNL     1     -33.668  16.651  -2.219  1.00 20.00     0.016 C 
HETATM    5  O9  UNL     1     -34.239  18.620  -1.037  1.00 20.00    -0.391 OA
ENDROOT
BRANCH   4   6
HETATM    6  C7  UNL     1     -33.793  15.927  -3.546  1.00 20.00     0.002 C 
HETATM    7  C5  UNL     1     -32.690  14.901  -3.675  1.00 20.00     0.011 C 
BRANCH   6   8
HETATM    8  C8  UNL     1     -35.210  15.345  -3.715  1.00 20.00     0.058 C 
HETATM    9  C6  UNL     1     -36.128  16.087  -4.676  1.00 20.00     0.022 C 
HETATM   10 BR10 UNL     1     -35.102  13.464  -4.288  1.00 20.00    -0.091 Br
ENDBRANCH   6   8
ENDBRANCH   4   6
TORSDOF 2
ENDMDL
MODEL 7
REMARK VINA RESULT:      -3.8      1.646      2.129
REMARK  2 active torsions:
REMARK  status: ('A' for Active; 'I' for Inactive)
REMARK    1  A    between atoms: C4_4  and  C7_7 
REMARK    2  A    between atoms: C7_7  and  C8_8 
ROOT
HETATM    1  C1  UNL     1     -35.715  14.351  -4.148  1.00 20.00     0.033 C 
HETATM    2  C2  UNL     1     -34.912  13.169  -4.650  1.00 20.00     0.168 C 
HETATM    3  C3  UNL     1     -33.511  14.512  -3.362  1.00 20.00     0.172 C 
HETATM    4  C4  UNL     1     -34.629  15.379  -3.912  1.00 20.00     0.016 C 
HETATM    5  O9  UNL     1     -33.630  13.236  -4.010  1.00 20.00    -0.391 OA
ENDROOT
BRANCH   4   6
HETATM    6  C7  UNL     1     -35.037  16.511  -2.988  1.00 20.00     0.002 C 
HETATM    7  C5  UNL     1     -34.513  16.247  -1.595  1.00 20.00     0.011 C 
BRANCH   6   8
HETATM    8  C8  UNL     1     -34.605  17.871  -3.572  1.00 20.00     0.058 C 
HETATM    9  C6  UNL     1     -33.675  18.706  -2.703  1.00 20.00     0.022 C 
HETATM   10 BR10 UNL     1     -33.749  17.610  -5.325  1.00 20.00    -0.091 Br
ENDBRANCH   6   8
ENDBRANCH   4   6
TORSDOF 2
ENDMDL
MODEL 8
REMARK VINA RESULT:      -3.8      1.710      2.178
REMARK  2 active torsions:
REMARK  status: ('A' for Active; 'I' for Inactive)
REMARK    1  A    between atoms: C4_4  and  C7_7 
REMARK    2  A    between atoms: C7_7  and  C8_8 
ROOT
HETATM    1  C1  UNL     1     -33.547  14.768  -3.761  1.00 20.00     0.033 C 
HETATM    2  C2  UNL     1     -33.558  13.260  -3.892  1.00 20.00     0.168 C 
HETATM    3  C3  UNL     1     -35.748  14.027  -4.091  1.00 20.00     0.172 C 
HETATM    4  C4  UNL     1     -34.958  15.044  -3.286  1.00 20.00     0.016 C 
HETATM    5  O9  UNL     1     -34.895  12.883  -4.252  1.00 20.00    -0.391 OA
ENDROOT
BRANCH   4   6
HETATM    6  C7  UNL     1     -35.413  16.476  -3.491  1.00 20.00     0.002 C 
HETATM    7  C5  UNL     1     -36.901  16.579  -3.247  1.00 20.00     0.011 C 
BRANCH   6   8
HETATM    8  C8  UNL     1     -34.570  17.441  -2.634  1.00 20.00     0.058 C 
HETATM    9  C6  UNL     1     -34.947  18.913  -2.718  1.00 20.00     0.022 C 
HETATM   10 BR10 UNL     1     -34.631  16.893  -0.744  1.00 20.00    -0.091 Br
ENDBRANCH   6   8
ENDBRANCH   4   6
TORSDOF 2
ENDMDL
MODEL 9
REMARK VINA RESULT:      -3.8      2.426      2.912
REMARK  2 active torsions:
REMARK  status: ('A' for Active; 'I' for Inactive)
REMARK    1  A    between atoms: C4_4  and  C7_7 
REMARK    2  A    between atoms: C7_7  and  C8_8 
ROOT
HETATM    1  C1  UNL     1     -34.459  14.932  -7.267  1.00 20.00     0.033 C 
HETATM    2  C2  UNL     1     -35.884  14.759  -7.748  1.00 20.00     0.168 C 
HETATM    3  C3  UNL     1     -35.876  16.337  -6.034  1.00 20.00     0.172 C 
HETATM    4  C4  UNL     1     -34.671  15.432  -5.854  1.00 20.00     0.016 C 
HETATM    5  O9  UNL     1     -36.673  15.752  -7.076  1.00 20.00    -0.391 OA
ENDROOT
BRANCH   4   6
HETATM    6  C7  UNL     1     -33.465  16.128  -5.254  1.00 20.00     0.002 C 
HETATM    7  C5  UNL     1     -33.690  17.623  -5.245  1.00 20.00     0.011 C 
BRANCH   6   8
HETATM    8  C8  UNL     1     -33.131  15.539  -3.869  1.00 20.00     0.058 C 
HETATM    9  C6  UNL     1     -33.721  16.269  -2.671  1.00 20.00     0.022 C 
HETATM   10 BR10 UNL     1     -33.693  13.654  -3.785  1.00 20.00    -0.091 Br
ENDBRANCH   6   8
ENDBRANCH   4   6
TORSDOF 2
ENDMDL
