MODEL 1
REMARK VINA RESULT:      -4.7      0.000      0.000
REMARK  4 active torsions:
REMARK  status: ('A' for Active; 'I' for Inactive)
REMARK    1  A    between atoms: C2_2  and  C6_6 
REMARK    2  A    between atoms: C2_2  and  C7_7 
REMARK    3  A    between atoms: C7_7  and  C8_8 
REMARK    4  A    between atoms: C8_8  and  C9_9 
ROOT
HETATM    1  C7  UNL     1     -33.823   6.992   3.638  1.00 20.00     0.039 C 
ENDROOT
BRANCH   1   2
HETATM    2  C2  UNL     1     -32.433   6.948   3.029  1.00 20.00    -0.089 C 
HETATM    3  C1  UNL     1     -31.801   5.776   2.846  1.00 20.00     0.014 C 
BRANCH   2   4
HETATM    4  C6  UNL     1     -31.778   8.250   2.628  1.00 20.00     0.029 C 
HETATM    5  C3  UNL     1     -32.117   8.679   1.207  1.00 20.00     0.010 C 
ENDBRANCH   2   4
ENDBRANCH   1   2
BRANCH   1   6
HETATM    6  C8  UNL     1     -34.375   5.621   4.100  1.00 20.00     0.003 C 
HETATM    7  C4  UNL     1     -35.871   5.485   3.777  1.00 20.00     0.011 C 
BRANCH   6   8
HETATM    8  C9  UNL     1     -34.106   5.315   5.597  1.00 20.00     0.082 C 
HETATM    9  C5  UNL     1     -34.028   6.569   6.463  1.00 20.00     0.027 C 
HETATM   10 CL10 UNL     1     -35.315   4.197   6.302  1.00 20.00    -0.125 Cl
ENDBRANCH   6   8
ENDBRANCH   1   6
TORSDOF 4
ENDMDL
MODEL 2
REMARK VINA RESULT:      -4.6      1.064      1.255
REMARK  4 active torsions:
REMARK  status: ('A' for Active; 'I' for Inactive)
REMARK    1  A    between atoms: C2_2  and  C6_6 
REMARK    2  A    between atoms: C2_2  and  C7_7 
REMARK    3  A    between atoms: C7_7  and  C8_8 
REMARK    4  A    between atoms: C8_8  and  C9_9 
ROOT
HETATM    1  C7  UNL     1     -33.783   6.998   3.886  1.00 20.00     0.039 C 
ENDROOT
BRANCH   1   2
HETATM    2  C2  UNL     1     -32.534   6.825   3.043  1.00 20.00    -0.089 C 
HETATM    3  C1  UNL     1     -32.167   5.610   2.600  1.00 20.00     0.014 C 
BRANCH   2   4
HETATM    4  C6  UNL     1     -31.714   8.049   2.706  1.00 20.00     0.029 C 
HETATM    5  C3  UNL     1     -32.168   8.742   1.428  1.00 20.00     0.010 C 
ENDBRANCH   2   4
ENDBRANCH   1   2
BRANCH   1   6
HETATM    6  C8  UNL     1     -34.609   5.706   4.100  1.00 20.00     0.003 C 
HETATM    7  C4  UNL     1     -35.942   5.763   3.336  1.00 20.00     0.011 C 
BRANCH   6   8
HETATM    8  C9  UNL     1     -34.847   5.359   5.593  1.00 20.00     0.082 C 
HETATM    9  C5  UNL     1     -34.420   3.940   5.957  1.00 20.00     0.027 C 
HETATM   10 CL10 UNL     1     -34.042   6.510   6.707  1.00 20.00    -0.125 Cl
ENDBRANCH   6   8
ENDBRANCH   1   6
TORSDOF 4
ENDMDL
MODEL 3
REMARK VINA RESULT:      -4.5      2.239      4.538
REMARK  4 active torsions:
REMARK  status: ('A' for Active; 'I' for Inactive)
REMARK    1  A    between atoms: C2_2  and  C6_6 
REMARK    2  A    between atoms: C2_2  and  C7_7 
REMARK    3  A    between atoms: C7_7  and  C8_8 
REMARK    4  A    between atoms: C8_8  and  C9_9 
ROOT
HETATM    1  C7  UNL     1     -33.050   5.760   4.793  1.00 20.00     0.039 C 
ENDROOT
BRANCH   1   2
HETATM    2  C2  UNL     1     -33.947   6.107   5.967  1.00 20.00    -0.089 C 
HETATM    3  C1  UNL     1     -33.747   7.233   6.674  1.00 20.00     0.014 C 
BRANCH   2   4
HETATM    4  C6  UNL     1     -35.074   5.164   6.320  1.00 20.00     0.029 C 
HETATM    5  C3  UNL     1     -35.030   3.858   5.538  1.00 20.00     0.010 C 
ENDBRANCH   2   4
ENDBRANCH   1   2
BRANCH   1   6
HETATM    6  C8  UNL     1     -33.345   6.546   3.493  1.00 20.00     0.003 C 
HETATM    7  C4  UNL     1     -34.037   5.657   2.448  1.00 20.00     0.011 C 
BRANCH   6   8
HETATM    8  C9  UNL     1     -32.094   7.236   2.886  1.00 20.00     0.082 C 
HETATM    9  C5  UNL     1     -32.439   8.375   1.931  1.00 20.00     0.027 C 
HETATM   10 CL10 UNL     1     -30.967   7.849   4.136  1.00 20.00    -0.125 Cl
ENDBRANCH   6   8
ENDBRANCH   1   6
TORSDOF 4
ENDMDL
MODEL 4
REMARK VINA RESULT:      -4.4      1.529      2.181
REMARK  4 active torsions:
REMARK  status: ('A' for Active; 'I' for Inactive)
REMARK    1  A    between atoms: C2_2  and  C6_6 
REMARK    2  A    between atoms: C2_2  and  C7_7 
REMARK    3  A    between atoms: C7_7  and  C8_8 
REMARK    4  A    between atoms: C8_8  and  C9_9 
ROOT
HETATM    1  C7  UNL     1     -32.607   6.178   3.404  1.00 20.00     0.039 C 
ENDROOT
BRANCH   1   2
HETATM    2  C2  UNL     1     -31.883   7.476   3.097  1.00 20.00    -0.089 C 
HETATM    3  C1  UNL     1     -31.103   8.062   4.022  1.00 20.00     0.014 C 
BRANCH   2   4
HETATM    4  C6  UNL     1     -32.051   8.092   1.727  1.00 20.00     0.029 C 
HETATM    5  C3  UNL     1     -32.481   9.552   1.774  1.00 20.00     0.010 C 
ENDBRANCH   2   4
ENDBRANCH   1   2
BRANCH   1   6
HETATM    6  C8  UNL     1     -33.943   6.343   4.168  1.00 20.00     0.003 C 
HETATM    7  C4  UNL     1     -33.708   6.472   5.682  1.00 20.00     0.011 C 
BRANCH   6   8
HETATM    8  C9  UNL     1     -34.974   5.223   3.866  1.00 20.00     0.082 C 
HETATM    9  C5  UNL     1     -35.200   4.279   5.044  1.00 20.00     0.027 C 
HETATM   10 CL10 UNL     1     -36.557   5.868   3.328  1.00 20.00    -0.125 Cl
ENDBRANCH   6   8
ENDBRANCH   1   6
TORSDOF 4
ENDMDL
MODEL 5
REMARK VINA RESULT:      -4.2      1.315      1.901
REMARK  4 active torsions:
REMARK  status: ('A' for Active; 'I' for Inactive)
REMARK    1  A    between atoms: C2_2  and  C6_6 
REMARK    2  A    between atoms: C2_2  and  C7_7 
REMARK    3  A    between atoms: C7_7  and  C8_8 
REMARK    4  A    between atoms: C8_8  and  C9_9 
ROOT
HETATM    1  C7  UNL     1     -32.441   6.826   4.498  1.00 20.00     0.039 C 
ENDROOT
BRANCH   1   2
HETATM    2  C2  UNL     1     -32.400   7.004   2.992  1.00 20.00    -0.089 C 
HETATM    3  C1  UNL     1     -32.436   5.938   2.173  1.00 20.00     0.014 C 
BRANCH   2   4
HETATM    4  C6  UNL     1     -32.326   8.406   2.431  1.00 20.00     0.029 C 
HETATM    5  C3  UNL     1     -31.796   8.454   1.004  1.00 20.00     0.010 C 
ENDBRANCH   2   4
ENDBRANCH   1   2
BRANCH   1   6
HETATM    6  C8  UNL     1     -33.855   6.620   5.092  1.00 20.00     0.003 C 
HETATM    7  C4  UNL     1     -33.853   6.805   6.618  1.00 20.00     0.011 C 
BRANCH   6   8
HETATM    8  C9  UNL     1     -34.502   5.264   4.704  1.00 20.00     0.082 C 
HETATM    9  C5  UNL     1     -34.938   4.438   5.911  1.00 20.00     0.027 C 
HETATM   10 CL10 UNL     1     -35.897   5.454   3.597  1.00 20.00    -0.125 Cl
ENDBRANCH   6   8
ENDBRANCH   1   6
TORSDOF 4
ENDMDL
MODEL 6
REMARK VINA RESULT:      -4.2     11.291     12.510
REMARK  4 active torsions:
REMARK  status: ('A' for Active; 'I' for Inactive)
REMARK    1  A    between atoms: C2_2  and  C6_6 
REMARK    2  A    between atoms: C2_2  and  C7_7 
REMARK    3  A    between atoms: C7_7  and  C8_8 
REMARK    4  A    between atoms: C8_8  and  C9_9 
ROOT
HETATM    1  C7  UNL     1     -34.945  15.060  -3.040  1.00 20.00     0.039 C 
ENDROOT
BRANCH   1   2
HETATM    2  C2  UNL     1     -34.119  14.038  -3.800  1.00 20.00    -0.089 C 
HETATM    3  C1  UNL     1     -32.843  13.794  -3.455  1.00 20.00     0.014 C 
BRANCH   2   4
HETATM    4  C6  UNL     1     -34.764  13.297  -4.949  1.00 20.00     0.029 C 
HETATM    5  C3  UNL     1     -35.080  14.193  -6.139  1.00 20.00     0.010 C 
ENDBRANCH   2   4
ENDBRANCH   1   2
BRANCH   1   6
HETATM    6  C8  UNL     1     -34.138  16.243  -2.452  1.00 20.00     0.003 C 
HETATM    7  C4  UNL     1     -34.566  16.547  -1.008  1.00 20.00     0.011 C 
BRANCH   6   8
HETATM    8  C9  UNL     1     -34.192  17.526  -3.323  1.00 20.00     0.082 C 
HETATM    9  C5  UNL     1     -33.626  18.756  -2.619  1.00 20.00     0.027 C 
HETATM   10 CL10 UNL     1     -33.362  17.327  -4.899  1.00 20.00    -0.125 Cl
ENDBRANCH   6   8
ENDBRANCH   1   6
TORSDOF 4
ENDMDL
MODEL 7
REMARK VINA RESULT:      -4.1     11.474     12.276
REMARK  4 active torsions:
REMARK  status: ('A' for Active; 'I' for Inactive)
REMARK    1  A    between atoms: C2_2  and  C6_6 
REMARK    2  A    between atoms: C2_2  and  C7_7 
REMARK    3  A    between atoms: C7_7  and  C8_8 
REMARK    4  A    between atoms: C8_8  and  C9_9 
ROOT
HETATM    1  C7  UNL     1     -34.881  15.566  -2.461  1.00 20.00     0.039 C 
ENDROOT
BRANCH   1   2
HETATM    2  C2  UNL     1     -34.075  16.851  -2.422  1.00 20.00    -0.089 C 
HETATM    3  C1  UNL     1     -33.664  17.438  -3.559  1.00 20.00     0.014 C 
BRANCH   2   4
HETATM    4  C6  UNL     1     -33.749  17.460  -1.077  1.00 20.00     0.029 C 
HETATM    5  C3  UNL     1     -34.786  17.141  -0.008  1.00 20.00     0.010 C 
ENDBRANCH   2   4
ENDBRANCH   1   2
BRANCH   1   6
HETATM    6  C8  UNL     1     -35.569  15.269  -3.816  1.00 20.00     0.003 C 
HETATM    7  C4  UNL     1     -37.068  14.986  -3.630  1.00 20.00     0.011 C 
BRANCH   6   8
HETATM    8  C9  UNL     1     -34.890  14.130  -4.622  1.00 20.00     0.082 C 
HETATM    9  C5  UNL     1     -34.605  14.507  -6.073  1.00 20.00     0.027 C 
HETATM   10 CL10 UNL     1     -33.372  13.556  -3.863  1.00 20.00    -0.125 Cl
ENDBRANCH   6   8
ENDBRANCH   1   6
TORSDOF 4
ENDMDL
MODEL 8
REMARK VINA RESULT:      -4.1     11.213     12.237
REMARK  4 active torsions:
REMARK  status: ('A' for Active; 'I' for Inactive)
REMARK    1  A    between atoms: C2_2  and  C6_6 
REMARK    2  A    between atoms: C2_2  and  C7_7 
REMARK    3  A    between atoms: C7_7  and  C8_8 
REMARK    4  A    between atoms: C8_8  and  C9_9 
ROOT
HETATM    1  C7  UNL     1     -33.830  16.824  -3.012  1.00 20.00     0.039 C 
ENDROOT
BRANCH   1   2
HETATM    2  C2  UNL     1     -33.949  17.380  -1.605  1.00 20.00    -0.089 C 
HETATM    3  C1  UNL     1     -34.617  16.705  -0.654  1.00 20.00     0.014 C 
BRANCH   2   4
HETATM    4  C6  UNL     1     -33.293  18.706  -1.294  1.00 20.00     0.029 C 
HETATM    5  C3  UNL     1     -32.504  18.694   0.008  1.00 20.00     0.010 C 
ENDBRANCH   2   4
ENDBRANCH   1   2
BRANCH   1   6
HETATM    6  C8  UNL     1     -33.938  15.283  -3.115  1.00 20.00     0.003 C 
HETATM    7  C4  UNL     1     -32.608  14.659  -3.564  1.00 20.00     0.011 C 
BRANCH   6   8
HETATM    8  C9  UNL     1     -35.104  14.800  -4.018  1.00 20.00     0.082 C 
HETATM    9  C5  UNL     1     -35.019  13.317  -4.370  1.00 20.00     0.027 C 
HETATM   10 CL10 UNL     1     -36.714  15.134  -3.306  1.00 20.00    -0.125 Cl
ENDBRANCH   6   8
ENDBRANCH   1   6
TORSDOF 4
ENDMDL
MODEL 9
REMARK VINA RESULT:      -4.1      2.542      4.350
REMARK  4 active torsions:
REMARK  status: ('A' for Active; 'I' for Inactive)
REMARK    1  A    between atoms: C2_2  and  C6_6 
REMARK    2  A    between atoms: C2_2  and  C7_7 
REMARK    3  A    between atoms: C7_7  and  C8_8 
REMARK    4  A    between atoms: C8_8  and  C9_9 
ROOT
HETATM    1  C7  UNL     1     -34.453   6.576   3.898  1.00 20.00     0.039 C 
ENDROOT
BRANCH   1   2
HETATM    2  C2  UNL     1     -34.575   5.421   4.876  1.00 20.00    -0.089 C 
HETATM    3  C1  UNL     1     -35.089   4.242   4.485  1.00 20.00     0.014 C 
BRANCH   2   4
HETATM    4  C6  UNL     1     -34.100   5.624   6.297  1.00 20.00     0.029 C 
HETATM    5  C3  UNL     1     -33.705   7.063   6.597  1.00 20.00     0.010 C 
ENDBRANCH   2   4
ENDBRANCH   1   2
BRANCH   1   6
HETATM    6  C8  UNL     1     -33.206   6.525   2.983  1.00 20.00     0.003 C 
HETATM    7  C4  UNL     1     -32.308   5.326   3.329  1.00 20.00     0.011 C 
BRANCH   6   8
HETATM    8  C9  UNL     1     -32.386   7.842   2.976  1.00 20.00     0.082 C 
HETATM    9  C5  UNL     1     -31.173   7.801   3.901  1.00 20.00     0.027 C 
HETATM   10 CL10 UNL     1     -31.846   8.312   1.333  1.00 20.00    -0.125 Cl
ENDBRANCH   6   8
ENDBRANCH   1   6
TORSDOF 4
ENDMDL
