MODEL 1
REMARK VINA RESULT:      -4.6      0.000      0.000
REMARK  2 active torsions:
REMARK  status: ('A' for Active; 'I' for Inactive)
REMARK    1  A    between atoms: C3_3  and  C8_8 
REMARK    2  A    between atoms: C8_8  and  C9_9 
ROOT
HETATM    1  C1  UNL     1     -33.459  13.930  -3.916  1.00 20.00     0.302 C 
HETATM    2  C2  UNL     1     -34.453  14.702  -5.964  1.00 20.00     0.244 C 
HETATM    3  C3  UNL     1     -33.331  15.370  -3.415  1.00 20.00     0.150 C 
HETATM    4  C4  UNL     1     -34.360  16.149  -5.441  1.00 20.00     0.150 C 
HETATM    5  C5  UNL     1     -35.642  14.488  -6.900  1.00 20.00     0.045 C 
HETATM    6  C6  UNL     1     -34.102  17.159  -6.557  1.00 20.00     0.042 C 
HETATM    7  N10 UNL     1     -34.585  13.766  -4.835  1.00 20.00     0.092 N 
HETATM    8  O11 UNL     1     -33.265  16.275  -4.522  1.00 20.00    -0.377 OA
HETATM    9  H30 UNL     1     -34.602  12.807  -5.183  1.00 20.00     0.316 HD
ENDROOT
BRANCH   3  10
HETATM   10  C8  UNL     1     -34.418  15.777  -2.422  1.00 20.00     0.033 C 
BRANCH  10  11
HETATM   11  C9  UNL     1     -33.953  16.926  -1.535  1.00 20.00    -0.002 C 
HETATM   12  C7  UNL     1     -34.770  17.001  -0.255  1.00 20.00     0.005 C 
ENDBRANCH  10  11
ENDBRANCH   3  10
TORSDOF 2
ENDMDL
MODEL 2
REMARK VINA RESULT:      -4.4      1.792      2.372
REMARK  2 active torsions:
REMARK  status: ('A' for Active; 'I' for Inactive)
REMARK    1  A    between atoms: C3_3  and  C8_8 
REMARK    2  A    between atoms: C8_8  and  C9_9 
ROOT
HETATM    1  C1  UNL     1     -33.377  16.589  -4.331  1.00 20.00     0.302 C 
HETATM    2  C2  UNL     1     -34.736  14.662  -4.796  1.00 20.00     0.244 C 
HETATM    3  C3  UNL     1     -34.305  16.989  -3.183  1.00 20.00     0.150 C 
HETATM    4  C4  UNL     1     -35.649  15.044  -3.614  1.00 20.00     0.150 C 
HETATM    5  C5  UNL     1     -34.675  13.153  -5.031  1.00 20.00     0.045 C 
HETATM    6  C6  UNL     1     -37.110  14.678  -3.860  1.00 20.00     0.042 C 
HETATM    7  N10 UNL     1     -33.366  15.143  -4.552  1.00 20.00     0.092 N 
HETATM    8  O11 UNL     1     -35.618  16.463  -3.403  1.00 20.00    -0.377 OA
HETATM    9  H30 UNL     1     -32.776  14.927  -5.355  1.00 20.00     0.316 HD
ENDROOT
BRANCH   3  10
HETATM   10  C8  UNL     1     -33.776  16.612  -1.800  1.00 20.00     0.033 C 
BRANCH  10  11
HETATM   11  C9  UNL     1     -34.790  16.944  -0.712  1.00 20.00    -0.002 C 
HETATM   12  C7  UNL     1     -34.225  17.945   0.283  1.00 20.00     0.005 C 
ENDBRANCH  10  11
ENDBRANCH   3  10
TORSDOF 2
ENDMDL
MODEL 3
REMARK VINA RESULT:      -4.3      1.708      2.453
REMARK  2 active torsions:
REMARK  status: ('A' for Active; 'I' for Inactive)
REMARK    1  A    between atoms: C3_3  and  C8_8 
REMARK    2  A    between atoms: C8_8  and  C9_9 
ROOT
HETATM    1  C1  UNL     1     -35.521  17.245  -3.861  1.00 20.00     0.302 C 
HETATM    2  C2  UNL     1     -35.003  15.601  -5.536  1.00 20.00     0.244 C 
HETATM    3  C3  UNL     1     -35.061  16.291  -2.757  1.00 20.00     0.150 C 
HETATM    4  C4  UNL     1     -34.503  14.655  -4.426  1.00 20.00     0.150 C 
HETATM    5  C5  UNL     1     -34.268  15.398  -6.861  1.00 20.00     0.045 C 
HETATM    6  C6  UNL     1     -34.772  13.186  -4.743  1.00 20.00     0.042 C 
HETATM    7  N10 UNL     1     -34.823  17.003  -5.123  1.00 20.00     0.092 N 
HETATM    8  O11 UNL     1     -35.184  14.933  -3.194  1.00 20.00    -0.377 OA
HETATM    9  H30 UNL     1     -35.195  17.624  -5.841  1.00 20.00     0.316 HD
ENDROOT
BRANCH   3  10
HETATM   10  C8  UNL     1     -33.657  16.585  -2.231  1.00 20.00     0.033 C 
BRANCH  10  11
HETATM   11  C9  UNL     1     -33.706  17.477  -0.996  1.00 20.00    -0.002 C 
HETATM   12  C7  UNL     1     -34.863  17.096  -0.087  1.00 20.00     0.005 C 
ENDBRANCH  10  11
ENDBRANCH   3  10
TORSDOF 2
ENDMDL
MODEL 4
REMARK VINA RESULT:      -4.1      1.782      4.537
REMARK  2 active torsions:
REMARK  status: ('A' for Active; 'I' for Inactive)
REMARK    1  A    between atoms: C3_3  and  C8_8 
REMARK    2  A    between atoms: C8_8  and  C9_9 
ROOT
HETATM    1  C1  UNL     1     -33.892  18.563  -4.496  1.00 20.00     0.302 C 
HETATM    2  C2  UNL     1     -33.776  16.840  -2.823  1.00 20.00     0.244 C 
HETATM    3  C3  UNL     1     -33.606  17.539  -5.596  1.00 20.00     0.150 C 
HETATM    4  C4  UNL     1     -33.526  15.803  -3.936  1.00 20.00     0.150 C 
HETATM    5  C5  UNL     1     -34.517  16.252  -1.623  1.00 20.00     0.045 C 
HETATM    6  C6  UNL     1     -32.604  14.672  -3.487  1.00 20.00     0.042 C 
HETATM    7  N10 UNL     1     -34.572  17.962  -3.349  1.00 20.00     0.092 N 
HETATM    8  O11 UNL     1     -32.884  16.425  -5.059  1.00 20.00    -0.377 OA
HETATM    9  H30 UNL     1     -34.697  18.666  -2.622  1.00 20.00     0.316 HD
ENDROOT
BRANCH   3  10
HETATM   10  C8  UNL     1     -34.850  17.085  -6.357  1.00 20.00     0.033 C 
BRANCH  10  11
HETATM   11  C9  UNL     1     -34.495  16.078  -7.445  1.00 20.00    -0.002 C 
HETATM   12  C7  UNL     1     -35.137  14.726  -7.176  1.00 20.00     0.005 C 
ENDBRANCH  10  11
ENDBRANCH   3  10
TORSDOF 2
ENDMDL
MODEL 5
REMARK VINA RESULT:      -4.0      1.819      2.038
REMARK  2 active torsions:
REMARK  status: ('A' for Active; 'I' for Inactive)
REMARK    1  A    between atoms: C3_3  and  C8_8 
REMARK    2  A    between atoms: C8_8  and  C9_9 
ROOT
HETATM    1  C1  UNL     1     -36.321  14.976  -3.407  1.00 20.00     0.302 C 
HETATM    2  C2  UNL     1     -36.321  15.728  -5.690  1.00 20.00     0.244 C 
HETATM    3  C3  UNL     1     -34.805  14.781  -3.452  1.00 20.00     0.150 C 
HETATM    4  C4  UNL     1     -34.788  15.568  -5.722  1.00 20.00     0.150 C 
HETATM    5  C5  UNL     1     -36.818  16.844  -6.608  1.00 20.00     0.045 C 
HETATM    6  C6  UNL     1     -34.272  15.138  -7.093  1.00 20.00     0.042 C 
HETATM    7  N10 UNL     1     -36.768  16.028  -4.320  1.00 20.00     0.092 N 
HETATM    8  O11 UNL     1     -34.376  14.550  -4.798  1.00 20.00    -0.377 OA
HETATM    9  H30 UNL     1     -37.786  16.089  -4.295  1.00 20.00     0.316 HD
ENDROOT
BRANCH   3  10
HETATM   10  C8  UNL     1     -34.016  15.915  -2.800  1.00 20.00     0.033 C 
BRANCH  10  11
HETATM   11  C9  UNL     1     -34.620  16.306  -1.456  1.00 20.00    -0.002 C 
HETATM   12  C7  UNL     1     -33.870  17.472  -0.832  1.00 20.00     0.005 C 
ENDBRANCH  10  11
ENDBRANCH   3  10
TORSDOF 2
ENDMDL
MODEL 6
REMARK VINA RESULT:      -4.0      2.824      5.325
REMARK  2 active torsions:
REMARK  status: ('A' for Active; 'I' for Inactive)
REMARK    1  A    between atoms: C3_3  and  C8_8 
REMARK    2  A    between atoms: C8_8  and  C9_9 
ROOT
HETATM    1  C1  UNL     1     -35.658  17.546  -2.069  1.00 20.00     0.302 C 
HETATM    2  C2  UNL     1     -34.729  18.279   0.024  1.00 20.00     0.244 C 
HETATM    3  C3  UNL     1     -34.255  17.409  -2.663  1.00 20.00     0.150 C 
HETATM    4  C4  UNL     1     -33.315  18.103  -0.564  1.00 20.00     0.150 C 
HETATM    5  C5  UNL     1     -34.776  18.037   1.532  1.00 20.00     0.045 C 
HETATM    6  C6  UNL     1     -32.323  19.130  -0.022  1.00 20.00     0.042 C 
HETATM    7  N10 UNL     1     -35.663  17.341  -0.620  1.00 20.00     0.092 N 
HETATM    8  O11 UNL     1     -33.344  18.282  -1.987  1.00 20.00    -0.377 OA
HETATM    9  H30 UNL     1     -36.605  17.491  -0.260  1.00 20.00     0.316 HD
ENDROOT
BRANCH   3  10
HETATM   10  C8  UNL     1     -33.735  15.972  -2.695  1.00 20.00     0.033 C 
BRANCH  10  11
HETATM   11  C9  UNL     1     -34.789  15.016  -3.239  1.00 20.00    -0.002 C 
HETATM   12  C7  UNL     1     -34.156  13.735  -3.760  1.00 20.00     0.005 C 
ENDBRANCH  10  11
ENDBRANCH   3  10
TORSDOF 2
ENDMDL
MODEL 7
REMARK VINA RESULT:      -3.9      1.832      4.286
REMARK  2 active torsions:
REMARK  status: ('A' for Active; 'I' for Inactive)
REMARK    1  A    between atoms: C3_3  and  C8_8 
REMARK    2  A    between atoms: C8_8  and  C9_9 
ROOT
HETATM    1  C1  UNL     1     -34.783  13.443  -4.392  1.00 20.00     0.302 C 
HETATM    2  C2  UNL     1     -35.255  15.274  -2.907  1.00 20.00     0.244 C 
HETATM    3  C3  UNL     1     -35.395  14.213  -5.564  1.00 20.00     0.150 C 
HETATM    4  C4  UNL     1     -35.836  16.064  -4.097  1.00 20.00     0.150 C 
HETATM    5  C5  UNL     1     -34.628  16.178  -1.846  1.00 20.00     0.045 C 
HETATM    6  C6  UNL     1     -36.997  16.968  -3.689  1.00 20.00     0.042 C 
HETATM    7  N10 UNL     1     -34.222  14.337  -3.380  1.00 20.00     0.092 N 
HETATM    8  O11 UNL     1     -36.353  15.163  -5.086  1.00 20.00    -0.377 OA
HETATM    9  H30 UNL     1     -33.872  13.786  -2.597  1.00 20.00     0.316 HD
ENDROOT
BRANCH   3  10
HETATM   10  C8  UNL     1     -34.362  14.872  -6.477  1.00 20.00     0.033 C 
BRANCH  10  11
HETATM   11  C9  UNL     1     -35.020  15.465  -7.717  1.00 20.00    -0.002 C 
HETATM   12  C7  UNL     1     -34.799  16.968  -7.794  1.00 20.00     0.005 C 
ENDBRANCH  10  11
ENDBRANCH   3  10
TORSDOF 2
ENDMDL
MODEL 8
REMARK VINA RESULT:      -3.9     13.552     14.803
REMARK  2 active torsions:
REMARK  status: ('A' for Active; 'I' for Inactive)
REMARK    1  A    between atoms: C3_3  and  C8_8 
REMARK    2  A    between atoms: C8_8  and  C9_9 
ROOT
HETATM    1  C1  UNL     1     -43.233   3.446  -0.902  1.00 20.00     0.302 C 
HETATM    2  C2  UNL     1     -42.003   5.497  -0.659  1.00 20.00     0.244 C 
HETATM    3  C3  UNL     1     -43.208   3.591  -2.425  1.00 20.00     0.150 C 
HETATM    4  C4  UNL     1     -41.945   5.621  -2.195  1.00 20.00     0.150 C 
HETATM    5  C5  UNL     1     -40.788   6.117   0.030  1.00 20.00     0.045 C 
HETATM    6  C6  UNL     1     -41.989   7.073  -2.667  1.00 20.00     0.042 C 
HETATM    7  N10 UNL     1     -42.075   4.079  -0.271  1.00 20.00     0.092 N 
HETATM    8  O11 UNL     1     -43.077   4.969  -2.788  1.00 20.00    -0.377 OA
HETATM    9  H30 UNL     1     -42.157   4.003   0.743  1.00 20.00     0.316 HD
ENDROOT
BRANCH   3  10
HETATM   10  C8  UNL     1     -42.151   2.727  -3.111  1.00 20.00     0.033 C 
BRANCH  10  11
HETATM   11  C9  UNL     1     -42.594   1.272  -3.191  1.00 20.00    -0.002 C 
HETATM   12  C7  UNL     1     -41.617   0.441  -4.008  1.00 20.00     0.005 C 
ENDBRANCH  10  11
ENDBRANCH   3  10
TORSDOF 2
ENDMDL
MODEL 9
REMARK VINA RESULT:      -3.9      1.957      4.561
REMARK  2 active torsions:
REMARK  status: ('A' for Active; 'I' for Inactive)
REMARK    1  A    between atoms: C3_3  and  C8_8 
REMARK    2  A    between atoms: C8_8  and  C9_9 
ROOT
HETATM    1  C1  UNL     1     -33.501  17.490  -5.167  1.00 20.00     0.302 C 
HETATM    2  C2  UNL     1     -34.780  18.038  -3.205  1.00 20.00     0.244 C 
HETATM    3  C3  UNL     1     -33.361  16.042  -4.693  1.00 20.00     0.150 C 
HETATM    4  C4  UNL     1     -34.671  16.569  -2.749  1.00 20.00     0.150 C 
HETATM    5  C5  UNL     1     -36.071  18.708  -2.738  1.00 20.00     0.045 C 
HETATM    6  C6  UNL     1     -34.596  16.432  -1.230  1.00 20.00     0.042 C 
HETATM    7  N10 UNL     1     -34.731  18.113  -4.675  1.00 20.00     0.092 N 
HETATM    8  O11 UNL     1     -33.472  15.975  -3.268  1.00 20.00    -0.377 OA
HETATM    9  H30 UNL     1     -34.758  19.089  -4.971  1.00 20.00     0.316 HD
ENDROOT
BRANCH   3  10
HETATM   10  C8  UNL     1     -34.325  15.073  -5.376  1.00 20.00     0.033 C 
BRANCH  10  11
HETATM   11  C9  UNL     1     -34.303  15.248  -6.889  1.00 20.00    -0.002 C 
HETATM   12  C7  UNL     1     -35.414  14.449  -7.553  1.00 20.00     0.005 C 
ENDBRANCH  10  11
ENDBRANCH   3  10
TORSDOF 2
ENDMDL
