MODEL 1
REMARK VINA RESULT:      -3.9      0.000      0.000
REMARK  4 active torsions:
REMARK  status: ('A' for Active; 'I' for Inactive)
REMARK    1  A    between atoms: C5_5  and  C6_6 
REMARK    2  A    between atoms: C6_6  and  C9_9 
REMARK    3  A    between atoms: C7_7  and  C9_9 
REMARK    4  A    between atoms: C8_8  and  C9_9 
ROOT
HETATM    1  C4  UNL     1     -35.623  16.809  -3.791  1.00 20.00     0.016 C 
HETATM    2  C9  UNL     1     -34.292  16.049  -3.528  1.00 20.00    -0.029 C 
ENDROOT
BRANCH   2   3
HETATM    3  C6  UNL     1     -33.386  16.358  -4.769  1.00 20.00     0.010 C 
BRANCH   3   4
HETATM    4  C5  UNL     1     -34.078  16.722  -6.086  1.00 20.00    -0.004 C 
HETATM    5  C1  UNL     1     -34.204  15.504  -6.993  1.00 20.00     0.005 C 
ENDBRANCH   3   4
ENDBRANCH   2   3
BRANCH   2   6
HETATM    6  C7  UNL     1     -33.697  16.689  -2.235  1.00 20.00     0.124 C 
HETATM    7 CL10 UNL     1     -34.676  16.511  -0.758  1.00 20.00    -0.130 Cl
ENDBRANCH   2   6
BRANCH   2   8
HETATM    8  C8  UNL     1     -34.566  14.505  -3.355  1.00 20.00    -0.014 C 
HETATM    9  C2  UNL     1     -33.401  13.611  -3.807  1.00 20.00     0.010 C 
HETATM   10  C3  UNL     1     -35.844  14.013  -4.056  1.00 20.00     0.010 C 
ENDBRANCH   2   8
TORSDOF 4
ENDMDL
MODEL 2
REMARK VINA RESULT:      -3.9      2.076      3.585
REMARK  4 active torsions:
REMARK  status: ('A' for Active; 'I' for Inactive)
REMARK    1  A    between atoms: C5_5  and  C6_6 
REMARK    2  A    between atoms: C6_6  and  C9_9 
REMARK    3  A    between atoms: C7_7  and  C9_9 
REMARK    4  A    between atoms: C8_8  and  C9_9 
ROOT
HETATM    1  C4  UNL     1     -32.987  15.152  -3.576  1.00 20.00     0.016 C 
HETATM    2  C9  UNL     1     -34.509  15.453  -3.459  1.00 20.00    -0.029 C 
ENDROOT
BRANCH   2   3
HETATM    3  C6  UNL     1     -34.725  15.919  -1.978  1.00 20.00     0.010 C 
BRANCH   3   4
HETATM    4  C5  UNL     1     -33.854  17.064  -1.454  1.00 20.00    -0.004 C 
HETATM    5  C1  UNL     1     -34.332  17.536  -0.087  1.00 20.00     0.005 C 
ENDBRANCH   3   4
ENDBRANCH   2   3
BRANCH   2   6
HETATM    6  C7  UNL     1     -34.779  16.625  -4.454  1.00 20.00     0.124 C 
HETATM    7 CL10 UNL     1     -33.372  17.190  -5.388  1.00 20.00    -0.130 Cl
ENDBRANCH   2   6
BRANCH   2   8
HETATM    8  C8  UNL     1     -35.352  14.168  -3.813  1.00 20.00    -0.014 C 
HETATM    9  C2  UNL     1     -34.771  13.341  -4.971  1.00 20.00     0.010 C 
HETATM   10  C3  UNL     1     -36.830  14.454  -4.127  1.00 20.00     0.010 C 
ENDBRANCH   2   8
TORSDOF 4
ENDMDL
MODEL 3
REMARK VINA RESULT:      -3.9      1.843      3.723
REMARK  4 active torsions:
REMARK  status: ('A' for Active; 'I' for Inactive)
REMARK    1  A    between atoms: C5_5  and  C6_6 
REMARK    2  A    between atoms: C6_6  and  C9_9 
REMARK    3  A    between atoms: C7_7  and  C9_9 
REMARK    4  A    between atoms: C8_8  and  C9_9 
ROOT
HETATM    1  C4  UNL     1     -36.265  15.211  -3.338  1.00 20.00     0.016 C 
HETATM    2  C9  UNL     1     -34.776  15.216  -3.790  1.00 20.00    -0.029 C 
ENDROOT
BRANCH   2   3
HETATM    3  C6  UNL     1     -34.016  16.045  -2.698  1.00 20.00     0.010 C 
BRANCH   3   4
HETATM    4  C5  UNL     1     -34.749  16.344  -1.387  1.00 20.00    -0.004 C 
HETATM    5  C1  UNL     1     -34.021  17.414  -0.583  1.00 20.00     0.005 C 
ENDBRANCH   3   4
ENDBRANCH   2   3
BRANCH   2   6
HETATM    6  C7  UNL     1     -34.328  13.721  -3.762  1.00 20.00     0.124 C 
HETATM    7 CL10 UNL     1     -32.605  13.434  -3.421  1.00 20.00    -0.130 Cl
ENDBRANCH   2   6
BRANCH   2   8
HETATM    8  C8  UNL     1     -34.641  15.851  -5.228  1.00 20.00    -0.014 C 
HETATM    9  C2  UNL     1     -34.503  14.816  -6.355  1.00 20.00     0.010 C 
HETATM   10  C3  UNL     1     -33.486  16.858  -5.362  1.00 20.00     0.010 C 
ENDBRANCH   2   8
TORSDOF 4
ENDMDL
MODEL 4
REMARK VINA RESULT:      -3.8      1.688      3.332
REMARK  4 active torsions:
REMARK  status: ('A' for Active; 'I' for Inactive)
REMARK    1  A    between atoms: C5_5  and  C6_6 
REMARK    2  A    between atoms: C6_6  and  C9_9 
REMARK    3  A    between atoms: C7_7  and  C9_9 
REMARK    4  A    between atoms: C8_8  and  C9_9 
ROOT
HETATM    1  C4  UNL     1     -33.337  16.731  -4.991  1.00 20.00     0.016 C 
HETATM    2  C9  UNL     1     -34.432  15.742  -4.499  1.00 20.00    -0.029 C 
ENDROOT
BRANCH   2   3
HETATM    3  C6  UNL     1     -34.095  15.467  -2.993  1.00 20.00     0.010 C 
BRANCH   3   4
HETATM    4  C5  UNL     1     -33.815  16.673  -2.092  1.00 20.00    -0.004 C 
HETATM    5  C1  UNL     1     -34.666  16.623  -0.829  1.00 20.00     0.005 C 
ENDBRANCH   3   4
ENDBRANCH   2   3
BRANCH   2   6
HETATM    6  C7  UNL     1     -35.781  16.515  -4.634  1.00 20.00     0.124 C 
HETATM    7 CL10 UNL     1     -37.131  15.897  -3.651  1.00 20.00    -0.130 Cl
ENDBRANCH   2   6
BRANCH   2   8
HETATM    8  C8  UNL     1     -34.412  14.425  -5.368  1.00 20.00    -0.014 C 
HETATM    9  C2  UNL     1     -35.246  14.516  -6.656  1.00 20.00     0.010 C 
HETATM   10  C3  UNL     1     -34.850  13.164  -4.605  1.00 20.00     0.010 C 
ENDBRANCH   2   8
TORSDOF 4
ENDMDL
MODEL 5
REMARK VINA RESULT:      -3.8      1.786      3.001
REMARK  4 active torsions:
REMARK  status: ('A' for Active; 'I' for Inactive)
REMARK    1  A    between atoms: C5_5  and  C6_6 
REMARK    2  A    between atoms: C6_6  and  C9_9 
REMARK    3  A    between atoms: C7_7  and  C9_9 
REMARK    4  A    between atoms: C8_8  and  C9_9 
ROOT
HETATM    1  C4  UNL     1     -32.645  14.585  -3.530  1.00 20.00     0.016 C 
HETATM    2  C9  UNL     1     -33.766  15.659  -3.638  1.00 20.00    -0.029 C 
ENDROOT
BRANCH   2   3
HETATM    3  C6  UNL     1     -33.547  16.344  -5.031  1.00 20.00     0.010 C 
BRANCH   3   4
HETATM    4  C5  UNL     1     -34.669  16.234  -6.067  1.00 20.00    -0.004 C 
HETATM    5  C1  UNL     1     -34.311  15.232  -7.158  1.00 20.00     0.005 C 
ENDBRANCH   3   4
ENDBRANCH   2   3
BRANCH   2   6
HETATM    6  C7  UNL     1     -35.108  14.863  -3.617  1.00 20.00     0.124 C 
HETATM    7 CL10 UNL     1     -35.021  13.179  -4.189  1.00 20.00    -0.130 Cl
ENDBRANCH   2   6
BRANCH   2   8
HETATM    8  C8  UNL     1     -33.662  16.683  -2.443  1.00 20.00    -0.014 C 
HETATM    9  C2  UNL     1     -34.648  16.404  -1.297  1.00 20.00     0.010 C 
HETATM   10  C3  UNL     1     -33.823  18.154  -2.862  1.00 20.00     0.010 C 
ENDBRANCH   2   8
TORSDOF 4
ENDMDL
MODEL 6
REMARK VINA RESULT:      -3.8      1.996      3.485
REMARK  4 active torsions:
REMARK  status: ('A' for Active; 'I' for Inactive)
REMARK    1  A    between atoms: C5_5  and  C6_6 
REMARK    2  A    between atoms: C6_6  and  C9_9 
REMARK    3  A    between atoms: C7_7  and  C9_9 
REMARK    4  A    between atoms: C8_8  and  C9_9 
ROOT
HETATM    1  C4  UNL     1     -33.652  16.413  -4.044  1.00 20.00     0.016 C 
HETATM    2  C9  UNL     1     -34.724  15.456  -3.446  1.00 20.00    -0.029 C 
ENDROOT
BRANCH   2   3
HETATM    3  C6  UNL     1     -34.887  15.900  -1.951  1.00 20.00     0.010 C 
BRANCH   3   4
HETATM    4  C5  UNL     1     -33.968  17.009  -1.431  1.00 20.00    -0.004 C 
HETATM    5  C1  UNL     1     -34.418  17.494  -0.058  1.00 20.00     0.005 C 
ENDBRANCH   3   4
ENDBRANCH   2   3
BRANCH   2   6
HETATM    6  C7  UNL     1     -36.029  15.737  -4.253  1.00 20.00     0.124 C 
HETATM    7 CL10 UNL     1     -37.511  14.978  -3.623  1.00 20.00    -0.130 Cl
ENDBRANCH   2   6
BRANCH   2   8
HETATM    8  C8  UNL     1     -34.255  13.955  -3.578  1.00 20.00    -0.014 C 
HETATM    9  C2  UNL     1     -32.735  13.765  -3.455  1.00 20.00     0.010 C 
HETATM   10  C3  UNL     1     -34.718  13.266  -4.873  1.00 20.00     0.010 C 
ENDBRANCH   2   8
TORSDOF 4
ENDMDL
MODEL 7
REMARK VINA RESULT:      -3.8      2.095      3.500
REMARK  4 active torsions:
REMARK  status: ('A' for Active; 'I' for Inactive)
REMARK    1  A    between atoms: C5_5  and  C6_6 
REMARK    2  A    between atoms: C6_6  and  C9_9 
REMARK    3  A    between atoms: C7_7  and  C9_9 
REMARK    4  A    between atoms: C8_8  and  C9_9 
ROOT
HETATM    1  C4  UNL     1     -35.584  16.797  -3.779  1.00 20.00     0.016 C 
HETATM    2  C9  UNL     1     -34.219  16.241  -3.283  1.00 20.00    -0.029 C 
ENDROOT
BRANCH   2   3
HETATM    3  C6  UNL     1     -34.461  14.712  -3.036  1.00 20.00     0.010 C 
BRANCH   3   4
HETATM    4  C5  UNL     1     -33.760  13.717  -3.965  1.00 20.00    -0.004 C 
HETATM    5  C1  UNL     1     -34.737  13.128  -4.974  1.00 20.00     0.005 C 
ENDBRANCH   3   4
ENDBRANCH   2   3
BRANCH   2   6
HETATM    6  C7  UNL     1     -33.226  16.460  -4.466  1.00 20.00     0.124 C 
HETATM    7 CL10 UNL     1     -33.967  16.745  -6.059  1.00 20.00    -0.130 Cl
ENDBRANCH   2   6
BRANCH   2   8
HETATM    8  C8  UNL     1     -33.762  16.995  -1.974  1.00 20.00    -0.014 C 
HETATM    9  C2  UNL     1     -34.640  16.702  -0.747  1.00 20.00     0.010 C 
HETATM   10  C3  UNL     1     -33.660  18.522  -2.134  1.00 20.00     0.010 C 
ENDBRANCH   2   8
TORSDOF 4
ENDMDL
MODEL 8
REMARK VINA RESULT:      -3.7      2.019      3.897
REMARK  4 active torsions:
REMARK  status: ('A' for Active; 'I' for Inactive)
REMARK    1  A    between atoms: C5_5  and  C6_6 
REMARK    2  A    between atoms: C6_6  and  C9_9 
REMARK    3  A    between atoms: C7_7  and  C9_9 
REMARK    4  A    between atoms: C8_8  and  C9_9 
ROOT
HETATM    1  C4  UNL     1     -35.194  17.494  -3.510  1.00 20.00     0.016 C 
HETATM    2  C9  UNL     1     -34.808  16.102  -2.932  1.00 20.00    -0.029 C 
ENDROOT
BRANCH   2   3
HETATM    3  C6  UNL     1     -34.673  16.319  -1.386  1.00 20.00     0.010 C 
BRANCH   3   4
HETATM    4  C5  UNL     1     -33.783  17.466  -0.900  1.00 20.00    -0.004 C 
HETATM    5  C1  UNL     1     -34.248  17.984   0.455  1.00 20.00     0.005 C 
ENDBRANCH   3   4
ENDBRANCH   2   3
BRANCH   2   6
HETATM    6  C7  UNL     1     -36.017  15.169  -3.257  1.00 20.00     0.124 C 
HETATM    7 CL10 UNL     1     -36.640  15.257  -4.922  1.00 20.00    -0.130 Cl
ENDBRANCH   2   6
BRANCH   2   8
HETATM    8  C8  UNL     1     -33.468  15.588  -3.586  1.00 20.00    -0.014 C 
HETATM    9  C2  UNL     1     -33.143  16.243  -4.938  1.00 20.00     0.010 C 
HETATM   10  C3  UNL     1     -33.404  14.062  -3.769  1.00 20.00     0.010 C 
ENDBRANCH   2   8
TORSDOF 4
ENDMDL
MODEL 9
REMARK VINA RESULT:      -3.6      2.332      3.988
REMARK  4 active torsions:
REMARK  status: ('A' for Active; 'I' for Inactive)
REMARK    1  A    between atoms: C5_5  and  C6_6 
REMARK    2  A    between atoms: C6_6  and  C9_9 
REMARK    3  A    between atoms: C7_7  and  C9_9 
REMARK    4  A    between atoms: C8_8  and  C9_9 
ROOT
HETATM    1  C4  UNL     1     -34.982  13.620  -4.119  1.00 20.00     0.016 C 
HETATM    2  C9  UNL     1     -34.952  15.171  -4.000  1.00 20.00    -0.029 C 
ENDROOT
BRANCH   2   3
HETATM    3  C6  UNL     1     -34.058  15.472  -2.748  1.00 20.00     0.010 C 
BRANCH   3   4
HETATM    4  C5  UNL     1     -34.682  16.269  -1.599  1.00 20.00    -0.004 C 
HETATM    5  C1  UNL     1     -33.773  17.413  -1.168  1.00 20.00     0.005 C 
ENDBRANCH   3   4
ENDBRANCH   2   3
BRANCH   2   6
HETATM    6  C7  UNL     1     -34.262  15.674  -5.307  1.00 20.00     0.124 C 
HETATM    7 CL10 UNL     1     -34.586  14.717  -6.773  1.00 20.00    -0.130 Cl
ENDBRANCH   2   6
BRANCH   2   8
HETATM    8  C8  UNL     1     -36.415  15.738  -3.843  1.00 20.00    -0.014 C 
HETATM    9  C2  UNL     1     -37.515  14.674  -3.985  1.00 20.00     0.010 C 
HETATM   10  C3  UNL     1     -36.745  16.894  -4.803  1.00 20.00     0.010 C 
ENDBRANCH   2   8
TORSDOF 4
ENDMDL
