MODEL 1
REMARK VINA RESULT:      -5.8      0.000      0.000
REMARK  3 active torsions:
REMARK  status: ('A' for Active; 'I' for Inactive)
REMARK    1  A    between atoms: C5_5  and  C6_6 
REMARK    2  A    between atoms: C6_6  and  C7_7 
REMARK    3  A    between atoms: C7_7  and  C8_8 
ROOT
HETATM    1  C1  UNL     1     -32.118   8.865   1.209  1.00 20.00     0.012 C 
HETATM    2  C2  UNL     1     -32.035   8.132   2.156  1.00 20.00    -0.117 C 
HETATM    3  C5  UNL     1     -31.932   7.237   3.318  1.00 20.00     0.093 C 
ENDROOT
BRANCH   3   4
HETATM    4  C6  UNL     1     -32.908   6.062   3.194  1.00 20.00     0.018 C 
BRANCH   4   5
HETATM    5  C7  UNL     1     -34.172   6.216   4.075  1.00 20.00     0.000 C 
HETATM    6  C3  UNL     1     -35.392   5.546   3.430  1.00 20.00     0.011 C 
BRANCH   5   7
HETATM    7  C8  UNL     1     -33.883   5.720   5.517  1.00 20.00     0.082 C 
HETATM    8  C4  UNL     1     -33.881   6.842   6.554  1.00 20.00     0.027 C 
HETATM    9 CL9  UNL     1     -35.033   4.449   6.041  1.00 20.00    -0.125 Cl
ENDBRANCH   5   7
ENDBRANCH   4   5
ENDBRANCH   3   4
TORSDOF 3
ENDMDL
MODEL 2
REMARK VINA RESULT:      -5.3      1.249      1.476
REMARK  3 active torsions:
REMARK  status: ('A' for Active; 'I' for Inactive)
REMARK    1  A    between atoms: C5_5  and  C6_6 
REMARK    2  A    between atoms: C6_6  and  C7_7 
REMARK    3  A    between atoms: C7_7  and  C8_8 
ROOT
HETATM    1  C1  UNL     1     -32.130   9.042   1.498  1.00 20.00     0.012 C 
HETATM    2  C2  UNL     1     -32.112   8.009   2.109  1.00 20.00    -0.117 C 
HETATM    3  C5  UNL     1     -32.088   6.743   2.857  1.00 20.00     0.093 C 
ENDROOT
BRANCH   3   4
HETATM    4  C6  UNL     1     -32.982   6.821   4.098  1.00 20.00     0.018 C 
BRANCH   4   5
HETATM    5  C7  UNL     1     -34.358   6.136   3.911  1.00 20.00     0.000 C 
HETATM    6  C3  UNL     1     -34.303   5.050   2.829  1.00 20.00     0.011 C 
BRANCH   5   7
HETATM    7  C8  UNL     1     -34.893   5.627   5.275  1.00 20.00     0.082 C 
HETATM    8  C4  UNL     1     -34.760   4.116   5.452  1.00 20.00     0.027 C 
HETATM    9 CL9  UNL     1     -34.104   6.443   6.662  1.00 20.00    -0.125 Cl
ENDBRANCH   5   7
ENDBRANCH   4   5
ENDBRANCH   3   4
TORSDOF 3
ENDMDL
MODEL 3
REMARK VINA RESULT:      -5.2      1.286      1.927
REMARK  3 active torsions:
REMARK  status: ('A' for Active; 'I' for Inactive)
REMARK    1  A    between atoms: C5_5  and  C6_6 
REMARK    2  A    between atoms: C6_6  and  C7_7 
REMARK    3  A    between atoms: C7_7  and  C8_8 
ROOT
HETATM    1  C1  UNL     1     -31.999   8.888   1.281  1.00 20.00     0.012 C 
HETATM    2  C2  UNL     1     -32.067   8.018   2.105  1.00 20.00    -0.117 C 
HETATM    3  C5  UNL     1     -32.148   6.951   3.114  1.00 20.00     0.093 C 
ENDROOT
BRANCH   3   4
HETATM    4  C6  UNL     1     -33.491   6.993   3.851  1.00 20.00     0.018 C 
BRANCH   4   5
HETATM    5  C7  UNL     1     -33.568   6.013   5.047  1.00 20.00     0.000 C 
HETATM    6  C3  UNL     1     -33.816   6.756   6.367  1.00 20.00     0.011 C 
BRANCH   5   7
HETATM    7  C8  UNL     1     -34.607   4.897   4.759  1.00 20.00     0.082 C 
HETATM    8  C4  UNL     1     -35.193   4.273   6.024  1.00 20.00     0.027 C 
HETATM    9 CL9  UNL     1     -35.951   5.472   3.721  1.00 20.00    -0.125 Cl
ENDBRANCH   5   7
ENDBRANCH   4   5
ENDBRANCH   3   4
TORSDOF 3
ENDMDL
MODEL 4
REMARK VINA RESULT:      -4.5      2.132      4.398
REMARK  3 active torsions:
REMARK  status: ('A' for Active; 'I' for Inactive)
REMARK    1  A    between atoms: C5_5  and  C6_6 
REMARK    2  A    between atoms: C6_6  and  C7_7 
REMARK    3  A    between atoms: C7_7  and  C8_8 
ROOT
HETATM    1  C1  UNL     1     -35.136   3.935   5.903  1.00 20.00     0.012 C 
HETATM    2  C2  UNL     1     -34.613   5.014   5.972  1.00 20.00    -0.117 C 
HETATM    3  C5  UNL     1     -33.973   6.335   6.059  1.00 20.00     0.093 C 
ENDROOT
BRANCH   3   4
HETATM    4  C6  UNL     1     -33.867   6.985   4.676  1.00 20.00     0.018 C 
BRANCH   4   5
HETATM    5  C7  UNL     1     -33.017   6.167   3.673  1.00 20.00     0.000 C 
HETATM    6  C3  UNL     1     -33.891   5.523   2.589  1.00 20.00     0.011 C 
BRANCH   5   7
HETATM    7  C8  UNL     1     -31.869   7.044   3.105  1.00 20.00     0.082 C 
HETATM    8  C4  UNL     1     -32.340   8.060   2.067  1.00 20.00     0.027 C 
HETATM    9 CL9  UNL     1     -30.971   7.906   4.394  1.00 20.00    -0.125 Cl
ENDBRANCH   5   7
ENDBRANCH   4   5
ENDBRANCH   3   4
TORSDOF 3
ENDMDL
MODEL 5
REMARK VINA RESULT:      -4.2     11.348     12.644
REMARK  3 active torsions:
REMARK  status: ('A' for Active; 'I' for Inactive)
REMARK    1  A    between atoms: C5_5  and  C6_6 
REMARK    2  A    between atoms: C6_6  and  C7_7 
REMARK    3  A    between atoms: C7_7  and  C8_8 
ROOT
HETATM    1  C1  UNL     1     -34.666  17.365   0.197  1.00 20.00     0.012 C 
HETATM    2  C2  UNL     1     -34.740  16.720  -0.812  1.00 20.00    -0.117 C 
HETATM    3  C5  UNL     1     -34.833  15.928  -2.048  1.00 20.00     0.093 C 
ENDROOT
BRANCH   3   4
HETATM    4  C6  UNL     1     -33.516  15.976  -2.831  1.00 20.00     0.018 C 
BRANCH   4   5
HETATM    5  C7  UNL     1     -33.538  15.129  -4.126  1.00 20.00     0.000 C 
HETATM    6  C3  UNL     1     -34.149  13.743  -3.882  1.00 20.00     0.011 C 
BRANCH   5   7
HETATM    7  C8  UNL     1     -34.230  15.918  -5.270  1.00 20.00     0.082 C 
HETATM    8  C4  UNL     1     -33.587  17.276  -5.544  1.00 20.00     0.027 C 
HETATM    9 CL9  UNL     1     -34.287  14.985  -6.800  1.00 20.00    -0.125 Cl
ENDBRANCH   5   7
ENDBRANCH   4   5
ENDBRANCH   3   4
TORSDOF 3
ENDMDL
MODEL 6
REMARK VINA RESULT:      -4.1     11.330     12.551
REMARK  3 active torsions:
REMARK  status: ('A' for Active; 'I' for Inactive)
REMARK    1  A    between atoms: C5_5  and  C6_6 
REMARK    2  A    between atoms: C6_6  and  C7_7 
REMARK    3  A    between atoms: C7_7  and  C8_8 
ROOT
HETATM    1  C1  UNL     1     -34.542  16.654  -0.882  1.00 20.00     0.012 C 
HETATM    2  C2  UNL     1     -34.130  16.525  -2.002  1.00 20.00    -0.117 C 
HETATM    3  C5  UNL     1     -33.625  16.371  -3.375  1.00 20.00     0.093 C 
ENDROOT
BRANCH   3   4
HETATM    4  C6  UNL     1     -33.250  14.913  -3.661  1.00 20.00     0.018 C 
BRANCH   4   5
HETATM    5  C7  UNL     1     -34.103  14.266  -4.780  1.00 20.00     0.000 C 
HETATM    6  C3  UNL     1     -35.164  13.320  -4.203  1.00 20.00     0.011 C 
BRANCH   5   7
HETATM    7  C8  UNL     1     -34.690  15.364  -5.708  1.00 20.00     0.082 C 
HETATM    8  C4  UNL     1     -34.366  15.145  -7.184  1.00 20.00     0.027 C 
HETATM    9 CL9  UNL     1     -36.464  15.531  -5.523  1.00 20.00    -0.125 Cl
ENDBRANCH   5   7
ENDBRANCH   4   5
ENDBRANCH   3   4
TORSDOF 3
ENDMDL
MODEL 7
REMARK VINA RESULT:      -4.1     11.468     12.557
REMARK  3 active torsions:
REMARK  status: ('A' for Active; 'I' for Inactive)
REMARK    1  A    between atoms: C5_5  and  C6_6 
REMARK    2  A    between atoms: C6_6  and  C7_7 
REMARK    3  A    between atoms: C7_7  and  C8_8 
ROOT
HETATM    1  C1  UNL     1     -34.853  17.072  -0.117  1.00 20.00     0.012 C 
HETATM    2  C2  UNL     1     -34.379  16.704  -1.157  1.00 20.00    -0.117 C 
HETATM    3  C5  UNL     1     -33.795  16.254  -2.429  1.00 20.00     0.093 C 
ENDROOT
BRANCH   3   4
HETATM    4  C6  UNL     1     -34.864  15.636  -3.336  1.00 20.00     0.018 C 
BRANCH   4   5
HETATM    5  C7  UNL     1     -34.535  15.750  -4.844  1.00 20.00     0.000 C 
HETATM    6  C3  UNL     1     -33.270  16.586  -5.082  1.00 20.00     0.011 C 
BRANCH   5   7
HETATM    7  C8  UNL     1     -34.475  14.339  -5.488  1.00 20.00     0.082 C 
HETATM    8  C4  UNL     1     -34.933  13.225  -4.548  1.00 20.00     0.027 C 
HETATM    9 CL9  UNL     1     -35.425  14.245  -7.005  1.00 20.00    -0.125 Cl
ENDBRANCH   5   7
ENDBRANCH   4   5
ENDBRANCH   3   4
TORSDOF 3
ENDMDL
MODEL 8
REMARK VINA RESULT:      -4.1     11.209     11.981
REMARK  3 active torsions:
REMARK  status: ('A' for Active; 'I' for Inactive)
REMARK    1  A    between atoms: C5_5  and  C6_6 
REMARK    2  A    between atoms: C6_6  and  C7_7 
REMARK    3  A    between atoms: C7_7  and  C8_8 
ROOT
HETATM    1  C1  UNL     1     -34.716  13.125  -4.953  1.00 20.00     0.012 C 
HETATM    2  C2  UNL     1     -33.947  13.802  -4.327  1.00 20.00    -0.117 C 
HETATM    3  C5  UNL     1     -33.003  14.630  -3.561  1.00 20.00     0.093 C 
ENDROOT
BRANCH   3   4
HETATM    4  C6  UNL     1     -33.615  15.994  -3.228  1.00 20.00     0.018 C 
BRANCH   4   5
HETATM    5  C7  UNL     1     -34.852  15.904  -2.300  1.00 20.00     0.000 C 
HETATM    6  C3  UNL     1     -34.595  16.591  -0.952  1.00 20.00     0.011 C 
BRANCH   5   7
HETATM    7  C8  UNL     1     -36.112  16.434  -3.036  1.00 20.00     0.082 C 
HETATM    8  C4  UNL     1     -35.788  17.216  -4.306  1.00 20.00     0.027 C 
HETATM    9 CL9  UNL     1     -37.262  15.121  -3.442  1.00 20.00    -0.125 Cl
ENDBRANCH   5   7
ENDBRANCH   4   5
ENDBRANCH   3   4
TORSDOF 3
ENDMDL
MODEL 9
REMARK VINA RESULT:      -4.0     10.838     12.151
REMARK  3 active torsions:
REMARK  status: ('A' for Active; 'I' for Inactive)
REMARK    1  A    between atoms: C5_5  and  C6_6 
REMARK    2  A    between atoms: C6_6  and  C7_7 
REMARK    3  A    between atoms: C7_7  and  C8_8 
ROOT
HETATM    1  C1  UNL     1     -34.098  17.974   0.380  1.00 20.00     0.012 C 
HETATM    2  C2  UNL     1     -34.403  17.211  -0.495  1.00 20.00    -0.117 C 
HETATM    3  C5  UNL     1     -34.779  16.276  -1.567  1.00 20.00     0.093 C 
ENDROOT
BRANCH   3   4
HETATM    4  C6  UNL     1     -33.675  16.181  -2.625  1.00 20.00     0.018 C 
BRANCH   4   5
HETATM    5  C7  UNL     1     -34.216  16.072  -4.071  1.00 20.00     0.000 C 
HETATM    6  C3  UNL     1     -33.356  16.876  -5.055  1.00 20.00     0.011 C 
BRANCH   5   7
HETATM    7  C8  UNL     1     -34.385  14.582  -4.470  1.00 20.00     0.082 C 
HETATM    8  C4  UNL     1     -33.373  13.657  -3.797  1.00 20.00     0.027 C 
HETATM    9 CL9  UNL     1     -36.037  13.973  -4.137  1.00 20.00    -0.125 Cl
ENDBRANCH   5   7
ENDBRANCH   4   5
ENDBRANCH   3   4
TORSDOF 3
ENDMDL
