MODEL 1
REMARK VINA RESULT:      -4.2      0.000      0.000
REMARK  2 active torsions:
REMARK  status: ('A' for Active; 'I' for Inactive)
REMARK    1  A    between atoms: C4_4  and  C7_7 
REMARK    2  A    between atoms: C4_4  and  C8_8 
ROOT
HETATM    1  C1  UNL     1     -35.408  15.007  -4.969  1.00 20.00     0.039 C 
HETATM    2  C2  UNL     1     -34.953  13.775  -5.727  1.00 20.00     0.168 C 
HETATM    3  C3  UNL     1     -34.339  13.531  -3.491  1.00 20.00     0.178 C 
HETATM    4  C4  UNL     1     -34.486  15.027  -3.758  1.00 20.00    -0.001 C 
HETATM    5  O9  UNL     1     -34.379  12.876  -4.769  1.00 20.00    -0.390 OA
ENDROOT
BRANCH   4   6
HETATM    6  C7  UNL     1     -33.128  15.655  -4.110  1.00 20.00     0.126 C 
HETATM    7 CL10 UNL     1     -33.338  16.919  -5.334  1.00 20.00    -0.130 Cl
ENDBRANCH   4   6
BRANCH   4   8
HETATM    8  C8  UNL     1     -35.097  15.768  -2.570  1.00 20.00    -0.011 C 
HETATM    9  C5  UNL     1     -34.023  16.555  -1.831  1.00 20.00     0.010 C 
HETATM   10  C6  UNL     1     -36.218  16.685  -3.041  1.00 20.00     0.010 C 
ENDBRANCH   4   8
TORSDOF 2
ENDMDL
MODEL 2
REMARK VINA RESULT:      -4.1      1.653      2.259
REMARK  2 active torsions:
REMARK  status: ('A' for Active; 'I' for Inactive)
REMARK    1  A    between atoms: C4_4  and  C7_7 
REMARK    2  A    between atoms: C4_4  and  C8_8 
ROOT
HETATM    1  C1  UNL     1     -34.143  13.805  -3.521  1.00 20.00     0.039 C 
HETATM    2  C2  UNL     1     -34.513  13.215  -4.868  1.00 20.00     0.168 C 
HETATM    3  C3  UNL     1     -34.411  15.534  -5.084  1.00 20.00     0.178 C 
HETATM    4  C4  UNL     1     -34.671  15.229  -3.610  1.00 20.00    -0.001 C 
HETATM    5  O9  UNL     1     -34.588  14.302  -5.800  1.00 20.00    -0.390 OA
ENDROOT
BRANCH   4   6
HETATM    6  C7  UNL     1     -36.176  15.280  -3.300  1.00 20.00     0.126 C 
HETATM    7 CL10 UNL     1     -37.005  16.324  -4.469  1.00 20.00    -0.130 Cl
ENDBRANCH   4   6
BRANCH   4   8
HETATM    8  C8  UNL     1     -33.927  16.188  -2.682  1.00 20.00    -0.011 C 
HETATM    9  C5  UNL     1     -33.743  17.539  -3.360  1.00 20.00     0.010 C 
HETATM   10  C6  UNL     1     -34.679  16.336  -1.366  1.00 20.00     0.010 C 
ENDBRANCH   4   8
TORSDOF 2
ENDMDL
MODEL 3
REMARK VINA RESULT:      -4.0      2.451      3.426
REMARK  2 active torsions:
REMARK  status: ('A' for Active; 'I' for Inactive)
REMARK    1  A    between atoms: C4_4  and  C7_7 
REMARK    2  A    between atoms: C4_4  and  C8_8 
ROOT
HETATM    1  C1  UNL     1     -35.354  16.945  -4.068  1.00 20.00     0.039 C 
HETATM    2  C2  UNL     1     -34.669  18.071  -4.817  1.00 20.00     0.168 C 
HETATM    3  C3  UNL     1     -33.191  16.273  -4.681  1.00 20.00     0.178 C 
HETATM    4  C4  UNL     1     -34.188  16.126  -3.534  1.00 20.00    -0.001 C 
HETATM    5  O9  UNL     1     -33.387  17.584  -5.234  1.00 20.00    -0.390 OA
ENDROOT
BRANCH   4   6
HETATM    6  C7  UNL     1     -33.628  16.742  -2.241  1.00 20.00     0.126 C 
HETATM    7 CL10 UNL     1     -34.729  16.428  -0.889  1.00 20.00    -0.130 Cl
ENDBRANCH   4   6
BRANCH   4   8
HETATM    8  C8  UNL     1     -34.565  14.667  -3.280  1.00 20.00    -0.011 C 
HETATM    9  C5  UNL     1     -35.902  14.348  -3.935  1.00 20.00     0.010 C 
HETATM   10  C6  UNL     1     -33.470  13.743  -3.797  1.00 20.00     0.010 C 
ENDBRANCH   4   8
TORSDOF 2
ENDMDL
MODEL 4
REMARK VINA RESULT:      -4.0      1.801      2.781
REMARK  2 active torsions:
REMARK  status: ('A' for Active; 'I' for Inactive)
REMARK    1  A    between atoms: C4_4  and  C7_7 
REMARK    2  A    between atoms: C4_4  and  C8_8 
ROOT
HETATM    1  C1  UNL     1     -33.071  15.114  -3.828  1.00 20.00     0.039 C 
HETATM    2  C2  UNL     1     -33.027  13.626  -3.540  1.00 20.00     0.168 C 
HETATM    3  C3  UNL     1     -34.646  14.011  -5.173  1.00 20.00     0.178 C 
HETATM    4  C4  UNL     1     -34.468  15.314  -4.397  1.00 20.00    -0.001 C 
HETATM    5  O9  UNL     1     -33.947  12.993  -4.439  1.00 20.00    -0.390 OA
ENDROOT
BRANCH   4   6
HETATM    6  C7  UNL     1     -35.512  15.426  -3.274  1.00 20.00     0.126 C 
HETATM    7 CL10 UNL     1     -34.765  16.094  -1.812  1.00 20.00    -0.130 Cl
ENDBRANCH   4   6
BRANCH   4   8
HETATM    8  C8  UNL     1     -34.561  16.542  -5.302  1.00 20.00    -0.011 C 
HETATM    9  C5  UNL     1     -33.520  17.576  -4.895  1.00 20.00     0.010 C 
HETATM   10  C6  UNL     1     -34.385  16.136  -6.760  1.00 20.00     0.010 C 
ENDBRANCH   4   8
TORSDOF 2
ENDMDL
MODEL 5
REMARK VINA RESULT:      -3.9      1.829      2.744
REMARK  2 active torsions:
REMARK  status: ('A' for Active; 'I' for Inactive)
REMARK    1  A    between atoms: C4_4  and  C7_7 
REMARK    2  A    between atoms: C4_4  and  C8_8 
ROOT
HETATM    1  C1  UNL     1     -36.225  16.081  -3.376  1.00 20.00     0.039 C 
HETATM    2  C2  UNL     1     -37.589  15.440  -3.537  1.00 20.00     0.168 C 
HETATM    3  C3  UNL     1     -35.968  13.879  -4.144  1.00 20.00     0.178 C 
HETATM    4  C4  UNL     1     -35.347  15.263  -4.313  1.00 20.00    -0.001 C 
HETATM    5  O9  UNL     1     -37.374  14.078  -3.931  1.00 20.00    -0.390 OA
ENDROOT
BRANCH   4   6
HETATM    6  C7  UNL     1     -35.485  15.750  -5.764  1.00 20.00     0.126 C 
HETATM    7 CL10 UNL     1     -35.095  14.436  -6.888  1.00 20.00    -0.130 Cl
ENDBRANCH   4   6
BRANCH   4   8
HETATM    8  C8  UNL     1     -33.874  15.289  -3.905  1.00 20.00    -0.011 C 
HETATM    9  C5  UNL     1     -33.695  16.107  -2.633  1.00 20.00     0.010 C 
HETATM   10  C6  UNL     1     -33.355  13.870  -3.719  1.00 20.00     0.010 C 
ENDBRANCH   4   8
TORSDOF 2
ENDMDL
MODEL 6
REMARK VINA RESULT:      -3.9      2.048      3.435
REMARK  2 active torsions:
REMARK  status: ('A' for Active; 'I' for Inactive)
REMARK    1  A    between atoms: C4_4  and  C7_7 
REMARK    2  A    between atoms: C4_4  and  C8_8 
ROOT
HETATM    1  C1  UNL     1     -33.578  14.819  -4.266  1.00 20.00     0.039 C 
HETATM    2  C2  UNL     1     -34.085  13.687  -3.394  1.00 20.00     0.168 C 
HETATM    3  C3  UNL     1     -35.093  13.510  -5.489  1.00 20.00     0.178 C 
HETATM    4  C4  UNL     1     -34.674  14.967  -5.312  1.00 20.00    -0.001 C 
HETATM    5  O9  UNL     1     -34.943  12.876  -4.209  1.00 20.00    -0.390 OA
ENDROOT
BRANCH   4   6
HETATM    6  C7  UNL     1     -35.841  15.809  -4.772  1.00 20.00     0.126 C 
HETATM    7 CL10 UNL     1     -37.386  15.048  -5.191  1.00 20.00    -0.130 Cl
ENDBRANCH   4   6
BRANCH   4   8
HETATM    8  C8  UNL     1     -34.161  15.583  -6.613  1.00 20.00    -0.011 C 
HETATM    9  C5  UNL     1     -34.843  14.930  -7.808  1.00 20.00     0.010 C 
HETATM   10  C6  UNL     1     -34.391  17.088  -6.610  1.00 20.00     0.010 C 
ENDBRANCH   4   8
TORSDOF 2
ENDMDL
MODEL 7
REMARK VINA RESULT:      -3.8      1.903      3.447
REMARK  2 active torsions:
REMARK  status: ('A' for Active; 'I' for Inactive)
REMARK    1  A    between atoms: C4_4  and  C7_7 
REMARK    2  A    between atoms: C4_4  and  C8_8 
ROOT
HETATM    1  C1  UNL     1     -34.460  16.233  -1.886  1.00 20.00     0.039 C 
HETATM    2  C2  UNL     1     -35.056  17.621  -2.024  1.00 20.00     0.168 C 
HETATM    3  C3  UNL     1     -35.791  16.324  -3.816  1.00 20.00     0.178 C 
HETATM    4  C4  UNL     1     -34.492  15.701  -3.311  1.00 20.00    -0.001 C 
HETATM    5  O9  UNL     1     -35.918  17.600  -3.169  1.00 20.00    -0.390 OA
ENDROOT
BRANCH   4   6
HETATM    6  C7  UNL     1     -33.290  16.216  -4.119  1.00 20.00     0.126 C 
HETATM    7 CL10 UNL     1     -33.793  16.620  -5.770  1.00 20.00    -0.130 Cl
ENDBRANCH   4   6
BRANCH   4   8
HETATM    8  C8  UNL     1     -34.525  14.174  -3.365  1.00 20.00    -0.011 C 
HETATM    9  C5  UNL     1     -35.566  13.706  -4.372  1.00 20.00     0.010 C 
HETATM   10  C6  UNL     1     -33.146  13.629  -3.712  1.00 20.00     0.010 C 
ENDBRANCH   4   8
TORSDOF 2
ENDMDL
MODEL 8
REMARK VINA RESULT:      -3.8      2.632      3.447
REMARK  2 active torsions:
REMARK  status: ('A' for Active; 'I' for Inactive)
REMARK    1  A    between atoms: C4_4  and  C7_7 
REMARK    2  A    between atoms: C4_4  and  C8_8 
ROOT
HETATM    1  C1  UNL     1     -33.228  16.213  -4.886  1.00 20.00     0.039 C 
HETATM    2  C2  UNL     1     -33.579  17.655  -5.194  1.00 20.00     0.168 C 
HETATM    3  C3  UNL     1     -35.543  16.399  -5.223  1.00 20.00     0.178 C 
HETATM    4  C4  UNL     1     -34.388  15.438  -5.496  1.00 20.00    -0.001 C 
HETATM    5  O9  UNL     1     -35.006  17.728  -5.314  1.00 20.00    -0.390 OA
ENDROOT
BRANCH   4   6
HETATM    6  C7  UNL     1     -34.187  15.241  -7.007  1.00 20.00     0.126 C 
HETATM    7 CL10 UNL     1     -35.551  14.341  -7.692  1.00 20.00    -0.130 Cl
ENDBRANCH   4   6
BRANCH   4   8
HETATM    8  C8  UNL     1     -34.599  14.079  -4.829  1.00 20.00    -0.011 C 
HETATM    9  C5  UNL     1     -33.463  13.789  -3.856  1.00 20.00     0.010 C 
HETATM   10  C6  UNL     1     -35.946  14.044  -4.120  1.00 20.00     0.010 C 
ENDBRANCH   4   8
TORSDOF 2
ENDMDL
MODEL 9
REMARK VINA RESULT:      -3.8      2.129      2.525
REMARK  2 active torsions:
REMARK  status: ('A' for Active; 'I' for Inactive)
REMARK    1  A    between atoms: C4_4  and  C7_7 
REMARK    2  A    between atoms: C4_4  and  C8_8 
ROOT
HETATM    1  C1  UNL     1     -33.409  17.121  -4.877  1.00 20.00     0.039 C 
HETATM    2  C2  UNL     1     -34.160  16.507  -6.043  1.00 20.00     0.168 C 
HETATM    3  C3  UNL     1     -35.234  15.886  -4.069  1.00 20.00     0.178 C 
HETATM    4  C4  UNL     1     -33.787  16.219  -3.711  1.00 20.00    -0.001 C 
HETATM    5  O9  UNL     1     -35.304  15.832  -5.503  1.00 20.00    -0.390 OA
ENDROOT
BRANCH   4   6
HETATM    6  C7  UNL     1     -32.923  14.948  -3.693  1.00 20.00     0.126 C 
HETATM    7 CL10 UNL     1     -33.954  13.510  -3.594  1.00 20.00    -0.130 Cl
ENDBRANCH   4   6
BRANCH   4   8
HETATM    8  C8  UNL     1     -33.676  16.929  -2.362  1.00 20.00    -0.011 C 
HETATM    9  C5  UNL     1     -33.856  18.431  -2.542  1.00 20.00     0.010 C 
HETATM   10  C6  UNL     1     -34.703  16.370  -1.386  1.00 20.00     0.010 C 
ENDBRANCH   4   8
TORSDOF 2
ENDMDL
