MODEL 1
REMARK VINA RESULT:      -4.2      0.000      0.000
REMARK  1 active torsions:
REMARK  status: ('A' for Active; 'I' for Inactive)
REMARK    1  A    between atoms: C4_4  and  C6_6 
ROOT
HETATM    1  C1  UNL     1     -34.655   5.470   6.372  1.00 20.00     0.029 C 
HETATM    2  C2  UNL     1     -34.069   6.153   5.160  1.00 20.00     0.041 C 
HETATM    3  C3  UNL     1     -34.736   4.032   5.910  1.00 20.00     0.169 C 
HETATM    4  C4  UNL     1     -34.712   5.389   4.002  1.00 20.00     0.070 C 
HETATM    5  C5  UNL     1     -36.048   6.004   3.581  1.00 20.00     0.047 C 
HETATM    6  O7  UNL     1     -34.978   4.061   4.497  1.00 20.00    -0.379 OA
ENDROOT
BRANCH   4   7
HETATM    7  C6  UNL     1     -33.778   5.285   2.800  1.00 20.00     0.152 C 
HETATM    8 CL8  UNL     1     -32.310   6.235   3.083  1.00 20.00    -0.127 Cl
ENDBRANCH   4   7
TORSDOF 1
ENDMDL
MODEL 2
REMARK VINA RESULT:      -3.6     12.150     13.007
REMARK  1 active torsions:
REMARK  status: ('A' for Active; 'I' for Inactive)
REMARK    1  A    between atoms: C4_4  and  C6_6 
ROOT
HETATM    1  C1  UNL     1     -34.723  13.746  -4.021  1.00 20.00     0.029 C 
HETATM    2  C2  UNL     1     -35.149  15.051  -3.394  1.00 20.00     0.041 C 
HETATM    3  C3  UNL     1     -33.262  13.678  -3.637  1.00 20.00     0.169 C 
HETATM    4  C4  UNL     1     -33.909  15.927  -3.569  1.00 20.00     0.070 C 
HETATM    5  C5  UNL     1     -33.921  16.677  -4.903  1.00 20.00     0.047 C 
HETATM    6  O7  UNL     1     -32.781  15.028  -3.584  1.00 20.00    -0.379 OA
ENDROOT
BRANCH   4   7
HETATM    7  C6  UNL     1     -33.735  16.909  -2.415  1.00 20.00     0.152 C 
HETATM    8 CL8  UNL     1     -34.666  16.367  -1.007  1.00 20.00    -0.127 Cl
ENDBRANCH   4   7
TORSDOF 1
ENDMDL
MODEL 3
REMARK VINA RESULT:      -3.6     12.229     13.042
REMARK  1 active torsions:
REMARK  status: ('A' for Active; 'I' for Inactive)
REMARK    1  A    between atoms: C4_4  and  C6_6 
ROOT
HETATM    1  C1  UNL     1     -34.760  13.310  -5.034  1.00 20.00     0.029 C 
HETATM    2  C2  UNL     1     -34.375  13.740  -3.640  1.00 20.00     0.041 C 
HETATM    3  C3  UNL     1     -34.464  14.557  -5.838  1.00 20.00     0.169 C 
HETATM    4  C4  UNL     1     -34.798  15.209  -3.614  1.00 20.00     0.070 C 
HETATM    5  C5  UNL     1     -36.249  15.380  -3.160  1.00 20.00     0.047 C 
HETATM    6  O7  UNL     1     -34.707  15.676  -4.975  1.00 20.00    -0.379 OA
ENDROOT
BRANCH   4   7
HETATM    7  C6  UNL     1     -33.872  16.055  -2.745  1.00 20.00     0.152 C 
HETATM    8 CL8  UNL     1     -34.624  16.361  -1.170  1.00 20.00    -0.127 Cl
ENDBRANCH   4   7
TORSDOF 1
ENDMDL
MODEL 4
REMARK VINA RESULT:      -3.5     12.430     13.203
REMARK  1 active torsions:
REMARK  status: ('A' for Active; 'I' for Inactive)
REMARK    1  A    between atoms: C4_4  and  C6_6 
ROOT
HETATM    1  C1  UNL     1     -33.430  13.706  -3.669  1.00 20.00     0.029 C 
HETATM    2  C2  UNL     1     -33.120  15.179  -3.783  1.00 20.00     0.041 C 
HETATM    3  C3  UNL     1     -34.868  13.652  -4.132  1.00 20.00     0.169 C 
HETATM    4  C4  UNL     1     -34.444  15.831  -3.385  1.00 20.00     0.070 C 
HETATM    5  C5  UNL     1     -34.535  16.068  -1.876  1.00 20.00     0.047 C 
HETATM    6  O7  UNL     1     -35.478  14.891  -3.743  1.00 20.00    -0.379 OA
ENDROOT
BRANCH   4   7
HETATM    7  C6  UNL     1     -34.688  17.135  -4.138  1.00 20.00     0.152 C 
HETATM    8 CL8  UNL     1     -33.450  17.359  -5.387  1.00 20.00    -0.127 Cl
ENDBRANCH   4   7
TORSDOF 1
ENDMDL
MODEL 5
REMARK VINA RESULT:      -3.5      1.626      2.968
REMARK  1 active torsions:
REMARK  status: ('A' for Active; 'I' for Inactive)
REMARK    1  A    between atoms: C4_4  and  C6_6 
ROOT
HETATM    1  C1  UNL     1     -34.010   5.570   2.955  1.00 20.00     0.029 C 
HETATM    2  C2  UNL     1     -33.436   5.744   4.340  1.00 20.00     0.041 C 
HETATM    3  C3  UNL     1     -35.489   5.762   3.205  1.00 20.00     0.169 C 
HETATM    4  C4  UNL     1     -34.507   5.112   5.229  1.00 20.00     0.070 C 
HETATM    5  C5  UNL     1     -34.275   3.612   5.427  1.00 20.00     0.047 C 
HETATM    6  O7  UNL     1     -35.756   5.272   4.526  1.00 20.00    -0.379 OA
ENDROOT
BRANCH   4   7
HETATM    7  C6  UNL     1     -34.614   5.811   6.580  1.00 20.00     0.152 C 
HETATM    8 CL8  UNL     1     -33.485   7.175   6.652  1.00 20.00    -0.127 Cl
ENDBRANCH   4   7
TORSDOF 1
ENDMDL
MODEL 6
REMARK VINA RESULT:      -3.4     12.558     13.373
REMARK  1 active torsions:
REMARK  status: ('A' for Active; 'I' for Inactive)
REMARK    1  A    between atoms: C4_4  and  C6_6 
ROOT
HETATM    1  C1  UNL     1     -34.342  16.271  -2.412  1.00 20.00     0.029 C 
HETATM    2  C2  UNL     1     -35.129  15.168  -3.078  1.00 20.00     0.041 C 
HETATM    3  C3  UNL     1     -33.651  16.917  -3.593  1.00 20.00     0.169 C 
HETATM    4  C4  UNL     1     -34.195  14.722  -4.203  1.00 20.00     0.070 C 
HETATM    5  C5  UNL     1     -33.231  13.625  -3.747  1.00 20.00     0.047 C 
HETATM    6  O7  UNL     1     -33.407  15.879  -4.552  1.00 20.00    -0.379 OA
ENDROOT
BRANCH   4   7
HETATM    7  C6  UNL     1     -34.966  14.266  -5.438  1.00 20.00     0.152 C 
HETATM    8 CL8  UNL     1     -34.295  15.026  -6.892  1.00 20.00    -0.127 Cl
ENDBRANCH   4   7
TORSDOF 1
ENDMDL
MODEL 7
REMARK VINA RESULT:      -3.4     12.304     13.076
REMARK  1 active torsions:
REMARK  status: ('A' for Active; 'I' for Inactive)
REMARK    1  A    between atoms: C4_4  and  C6_6 
ROOT
HETATM    1  C1  UNL     1     -33.290  15.217  -3.444  1.00 20.00     0.029 C 
HETATM    2  C2  UNL     1     -34.116  15.571  -4.657  1.00 20.00     0.041 C 
HETATM    3  C3  UNL     1     -33.077  13.732  -3.634  1.00 20.00     0.169 C 
HETATM    4  C4  UNL     1     -34.995  14.333  -4.837  1.00 20.00     0.070 C 
HETATM    5  C5  UNL     1     -36.298  14.436  -4.041  1.00 20.00     0.047 C 
HETATM    6  O7  UNL     1     -34.242  13.226  -4.301  1.00 20.00    -0.379 OA
ENDROOT
BRANCH   4   7
HETATM    7  C6  UNL     1     -35.295  14.055  -6.306  1.00 20.00     0.152 C 
HETATM    8 CL8  UNL     1     -34.257  15.052  -7.341  1.00 20.00    -0.127 Cl
ENDBRANCH   4   7
TORSDOF 1
ENDMDL
MODEL 8
REMARK VINA RESULT:      -3.4      1.743      2.330
REMARK  1 active torsions:
REMARK  status: ('A' for Active; 'I' for Inactive)
REMARK    1  A    between atoms: C4_4  and  C6_6 
ROOT
HETATM    1  C1  UNL     1     -34.994   4.698   4.853  1.00 20.00     0.029 C 
HETATM    2  C2  UNL     1     -34.889   5.514   3.588  1.00 20.00     0.041 C 
HETATM    3  C3  UNL     1     -34.429   5.649   5.885  1.00 20.00     0.169 C 
HETATM    4  C4  UNL     1     -33.587   6.288   3.795  1.00 20.00     0.070 C 
HETATM    5  C5  UNL     1     -32.372   5.513   3.280  1.00 20.00     0.047 C 
HETATM    6  O7  UNL     1     -33.434   6.442   5.221  1.00 20.00    -0.379 OA
ENDROOT
BRANCH   4   7
HETATM    7  C6  UNL     1     -33.638   7.673   3.157  1.00 20.00     0.152 C 
HETATM    8 CL8  UNL     1     -32.130   7.998   2.284  1.00 20.00    -0.127 Cl
ENDBRANCH   4   7
TORSDOF 1
ENDMDL
MODEL 9
REMARK VINA RESULT:      -3.4      8.717      9.889
REMARK  1 active torsions:
REMARK  status: ('A' for Active; 'I' for Inactive)
REMARK    1  A    between atoms: C4_4  and  C6_6 
ROOT
HETATM    1  C1  UNL     1     -41.892   5.204   0.385  1.00 20.00     0.029 C 
HETATM    2  C2  UNL     1     -42.969   5.177  -0.673  1.00 20.00     0.041 C 
HETATM    3  C3  UNL     1     -40.834   6.063  -0.269  1.00 20.00     0.169 C 
HETATM    4  C4  UNL     1     -42.163   5.157  -1.971  1.00 20.00     0.070 C 
HETATM    5  C5  UNL     1     -41.828   3.732  -2.416  1.00 20.00     0.047 C 
HETATM    6  O7  UNL     1     -40.919   5.828  -1.681  1.00 20.00    -0.379 OA
ENDROOT
BRANCH   4   7
HETATM    7  C6  UNL     1     -42.871   5.907  -3.095  1.00 20.00     0.152 C 
HETATM    8 CL8  UNL     1     -42.259   7.566  -3.202  1.00 20.00    -0.127 Cl
ENDBRANCH   4   7
TORSDOF 1
ENDMDL
