MODEL 1
REMARK VINA RESULT:      -4.3      0.000      0.000
REMARK  3 active torsions:
REMARK  status: ('A' for Active; 'I' for Inactive)
REMARK    1  A    between atoms: C1_1  and  C5_5 
REMARK    2  A    between atoms: C1_1  and  C8_8 
REMARK    3  A    between atoms: C8_8  and  C9_9 
ROOT
HETATM    1  C2  UNL     1     -34.470  17.206  -0.656  1.00 20.00     0.029 C 
HETATM    2  C3  UNL     1     -34.601  16.122  -1.698  1.00 20.00     0.048 C 
HETATM    3  C4  UNL     1     -33.369  18.065  -1.231  1.00 20.00     0.169 C 
HETATM    4  C5  UNL     1     -34.305  16.864  -2.997  1.00 20.00     0.117 C 
HETATM    5  C6  UNL     1     -35.561  17.309  -3.733  1.00 20.00     0.054 C 
HETATM    6  O11 UNL     1     -33.538  18.029  -2.654  1.00 20.00    -0.373 OA
ENDROOT
BRANCH   4   7
HETATM    7  C1  UNL     1     -33.432  16.042  -3.898  1.00 20.00     0.160 C 
HETATM    8  O10 UNL     1     -32.903  16.538  -4.892  1.00 20.00    -0.295 OA
BRANCH   7   9
HETATM    9  C8  UNL     1     -33.251  14.586  -3.506  1.00 20.00     0.081 C 
BRANCH   9  10
HETATM   10  C9  UNL     1     -33.945  13.630  -4.471  1.00 20.00     0.003 C 
HETATM   11  C7  UNL     1     -35.428  13.505  -4.163  1.00 20.00     0.005 C 
ENDBRANCH   9  10
ENDBRANCH   7   9
ENDBRANCH   4   7
TORSDOF 3
ENDMDL
MODEL 2
REMARK VINA RESULT:      -4.3      1.239      3.779
REMARK  3 active torsions:
REMARK  status: ('A' for Active; 'I' for Inactive)
REMARK    1  A    between atoms: C1_1  and  C5_5 
REMARK    2  A    between atoms: C1_1  and  C8_8 
REMARK    3  A    between atoms: C8_8  and  C9_9 
ROOT
HETATM    1  C2  UNL     1     -33.530  13.689  -3.935  1.00 20.00     0.029 C 
HETATM    2  C3  UNL     1     -32.888  15.009  -3.582  1.00 20.00     0.048 C 
HETATM    3  C4  UNL     1     -35.000  14.016  -3.826  1.00 20.00     0.169 C 
HETATM    4  C5  UNL     1     -33.867  16.026  -4.157  1.00 20.00     0.117 C 
HETATM    5  C6  UNL     1     -33.463  16.538  -5.533  1.00 20.00     0.054 C 
HETATM    6  O11 UNL     1     -35.141  15.372  -4.267  1.00 20.00    -0.373 OA
ENDROOT
BRANCH   4   7
HETATM    7  C1  UNL     1     -34.069  17.171  -3.210  1.00 20.00     0.160 C 
HETATM    8  O10 UNL     1     -34.568  18.229  -3.592  1.00 20.00    -0.295 OA
BRANCH   7   9
HETATM    9  C8  UNL     1     -33.624  16.939  -1.777  1.00 20.00     0.081 C 
BRANCH   9  10
HETATM   10  C9  UNL     1     -34.781  16.556  -0.860  1.00 20.00     0.003 C 
HETATM   11  C7  UNL     1     -34.839  17.449   0.369  1.00 20.00     0.005 C 
ENDBRANCH   9  10
ENDBRANCH   7   9
ENDBRANCH   4   7
TORSDOF 3
ENDMDL
MODEL 3
REMARK VINA RESULT:      -4.3     11.854     12.722
REMARK  3 active torsions:
REMARK  status: ('A' for Active; 'I' for Inactive)
REMARK    1  A    between atoms: C1_1  and  C5_5 
REMARK    2  A    between atoms: C1_1  and  C8_8 
REMARK    3  A    between atoms: C8_8  and  C9_9 
ROOT
HETATM    1  C2  UNL     1     -35.085   4.372   6.195  1.00 20.00     0.029 C 
HETATM    2  C3  UNL     1     -34.799   4.142   4.731  1.00 20.00     0.048 C 
HETATM    3  C4  UNL     1     -34.369   5.676   6.454  1.00 20.00     0.169 C 
HETATM    4  C5  UNL     1     -34.783   5.556   4.163  1.00 20.00     0.117 C 
HETATM    5  C6  UNL     1     -36.107   5.966   3.533  1.00 20.00     0.054 C 
HETATM    6  O11 UNL     1     -34.500   6.447   5.253  1.00 20.00    -0.373 OA
ENDROOT
BRANCH   4   7
HETATM    7  C1  UNL     1     -33.660   5.729   3.183  1.00 20.00     0.160 C 
HETATM    8  O10 UNL     1     -33.619   5.069   2.146  1.00 20.00    -0.295 OA
BRANCH   7   9
HETATM    9  C8  UNL     1     -32.602   6.752   3.554  1.00 20.00     0.081 C 
BRANCH   9  10
HETATM   10  C9  UNL     1     -31.873   7.308   2.334  1.00 20.00     0.003 C 
HETATM   11  C7  UNL     1     -32.317   8.727   2.018  1.00 20.00     0.005 C 
ENDBRANCH   9  10
ENDBRANCH   7   9
ENDBRANCH   4   7
TORSDOF 3
ENDMDL
MODEL 4
REMARK VINA RESULT:      -4.3      1.610      3.469
REMARK  3 active torsions:
REMARK  status: ('A' for Active; 'I' for Inactive)
REMARK    1  A    between atoms: C1_1  and  C5_5 
REMARK    2  A    between atoms: C1_1  and  C8_8 
REMARK    3  A    between atoms: C8_8  and  C9_9 
ROOT
HETATM    1  C2  UNL     1     -36.909  14.527  -4.009  1.00 20.00     0.029 C 
HETATM    2  C3  UNL     1     -35.423  14.258  -3.987  1.00 20.00     0.048 C 
HETATM    3  C4  UNL     1     -36.954  16.028  -4.169  1.00 20.00     0.169 C 
HETATM    4  C5  UNL     1     -34.875  15.311  -4.943  1.00 20.00     0.117 C 
HETATM    5  C6  UNL     1     -34.647  14.784  -6.353  1.00 20.00     0.054 C 
HETATM    6  O11 UNL     1     -35.840  16.374  -5.002  1.00 20.00    -0.373 OA
ENDROOT
BRANCH   4   7
HETATM    7  C1  UNL     1     -33.616  15.923  -4.402  1.00 20.00     0.160 C 
HETATM    8  O10 UNL     1     -32.851  16.549  -5.134  1.00 20.00    -0.295 OA
BRANCH   7   9
HETATM    9  C8  UNL     1     -33.359  15.720  -2.919  1.00 20.00     0.081 C 
BRANCH   9  10
HETATM   10  C9  UNL     1     -33.757  16.932  -2.084  1.00 20.00     0.003 C 
HETATM   11  C7  UNL     1     -34.683  16.544  -0.942  1.00 20.00     0.005 C 
ENDBRANCH   9  10
ENDBRANCH   7   9
ENDBRANCH   4   7
TORSDOF 3
ENDMDL
MODEL 5
REMARK VINA RESULT:      -4.2      1.793      4.357
REMARK  3 active torsions:
REMARK  status: ('A' for Active; 'I' for Inactive)
REMARK    1  A    between atoms: C1_1  and  C5_5 
REMARK    2  A    between atoms: C1_1  and  C8_8 
REMARK    3  A    between atoms: C8_8  and  C9_9 
ROOT
HETATM    1  C2  UNL     1     -34.853  14.445  -6.560  1.00 20.00     0.029 C 
HETATM    2  C3  UNL     1     -35.401  14.166  -5.181  1.00 20.00     0.048 C 
HETATM    3  C4  UNL     1     -34.158  15.771  -6.359  1.00 20.00     0.169 C 
HETATM    4  C5  UNL     1     -34.334  14.757  -4.267  1.00 20.00     0.117 C 
HETATM    5  C6  UNL     1     -33.340  13.724  -3.755  1.00 20.00     0.054 C 
HETATM    6  O11 UNL     1     -33.620  15.741  -5.031  1.00 20.00    -0.373 OA
ENDROOT
BRANCH   4   7
HETATM    7  C1  UNL     1     -34.960  15.496  -3.121  1.00 20.00     0.160 C 
HETATM    8  O10 UNL     1     -36.173  15.446  -2.922  1.00 20.00    -0.295 OA
BRANCH   7   9
HETATM    9  C8  UNL     1     -34.011  16.293  -2.242  1.00 20.00     0.081 C 
BRANCH   9  10
HETATM   10  C9  UNL     1     -34.615  16.627  -0.882  1.00 20.00     0.003 C 
HETATM   11  C7  UNL     1     -33.922  17.819  -0.241  1.00 20.00     0.005 C 
ENDBRANCH   9  10
ENDBRANCH   7   9
ENDBRANCH   4   7
TORSDOF 3
ENDMDL
MODEL 6
REMARK VINA RESULT:      -4.1      2.290      4.359
REMARK  3 active torsions:
REMARK  status: ('A' for Active; 'I' for Inactive)
REMARK    1  A    between atoms: C1_1  and  C5_5 
REMARK    2  A    between atoms: C1_1  and  C8_8 
REMARK    3  A    between atoms: C8_8  and  C9_9 
ROOT
HETATM    1  C2  UNL     1     -35.492  15.916  -6.755  1.00 20.00     0.029 C 
HETATM    2  C3  UNL     1     -35.275  16.154  -5.280  1.00 20.00     0.048 C 
HETATM    3  C4  UNL     1     -34.903  14.538  -6.941  1.00 20.00     0.169 C 
HETATM    4  C5  UNL     1     -35.443  14.761  -4.684  1.00 20.00     0.117 C 
HETATM    5  C6  UNL     1     -36.839  14.508  -4.133  1.00 20.00     0.054 C 
HETATM    6  O11 UNL     1     -35.188  13.816  -5.736  1.00 20.00    -0.373 OA
ENDROOT
BRANCH   4   7
HETATM    7  C1  UNL     1     -34.407  14.498  -3.631  1.00 20.00     0.160 C 
HETATM    8  O10 UNL     1     -34.065  13.350  -3.352  1.00 20.00    -0.295 OA
BRANCH   7   9
HETATM    9  C8  UNL     1     -33.825  15.723  -2.948  1.00 20.00     0.081 C 
BRANCH   9  10
HETATM   10  C9  UNL     1     -34.599  16.118  -1.695  1.00 20.00     0.003 C 
HETATM   11  C7  UNL     1     -33.955  17.301  -0.990  1.00 20.00     0.005 C 
ENDBRANCH   9  10
ENDBRANCH   7   9
ENDBRANCH   4   7
TORSDOF 3
ENDMDL
MODEL 7
REMARK VINA RESULT:      -4.1      1.923      4.236
REMARK  3 active torsions:
REMARK  status: ('A' for Active; 'I' for Inactive)
REMARK    1  A    between atoms: C1_1  and  C5_5 
REMARK    2  A    between atoms: C1_1  and  C8_8 
REMARK    3  A    between atoms: C8_8  and  C9_9 
ROOT
HETATM    1  C2  UNL     1     -36.490  15.145  -6.571  1.00 20.00     0.029 C 
HETATM    2  C3  UNL     1     -35.977  15.328  -5.163  1.00 20.00     0.048 C 
HETATM    3  C4  UNL     1     -35.246  15.389  -7.393  1.00 20.00     0.169 C 
HETATM    4  C5  UNL     1     -34.554  14.789  -5.249  1.00 20.00     0.117 C 
HETATM    5  C6  UNL     1     -34.429  13.344  -4.787  1.00 20.00     0.054 C 
HETATM    6  O11 UNL     1     -34.154  14.867  -6.626  1.00 20.00    -0.373 OA
ENDROOT
BRANCH   4   7
HETATM    7  C1  UNL     1     -33.602  15.666  -4.490  1.00 20.00     0.160 C 
HETATM    8  O10 UNL     1     -32.879  16.471  -5.076  1.00 20.00    -0.295 OA
BRANCH   7   9
HETATM    9  C8  UNL     1     -33.593  15.494  -2.981  1.00 20.00     0.081 C 
BRANCH   9  10
HETATM   10  C9  UNL     1     -33.843  16.804  -2.241  1.00 20.00     0.003 C 
HETATM   11  C7  UNL     1     -34.621  16.578  -0.955  1.00 20.00     0.005 C 
ENDBRANCH   9  10
ENDBRANCH   7   9
ENDBRANCH   4   7
TORSDOF 3
ENDMDL
MODEL 8
REMARK VINA RESULT:      -4.0      2.142      4.252
REMARK  3 active torsions:
REMARK  status: ('A' for Active; 'I' for Inactive)
REMARK    1  A    between atoms: C1_1  and  C5_5 
REMARK    2  A    between atoms: C1_1  and  C8_8 
REMARK    3  A    between atoms: C8_8  and  C9_9 
ROOT
HETATM    1  C2  UNL     1     -35.737  14.805  -6.959  1.00 20.00     0.029 C 
HETATM    2  C3  UNL     1     -34.553  14.438  -6.098  1.00 20.00     0.048 C 
HETATM    3  C4  UNL     1     -36.681  15.418  -5.951  1.00 20.00     0.169 C 
HETATM    4  C5  UNL     1     -34.531  15.554  -5.060  1.00 20.00     0.117 C 
HETATM    5  C6  UNL     1     -33.556  16.673  -5.401  1.00 20.00     0.054 C 
HETATM    6  O11 UNL     1     -35.856  16.103  -4.999  1.00 20.00    -0.373 OA
ENDROOT
BRANCH   4   7
HETATM    7  C1  UNL     1     -34.245  15.008  -3.692  1.00 20.00     0.160 C 
HETATM    8  O10 UNL     1     -34.429  13.820  -3.433  1.00 20.00    -0.295 OA
BRANCH   7   9
HETATM    9  C8  UNL     1     -33.724  16.004  -2.671  1.00 20.00     0.081 C 
BRANCH   9  10
HETATM   10  C9  UNL     1     -34.710  16.246  -1.533  1.00 20.00     0.003 C 
HETATM   11  C7  UNL     1     -34.195  17.295  -0.561  1.00 20.00     0.005 C 
ENDBRANCH   9  10
ENDBRANCH   7   9
ENDBRANCH   4   7
TORSDOF 3
ENDMDL
MODEL 9
REMARK VINA RESULT:      -4.0      2.236      3.412
REMARK  3 active torsions:
REMARK  status: ('A' for Active; 'I' for Inactive)
REMARK    1  A    between atoms: C1_1  and  C5_5 
REMARK    2  A    between atoms: C1_1  and  C8_8 
REMARK    3  A    between atoms: C8_8  and  C9_9 
ROOT
HETATM    1  C2  UNL     1     -33.687  16.874  -3.384  1.00 20.00     0.029 C 
HETATM    2  C3  UNL     1     -33.327  15.942  -4.516  1.00 20.00     0.048 C 
HETATM    3  C4  UNL     1     -34.969  16.263  -2.869  1.00 20.00     0.169 C 
HETATM    4  C5  UNL     1     -33.811  14.589  -4.007  1.00 20.00     0.117 C 
HETATM    5  C6  UNL     1     -32.708  13.757  -3.368  1.00 20.00     0.054 C 
HETATM    6  O11 UNL     1     -34.822  14.845  -3.020  1.00 20.00    -0.373 OA
ENDROOT
BRANCH   4   7
HETATM    7  C1  UNL     1     -34.486  13.815  -5.101  1.00 20.00     0.160 C 
HETATM    8  O10 UNL     1     -34.782  12.631  -4.949  1.00 20.00    -0.295 OA
BRANCH   7   9
HETATM    9  C8  UNL     1     -34.770  14.580  -6.382  1.00 20.00     0.081 C 
BRANCH   9  10
HETATM   10  C9  UNL     1     -36.247  14.928  -6.540  1.00 20.00     0.003 C 
HETATM   11  C7  UNL     1     -36.492  16.417  -6.355  1.00 20.00     0.005 C 
ENDBRANCH   9  10
ENDBRANCH   7   9
ENDBRANCH   4   7
TORSDOF 3
ENDMDL
