MODEL 1
REMARK VINA RESULT:      -4.3      0.000      0.000
REMARK  3 active torsions:
REMARK  status: ('A' for Active; 'I' for Inactive)
REMARK    1  A    between atoms: C6_6  and  C10_10 
REMARK    2  A    between atoms: C6_6  and  C11_11 
REMARK    3  A    between atoms: C9_9  and  N12_12 
ROOT
HETATM    1  C1  UNL     1     -35.124  14.333  -6.634  1.00 20.00     0.013 C 
HETATM    2  C2  UNL     1     -34.768  14.001  -5.537  1.00 20.00    -0.087 C 
HETATM    3  C9  UNL     1     -34.334  13.590  -4.200  1.00 20.00     0.364 C 
ENDROOT
BRANCH   3   4
HETATM    4  N12 UNL     1     -34.192  14.745  -3.327  1.00 20.00     0.100 N 
HETATM    5  C4  UNL     1     -33.337  15.783  -3.905  1.00 20.00     0.274 C 
HETATM    6  C3  UNL     1     -33.729  17.064  -3.166  1.00 20.00     0.041 C 
HETATM    7  C6  UNL     1     -35.022  16.719  -2.399  1.00 20.00    -0.013 C 
HETATM    8  C5  UNL     1     -35.470  15.407  -3.057  1.00 20.00     0.283 C 
BRANCH   7   9
HETATM    9  C10 UNL     1     -36.084  17.810  -2.545  1.00 20.00     0.007 C 
HETATM   10  C7  UNL     1     -36.533  17.941  -3.959  1.00 20.00     0.006 C 
ENDBRANCH   7   9
BRANCH   7  11
HETATM   11  C11 UNL     1     -34.713  16.512  -0.905  1.00 20.00     0.007 C 
HETATM   12  C8  UNL     1     -33.853  17.605  -0.365  1.00 20.00     0.006 C 
ENDBRANCH   7  11
ENDBRANCH   3   4
TORSDOF 3
ENDMDL
MODEL 2
REMARK VINA RESULT:      -4.3      1.268      1.491
REMARK  3 active torsions:
REMARK  status: ('A' for Active; 'I' for Inactive)
REMARK    1  A    between atoms: C6_6  and  C10_10 
REMARK    2  A    between atoms: C6_6  and  C11_11 
REMARK    3  A    between atoms: C9_9  and  N12_12 
ROOT
HETATM    1  C1  UNL     1     -34.900  14.733  -7.381  1.00 20.00     0.013 C 
HETATM    2  C2  UNL     1     -35.174  14.256  -6.314  1.00 20.00    -0.087 C 
HETATM    3  C9  UNL     1     -35.512  13.670  -5.015  1.00 20.00     0.364 C 
ENDROOT
BRANCH   3   4
HETATM    4  N12 UNL     1     -34.871  14.407  -3.936  1.00 20.00     0.100 N 
HETATM    5  C4  UNL     1     -33.411  14.318  -3.986  1.00 20.00     0.274 C 
HETATM    6  C3  UNL     1     -32.921  15.524  -3.183  1.00 20.00     0.041 C 
HETATM    7  C6  UNL     1     -34.165  16.409  -2.966  1.00 20.00    -0.013 C 
HETATM    8  C5  UNL     1     -35.170  15.840  -3.977  1.00 20.00     0.283 C 
BRANCH   7   9
HETATM    9  C10 UNL     1     -33.873  17.886  -3.238  1.00 20.00     0.007 C 
HETATM   10  C7  UNL     1     -33.712  18.145  -4.695  1.00 20.00     0.006 C 
ENDBRANCH   7   9
BRANCH   7  11
HETATM   11  C11 UNL     1     -34.683  16.253  -1.525  1.00 20.00     0.007 C 
HETATM   12  C8  UNL     1     -34.141  17.316  -0.629  1.00 20.00     0.006 C 
ENDBRANCH   7  11
ENDBRANCH   3   4
TORSDOF 3
ENDMDL
MODEL 3
REMARK VINA RESULT:      -4.3      1.496      4.467
REMARK  3 active torsions:
REMARK  status: ('A' for Active; 'I' for Inactive)
REMARK    1  A    between atoms: C6_6  and  C10_10 
REMARK    2  A    between atoms: C6_6  and  C11_11 
REMARK    3  A    between atoms: C9_9  and  N12_12 
ROOT
HETATM    1  C1  UNL     1     -34.713  16.589  -0.946  1.00 20.00     0.013 C 
HETATM    2  C2  UNL     1     -34.037  16.384  -1.917  1.00 20.00    -0.087 C 
HETATM    3  C9  UNL     1     -33.208  16.137  -3.099  1.00 20.00     0.364 C 
ENDROOT
BRANCH   3   4
HETATM    4  N12 UNL     1     -33.910  15.290  -4.051  1.00 20.00     0.100 N 
HETATM    5  C4  UNL     1     -34.353  14.027  -3.458  1.00 20.00     0.274 C 
HETATM    6  C3  UNL     1     -35.482  13.546  -4.370  1.00 20.00     0.041 C 
HETATM    7  C6  UNL     1     -35.814  14.742  -5.284  1.00 20.00    -0.013 C 
HETATM    8  C5  UNL     1     -35.125  15.917  -4.574  1.00 20.00     0.283 C 
BRANCH   7   9
HETATM    9  C10 UNL     1     -37.322  14.970  -5.408  1.00 20.00     0.007 C 
HETATM   10  C7  UNL     1     -38.006  14.781  -4.099  1.00 20.00     0.006 C 
ENDBRANCH   7   9
BRANCH   7  11
HETATM   11  C11 UNL     1     -35.220  14.520  -6.687  1.00 20.00     0.007 C 
HETATM   12  C8  UNL     1     -36.230  14.770  -7.757  1.00 20.00     0.006 C 
ENDBRANCH   7  11
ENDBRANCH   3   4
TORSDOF 3
ENDMDL
MODEL 4
REMARK VINA RESULT:      -4.3      1.157      4.670
REMARK  3 active torsions:
REMARK  status: ('A' for Active; 'I' for Inactive)
REMARK    1  A    between atoms: C6_6  and  C10_10 
REMARK    2  A    between atoms: C6_6  and  C11_11 
REMARK    3  A    between atoms: C9_9  and  N12_12 
ROOT
HETATM    1  C1  UNL     1     -34.570  16.925  -0.494  1.00 20.00     0.013 C 
HETATM    2  C2  UNL     1     -35.165  17.254  -1.483  1.00 20.00    -0.087 C 
HETATM    3  C9  UNL     1     -35.896  17.658  -2.686  1.00 20.00     0.364 C 
ENDROOT
BRANCH   3   4
HETATM    4  N12 UNL     1     -35.410  16.932  -3.850  1.00 20.00     0.100 N 
HETATM    5  C4  UNL     1     -33.983  17.149  -4.091  1.00 20.00     0.274 C 
HETATM    6  C3  UNL     1     -33.549  15.956  -4.944  1.00 20.00     0.041 C 
HETATM    7  C6  UNL     1     -34.723  14.958  -4.888  1.00 20.00    -0.013 C 
HETATM    8  C5  UNL     1     -35.562  15.482  -3.714  1.00 20.00     0.283 C 
BRANCH   7   9
HETATM    9  C10 UNL     1     -34.248  13.525  -4.641  1.00 20.00     0.007 C 
HETATM   10  C7  UNL     1     -33.157  13.485  -3.628  1.00 20.00     0.006 C 
ENDBRANCH   7   9
BRANCH   7  11
HETATM   11  C11 UNL     1     -35.522  15.006  -6.202  1.00 20.00     0.007 C 
HETATM   12  C8  UNL     1     -34.624  14.960  -7.394  1.00 20.00     0.006 C 
ENDBRANCH   7  11
ENDBRANCH   3   4
TORSDOF 3
ENDMDL
MODEL 5
REMARK VINA RESULT:      -4.2      1.774      4.747
REMARK  3 active torsions:
REMARK  status: ('A' for Active; 'I' for Inactive)
REMARK    1  A    between atoms: C6_6  and  C10_10 
REMARK    2  A    between atoms: C6_6  and  C11_11 
REMARK    3  A    between atoms: C9_9  and  N12_12 
ROOT
HETATM    1  C1  UNL     1     -31.734  18.990   0.690  1.00 20.00     0.013 C 
HETATM    2  C2  UNL     1     -32.517  18.946  -0.219  1.00 20.00    -0.087 C 
HETATM    3  C9  UNL     1     -33.474  18.897  -1.327  1.00 20.00     0.364 C 
ENDROOT
BRANCH   3   4
HETATM    4  N12 UNL     1     -33.572  17.548  -1.863  1.00 20.00     0.100 N 
HETATM    5  C4  UNL     1     -34.655  16.778  -1.250  1.00 20.00     0.274 C 
HETATM    6  C3  UNL     1     -34.957  15.666  -2.256  1.00 20.00     0.041 C 
HETATM    7  C6  UNL     1     -34.205  16.057  -3.543  1.00 20.00    -0.013 C 
HETATM    8  C5  UNL     1     -33.854  17.532  -3.300  1.00 20.00     0.283 C 
BRANCH   7   9
HETATM    9  C10 UNL     1     -35.074  15.887  -4.790  1.00 20.00     0.007 C 
HETATM   10  C7  UNL     1     -36.480  15.558  -4.427  1.00 20.00     0.006 C 
ENDBRANCH   7   9
BRANCH   7  11
HETATM   11  C11 UNL     1     -32.932  15.204  -3.694  1.00 20.00     0.007 C 
HETATM   12  C8  UNL     1     -33.244  13.745  -3.681  1.00 20.00     0.006 C 
ENDBRANCH   7  11
ENDBRANCH   3   4
TORSDOF 3
ENDMDL
MODEL 6
REMARK VINA RESULT:      -4.2      1.168      4.511
REMARK  3 active torsions:
REMARK  status: ('A' for Active; 'I' for Inactive)
REMARK    1  A    between atoms: C6_6  and  C10_10 
REMARK    2  A    between atoms: C6_6  and  C11_11 
REMARK    3  A    between atoms: C9_9  and  N12_12 
ROOT
HETATM    1  C1  UNL     1     -35.058  17.390   0.674  1.00 20.00     0.013 C 
HETATM    2  C2  UNL     1     -34.498  17.316  -0.385  1.00 20.00    -0.087 C 
HETATM    3  C9  UNL     1     -33.811  17.229  -1.676  1.00 20.00     0.364 C 
ENDROOT
BRANCH   3   4
HETATM    4  N12 UNL     1     -34.444  16.236  -2.529  1.00 20.00     0.100 N 
HETATM    5  C4  UNL     1     -35.785  16.637  -2.959  1.00 20.00     0.274 C 
HETATM    6  C3  UNL     1     -36.055  15.804  -4.214  1.00 20.00     0.041 C 
HETATM    7  C6  UNL     1     -34.698  15.179  -4.595  1.00 20.00    -0.013 C 
HETATM    8  C5  UNL     1     -33.699  15.999  -3.767  1.00 20.00     0.283 C 
BRANCH   7   9
HETATM    9  C10 UNL     1     -34.413  15.295  -6.093  1.00 20.00     0.007 C 
HETATM   10  C7  UNL     1     -35.292  14.388  -6.882  1.00 20.00     0.006 C 
ENDBRANCH   7   9
BRANCH   7  11
HETATM   11  C11 UNL     1     -34.665  13.695  -4.188  1.00 20.00     0.007 C 
HETATM   12  C8  UNL     1     -33.292  13.264  -3.793  1.00 20.00     0.006 C 
ENDBRANCH   7  11
ENDBRANCH   3   4
TORSDOF 3
ENDMDL
MODEL 7
REMARK VINA RESULT:      -4.1      1.660      4.437
REMARK  3 active torsions:
REMARK  status: ('A' for Active; 'I' for Inactive)
REMARK    1  A    between atoms: C6_6  and  C10_10 
REMARK    2  A    between atoms: C6_6  and  C11_11 
REMARK    3  A    between atoms: C9_9  and  N12_12 
ROOT
HETATM    1  C1  UNL     1     -34.795  17.115  -0.140  1.00 20.00     0.013 C 
HETATM    2  C2  UNL     1     -34.350  17.485  -1.191  1.00 20.00    -0.087 C 
HETATM    3  C9  UNL     1     -33.802  17.940  -2.472  1.00 20.00     0.364 C 
ENDROOT
BRANCH   3   4
HETATM    4  N12 UNL     1     -34.362  17.171  -3.573  1.00 20.00     0.100 N 
HETATM    5  C4  UNL     1     -33.534  17.232  -4.778  1.00 20.00     0.274 C 
HETATM    6  C3  UNL     1     -33.942  16.003  -5.591  1.00 20.00     0.041 C 
HETATM    7  C6  UNL     1     -34.790  15.139  -4.637  1.00 20.00    -0.013 C 
HETATM    8  C5  UNL     1     -34.483  15.746  -3.261  1.00 20.00     0.283 C 
BRANCH   7   9
HETATM    9  C10 UNL     1     -34.398  13.662  -4.698  1.00 20.00     0.007 C 
HETATM   10  C7  UNL     1     -33.275  13.363  -3.767  1.00 20.00     0.006 C 
ENDBRANCH   7   9
BRANCH   7  11
HETATM   11  C11 UNL     1     -36.285  15.279  -4.980  1.00 20.00     0.007 C 
HETATM   12  C8  UNL     1     -37.152  14.764  -3.881  1.00 20.00     0.006 C 
ENDBRANCH   7  11
ENDBRANCH   3   4
TORSDOF 3
ENDMDL
MODEL 8
REMARK VINA RESULT:      -4.1      2.067      3.083
REMARK  3 active torsions:
REMARK  status: ('A' for Active; 'I' for Inactive)
REMARK    1  A    between atoms: C6_6  and  C10_10 
REMARK    2  A    between atoms: C6_6  and  C11_11 
REMARK    3  A    between atoms: C9_9  and  N12_12 
ROOT
HETATM    1  C1  UNL     1     -39.865  15.733  -2.901  1.00 20.00     0.013 C 
HETATM    2  C2  UNL     1     -38.921  15.266  -3.476  1.00 20.00    -0.087 C 
HETATM    3  C9  UNL     1     -37.772  14.694  -4.182  1.00 20.00     0.364 C 
ENDROOT
BRANCH   3   4
HETATM    4  N12 UNL     1     -36.545  14.917  -3.433  1.00 20.00     0.100 N 
HETATM    5  C4  UNL     1     -35.451  14.051  -3.876  1.00 20.00     0.274 C 
HETATM    6  C3  UNL     1     -34.181  14.761  -3.407  1.00 20.00     0.041 C 
HETATM    7  C6  UNL     1     -34.631  16.169  -2.970  1.00 20.00    -0.013 C 
HETATM    8  C5  UNL     1     -36.037  16.282  -3.576  1.00 20.00     0.283 C 
BRANCH   7   9
HETATM    9  C10 UNL     1     -33.702  17.261  -3.503  1.00 20.00     0.007 C 
HETATM   10  C7  UNL     1     -33.451  17.091  -4.961  1.00 20.00     0.006 C 
ENDBRANCH   7   9
BRANCH   7  11
HETATM   11  C11 UNL     1     -34.683  16.257  -1.434  1.00 20.00     0.007 C 
HETATM   12  C8  UNL     1     -33.931  17.441  -0.925  1.00 20.00     0.006 C 
ENDBRANCH   7  11
ENDBRANCH   3   4
TORSDOF 3
ENDMDL
MODEL 9
REMARK VINA RESULT:      -4.0      1.660      3.151
REMARK  3 active torsions:
REMARK  status: ('A' for Active; 'I' for Inactive)
REMARK    1  A    between atoms: C6_6  and  C10_10 
REMARK    2  A    between atoms: C6_6  and  C11_11 
REMARK    3  A    between atoms: C9_9  and  N12_12 
ROOT
HETATM    1  C1  UNL     1     -36.419  15.036  -7.650  1.00 20.00     0.013 C 
HETATM    2  C2  UNL     1     -36.504  15.961  -6.890  1.00 20.00    -0.087 C 
HETATM    3  C9  UNL     1     -36.611  17.094  -5.968  1.00 20.00     0.364 C 
ENDROOT
BRANCH   3   4
HETATM    4  N12 UNL     1     -35.981  16.781  -4.695  1.00 20.00     0.100 N 
HETATM    5  C4  UNL     1     -36.571  15.607  -4.050  1.00 20.00     0.274 C 
HETATM    6  C3  UNL     1     -35.496  15.118  -3.077  1.00 20.00     0.041 C 
HETATM    7  C6  UNL     1     -34.217  15.894  -3.450  1.00 20.00    -0.013 C 
HETATM    8  C5  UNL     1     -34.557  16.470  -4.832  1.00 20.00     0.283 C 
BRANCH   7   9
HETATM    9  C10 UNL     1     -32.990  14.982  -3.510  1.00 20.00     0.007 C 
HETATM   10  C7  UNL     1     -33.373  13.582  -3.839  1.00 20.00     0.006 C 
ENDBRANCH   7   9
BRANCH   7  11
HETATM   11  C11 UNL     1     -33.962  17.019  -2.431  1.00 20.00     0.007 C 
HETATM   12  C8  UNL     1     -34.485  16.663  -1.079  1.00 20.00     0.006 C 
ENDBRANCH   7  11
ENDBRANCH   3   4
TORSDOF 3
ENDMDL
