MODEL 1
REMARK VINA RESULT:      -4.6      0.000      0.000
REMARK  2 active torsions:
REMARK  status: ('A' for Active; 'I' for Inactive)
REMARK    1  A    between atoms: C1_1  and  C6_6 
REMARK    2  A    between atoms: C1_1  and  C9_9 
ROOT
HETATM    1  C2  UNL     1     -35.383  17.223  -3.828  1.00 20.00     0.005 C 
HETATM    2  C3  UNL     1     -35.932  15.957  -3.154  1.00 20.00     0.006 C 
HETATM    3  C4  UNL     1     -33.288  16.012  -4.468  1.00 20.00     0.017 C 
HETATM    4  C5  UNL     1     -33.829  16.467  -2.189  1.00 20.00     0.010 C 
HETATM    5  C6  UNL     1     -33.798  14.726  -3.796  1.00 20.00     0.061 C 
HETATM    6  C7  UNL     1     -33.871  17.121  -3.571  1.00 20.00    -0.013 C 
HETATM    7  C8  UNL     1     -34.661  15.260  -2.634  1.00 20.00    -0.003 C 
ENDROOT
BRANCH   5   8
HETATM    8  C1  UNL     1     -34.538  13.822  -4.730  1.00 20.00     0.145 C 
HETATM    9  O10 UNL     1     -35.012  12.759  -4.328  1.00 20.00    -0.296 OA
BRANCH   8  10
HETATM   10  C9  UNL     1     -34.649  14.300  -6.159  1.00 20.00     0.193 C 
HETATM   11 CL11 UNL     1     -36.293  14.855  -6.508  1.00 20.00    -0.123 Cl
ENDBRANCH   8  10
ENDBRANCH   5   8
TORSDOF 2
ENDMDL
MODEL 2
REMARK VINA RESULT:      -4.4      2.554      3.826
REMARK  2 active torsions:
REMARK  status: ('A' for Active; 'I' for Inactive)
REMARK    1  A    between atoms: C1_1  and  C6_6 
REMARK    2  A    between atoms: C1_1  and  C9_9 
ROOT
HETATM    1  C2  UNL     1     -34.407  14.792  -5.836  1.00 20.00     0.005 C 
HETATM    2  C3  UNL     1     -33.645  15.805  -4.969  1.00 20.00     0.006 C 
HETATM    3  C4  UNL     1     -35.863  14.176  -3.896  1.00 20.00     0.017 C 
HETATM    4  C5  UNL     1     -33.528  13.684  -3.921  1.00 20.00     0.010 C 
HETATM    5  C6  UNL     1     -35.119  15.173  -2.991  1.00 20.00     0.061 C 
HETATM    6  C7  UNL     1     -34.752  13.675  -4.838  1.00 20.00    -0.013 C 
HETATM    7  C8  UNL     1     -33.688  15.166  -3.568  1.00 20.00    -0.003 C 
ENDROOT
BRANCH   5   8
HETATM    8  C1  UNL     1     -35.749  16.530  -2.960  1.00 20.00     0.145 C 
HETATM    9  O10 UNL     1     -36.704  16.794  -3.690  1.00 20.00    -0.296 OA
BRANCH   8  10
HETATM   10  C9  UNL     1     -35.137  17.517  -1.994  1.00 20.00     0.193 C 
HETATM   11 CL11 UNL     1     -34.681  16.716  -0.483  1.00 20.00    -0.123 Cl
ENDBRANCH   8  10
ENDBRANCH   5   8
TORSDOF 2
ENDMDL
MODEL 3
REMARK VINA RESULT:      -4.3      1.753      2.224
REMARK  2 active torsions:
REMARK  status: ('A' for Active; 'I' for Inactive)
REMARK    1  A    between atoms: C1_1  and  C6_6 
REMARK    2  A    between atoms: C1_1  and  C9_9 
ROOT
HETATM    1  C2  UNL     1     -33.764  16.775  -3.243  1.00 20.00     0.005 C 
HETATM    2  C3  UNL     1     -34.553  15.725  -2.446  1.00 20.00     0.006 C 
HETATM    3  C4  UNL     1     -34.271  15.579  -5.383  1.00 20.00     0.017 C 
HETATM    4  C5  UNL     1     -32.881  14.611  -3.702  1.00 20.00     0.010 C 
HETATM    5  C6  UNL     1     -35.063  14.502  -4.621  1.00 20.00     0.061 C 
HETATM    6  C7  UNL     1     -33.155  15.950  -4.388  1.00 20.00    -0.013 C 
HETATM    7  C8  UNL     1     -34.338  14.435  -3.261  1.00 20.00    -0.003 C 
ENDROOT
BRANCH   5   8
HETATM    8  C1  UNL     1     -36.523  14.806  -4.512  1.00 20.00     0.145 C 
HETATM    9  O10 UNL     1     -37.262  14.090  -3.835  1.00 20.00    -0.296 OA
BRANCH   8  10
HETATM   10  C9  UNL     1     -37.002  16.019  -5.275  1.00 20.00     0.193 C 
HETATM   11 CL11 UNL     1     -37.286  17.378  -4.177  1.00 20.00    -0.123 Cl
ENDBRANCH   8  10
ENDBRANCH   5   8
TORSDOF 2
ENDMDL
MODEL 4
REMARK VINA RESULT:      -4.2      1.025      1.208
REMARK  2 active torsions:
REMARK  status: ('A' for Active; 'I' for Inactive)
REMARK    1  A    between atoms: C1_1  and  C6_6 
REMARK    2  A    between atoms: C1_1  and  C9_9 
ROOT
HETATM    1  C2  UNL     1     -34.310  17.327  -4.248  1.00 20.00     0.005 C 
HETATM    2  C3  UNL     1     -35.706  16.946  -3.735  1.00 20.00     0.006 C 
HETATM    3  C4  UNL     1     -33.437  15.058  -3.652  1.00 20.00     0.017 C 
HETATM    4  C5  UNL     1     -34.148  16.608  -1.983  1.00 20.00     0.010 C 
HETATM    5  C6  UNL     1     -34.819  14.640  -3.120  1.00 20.00     0.061 C 
HETATM    6  C7  UNL     1     -33.375  16.556  -3.302  1.00 20.00    -0.013 C 
HETATM    7  C8  UNL     1     -35.400  15.966  -2.587  1.00 20.00    -0.003 C 
ENDROOT
BRANCH   5   8
HETATM    8  C1  UNL     1     -35.676  13.977  -4.151  1.00 20.00     0.145 C 
HETATM    9  O10 UNL     1     -36.874  13.789  -3.942  1.00 20.00    -0.296 OA
BRANCH   8  10
HETATM   10  C9  UNL     1     -34.975  13.567  -5.425  1.00 20.00     0.193 C 
HETATM   11 CL11 UNL     1     -35.430  14.634  -6.762  1.00 20.00    -0.123 Cl
ENDBRANCH   8  10
ENDBRANCH   5   8
TORSDOF 2
ENDMDL
MODEL 5
REMARK VINA RESULT:      -4.2      2.470      3.686
REMARK  2 active torsions:
REMARK  status: ('A' for Active; 'I' for Inactive)
REMARK    1  A    between atoms: C1_1  and  C6_6 
REMARK    2  A    between atoms: C1_1  and  C9_9 
ROOT
HETATM    1  C2  UNL     1     -36.459  14.382  -4.095  1.00 20.00     0.005 C 
HETATM    2  C3  UNL     1     -36.116  15.563  -5.014  1.00 20.00     0.006 C 
HETATM    3  C4  UNL     1     -34.045  14.103  -3.497  1.00 20.00     0.017 C 
HETATM    4  C5  UNL     1     -34.849  13.685  -5.704  1.00 20.00     0.010 C 
HETATM    5  C6  UNL     1     -33.658  15.276  -4.415  1.00 20.00     0.061 C 
HETATM    6  C7  UNL     1     -35.234  13.466  -4.241  1.00 20.00    -0.013 C 
HETATM    7  C8  UNL     1     -34.713  15.201  -5.537  1.00 20.00    -0.003 C 
ENDROOT
BRANCH   5   8
HETATM    8  C1  UNL     1     -33.621  16.594  -3.709  1.00 20.00     0.145 C 
HETATM    9  O10 UNL     1     -33.475  17.640  -4.342  1.00 20.00    -0.296 OA
BRANCH   8  10
HETATM   10  C9  UNL     1     -33.770  16.540  -2.206  1.00 20.00     0.193 C 
HETATM   11 CL11 UNL     1     -35.411  16.993  -1.722  1.00 20.00    -0.123 Cl
ENDBRANCH   8  10
ENDBRANCH   5   8
TORSDOF 2
ENDMDL
MODEL 6
REMARK VINA RESULT:      -4.1      2.143      3.568
REMARK  2 active torsions:
REMARK  status: ('A' for Active; 'I' for Inactive)
REMARK    1  A    between atoms: C1_1  and  C6_6 
REMARK    2  A    between atoms: C1_1  and  C9_9 
ROOT
HETATM    1  C2  UNL     1     -35.268  16.711  -6.182  1.00 20.00     0.005 C 
HETATM    2  C3  UNL     1     -34.031  15.805  -6.276  1.00 20.00     0.006 C 
HETATM    3  C4  UNL     1     -36.550  14.896  -5.030  1.00 20.00     0.017 C 
HETATM    4  C5  UNL     1     -35.854  14.693  -7.303  1.00 20.00     0.010 C 
HETATM    5  C6  UNL     1     -35.337  13.954  -5.112  1.00 20.00     0.061 C 
HETATM    6  C7  UNL     1     -36.433  15.718  -6.327  1.00 20.00    -0.013 C 
HETATM    7  C8  UNL     1     -34.641  14.397  -6.416  1.00 20.00    -0.003 C 
ENDROOT
BRANCH   5   8
HETATM    8  C1  UNL     1     -34.454  14.017  -3.906  1.00 20.00     0.145 C 
HETATM    9  O10 UNL     1     -33.472  13.282  -3.810  1.00 20.00    -0.296 OA
BRANCH   8  10
HETATM   10  C9  UNL     1     -34.854  15.022  -2.850  1.00 20.00     0.193 C 
HETATM   11 CL11 UNL     1     -33.591  16.243  -2.637  1.00 20.00    -0.123 Cl
ENDBRANCH   8  10
ENDBRANCH   5   8
TORSDOF 2
ENDMDL
MODEL 7
REMARK VINA RESULT:      -4.1      2.418      3.774
REMARK  2 active torsions:
REMARK  status: ('A' for Active; 'I' for Inactive)
REMARK    1  A    between atoms: C1_1  and  C6_6 
REMARK    2  A    between atoms: C1_1  and  C9_9 
ROOT
HETATM    1  C2  UNL     1     -34.857  13.296  -5.240  1.00 20.00     0.005 C 
HETATM    2  C3  UNL     1     -35.297  14.086  -3.999  1.00 20.00     0.006 C 
HETATM    3  C4  UNL     1     -34.250  15.420  -6.417  1.00 20.00     0.017 C 
HETATM    4  C5  UNL     1     -36.511  14.890  -5.868  1.00 20.00     0.010 C 
HETATM    5  C6  UNL     1     -34.688  16.249  -5.198  1.00 20.00     0.061 C 
HETATM    6  C7  UNL     1     -35.234  14.235  -6.397  1.00 20.00    -0.013 C 
HETATM    7  C8  UNL     1     -35.829  15.403  -4.595  1.00 20.00    -0.003 C 
ENDROOT
BRANCH   5   8
HETATM    8  C1  UNL     1     -33.574  16.529  -4.240  1.00 20.00     0.145 C 
HETATM    9  O10 UNL     1     -32.470  16.009  -4.395  1.00 20.00    -0.296 OA
BRANCH   8  10
HETATM   10  C9  UNL     1     -33.905  17.468  -3.103  1.00 20.00     0.193 C 
HETATM   11 CL11 UNL     1     -34.072  16.577  -1.583  1.00 20.00    -0.123 Cl
ENDBRANCH   8  10
ENDBRANCH   5   8
TORSDOF 2
ENDMDL
MODEL 8
REMARK VINA RESULT:      -4.1      2.140      2.992
REMARK  2 active torsions:
REMARK  status: ('A' for Active; 'I' for Inactive)
REMARK    1  A    between atoms: C1_1  and  C6_6 
REMARK    2  A    between atoms: C1_1  and  C9_9 
ROOT
HETATM    1  C2  UNL     1     -34.229  14.271  -3.513  1.00 20.00     0.005 C 
HETATM    2  C3  UNL     1     -33.086  15.287  -3.652  1.00 20.00     0.006 C 
HETATM    3  C4  UNL     1     -35.920  16.064  -3.949  1.00 20.00     0.017 C 
HETATM    4  C5  UNL     1     -34.574  16.058  -1.978  1.00 20.00     0.010 C 
HETATM    5  C6  UNL     1     -34.805  17.115  -4.087  1.00 20.00     0.061 C 
HETATM    6  C7  UNL     1     -35.356  15.105  -2.883  1.00 20.00    -0.013 C 
HETATM    7  C8  UNL     1     -33.714  16.592  -3.128  1.00 20.00    -0.003 C 
ENDROOT
BRANCH   5   8
HETATM    8  C1  UNL     1     -34.333  17.297  -5.495  1.00 20.00     0.145 C 
HETATM    9  O10 UNL     1     -33.367  18.019  -5.742  1.00 20.00    -0.296 OA
BRANCH   8  10
HETATM   10  C9  UNL     1     -35.113  16.551  -6.552  1.00 20.00     0.193 C 
HETATM   11 CL11 UNL     1     -34.242  15.098  -7.064  1.00 20.00    -0.123 Cl
ENDBRANCH   8  10
ENDBRANCH   5   8
TORSDOF 2
ENDMDL
MODEL 9
REMARK VINA RESULT:      -4.0      1.752      2.498
REMARK  2 active torsions:
REMARK  status: ('A' for Active; 'I' for Inactive)
REMARK    1  A    between atoms: C1_1  and  C6_6 
REMARK    2  A    between atoms: C1_1  and  C9_9 
ROOT
HETATM    1  C2  UNL     1     -35.304  15.133  -3.147  1.00 20.00     0.005 C 
HETATM    2  C3  UNL     1     -35.849  14.018  -4.051  1.00 20.00     0.006 C 
HETATM    3  C4  UNL     1     -33.716  15.857  -4.941  1.00 20.00     0.017 C 
HETATM    4  C5  UNL     1     -33.504  13.744  -3.853  1.00 20.00     0.010 C 
HETATM    5  C6  UNL     1     -34.227  14.746  -5.874  1.00 20.00     0.061 C 
HETATM    6  C7  UNL     1     -33.822  15.208  -3.548  1.00 20.00    -0.013 C 
HETATM    7  C8  UNL     1     -34.621  13.622  -4.893  1.00 20.00    -0.003 C 
ENDROOT
BRANCH   5   8
HETATM    8  C1  UNL     1     -35.344  15.188  -6.766  1.00 20.00     0.145 C 
HETATM    9  O10 UNL     1     -35.902  14.386  -7.514  1.00 20.00    -0.296 OA
BRANCH   8  10
HETATM   10  C9  UNL     1     -35.718  16.649  -6.676  1.00 20.00     0.193 C 
HETATM   11 CL11 UNL     1     -37.234  16.855  -5.787  1.00 20.00    -0.123 Cl
ENDBRANCH   8  10
ENDBRANCH   5   8
TORSDOF 2
ENDMDL
