MODEL 1
REMARK VINA RESULT:      -4.7      0.000      0.000
REMARK  2 active torsions:
REMARK  status: ('A' for Active; 'I' for Inactive)
REMARK    1  A    between atoms: C5_5  and  C7_7 
REMARK    2  A    between atoms: C7_7  and  N8_8 
ROOT
HETATM    1  C1  UNL     1     -32.222   7.512   2.646  1.00 20.00     0.332 C 
HETATM    2  N8  UNL     1     -32.514   6.798   3.534  1.00 20.00    -0.245 NA
HETATM    3  O9  UNL     1     -31.929   8.227   1.760  1.00 20.00    -0.260 OA
ENDROOT
BRANCH   2   4
HETATM    4  C7  UNL     1     -33.327   5.650   3.149  1.00 20.00     0.190 C 
BRANCH   4   5
HETATM    5  C5  UNL     1     -34.490   5.530   4.129  1.00 20.00     0.075 C 
HETATM    6  C3  UNL     1     -34.560   4.142   4.766  1.00 20.00     0.041 C 
HETATM    7  C2  UNL     1     -35.080   4.439   6.151  1.00 20.00     0.029 C 
HETATM    8  C4  UNL     1     -34.410   5.758   6.459  1.00 20.00     0.169 C 
HETATM    9  O10 UNL     1     -34.275   6.457   5.213  1.00 20.00    -0.379 OA
HETATM   10  C6  UNL     1     -35.803   5.913   3.443  1.00 20.00     0.048 C 
ENDBRANCH   4   5
ENDBRANCH   2   4
TORSDOF 2
ENDMDL
MODEL 2
REMARK VINA RESULT:      -4.1     11.620     12.366
REMARK  2 active torsions:
REMARK  status: ('A' for Active; 'I' for Inactive)
REMARK    1  A    between atoms: C5_5  and  C7_7 
REMARK    2  A    between atoms: C7_7  and  N8_8 
ROOT
HETATM    1  C1  UNL     1     -34.660  16.694  -0.681  1.00 20.00     0.332 C 
HETATM    2  N8  UNL     1     -34.727  16.048  -1.662  1.00 20.00    -0.245 NA
HETATM    3  O9  UNL     1     -34.595  17.340   0.300  1.00 20.00    -0.260 OA
ENDROOT
BRANCH   2   4
HETATM    4  C7  UNL     1     -33.679  16.317  -2.640  1.00 20.00     0.190 C 
BRANCH   4   5
HETATM    5  C5  UNL     1     -33.976  15.511  -3.900  1.00 20.00     0.075 C 
HETATM    6  C3  UNL     1     -33.484  14.068  -3.785  1.00 20.00     0.041 C 
HETATM    7  C2  UNL     1     -34.512  13.303  -4.582  1.00 20.00     0.029 C 
HETATM    8  C4  UNL     1     -35.780  14.063  -4.266  1.00 20.00     0.169 C 
HETATM    9  O10 UNL     1     -35.406  15.434  -4.072  1.00 20.00    -0.379 OA
HETATM   10  C6  UNL     1     -33.398  16.216  -5.129  1.00 20.00     0.048 C 
ENDBRANCH   4   5
ENDBRANCH   2   4
TORSDOF 2
ENDMDL
MODEL 3
REMARK VINA RESULT:      -4.0     11.379     12.547
REMARK  2 active torsions:
REMARK  status: ('A' for Active; 'I' for Inactive)
REMARK    1  A    between atoms: C5_5  and  C7_7 
REMARK    2  A    between atoms: C7_7  and  N8_8 
ROOT
HETATM    1  C1  UNL     1     -34.348  13.452  -4.159  1.00 20.00     0.332 C 
HETATM    2  N8  UNL     1     -33.886  14.242  -3.419  1.00 20.00    -0.245 NA
HETATM    3  O9  UNL     1     -34.808  12.661  -4.897  1.00 20.00    -0.260 OA
ENDROOT
BRANCH   2   4
HETATM    4  C7  UNL     1     -33.712  15.575  -3.983  1.00 20.00     0.190 C 
BRANCH   4   5
HETATM    5  C5  UNL     1     -34.465  16.572  -3.108  1.00 20.00     0.075 C 
HETATM    6  C3  UNL     1     -34.657  16.050  -1.683  1.00 20.00     0.041 C 
HETATM    7  C2  UNL     1     -34.587  17.311  -0.857  1.00 20.00     0.029 C 
HETATM    8  C4  UNL     1     -33.548  18.115  -1.604  1.00 20.00     0.169 C 
HETATM    9  O10 UNL     1     -33.674  17.772  -2.992  1.00 20.00    -0.379 OA
HETATM   10  C6  UNL     1     -35.795  16.953  -3.762  1.00 20.00     0.048 C 
ENDBRANCH   4   5
ENDBRANCH   2   4
TORSDOF 2
ENDMDL
MODEL 4
REMARK VINA RESULT:      -4.0     11.686     12.859
REMARK  2 active torsions:
REMARK  status: ('A' for Active; 'I' for Inactive)
REMARK    1  A    between atoms: C5_5  and  C7_7 
REMARK    2  A    between atoms: C7_7  and  N8_8 
ROOT
HETATM    1  C1  UNL     1     -37.626  14.917  -3.641  1.00 20.00     0.332 C 
HETATM    2  N8  UNL     1     -36.703  15.598  -3.378  1.00 20.00    -0.245 NA
HETATM    3  O9  UNL     1     -38.548  14.235  -3.902  1.00 20.00    -0.260 OA
ENDROOT
BRANCH   2   4
HETATM    4  C7  UNL     1     -36.023  16.172  -4.533  1.00 20.00     0.190 C 
BRANCH   4   5
HETATM    5  C5  UNL     1     -34.679  15.469  -4.700  1.00 20.00     0.075 C 
HETATM    6  C3  UNL     1     -34.103  15.011  -3.359  1.00 20.00     0.041 C 
HETATM    7  C2  UNL     1     -33.380  13.739  -3.727  1.00 20.00     0.029 C 
HETATM    8  C4  UNL     1     -34.285  13.163  -4.791  1.00 20.00     0.169 C 
HETATM    9  O10 UNL     1     -34.878  14.274  -5.480  1.00 20.00    -0.379 OA
HETATM   10  C6  UNL     1     -33.703  16.367  -5.464  1.00 20.00     0.048 C 
ENDBRANCH   4   5
ENDBRANCH   2   4
TORSDOF 2
ENDMDL
MODEL 5
REMARK VINA RESULT:      -3.9     11.470     12.832
REMARK  2 active torsions:
REMARK  status: ('A' for Active; 'I' for Inactive)
REMARK    1  A    between atoms: C5_5  and  C7_7 
REMARK    2  A    between atoms: C7_7  and  N8_8 
ROOT
HETATM    1  C1  UNL     1     -34.484  16.539  -1.134  1.00 20.00     0.332 C 
HETATM    2  N8  UNL     1     -34.133  16.218  -2.210  1.00 20.00    -0.245 NA
HETATM    3  O9  UNL     1     -34.834  16.861  -0.058  1.00 20.00    -0.260 OA
ENDROOT
BRANCH   2   4
HETATM    4  C7  UNL     1     -35.089  15.395  -2.941  1.00 20.00     0.190 C 
BRANCH   4   5
HETATM    5  C5  UNL     1     -34.398  14.838  -4.182  1.00 20.00     0.075 C 
HETATM    6  C3  UNL     1     -35.403  14.372  -5.235  1.00 20.00     0.041 C 
HETATM    7  C2  UNL     1     -34.692  14.679  -6.530  1.00 20.00     0.029 C 
HETATM    8  C4  UNL     1     -33.968  15.962  -6.191  1.00 20.00     0.169 C 
HETATM    9  O10 UNL     1     -33.634  15.895  -4.797  1.00 20.00    -0.379 OA
HETATM   10  C6  UNL     1     -33.422  13.726  -3.790  1.00 20.00     0.048 C 
ENDBRANCH   4   5
ENDBRANCH   2   4
TORSDOF 2
ENDMDL
MODEL 6
REMARK VINA RESULT:      -3.9     11.995     12.918
REMARK  2 active torsions:
REMARK  status: ('A' for Active; 'I' for Inactive)
REMARK    1  A    between atoms: C5_5  and  C7_7 
REMARK    2  A    between atoms: C7_7  and  N8_8 
ROOT
HETATM    1  C1  UNL     1     -37.605  14.880  -3.994  1.00 20.00     0.332 C 
HETATM    2  N8  UNL     1     -36.677  15.585  -4.156  1.00 20.00    -0.245 NA
HETATM    3  O9  UNL     1     -38.532  14.174  -3.835  1.00 20.00    -0.260 OA
ENDROOT
BRANCH   2   4
HETATM    4  C7  UNL     1     -36.253  16.313  -2.966  1.00 20.00     0.190 C 
BRANCH   4   5
HETATM    5  C5  UNL     1     -34.739  16.174  -2.829  1.00 20.00     0.075 C 
HETATM    6  C3  UNL     1     -34.267  14.751  -3.129  1.00 20.00     0.041 C 
HETATM    7  C2  UNL     1     -32.915  14.977  -3.760  1.00 20.00     0.029 C 
HETATM    8  C4  UNL     1     -33.147  16.248  -4.544  1.00 20.00     0.169 C 
HETATM    9  O10 UNL     1     -34.108  17.021  -3.810  1.00 20.00    -0.379 OA
HETATM   10  C6  UNL     1     -34.287  16.647  -1.446  1.00 20.00     0.048 C 
ENDBRANCH   4   5
ENDBRANCH   2   4
TORSDOF 2
ENDMDL
MODEL 7
REMARK VINA RESULT:      -3.7     11.452     13.591
REMARK  2 active torsions:
REMARK  status: ('A' for Active; 'I' for Inactive)
REMARK    1  A    between atoms: C5_5  and  C7_7 
REMARK    2  A    between atoms: C7_7  and  N8_8 
ROOT
HETATM    1  C1  UNL     1     -34.374  13.445  -4.318  1.00 20.00     0.332 C 
HETATM    2  N8  UNL     1     -33.612  14.328  -4.166  1.00 20.00    -0.245 NA
HETATM    3  O9  UNL     1     -35.135  12.561  -4.472  1.00 20.00    -0.260 OA
ENDROOT
BRANCH   2   4
HETATM    4  C7  UNL     1     -34.028  15.329  -3.191  1.00 20.00     0.190 C 
BRANCH   4   5
HETATM    5  C5  UNL     1     -34.154  16.673  -3.903  1.00 20.00     0.075 C 
HETATM    6  C3  UNL     1     -33.263  16.748  -5.143  1.00 20.00     0.041 C 
HETATM    7  C2  UNL     1     -34.073  17.611  -6.080  1.00 20.00     0.029 C 
HETATM    8  C4  UNL     1     -35.485  17.174  -5.764  1.00 20.00     0.169 C 
HETATM    9  O10 UNL     1     -35.509  16.820  -4.373  1.00 20.00    -0.379 OA
HETATM   10  C6  UNL     1     -33.874  17.818  -2.927  1.00 20.00     0.048 C 
ENDBRANCH   4   5
ENDBRANCH   2   4
TORSDOF 2
ENDMDL
MODEL 8
REMARK VINA RESULT:      -3.7     11.318     12.529
REMARK  2 active torsions:
REMARK  status: ('A' for Active; 'I' for Inactive)
REMARK    1  A    between atoms: C5_5  and  C7_7 
REMARK    2  A    between atoms: C7_7  and  N8_8 
ROOT
HETATM    1  C1  UNL     1     -34.627  13.494  -4.023  1.00 20.00     0.332 C 
HETATM    2  N8  UNL     1     -34.424  14.371  -3.266  1.00 20.00    -0.245 NA
HETATM    3  O9  UNL     1     -34.830  12.615  -4.778  1.00 20.00    -0.260 OA
ENDROOT
BRANCH   2   4
HETATM    4  C7  UNL     1     -33.743  15.525  -3.842  1.00 20.00     0.190 C 
BRANCH   4   5
HETATM    5  C5  UNL     1     -34.159  16.769  -3.063  1.00 20.00     0.075 C 
HETATM    6  C3  UNL     1     -35.651  16.762  -2.729  1.00 20.00     0.041 C 
HETATM    7  C2  UNL     1     -35.695  17.460  -1.392  1.00 20.00     0.029 C 
HETATM    8  C4  UNL     1     -34.419  16.972  -0.745  1.00 20.00     0.169 C 
HETATM    9  O10 UNL     1     -33.465  16.776  -1.799  1.00 20.00    -0.379 OA
HETATM   10  C6  UNL     1     -33.750  18.032  -3.825  1.00 20.00     0.048 C 
ENDBRANCH   4   5
ENDBRANCH   2   4
TORSDOF 2
ENDMDL
MODEL 9
REMARK VINA RESULT:      -3.7      1.453      2.104
REMARK  2 active torsions:
REMARK  status: ('A' for Active; 'I' for Inactive)
REMARK    1  A    between atoms: C5_5  and  C7_7 
REMARK    2  A    between atoms: C7_7  and  N8_8 
ROOT
HETATM    1  C1  UNL     1     -32.208   8.738   1.677  1.00 20.00     0.332 C 
HETATM    2  N8  UNL     1     -32.235   7.819   2.410  1.00 20.00    -0.245 NA
HETATM    3  O9  UNL     1     -32.179   9.658   0.944  1.00 20.00    -0.260 OA
ENDROOT
BRANCH   2   4
HETATM    4  C7  UNL     1     -33.511   7.618   3.086  1.00 20.00     0.190 C 
BRANCH   4   5
HETATM    5  C5  UNL     1     -33.504   6.234   3.730  1.00 20.00     0.075 C 
HETATM    6  C3  UNL     1     -33.714   6.307   5.243  1.00 20.00     0.041 C 
HETATM    7  C2  UNL     1     -34.487   5.043   5.530  1.00 20.00     0.029 C 
HETATM    8  C4  UNL     1     -35.360   4.926   4.302  1.00 20.00     0.169 C 
HETATM    9  O10 UNL     1     -34.614   5.477   3.207  1.00 20.00    -0.379 OA
HETATM   10  C6  UNL     1     -32.219   5.488   3.366  1.00 20.00     0.048 C 
ENDBRANCH   4   5
ENDBRANCH   2   4
TORSDOF 2
ENDMDL
