MODEL 1
REMARK VINA RESULT:      -4.5      0.000      0.000
REMARK  3 active torsions:
REMARK  status: ('A' for Active; 'I' for Inactive)
REMARK    1  A    between atoms: C4_4  and  C9_9 
REMARK    2  A    between atoms: C8_8  and  C9_9 
REMARK    3  A    between atoms: C9_9  and  O11_11 
ROOT
HETATM    1  C1  UNL     1     -33.752  14.066  -3.734  1.00 20.00     0.066 C 
HETATM    2  C6  UNL     1     -34.769  15.903  -2.489  1.00 20.00     0.028 C 
HETATM    3  C8  UNL     1     -34.507  15.330  -3.889  1.00 20.00     0.123 C 
HETATM    4  N10 UNL     1     -33.160  13.074  -3.617  1.00 20.00    -0.197 NA
ENDROOT
BRANCH   3   5
HETATM    5  C9  UNL     1     -33.773  16.330  -4.836  1.00 20.00     0.077 C 
HETATM    6  C7  UNL     1     -33.747  17.725  -4.243  1.00 20.00     0.048 C 
BRANCH   5   7
HETATM    7  C4  UNL     1     -34.442  16.395  -6.223  1.00 20.00    -0.012 A 
HETATM    8  C2  UNL     1     -35.674  15.552  -6.454  1.00 20.00     0.013 A 
HETATM    9  C3  UNL     1     -34.374  15.165  -7.099  1.00 20.00     0.013 A 
HETATM   10  C5  UNL     1     -34.371  17.741  -6.888  1.00 20.00     0.018 C 
ENDBRANCH   5   7
BRANCH   5  11
HETATM   11  O11 UNL     1     -32.422  15.894  -5.016  1.00 20.00    -0.388 OA
HETATM   12  H26 UNL     1     -31.862  16.649  -4.785  1.00 20.00     0.210 HD
ENDBRANCH   5  11
ENDBRANCH   3   5
TORSDOF 3
ENDMDL
MODEL 2
REMARK VINA RESULT:      -4.4      2.336      3.885
REMARK  3 active torsions:
REMARK  status: ('A' for Active; 'I' for Inactive)
REMARK    1  A    between atoms: C4_4  and  C9_9 
REMARK    2  A    between atoms: C8_8  and  C9_9 
REMARK    3  A    between atoms: C9_9  and  O11_11 
ROOT
HETATM    1  C1  UNL     1     -34.498  14.014  -3.791  1.00 20.00     0.066 C 
HETATM    2  C6  UNL     1     -33.171  15.941  -4.489  1.00 20.00     0.028 C 
HETATM    3  C8  UNL     1     -34.086  15.379  -3.391  1.00 20.00     0.123 C 
HETATM    4  N10 UNL     1     -34.822  12.943  -4.100  1.00 20.00    -0.197 NA
ENDROOT
BRANCH   3   5
HETATM    5  C9  UNL     1     -35.317  16.289  -3.090  1.00 20.00     0.077 C 
HETATM    6  C7  UNL     1     -35.721  17.084  -4.316  1.00 20.00     0.048 C 
BRANCH   5   7
HETATM    7  C4  UNL     1     -35.031  17.269  -1.937  1.00 20.00    -0.012 A 
HETATM    8  C2  UNL     1     -33.636  17.292  -1.357  1.00 20.00     0.013 A 
HETATM    9  C3  UNL     1     -34.762  16.690  -0.566  1.00 20.00     0.013 A 
HETATM   10  C5  UNL     1     -35.783  18.568  -2.019  1.00 20.00     0.018 C 
ENDBRANCH   5   7
BRANCH   5  11
HETATM   11  O11 UNL     1     -36.423  15.464  -2.707  1.00 20.00    -0.388 OA
HETATM   12  H26 UNL     1     -36.202  14.566  -2.993  1.00 20.00     0.210 HD
ENDBRANCH   5  11
ENDBRANCH   3   5
TORSDOF 3
ENDMDL
MODEL 3
REMARK VINA RESULT:      -4.4      1.886      3.334
REMARK  3 active torsions:
REMARK  status: ('A' for Active; 'I' for Inactive)
REMARK    1  A    between atoms: C4_4  and  C9_9 
REMARK    2  A    between atoms: C8_8  and  C9_9 
REMARK    3  A    between atoms: C9_9  and  O11_11 
ROOT
HETATM    1  C1  UNL     1     -34.598  14.803  -6.436  1.00 20.00     0.066 C 
HETATM    2  C6  UNL     1     -34.716  13.259  -4.548  1.00 20.00     0.028 C 
HETATM    3  C8  UNL     1     -34.699  14.738  -4.960  1.00 20.00     0.123 C 
HETATM    4  N10 UNL     1     -34.519  14.858  -7.593  1.00 20.00    -0.197 NA
ENDROOT
BRANCH   3   5
HETATM    5  C9  UNL     1     -33.567  15.558  -4.266  1.00 20.00     0.077 C 
HETATM    6  C7  UNL     1     -32.651  14.653  -3.465  1.00 20.00     0.048 C 
BRANCH   5   7
HETATM    7  C4  UNL     1     -34.139  16.638  -3.329  1.00 20.00    -0.012 A 
HETATM    8  C2  UNL     1     -33.769  16.573  -1.866  1.00 20.00     0.013 A 
HETATM    9  C3  UNL     1     -35.161  16.213  -2.300  1.00 20.00     0.013 A 
HETATM   10  C5  UNL     1     -34.293  17.994  -3.959  1.00 20.00     0.018 C 
ENDBRANCH   5   7
BRANCH   5  11
HETATM   11  O11 UNL     1     -32.784  16.211  -5.271  1.00 20.00    -0.388 OA
HETATM   12  H26 UNL     1     -32.571  15.535  -5.930  1.00 20.00     0.210 HD
ENDBRANCH   5  11
ENDBRANCH   3   5
TORSDOF 3
ENDMDL
MODEL 4
REMARK VINA RESULT:      -4.1      2.383      3.439
REMARK  3 active torsions:
REMARK  status: ('A' for Active; 'I' for Inactive)
REMARK    1  A    between atoms: C4_4  and  C9_9 
REMARK    2  A    between atoms: C8_8  and  C9_9 
REMARK    3  A    between atoms: C9_9  and  O11_11 
ROOT
HETATM    1  C1  UNL     1     -37.059  14.473  -3.863  1.00 20.00     0.066 C 
HETATM    2  C6  UNL     1     -35.008  13.259  -4.391  1.00 20.00     0.028 C 
HETATM    3  C8  UNL     1     -35.586  14.604  -3.927  1.00 20.00     0.123 C 
HETATM    4  N10 UNL     1     -38.215  14.375  -3.811  1.00 20.00    -0.197 NA
ENDROOT
BRANCH   3   5
HETATM    5  C9  UNL     1     -35.150  15.803  -4.825  1.00 20.00     0.077 C 
HETATM    6  C7  UNL     1     -34.348  15.327  -6.021  1.00 20.00     0.048 C 
BRANCH   5   7
HETATM    7  C4  UNL     1     -34.307  16.825  -4.039  1.00 20.00    -0.012 A 
HETATM    8  C2  UNL     1     -33.743  16.399  -2.704  1.00 20.00     0.013 A 
HETATM    9  C3  UNL     1     -34.881  17.377  -2.754  1.00 20.00     0.013 A 
HETATM   10  C5  UNL     1     -33.480  17.743  -4.895  1.00 20.00     0.018 C 
ENDBRANCH   5   7
BRANCH   5  11
HETATM   11  O11 UNL     1     -36.320  16.472  -5.308  1.00 20.00    -0.388 OA
HETATM   12  H26 UNL     1     -36.304  17.358  -4.920  1.00 20.00     0.210 HD
ENDBRANCH   5  11
ENDBRANCH   3   5
TORSDOF 3
ENDMDL
MODEL 5
REMARK VINA RESULT:      -4.1      2.129      2.498
REMARK  3 active torsions:
REMARK  status: ('A' for Active; 'I' for Inactive)
REMARK    1  A    between atoms: C4_4  and  C9_9 
REMARK    2  A    between atoms: C8_8  and  C9_9 
REMARK    3  A    between atoms: C9_9  and  O11_11 
ROOT
HETATM    1  C1  UNL     1     -37.004  14.931  -3.624  1.00 20.00     0.066 C 
HETATM    2  C6  UNL     1     -35.195  15.812  -2.242  1.00 20.00     0.028 C 
HETATM    3  C8  UNL     1     -35.704  15.638  -3.680  1.00 20.00     0.123 C 
HETATM    4  N10 UNL     1     -38.024  14.378  -3.585  1.00 20.00    -0.197 NA
ENDROOT
BRANCH   3   5
HETATM    5  C9  UNL     1     -34.687  14.905  -4.609  1.00 20.00     0.077 C 
HETATM    6  C7  UNL     1     -33.394  14.608  -3.875  1.00 20.00     0.048 C 
BRANCH   5   7
HETATM    7  C4  UNL     1     -34.363  15.736  -5.864  1.00 20.00    -0.012 A 
HETATM    8  C2  UNL     1     -35.458  15.930  -6.887  1.00 20.00     0.013 A 
HETATM    9  C3  UNL     1     -34.304  15.018  -7.193  1.00 20.00     0.013 A 
HETATM   10  C5  UNL     1     -33.405  16.871  -5.633  1.00 20.00     0.018 C 
ENDBRANCH   5   7
BRANCH   5  11
HETATM   11  O11 UNL     1     -35.257  13.663  -5.034  1.00 20.00    -0.388 OA
HETATM   12  H26 UNL     1     -35.120  13.617  -5.991  1.00 20.00     0.210 HD
ENDBRANCH   5  11
ENDBRANCH   3   5
TORSDOF 3
ENDMDL
MODEL 6
REMARK VINA RESULT:      -4.1      2.432      3.256
REMARK  3 active torsions:
REMARK  status: ('A' for Active; 'I' for Inactive)
REMARK    1  A    between atoms: C4_4  and  C9_9 
REMARK    2  A    between atoms: C8_8  and  C9_9 
REMARK    3  A    between atoms: C9_9  and  O11_11 
ROOT
HETATM    1  C1  UNL     1     -33.826  17.853  -3.189  1.00 20.00     0.066 C 
HETATM    2  C6  UNL     1     -34.619  16.340  -1.445  1.00 20.00     0.028 C 
HETATM    3  C8  UNL     1     -34.144  16.436  -2.902  1.00 20.00     0.123 C 
HETATM    4  N10 UNL     1     -33.575  18.963  -3.419  1.00 20.00    -0.197 NA
ENDROOT
BRANCH   3   5
HETATM    5  C9  UNL     1     -35.169  15.854  -3.924  1.00 20.00     0.077 C 
HETATM    6  C7  UNL     1     -36.437  15.400  -3.227  1.00 20.00     0.048 C 
BRANCH   5   7
HETATM    7  C4  UNL     1     -34.581  14.665  -4.706  1.00 20.00    -0.012 A 
HETATM    8  C2  UNL     1     -35.025  13.274  -4.317  1.00 20.00     0.013 A 
HETATM    9  C3  UNL     1     -33.637  13.736  -3.977  1.00 20.00     0.013 A 
HETATM   10  C5  UNL     1     -34.317  14.940  -6.160  1.00 20.00     0.018 C 
ENDBRANCH   5   7
BRANCH   5  11
HETATM   11  O11 UNL     1     -35.517  16.875  -4.866  1.00 20.00    -0.388 OA
HETATM   12  H26 UNL     1     -36.321  17.293  -4.526  1.00 20.00     0.210 HD
ENDBRANCH   5  11
ENDBRANCH   3   5
TORSDOF 3
ENDMDL
MODEL 7
REMARK VINA RESULT:      -4.1      1.563      2.123
REMARK  3 active torsions:
REMARK  status: ('A' for Active; 'I' for Inactive)
REMARK    1  A    between atoms: C4_4  and  C9_9 
REMARK    2  A    between atoms: C8_8  and  C9_9 
REMARK    3  A    between atoms: C9_9  and  O11_11 
ROOT
HETATM    1  C1  UNL     1     -34.933  13.829  -4.548  1.00 20.00     0.066 C 
HETATM    2  C6  UNL     1     -36.397  15.302  -3.263  1.00 20.00     0.028 C 
HETATM    3  C8  UNL     1     -35.274  15.250  -4.310  1.00 20.00     0.123 C 
HETATM    4  N10 UNL     1     -34.663  12.717  -4.739  1.00 20.00    -0.197 NA
ENDROOT
BRANCH   3   5
HETATM    5  C9  UNL     1     -34.020  16.087  -3.908  1.00 20.00     0.077 C 
HETATM    6  C7  UNL     1     -33.878  16.168  -2.401  1.00 20.00     0.048 C 
BRANCH   5   7
HETATM    7  C4  UNL     1     -34.083  17.516  -4.478  1.00 20.00    -0.012 A 
HETATM    8  C2  UNL     1     -35.082  17.797  -5.576  1.00 20.00     0.013 A 
HETATM    9  C3  UNL     1     -33.616  17.734  -5.899  1.00 20.00     0.013 A 
HETATM   10  C5  UNL     1     -33.815  18.602  -3.473  1.00 20.00     0.018 C 
ENDBRANCH   5   7
BRANCH   5  11
HETATM   11  O11 UNL     1     -32.849  15.451  -4.434  1.00 20.00    -0.388 OA
HETATM   12  H26 UNL     1     -32.169  15.529  -3.750  1.00 20.00     0.210 HD
ENDBRANCH   5  11
ENDBRANCH   3   5
TORSDOF 3
ENDMDL
MODEL 8
REMARK VINA RESULT:      -4.1      2.207      2.838
REMARK  3 active torsions:
REMARK  status: ('A' for Active; 'I' for Inactive)
REMARK    1  A    between atoms: C4_4  and  C9_9 
REMARK    2  A    between atoms: C8_8  and  C9_9 
REMARK    3  A    between atoms: C9_9  and  O11_11 
ROOT
HETATM    1  C1  UNL     1     -34.381  15.968  -2.317  1.00 20.00     0.066 C 
HETATM    2  C6  UNL     1     -32.676  14.749  -3.568  1.00 20.00     0.028 C 
HETATM    3  C8  UNL     1     -33.995  15.528  -3.676  1.00 20.00     0.123 C 
HETATM    4  N10 UNL     1     -34.688  16.316  -1.252  1.00 20.00    -0.197 NA
ENDROOT
BRANCH   3   5
HETATM    5  C9  UNL     1     -35.134  14.717  -4.367  1.00 20.00     0.077 C 
HETATM    6  C7  UNL     1     -34.751  13.257  -4.519  1.00 20.00     0.048 C 
BRANCH   5   7
HETATM    7  C4  UNL     1     -35.476  15.286  -5.757  1.00 20.00    -0.012 A 
HETATM    8  C2  UNL     1     -35.358  14.364  -6.948  1.00 20.00     0.013 A 
HETATM    9  C3  UNL     1     -34.348  15.457  -6.748  1.00 20.00     0.013 A 
HETATM   10  C5  UNL     1     -36.580  16.306  -5.761  1.00 20.00     0.018 C 
ENDBRANCH   5   7
BRANCH   5  11
HETATM   11  O11 UNL     1     -36.313  14.788  -3.557  1.00 20.00    -0.388 OA
HETATM   12  H26 UNL     1     -37.050  14.530  -4.130  1.00 20.00     0.210 HD
ENDBRANCH   5  11
ENDBRANCH   3   5
TORSDOF 3
ENDMDL
MODEL 9
REMARK VINA RESULT:      -4.1      1.922      2.670
REMARK  3 active torsions:
REMARK  status: ('A' for Active; 'I' for Inactive)
REMARK    1  A    between atoms: C4_4  and  C9_9 
REMARK    2  A    between atoms: C8_8  and  C9_9 
REMARK    3  A    between atoms: C9_9  and  O11_11 
ROOT
HETATM    1  C1  UNL     1     -34.821  16.512  -1.850  1.00 20.00     0.066 C 
HETATM    2  C6  UNL     1     -35.652  17.790  -3.757  1.00 20.00     0.028 C 
HETATM    3  C8  UNL     1     -35.188  16.407  -3.280  1.00 20.00     0.123 C 
HETATM    4  N10 UNL     1     -34.533  16.591  -0.728  1.00 20.00    -0.197 NA
ENDROOT
BRANCH   3   5
HETATM    5  C9  UNL     1     -34.020  15.821  -4.134  1.00 20.00     0.077 C 
HETATM    6  C7  UNL     1     -33.437  16.874  -5.057  1.00 20.00     0.048 C 
BRANCH   5   7
HETATM    7  C4  UNL     1     -34.482  14.622  -4.983  1.00 20.00    -0.012 A 
HETATM    8  C2  UNL     1     -35.539  13.711  -4.403  1.00 20.00     0.013 A 
HETATM    9  C3  UNL     1     -34.119  13.235  -4.505  1.00 20.00     0.013 A 
HETATM   10  C5  UNL     1     -34.503  14.875  -6.464  1.00 20.00     0.018 C 
ENDBRANCH   5   7
BRANCH   5  11
HETATM   11  O11 UNL     1     -32.983  15.370  -3.257  1.00 20.00    -0.388 OA
HETATM   12  H26 UNL     1     -33.371  14.666  -2.719  1.00 20.00     0.210 HD
ENDBRANCH   5  11
ENDBRANCH   3   5
TORSDOF 3
ENDMDL
