MODEL 1
REMARK VINA RESULT:      -4.6      0.000      0.000
REMARK  3 active torsions:
REMARK  status: ('A' for Active; 'I' for Inactive)
REMARK    1  A    between atoms: C1_1  and  C10_10 
REMARK    2  A    between atoms: C5_5  and  C10_10 
REMARK    3  A    between atoms: C10_10  and  O11_11 
ROOT
HETATM    1  C9  UNL     1     -33.642  13.437  -4.165  1.00 20.00     0.051 C 
HETATM    2  C10 UNL     1     -33.779  14.938  -4.050  1.00 20.00     0.079 C 
ENDROOT
BRANCH   2   3
HETATM    3  C1  UNL     1     -34.257  15.383  -2.678  1.00 20.00     0.013 C 
HETATM    4  C2  UNL     1     -34.225  16.609  -2.116  1.00 20.00    -0.088 C 
HETATM    5  C6  UNL     1     -34.762  16.819  -0.724  1.00 20.00     0.042 C 
HETATM    6  C7  UNL     1     -33.660  17.848  -2.751  1.00 20.00     0.042 C 
ENDBRANCH   2   3
BRANCH   2   7
HETATM    7  C5  UNL     1     -34.758  15.457  -5.117  1.00 20.00    -0.010 A 
HETATM    8  C3  UNL     1     -34.420  15.207  -6.568  1.00 20.00     0.013 A 
HETATM    9  C4  UNL     1     -34.304  16.594  -6.002  1.00 20.00     0.013 A 
HETATM   10  C8  UNL     1     -36.206  15.413  -4.712  1.00 20.00     0.018 C 
ENDBRANCH   2   7
BRANCH   2  11
HETATM   11  O11 UNL     1     -32.513  15.542  -4.339  1.00 20.00    -0.385 OA
HETATM   12  H29 UNL     1     -32.127  15.779  -3.483  1.00 20.00     0.211 HD
ENDBRANCH   2  11
TORSDOF 3
ENDMDL
MODEL 2
REMARK VINA RESULT:      -4.5      1.514      1.802
REMARK  3 active torsions:
REMARK  status: ('A' for Active; 'I' for Inactive)
REMARK    1  A    between atoms: C1_1  and  C10_10 
REMARK    2  A    between atoms: C5_5  and  C10_10 
REMARK    3  A    between atoms: C10_10  and  O11_11 
ROOT
HETATM    1  C9  UNL     1     -32.954  15.211  -3.637  1.00 20.00     0.051 C 
HETATM    2  C10 UNL     1     -34.370  15.715  -3.478  1.00 20.00     0.079 C 
ENDROOT
BRANCH   2   3
HETATM    3  C1  UNL     1     -34.734  16.004  -2.031  1.00 20.00     0.013 C 
HETATM    4  C2  UNL     1     -34.381  17.047  -1.252  1.00 20.00    -0.088 C 
HETATM    5  C6  UNL     1     -34.867  17.126   0.173  1.00 20.00     0.042 C 
HETATM    6  C7  UNL     1     -33.491  18.185  -1.662  1.00 20.00     0.042 C 
ENDBRANCH   2   3
BRANCH   2   7
HETATM    7  C5  UNL     1     -35.358  14.685  -4.051  1.00 20.00    -0.010 A 
HETATM    8  C3  UNL     1     -34.881  13.261  -4.215  1.00 20.00     0.013 A 
HETATM    9  C4  UNL     1     -35.082  14.126  -5.426  1.00 20.00     0.013 A 
HETATM   10  C8  UNL     1     -36.793  14.907  -3.655  1.00 20.00     0.018 C 
ENDBRANCH   2   7
BRANCH   2  11
HETATM   11  O11 UNL     1     -34.528  16.903  -4.261  1.00 20.00    -0.385 OA
HETATM   12  H29 UNL     1     -34.569  16.614  -5.184  1.00 20.00     0.211 HD
ENDBRANCH   2  11
TORSDOF 3
ENDMDL
MODEL 3
REMARK VINA RESULT:      -4.4      1.252      3.941
REMARK  3 active torsions:
REMARK  status: ('A' for Active; 'I' for Inactive)
REMARK    1  A    between atoms: C1_1  and  C10_10 
REMARK    2  A    between atoms: C5_5  and  C10_10 
REMARK    3  A    between atoms: C10_10  and  O11_11 
ROOT
HETATM    1  C9  UNL     1     -34.303  17.235  -4.544  1.00 20.00     0.051 C 
HETATM    2  C10 UNL     1     -33.794  15.856  -4.898  1.00 20.00     0.079 C 
ENDROOT
BRANCH   2   3
HETATM    3  C1  UNL     1     -34.396  15.318  -6.185  1.00 20.00     0.013 C 
HETATM    4  C2  UNL     1     -35.685  15.291  -6.581  1.00 20.00    -0.088 C 
HETATM    5  C6  UNL     1     -36.055  14.700  -7.917  1.00 20.00     0.042 C 
HETATM    6  C7  UNL     1     -36.856  15.791  -5.784  1.00 20.00     0.042 C 
ENDBRANCH   2   3
BRANCH   2   7
HETATM    7  C5  UNL     1     -34.095  14.877  -3.751  1.00 20.00    -0.010 A 
HETATM    8  C3  UNL     1     -33.126  13.741  -3.519  1.00 20.00     0.013 A 
HETATM    9  C4  UNL     1     -34.478  13.461  -4.111  1.00 20.00     0.013 A 
HETATM   10  C8  UNL     1     -34.751  15.501  -2.550  1.00 20.00     0.018 C 
ENDBRANCH   2   7
BRANCH   2  11
HETATM   11  O11 UNL     1     -32.368  15.908  -5.019  1.00 20.00    -0.385 OA
HETATM   12  H29 UNL     1     -32.072  16.610  -4.421  1.00 20.00     0.211 HD
ENDBRANCH   2  11
TORSDOF 3
ENDMDL
MODEL 4
REMARK VINA RESULT:      -4.4      1.394      3.706
REMARK  3 active torsions:
REMARK  status: ('A' for Active; 'I' for Inactive)
REMARK    1  A    between atoms: C1_1  and  C10_10 
REMARK    2  A    between atoms: C5_5  and  C10_10 
REMARK    3  A    between atoms: C10_10  and  O11_11 
ROOT
HETATM    1  C9  UNL     1     -32.779  15.099  -3.886  1.00 20.00     0.051 C 
HETATM    2  C10 UNL     1     -34.153  14.483  -4.007  1.00 20.00     0.079 C 
ENDROOT
BRANCH   2   3
HETATM    3  C1  UNL     1     -34.593  14.300  -5.450  1.00 20.00     0.013 C 
HETATM    4  C2  UNL     1     -34.518  15.163  -6.484  1.00 20.00    -0.088 C 
HETATM    5  C6  UNL     1     -35.023  14.760  -7.845  1.00 20.00     0.042 C 
HETATM    6  C7  UNL     1     -33.979  16.563  -6.417  1.00 20.00     0.042 C 
ENDBRANCH   2   3
BRANCH   2   7
HETATM    7  C5  UNL     1     -35.185  15.356  -3.272  1.00 20.00    -0.010 A 
HETATM    8  C3  UNL     1     -34.878  16.826  -3.107  1.00 20.00     0.013 A 
HETATM    9  C4  UNL     1     -34.807  15.911  -1.919  1.00 20.00     0.013 A 
HETATM   10  C8  UNL     1     -36.617  14.955  -3.495  1.00 20.00     0.018 C 
ENDBRANCH   2   7
BRANCH   2  11
HETATM   11  O11 UNL     1     -34.152  13.216  -3.340  1.00 20.00    -0.385 OA
HETATM   12  H29 UNL     1     -34.129  13.411  -2.392  1.00 20.00     0.211 HD
ENDBRANCH   2  11
TORSDOF 3
ENDMDL
MODEL 5
REMARK VINA RESULT:      -4.4      1.690      2.617
REMARK  3 active torsions:
REMARK  status: ('A' for Active; 'I' for Inactive)
REMARK    1  A    between atoms: C1_1  and  C10_10 
REMARK    2  A    between atoms: C5_5  and  C10_10 
REMARK    3  A    between atoms: C10_10  and  O11_11 
ROOT
HETATM    1  C9  UNL     1     -36.618  16.177  -4.850  1.00 20.00     0.051 C 
HETATM    2  C10 UNL     1     -36.045  15.034  -4.045  1.00 20.00     0.079 C 
ENDROOT
BRANCH   2   3
HETATM    3  C1  UNL     1     -35.573  15.462  -2.666  1.00 20.00     0.013 C 
HETATM    4  C2  UNL     1     -34.751  16.473  -2.318  1.00 20.00    -0.088 C 
HETATM    5  C6  UNL     1     -34.417  16.715  -0.869  1.00 20.00     0.042 C 
HETATM    6  C7  UNL     1     -34.078  17.421  -3.270  1.00 20.00     0.042 C 
ENDBRANCH   2   3
BRANCH   2   7
HETATM    7  C5  UNL     1     -34.870  14.396  -4.805  1.00 20.00    -0.010 A 
HETATM    8  C3  UNL     1     -34.793  12.888  -4.854  1.00 20.00     0.013 A 
HETATM    9  C4  UNL     1     -33.823  13.659  -4.003  1.00 20.00     0.013 A 
HETATM   10  C8  UNL     1     -34.417  15.165  -6.017  1.00 20.00     0.018 C 
ENDBRANCH   2   7
BRANCH   2  11
HETATM   11  O11 UNL     1     -37.042  14.013  -3.917  1.00 20.00    -0.385 OA
HETATM   12  H29 UNL     1     -37.891  14.443  -4.094  1.00 20.00     0.211 HD
ENDBRANCH   2  11
TORSDOF 3
ENDMDL
MODEL 6
REMARK VINA RESULT:      -4.4      1.396      2.836
REMARK  3 active torsions:
REMARK  status: ('A' for Active; 'I' for Inactive)
REMARK    1  A    between atoms: C1_1  and  C10_10 
REMARK    2  A    between atoms: C5_5  and  C10_10 
REMARK    3  A    between atoms: C10_10  and  O11_11 
ROOT
HETATM    1  C9  UNL     1     -33.732  16.204  -2.556  1.00 20.00     0.051 C 
HETATM    2  C10 UNL     1     -33.487  15.602  -3.920  1.00 20.00     0.079 C 
ENDROOT
BRANCH   2   3
HETATM    3  C1  UNL     1     -33.313  16.651  -5.006  1.00 20.00     0.013 C 
HETATM    4  C2  UNL     1     -34.007  17.788  -5.217  1.00 20.00    -0.088 C 
HETATM    5  C6  UNL     1     -33.653  18.689  -6.372  1.00 20.00     0.042 C 
HETATM    6  C7  UNL     1     -35.171  18.268  -4.397  1.00 20.00     0.042 C 
ENDBRANCH   2   3
BRANCH   2   7
HETATM    7  C5  UNL     1     -34.653  14.673  -4.299  1.00 20.00    -0.010 A 
HETATM    8  C3  UNL     1     -34.323  13.260  -4.721  1.00 20.00     0.013 A 
HETATM    9  C4  UNL     1     -34.786  14.257  -5.745  1.00 20.00     0.013 A 
HETATM   10  C8  UNL     1     -35.914  14.898  -3.511  1.00 20.00     0.018 C 
ENDBRANCH   2   7
BRANCH   2  11
HETATM   11  O11 UNL     1     -32.319  14.776  -3.857  1.00 20.00    -0.385 OA
HETATM   12  H29 UNL     1     -31.875  14.871  -4.713  1.00 20.00     0.211 HD
ENDBRANCH   2  11
TORSDOF 3
ENDMDL
MODEL 7
REMARK VINA RESULT:      -4.3      1.219      4.041
REMARK  3 active torsions:
REMARK  status: ('A' for Active; 'I' for Inactive)
REMARK    1  A    between atoms: C1_1  and  C10_10 
REMARK    2  A    between atoms: C5_5  and  C10_10 
REMARK    3  A    between atoms: C10_10  and  O11_11 
ROOT
HETATM    1  C9  UNL     1     -34.375  17.364  -4.819  1.00 20.00     0.051 C 
HETATM    2  C10 UNL     1     -33.867  15.941  -4.864  1.00 20.00     0.079 C 
ENDROOT
BRANCH   2   3
HETATM    3  C1  UNL     1     -34.333  15.186  -6.097  1.00 20.00     0.013 C 
HETATM    4  C2  UNL     1     -35.546  15.174  -6.686  1.00 20.00    -0.088 C 
HETATM    5  C6  UNL     1     -35.783  14.340  -7.918  1.00 20.00     0.042 C 
HETATM    6  C7  UNL     1     -36.758  15.923  -6.208  1.00 20.00     0.042 C 
ENDBRANCH   2   3
BRANCH   2   7
HETATM    7  C5  UNL     1     -34.323  15.183  -3.606  1.00 20.00    -0.010 A 
HETATM    8  C3  UNL     1     -35.589  15.643  -2.922  1.00 20.00     0.013 A 
HETATM    9  C4  UNL     1     -34.256  15.904  -2.280  1.00 20.00     0.013 A 
HETATM   10  C8  UNL     1     -34.026  13.708  -3.621  1.00 20.00     0.018 C 
ENDBRANCH   2   7
BRANCH   2  11
HETATM   11  O11 UNL     1     -32.435  15.961  -4.824  1.00 20.00    -0.385 OA
HETATM   12  H29 UNL     1     -32.138  15.407  -5.560  1.00 20.00     0.211 HD
ENDBRANCH   2  11
TORSDOF 3
ENDMDL
MODEL 8
REMARK VINA RESULT:      -4.3      1.788      3.420
REMARK  3 active torsions:
REMARK  status: ('A' for Active; 'I' for Inactive)
REMARK    1  A    between atoms: C1_1  and  C10_10 
REMARK    2  A    between atoms: C5_5  and  C10_10 
REMARK    3  A    between atoms: C10_10  and  O11_11 
ROOT
HETATM    1  C9  UNL     1     -35.125  14.170  -6.522  1.00 20.00     0.051 C 
HETATM    2  C10 UNL     1     -34.963  14.039  -5.025  1.00 20.00     0.079 C 
ENDROOT
BRANCH   2   3
HETATM    3  C1  UNL     1     -36.275  14.188  -4.274  1.00 20.00     0.013 C 
HETATM    4  C2  UNL     1     -37.287  15.054  -4.483  1.00 20.00    -0.088 C 
HETATM    5  C6  UNL     1     -38.509  15.019  -3.601  1.00 20.00     0.042 C 
HETATM    6  C7  UNL     1     -37.321  16.123  -5.538  1.00 20.00     0.042 C 
ENDBRANCH   2   3
BRANCH   2   7
HETATM    7  C5  UNL     1     -33.966  15.092  -4.513  1.00 20.00    -0.010 A 
HETATM    8  C3  UNL     1     -32.867  14.634  -3.583  1.00 20.00     0.013 A 
HETATM    9  C4  UNL     1     -34.006  15.452  -3.047  1.00 20.00     0.013 A 
HETATM   10  C8  UNL     1     -33.647  16.183  -5.499  1.00 20.00     0.018 C 
ENDBRANCH   2   7
BRANCH   2  11
HETATM   11  O11 UNL     1     -34.384  12.762  -4.733  1.00 20.00    -0.385 OA
HETATM   12  H29 UNL     1     -34.113  12.388  -5.584  1.00 20.00     0.211 HD
ENDBRANCH   2  11
TORSDOF 3
ENDMDL
MODEL 9
REMARK VINA RESULT:      -4.3      1.851      2.723
REMARK  3 active torsions:
REMARK  status: ('A' for Active; 'I' for Inactive)
REMARK    1  A    between atoms: C1_1  and  C10_10 
REMARK    2  A    between atoms: C5_5  and  C10_10 
REMARK    3  A    between atoms: C10_10  and  O11_11 
ROOT
HETATM    1  C9  UNL     1     -35.529  16.856  -4.347  1.00 20.00     0.051 C 
HETATM    2  C10 UNL     1     -35.291  15.744  -3.350  1.00 20.00     0.079 C 
ENDROOT
BRANCH   2   3
HETATM    3  C1  UNL     1     -34.651  16.234  -2.062  1.00 20.00     0.013 C 
HETATM    4  C2  UNL     1     -35.064  17.197  -1.213  1.00 20.00    -0.088 C 
HETATM    5  C6  UNL     1     -34.259  17.517   0.020  1.00 20.00     0.042 C 
HETATM    6  C7  UNL     1     -36.290  18.047  -1.384  1.00 20.00     0.042 C 
ENDBRANCH   2   3
BRANCH   2   7
HETATM    7  C5  UNL     1     -34.397  14.661  -3.977  1.00 20.00    -0.010 A 
HETATM    8  C3  UNL     1     -34.728  14.193  -5.375  1.00 20.00     0.013 A 
HETATM    9  C4  UNL     1     -34.994  13.292  -4.203  1.00 20.00     0.013 A 
HETATM   10  C8  UNL     1     -32.947  14.742  -3.585  1.00 20.00     0.018 C 
ENDBRANCH   2   7
BRANCH   2  11
HETATM   11  O11 UNL     1     -36.542  15.112  -3.056  1.00 20.00    -0.385 OA
HETATM   12  H29 UNL     1     -37.165  15.826  -2.860  1.00 20.00     0.211 HD
ENDBRANCH   2  11
TORSDOF 3
ENDMDL
