MODEL 1
REMARK VINA RESULT:      -4.8      0.000      0.000
REMARK  3 active torsions:
REMARK  status: ('A' for Active; 'I' for Inactive)
REMARK    1  A    between atoms: C3_3  and  C6_6 
REMARK    2  A    between atoms: C6_6  and  C7_7 
REMARK    3  A    between atoms: C6_6  and  O8_8 
ROOT
HETATM    1  C5  UNL     1     -33.831  16.057  -2.893  1.00 20.00     0.056 C 
HETATM    2  C6  UNL     1     -33.603  15.328  -4.203  1.00 20.00     0.158 C 
ENDROOT
BRANCH   2   3
HETATM    3  C3  UNL     1     -34.562  15.792  -5.264  1.00 20.00    -0.004 A 
HETATM    4  C1  UNL     1     -34.172  15.585  -6.709  1.00 20.00     0.013 A 
HETATM    5  C2  UNL     1     -34.153  16.966  -6.122  1.00 20.00     0.013 A 
HETATM    6  C4  UNL     1     -36.014  15.656  -4.899  1.00 20.00     0.018 C 
ENDBRANCH   2   3
BRANCH   2   7
HETATM    7  C7  UNL     1     -33.690  13.812  -3.980  1.00 20.00     0.418 C 
HETATM    8  F9  UNL     1     -32.498  13.318  -3.577  1.00 20.00    -0.168 F 
HETATM    9  F10 UNL     1     -34.044  13.148  -5.103  1.00 20.00    -0.168 F 
HETATM   10  F11 UNL     1     -34.598  13.514  -3.024  1.00 20.00    -0.168 F 
ENDBRANCH   2   7
BRANCH   2  11
HETATM   11  O8  UNL     1     -32.259  15.619  -4.619  1.00 20.00    -0.380 OA
HETATM   12  H22 UNL     1     -32.312  15.820  -5.563  1.00 20.00     0.211 HD
ENDBRANCH   2  11
TORSDOF 3
ENDMDL
MODEL 2
REMARK VINA RESULT:      -4.7      0.128      1.137
REMARK  3 active torsions:
REMARK  status: ('A' for Active; 'I' for Inactive)
REMARK    1  A    between atoms: C3_3  and  C6_6 
REMARK    2  A    between atoms: C6_6  and  C7_7 
REMARK    3  A    between atoms: C6_6  and  O8_8 
ROOT
HETATM    1  C5  UNL     1     -33.766  16.068  -2.846  1.00 20.00     0.056 C 
HETATM    2  C6  UNL     1     -33.579  15.374  -4.182  1.00 20.00     0.158 C 
ENDROOT
BRANCH   2   3
HETATM    3  C3  UNL     1     -34.520  15.919  -5.220  1.00 20.00    -0.004 A 
HETATM    4  C1  UNL     1     -34.163  15.720  -6.674  1.00 20.00     0.013 A 
HETATM    5  C2  UNL     1     -34.051  17.085  -6.059  1.00 20.00     0.013 A 
HETATM    6  C4  UNL     1     -35.973  15.865  -4.838  1.00 20.00     0.018 C 
ENDBRANCH   2   3
BRANCH   2   7
HETATM    7  C7  UNL     1     -33.735  13.858  -4.011  1.00 20.00     0.418 C 
HETATM    8  F9  UNL     1     -34.078  13.277  -5.183  1.00 20.00    -0.168 F 
HETATM    9  F10 UNL     1     -34.688  13.538  -3.107  1.00 20.00    -0.168 F 
HETATM   10  F11 UNL     1     -32.576  13.295  -3.602  1.00 20.00    -0.168 F 
ENDBRANCH   2   7
BRANCH   2  11
HETATM   11  O8  UNL     1     -32.225  15.617  -4.598  1.00 20.00    -0.380 OA
HETATM   12  H22 UNL     1     -31.866  16.257  -3.969  1.00 20.00     0.211 HD
ENDBRANCH   2  11
TORSDOF 3
ENDMDL
MODEL 3
REMARK VINA RESULT:      -4.6      0.415      1.387
REMARK  3 active torsions:
REMARK  status: ('A' for Active; 'I' for Inactive)
REMARK    1  A    between atoms: C3_3  and  C6_6 
REMARK    2  A    between atoms: C6_6  and  C7_7 
REMARK    3  A    between atoms: C6_6  and  O8_8 
ROOT
HETATM    1  C5  UNL     1     -33.783  16.082  -2.883  1.00 20.00     0.056 C 
HETATM    2  C6  UNL     1     -33.617  15.349  -4.200  1.00 20.00     0.158 C 
ENDROOT
BRANCH   2   3
HETATM    3  C3  UNL     1     -34.644  15.788  -5.206  1.00 20.00    -0.004 A 
HETATM    4  C1  UNL     1     -35.592  16.896  -4.812  1.00 20.00     0.013 A 
HETATM    5  C2  UNL     1     -36.095  15.486  -4.915  1.00 20.00     0.013 A 
HETATM    6  C4  UNL     1     -34.184  15.729  -6.636  1.00 20.00     0.018 C 
ENDBRANCH   2   3
BRANCH   2   7
HETATM    7  C7  UNL     1     -33.661  13.833  -3.965  1.00 20.00     0.418 C 
HETATM    8  F9  UNL     1     -32.458  13.378  -3.549  1.00 20.00    -0.168 F 
HETATM    9  F10 UNL     1     -33.987  13.149  -5.084  1.00 20.00    -0.168 F 
HETATM   10  F11 UNL     1     -34.567  13.517  -3.013  1.00 20.00    -0.168 F 
ENDBRANCH   2   7
BRANCH   2  11
HETATM   11  O8  UNL     1     -32.305  15.663  -4.696  1.00 20.00    -0.380 OA
HETATM   12  H22 UNL     1     -32.438  16.048  -5.571  1.00 20.00     0.211 HD
ENDBRANCH   2  11
TORSDOF 3
ENDMDL
MODEL 4
REMARK VINA RESULT:      -4.4      1.374      1.722
REMARK  3 active torsions:
REMARK  status: ('A' for Active; 'I' for Inactive)
REMARK    1  A    between atoms: C3_3  and  C6_6 
REMARK    2  A    between atoms: C6_6  and  C7_7 
REMARK    3  A    between atoms: C6_6  and  O8_8 
ROOT
HETATM    1  C5  UNL     1     -34.082  17.541  -4.272  1.00 20.00     0.056 C 
HETATM    2  C6  UNL     1     -33.850  16.079  -4.602  1.00 20.00     0.158 C 
ENDROOT
BRANCH   2   3
HETATM    3  C3  UNL     1     -34.855  15.576  -5.602  1.00 20.00    -0.004 A 
HETATM    4  C1  UNL     1     -34.771  14.127  -6.022  1.00 20.00     0.013 A 
HETATM    5  C2  UNL     1     -34.358  15.207  -6.980  1.00 20.00     0.013 A 
HETATM    6  C4  UNL     1     -36.218  16.200  -5.488  1.00 20.00     0.018 C 
ENDBRANCH   2   3
BRANCH   2   7
HETATM    7  C7  UNL     1     -33.859  15.243  -3.316  1.00 20.00     0.418 C 
HETATM    8  F9  UNL     1     -33.004  14.200  -3.417  1.00 20.00    -0.168 F 
HETATM    9  F10 UNL     1     -35.082  14.737  -3.040  1.00 20.00    -0.168 F 
HETATM   10  F11 UNL     1     -33.473  15.984  -2.254  1.00 20.00    -0.168 F 
ENDBRANCH   2   7
BRANCH   2  11
HETATM   11  O8  UNL     1     -32.531  15.978  -5.165  1.00 20.00    -0.380 OA
HETATM   12  H22 UNL     1     -31.921  16.013  -4.418  1.00 20.00     0.211 HD
ENDBRANCH   2  11
TORSDOF 3
ENDMDL
MODEL 5
REMARK VINA RESULT:      -4.3      2.367      3.298
REMARK  3 active torsions:
REMARK  status: ('A' for Active; 'I' for Inactive)
REMARK    1  A    between atoms: C3_3  and  C6_6 
REMARK    2  A    between atoms: C6_6  and  C7_7 
REMARK    3  A    between atoms: C6_6  and  O8_8 
ROOT
HETATM    1  C5  UNL     1     -36.613  14.674  -3.778  1.00 20.00     0.056 C 
HETATM    2  C6  UNL     1     -35.255  14.251  -4.304  1.00 20.00     0.158 C 
ENDROOT
BRANCH   2   3
HETATM    3  C3  UNL     1     -34.140  14.885  -3.518  1.00 20.00    -0.004 A 
HETATM    4  C1  UNL     1     -34.505  15.677  -2.284  1.00 20.00     0.013 A 
HETATM    5  C2  UNL     1     -34.041  16.392  -3.520  1.00 20.00     0.013 A 
HETATM    6  C4  UNL     1     -32.862  14.094  -3.495  1.00 20.00     0.018 C 
ENDBRANCH   2   3
BRANCH   2   7
HETATM    7  C7  UNL     1     -35.150  14.571  -5.801  1.00 20.00     0.418 C 
HETATM    8  F9  UNL     1     -35.288  13.449  -6.541  1.00 20.00    -0.168 F 
HETATM    9  F10 UNL     1     -33.961  15.126  -6.125  1.00 20.00    -0.168 F 
HETATM   10  F11 UNL     1     -36.121  15.432  -6.181  1.00 20.00    -0.168 F 
ENDBRANCH   2   7
BRANCH   2  11
HETATM   11  O8  UNL     1     -35.176  12.823  -4.169  1.00 20.00    -0.380 OA
HETATM   12  H22 UNL     1     -35.576  12.459  -4.969  1.00 20.00     0.211 HD
ENDBRANCH   2  11
TORSDOF 3
ENDMDL
MODEL 6
REMARK VINA RESULT:      -4.3      1.386      1.721
REMARK  3 active torsions:
REMARK  status: ('A' for Active; 'I' for Inactive)
REMARK    1  A    between atoms: C3_3  and  C6_6 
REMARK    2  A    between atoms: C6_6  and  C7_7 
REMARK    3  A    between atoms: C6_6  and  O8_8 
ROOT
HETATM    1  C5  UNL     1     -34.087  17.568  -4.243  1.00 20.00     0.056 C 
HETATM    2  C6  UNL     1     -33.861  16.109  -4.590  1.00 20.00     0.158 C 
ENDROOT
BRANCH   2   3
HETATM    3  C3  UNL     1     -34.862  15.624  -5.602  1.00 20.00    -0.004 A 
HETATM    4  C1  UNL     1     -34.803  14.172  -6.016  1.00 20.00     0.013 A 
HETATM    5  C2  UNL     1     -34.354  15.239  -6.971  1.00 20.00     0.013 A 
HETATM    6  C4  UNL     1     -36.214  16.275  -5.507  1.00 20.00     0.018 C 
ENDBRANCH   2   3
BRANCH   2   7
HETATM    7  C7  UNL     1     -33.882  15.258  -3.314  1.00 20.00     0.418 C 
HETATM    8  F9  UNL     1     -33.502  15.991  -2.243  1.00 20.00    -0.168 F 
HETATM    9  F10 UNL     1     -33.050  14.195  -3.392  1.00 20.00    -0.168 F 
HETATM   10  F11 UNL     1     -35.125  14.788  -3.065  1.00 20.00    -0.168 F 
ENDBRANCH   2   7
BRANCH   2  11
HETATM   11  O8  UNL     1     -32.539  16.008  -5.146  1.00 20.00    -0.380 OA
HETATM   12  H22 UNL     1     -32.319  15.068  -5.134  1.00 20.00     0.211 HD
ENDBRANCH   2  11
TORSDOF 3
ENDMDL
MODEL 7
REMARK VINA RESULT:      -4.3      1.731      2.440
REMARK  3 active torsions:
REMARK  status: ('A' for Active; 'I' for Inactive)
REMARK    1  A    between atoms: C3_3  and  C6_6 
REMARK    2  A    between atoms: C6_6  and  C7_7 
REMARK    3  A    between atoms: C6_6  and  O8_8 
ROOT
HETATM    1  C5  UNL     1     -33.275  16.818  -5.190  1.00 20.00     0.056 C 
HETATM    2  C6  UNL     1     -33.618  15.579  -4.384  1.00 20.00     0.158 C 
ENDROOT
BRANCH   2   3
HETATM    3  C3  UNL     1     -34.442  14.612  -5.188  1.00 20.00    -0.004 A 
HETATM    4  C1  UNL     1     -34.568  14.854  -6.674  1.00 20.00     0.013 A 
HETATM    5  C2  UNL     1     -35.743  15.107  -5.774  1.00 20.00     0.013 A 
HETATM    6  C4  UNL     1     -34.381  13.189  -4.708  1.00 20.00     0.018 C 
ENDBRANCH   2   3
BRANCH   2   7
HETATM    7  C7  UNL     1     -34.320  15.980  -3.080  1.00 20.00     0.418 C 
HETATM    8  F9  UNL     1     -33.415  16.261  -2.116  1.00 20.00    -0.168 F 
HETATM    9  F10 UNL     1     -35.124  15.001  -2.608  1.00 20.00    -0.168 F 
HETATM   10  F11 UNL     1     -35.080  17.084  -3.259  1.00 20.00    -0.168 F 
ENDBRANCH   2   7
BRANCH   2  11
HETATM   11  O8  UNL     1     -32.375  14.954  -4.022  1.00 20.00    -0.380 OA
HETATM   12  H22 UNL     1     -32.520  14.004  -4.114  1.00 20.00     0.211 HD
ENDBRANCH   2  11
TORSDOF 3
ENDMDL
MODEL 8
REMARK VINA RESULT:      -4.3      1.768      2.771
REMARK  3 active torsions:
REMARK  status: ('A' for Active; 'I' for Inactive)
REMARK    1  A    between atoms: C3_3  and  C6_6 
REMARK    2  A    between atoms: C6_6  and  C7_7 
REMARK    3  A    between atoms: C6_6  and  O8_8 
ROOT
HETATM    1  C5  UNL     1     -33.495  13.705  -3.938  1.00 20.00     0.056 C 
HETATM    2  C6  UNL     1     -33.800  15.111  -4.416  1.00 20.00     0.158 C 
ENDROOT
BRANCH   2   3
HETATM    3  C3  UNL     1     -34.573  15.886  -3.384  1.00 20.00    -0.004 A 
HETATM    4  C1  UNL     1     -34.374  17.382  -3.327  1.00 20.00     0.013 A 
HETATM    5  C2  UNL     1     -33.803  16.512  -2.245  1.00 20.00     0.013 A 
HETATM    6  C4  UNL     1     -35.946  15.346  -3.095  1.00 20.00     0.018 C 
ENDBRANCH   2   3
BRANCH   2   7
HETATM    7  C7  UNL     1     -34.536  15.060  -5.760  1.00 20.00     0.418 C 
HETATM    8  F9  UNL     1     -33.671  15.219  -6.786  1.00 20.00    -0.168 F 
HETATM    9  F10 UNL     1     -35.475  16.027  -5.869  1.00 20.00    -0.168 F 
HETATM   10  F11 UNL     1     -35.154  13.869  -5.929  1.00 20.00    -0.168 F 
ENDBRANCH   2   7
BRANCH   2  11
HETATM   11  O8  UNL     1     -32.538  15.761  -4.647  1.00 20.00    -0.380 OA
HETATM   12  H22 UNL     1     -32.260  15.491  -5.531  1.00 20.00     0.211 HD
ENDBRANCH   2  11
TORSDOF 3
ENDMDL
MODEL 9
REMARK VINA RESULT:      -4.2      2.048      3.256
REMARK  3 active torsions:
REMARK  status: ('A' for Active; 'I' for Inactive)
REMARK    1  A    between atoms: C3_3  and  C6_6 
REMARK    2  A    between atoms: C6_6  and  C7_7 
REMARK    3  A    between atoms: C6_6  and  O8_8 
ROOT
HETATM    1  C5  UNL     1     -36.154  15.796  -5.154  1.00 20.00     0.056 C 
HETATM    2  C6  UNL     1     -35.626  15.263  -3.837  1.00 20.00     0.158 C 
ENDROOT
BRANCH   2   3
HETATM    3  C3  UNL     1     -34.792  16.291  -3.123  1.00 20.00    -0.004 A 
HETATM    4  C1  UNL     1     -34.682  16.194  -1.620  1.00 20.00     0.013 A 
HETATM    5  C2  UNL     1     -35.502  17.288  -2.238  1.00 20.00     0.013 A 
HETATM    6  C4  UNL     1     -33.587  16.761  -3.889  1.00 20.00     0.018 C 
ENDBRANCH   2   3
BRANCH   2   7
HETATM    7  C7  UNL     1     -34.848  13.962  -4.071  1.00 20.00     0.418 C 
HETATM    8  F9  UNL     1     -35.694  12.917  -4.211  1.00 20.00    -0.168 F 
HETATM    9  F10 UNL     1     -34.013  13.671  -3.049  1.00 20.00    -0.168 F 
HETATM   10  F11 UNL     1     -34.106  14.038  -5.199  1.00 20.00    -0.168 F 
ENDBRANCH   2   7
BRANCH   2  11
HETATM   11  O8  UNL     1     -36.767  14.935  -3.026  1.00 20.00    -0.380 OA
HETATM   12  H22 UNL     1     -36.537  14.120  -2.563  1.00 20.00     0.211 HD
ENDBRANCH   2  11
TORSDOF 3
ENDMDL
