MODEL 1
REMARK VINA RESULT:      -4.7      0.000      0.000
REMARK  1 active torsions:
REMARK  status: ('A' for Active; 'I' for Inactive)
REMARK    1  A    between atoms: C3_3  and  C8_8 
ROOT
HETATM    1  C1  UNL     1     -34.418  16.636  -0.939  1.00 20.00     0.017 A 
HETATM    2  C2  UNL     1     -34.566  16.008  -2.210  1.00 20.00     0.032 A 
HETATM    3  C3  UNL     1     -33.944  17.925  -1.050  1.00 20.00    -0.012 A 
HETATM    4  C4  UNL     1     -34.199  16.841  -3.244  1.00 20.00     0.075 A 
HETATM    5  S10 UNL     1     -33.679  18.374  -2.681  1.00 20.00    -0.082 SA
HETATM    6 CL11 UNL     1     -34.217  16.503  -4.924  1.00 20.00    -0.076 Cl
ENDROOT
BRANCH   3   7
HETATM    7  C8  UNL     1     -33.654  18.918   0.052  1.00 20.00     0.027 C 
HETATM    8  C5  UNL     1     -32.158  19.263   0.226  1.00 20.00     0.011 C 
HETATM    9  C6  UNL     1     -31.797  18.840   1.648  1.00 20.00     0.021 C 
HETATM   10  C9  UNL     1     -33.107  19.004   2.401  1.00 20.00     0.083 C 
HETATM   11  C7  UNL     1     -34.131  18.425   1.433  1.00 20.00     0.030 C 
HETATM   12 CL12 UNL     1     -33.099  18.161   3.956  1.00 20.00    -0.125 Cl
ENDBRANCH   3   7
TORSDOF 1
ENDMDL
MODEL 2
REMARK VINA RESULT:      -4.6      1.547      5.563
REMARK  1 active torsions:
REMARK  status: ('A' for Active; 'I' for Inactive)
REMARK    1  A    between atoms: C3_3  and  C8_8 
ROOT
HETATM    1  C1  UNL     1     -32.061  18.890   0.299  1.00 20.00     0.017 A 
HETATM    2  C2  UNL     1     -31.512  19.170   1.585  1.00 20.00     0.032 A 
HETATM    3  C3  UNL     1     -33.381  18.501   0.373  1.00 20.00    -0.012 A 
HETATM    4  C4  UNL     1     -32.434  18.985   2.592  1.00 20.00     0.075 A 
HETATM    5  S10 UNL     1     -33.953  18.476   1.987  1.00 20.00    -0.082 SA
HETATM    6 CL11 UNL     1     -32.208  19.204   4.276  1.00 20.00    -0.076 Cl
ENDROOT
BRANCH   3   7
HETATM    7  C8  UNL     1     -34.313  18.121  -0.754  1.00 20.00     0.027 C 
HETATM    8  C5  UNL     1     -34.751  16.640  -0.752  1.00 20.00     0.011 C 
HETATM    9  C6  UNL     1     -34.257  16.060  -2.075  1.00 20.00     0.021 C 
HETATM   10  C9  UNL     1     -34.275  17.259  -3.008  1.00 20.00     0.083 C 
HETATM   11  C7  UNL     1     -33.694  18.371  -2.144  1.00 20.00     0.030 C 
HETATM   12 CL12 UNL     1     -33.329  16.984  -4.477  1.00 20.00    -0.125 Cl
ENDBRANCH   3   7
TORSDOF 1
ENDMDL
MODEL 3
REMARK VINA RESULT:      -4.5      2.468      6.333
REMARK  1 active torsions:
REMARK  status: ('A' for Active; 'I' for Inactive)
REMARK    1  A    between atoms: C3_3  and  C8_8 
ROOT
HETATM    1  C1  UNL     1     -34.429  15.985  -2.070  1.00 20.00     0.017 A 
HETATM    2  C2  UNL     1     -34.725  16.700  -0.873  1.00 20.00     0.032 A 
HETATM    3  C3  UNL     1     -33.861  16.795  -3.030  1.00 20.00    -0.012 A 
HETATM    4  C4  UNL     1     -34.373  18.029  -0.964  1.00 20.00     0.075 A 
HETATM    5  S10 UNL     1     -33.688  18.410  -2.487  1.00 20.00    -0.082 SA
HETATM    6 CL11 UNL     1     -34.549  19.246   0.230  1.00 20.00    -0.076 Cl
ENDROOT
BRANCH   3   7
HETATM    7  C8  UNL     1     -33.406  16.425  -4.423  1.00 20.00     0.027 C 
HETATM    8  C5  UNL     1     -33.657  17.514  -5.489  1.00 20.00     0.011 C 
HETATM    9  C6  UNL     1     -34.584  16.877  -6.522  1.00 20.00     0.021 C 
HETATM   10  C9  UNL     1     -34.220  15.403  -6.451  1.00 20.00     0.083 C 
HETATM   11  C7  UNL     1     -34.098  15.154  -4.953  1.00 20.00     0.030 C 
HETATM   12 CL12 UNL     1     -35.442  14.371  -7.207  1.00 20.00    -0.125 Cl
ENDBRANCH   3   7
TORSDOF 1
ENDMDL
MODEL 4
REMARK VINA RESULT:      -4.5      2.913      4.083
REMARK  1 active torsions:
REMARK  status: ('A' for Active; 'I' for Inactive)
REMARK    1  A    between atoms: C3_3  and  C8_8 
ROOT
HETATM    1  C1  UNL     1     -34.314  14.032  -3.527  1.00 20.00     0.017 A 
HETATM    2  C2  UNL     1     -34.367  13.539  -4.863  1.00 20.00     0.032 A 
HETATM    3  C3  UNL     1     -34.925  15.261  -3.403  1.00 20.00    -0.012 A 
HETATM    4  C4  UNL     1     -35.016  14.410  -5.710  1.00 20.00     0.075 A 
HETATM    5  S10 UNL     1     -35.559  15.815  -4.895  1.00 20.00    -0.082 SA
HETATM    6 CL11 UNL     1     -35.307  14.223  -7.389  1.00 20.00    -0.076 Cl
ENDROOT
BRANCH   3   7
HETATM    7  C8  UNL     1     -35.083  16.113  -2.165  1.00 20.00     0.027 C 
HETATM    8  C5  UNL     1     -36.076  17.287  -2.317  1.00 20.00     0.011 C 
HETATM    9  C6  UNL     1     -35.259  18.554  -2.074  1.00 20.00     0.021 C 
HETATM   10  C9  UNL     1     -34.171  18.088  -1.121  1.00 20.00     0.083 C 
HETATM   11  C7  UNL     1     -33.754  16.747  -1.711  1.00 20.00     0.030 C 
HETATM   12 CL12 UNL     1     -32.824  19.231  -1.027  1.00 20.00    -0.125 Cl
ENDBRANCH   3   7
TORSDOF 1
ENDMDL
MODEL 5
REMARK VINA RESULT:      -4.5     15.267     17.677
REMARK  1 active torsions:
REMARK  status: ('A' for Active; 'I' for Inactive)
REMARK    1  A    between atoms: C3_3  and  C8_8 
ROOT
HETATM    1  C1  UNL     1     -40.965   3.884  -1.556  1.00 20.00     0.017 A 
HETATM    2  C2  UNL     1     -40.790   5.148  -0.921  1.00 20.00     0.032 A 
HETATM    3  C3  UNL     1     -41.928   3.929  -2.541  1.00 20.00    -0.012 A 
HETATM    4  C4  UNL     1     -41.625   6.110  -1.443  1.00 20.00     0.075 A 
HETATM    5  S10 UNL     1     -42.615   5.490  -2.696  1.00 20.00    -0.082 SA
HETATM    6 CL11 UNL     1     -41.751   7.756  -0.983  1.00 20.00    -0.076 Cl
ENDROOT
BRANCH   3   7
HETATM    7  C8  UNL     1     -42.406   2.812  -3.440  1.00 20.00     0.027 C 
HETATM    8  C5  UNL     1     -43.417   1.848  -2.781  1.00 20.00     0.011 C 
HETATM    9  C6  UNL     1     -42.759   0.471  -2.812  1.00 20.00     0.021 C 
HETATM   10  C9  UNL     1     -41.875   0.538  -4.047  1.00 20.00     0.083 C 
HETATM   11  C7  UNL     1     -41.252   1.924  -3.944  1.00 20.00     0.030 C 
HETATM   12 CL12 UNL     1     -40.659  -0.747  -4.074  1.00 20.00    -0.125 Cl
ENDBRANCH   3   7
TORSDOF 1
ENDMDL
MODEL 6
REMARK VINA RESULT:      -4.5      1.796      5.707
REMARK  1 active torsions:
REMARK  status: ('A' for Active; 'I' for Inactive)
REMARK    1  A    between atoms: C3_3  and  C8_8 
ROOT
HETATM    1  C1  UNL     1     -34.928  16.697  -0.761  1.00 20.00     0.017 A 
HETATM    2  C2  UNL     1     -34.877  17.303   0.528  1.00 20.00     0.032 A 
HETATM    3  C3  UNL     1     -33.999  17.236  -1.623  1.00 20.00    -0.012 A 
HETATM    4  C4  UNL     1     -33.911  18.282   0.602  1.00 20.00     0.075 A 
HETATM    5  S10 UNL     1     -33.069  18.467  -0.879  1.00 20.00    -0.082 SA
HETATM    6 CL11 UNL     1     -33.505  19.260   1.949  1.00 20.00    -0.076 Cl
ENDROOT
BRANCH   3   7
HETATM    7  C8  UNL     1     -33.734  16.873  -3.066  1.00 20.00     0.027 C 
HETATM    8  C5  UNL     1     -34.898  17.189  -4.031  1.00 20.00     0.011 C 
HETATM    9  C6  UNL     1     -35.310  15.849  -4.637  1.00 20.00     0.021 C 
HETATM   10  C9  UNL     1     -34.018  15.050  -4.623  1.00 20.00     0.083 C 
HETATM   11  C7  UNL     1     -33.434  15.372  -3.253  1.00 20.00     0.030 C 
HETATM   12 CL12 UNL     1     -34.295  13.318  -4.846  1.00 20.00    -0.125 Cl
ENDBRANCH   3   7
TORSDOF 1
ENDMDL
MODEL 7
REMARK VINA RESULT:      -4.4      2.969      6.675
REMARK  1 active torsions:
REMARK  status: ('A' for Active; 'I' for Inactive)
REMARK    1  A    between atoms: C3_3  and  C8_8 
ROOT
HETATM    1  C1  UNL     1     -34.507  15.933  -1.966  1.00 20.00     0.017 A 
HETATM    2  C2  UNL     1     -34.396  16.949  -0.972  1.00 20.00     0.032 A 
HETATM    3  C3  UNL     1     -35.596  16.128  -2.787  1.00 20.00    -0.012 A 
HETATM    4  C4  UNL     1     -35.405  17.881  -1.071  1.00 20.00     0.075 A 
HETATM    5  S10 UNL     1     -36.480  17.531  -2.358  1.00 20.00    -0.082 SA
HETATM    6 CL11 UNL     1     -35.661  19.262  -0.088  1.00 20.00    -0.076 Cl
ENDROOT
BRANCH   3   7
HETATM    7  C8  UNL     1     -36.058  15.284  -3.952  1.00 20.00     0.027 C 
HETATM    8  C5  UNL     1     -35.557  13.823  -3.924  1.00 20.00     0.011 C 
HETATM    9  C6  UNL     1     -34.731  13.644  -5.196  1.00 20.00     0.021 C 
HETATM   10  C9  UNL     1     -35.377  14.616  -6.169  1.00 20.00     0.083 C 
HETATM   11  C7  UNL     1     -35.606  15.854  -5.311  1.00 20.00     0.030 C 
HETATM   12 CL12 UNL     1     -34.350  14.948  -7.570  1.00 20.00    -0.125 Cl
ENDBRANCH   3   7
TORSDOF 1
ENDMDL
MODEL 8
REMARK VINA RESULT:      -4.4      2.144      2.770
REMARK  1 active torsions:
REMARK  status: ('A' for Active; 'I' for Inactive)
REMARK    1  A    between atoms: C3_3  and  C8_8 
ROOT
HETATM    1  C1  UNL     1     -33.284  15.959  -2.901  1.00 20.00     0.017 A 
HETATM    2  C2  UNL     1     -33.236  14.834  -3.774  1.00 20.00     0.032 A 
HETATM    3  C3  UNL     1     -34.574  16.285  -2.546  1.00 20.00    -0.012 A 
HETATM    4  C4  UNL     1     -34.492  14.343  -4.054  1.00 20.00     0.075 A 
HETATM    5  S10 UNL     1     -35.722  15.236  -3.265  1.00 20.00    -0.082 SA
HETATM    6 CL11 UNL     1     -34.902  13.011  -5.052  1.00 20.00    -0.076 Cl
ENDROOT
BRANCH   3   7
HETATM    7  C8  UNL     1     -35.048  17.401  -1.644  1.00 20.00     0.027 C 
HETATM    8  C5  UNL     1     -34.439  18.785  -1.962  1.00 20.00     0.011 C 
HETATM    9  C6  UNL     1     -33.687  19.207  -0.702  1.00 20.00     0.021 C 
HETATM   10  C9  UNL     1     -34.467  18.525   0.411  1.00 20.00     0.083 C 
HETATM   11  C7  UNL     1     -34.730  17.137  -0.159  1.00 20.00     0.030 C 
HETATM   12 CL12 UNL     1     -33.561  18.469   1.930  1.00 20.00    -0.125 Cl
ENDBRANCH   3   7
TORSDOF 1
ENDMDL
MODEL 9
REMARK VINA RESULT:      -4.3      2.061      5.799
REMARK  1 active torsions:
REMARK  status: ('A' for Active; 'I' for Inactive)
REMARK    1  A    between atoms: C3_3  and  C8_8 
ROOT
HETATM    1  C1  UNL     1     -33.295  18.668  -1.485  1.00 20.00     0.017 A 
HETATM    2  C2  UNL     1     -33.661  18.832  -0.118  1.00 20.00     0.032 A 
HETATM    3  C3  UNL     1     -33.833  17.524  -2.032  1.00 20.00    -0.012 A 
HETATM    4  C4  UNL     1     -34.465  17.806   0.329  1.00 20.00     0.075 A 
HETATM    5  S10 UNL     1     -34.776  16.652  -0.899  1.00 20.00    -0.082 SA
HETATM    6 CL11 UNL     1     -35.134  17.599   1.893  1.00 20.00    -0.076 Cl
ENDROOT
BRANCH   3   7
HETATM    7  C8  UNL     1     -33.686  16.995  -3.441  1.00 20.00     0.027 C 
HETATM    8  C5  UNL     1     -34.940  17.171  -4.326  1.00 20.00     0.011 C 
HETATM    9  C6  UNL     1     -35.363  15.761  -4.730  1.00 20.00     0.021 C 
HETATM   10  C9  UNL     1     -34.051  14.994  -4.739  1.00 20.00     0.083 C 
HETATM   11  C7  UNL     1     -33.359  15.489  -3.476  1.00 20.00     0.030 C 
HETATM   12 CL12 UNL     1     -34.296  13.242  -4.731  1.00 20.00    -0.125 Cl
ENDBRANCH   3   7
TORSDOF 1
ENDMDL
