MODEL 1
REMARK VINA RESULT:      -4.4      0.000      0.000
REMARK  4 active torsions:
REMARK  status: ('A' for Active; 'I' for Inactive)
REMARK    1  A    between atoms: C3_3  and  C10_10 
REMARK    2  A    between atoms: C8_8  and  C9_9 
REMARK    3  A    between atoms: C9_9  and  C10_10 
REMARK    4  A    between atoms: C10_10  and  O11_11 
ROOT
HETATM    1  C7  UNL     1     -35.758  16.976  -4.522  1.00 20.00     0.047 C 
HETATM    2  C10 UNL     1     -35.177  15.903  -3.624  1.00 20.00     0.065 C 
ENDROOT
BRANCH   2   3
HETATM    3  C3  UNL     1     -34.588  14.774  -4.478  1.00 20.00    -0.013 A 
HETATM    4  C1  UNL     1     -34.995  13.355  -4.156  1.00 20.00     0.013 A 
HETATM    5  C2  UNL     1     -33.609  13.828  -3.824  1.00 20.00     0.013 A 
HETATM    6  C4  UNL     1     -34.365  15.133  -5.921  1.00 20.00     0.018 C 
ENDBRANCH   2   3
BRANCH   2   7
HETATM    7  C9  UNL     1     -34.159  16.498  -2.593  1.00 20.00     0.016 C 
HETATM    8  C6  UNL     1     -33.787  17.954  -2.928  1.00 20.00     0.013 C 
BRANCH   7   9
HETATM    9  C8  UNL     1     -34.636  16.379  -1.127  1.00 20.00     0.002 C 
HETATM   10  C5  UNL     1     -34.265  17.577  -0.262  1.00 20.00     0.005 C 
ENDBRANCH   7   9
ENDBRANCH   2   7
BRANCH   2  11
HETATM   11  O11 UNL     1     -36.274  15.326  -2.899  1.00 20.00    -0.389 OA
HETATM   12  H31 UNL     1     -36.634  16.037  -2.351  1.00 20.00     0.210 HD
ENDBRANCH   2  11
TORSDOF 4
ENDMDL
MODEL 2
REMARK VINA RESULT:      -4.4      1.776      3.919
REMARK  4 active torsions:
REMARK  status: ('A' for Active; 'I' for Inactive)
REMARK    1  A    between atoms: C3_3  and  C10_10 
REMARK    2  A    between atoms: C8_8  and  C9_9 
REMARK    3  A    between atoms: C9_9  and  C10_10 
REMARK    4  A    between atoms: C10_10  and  O11_11 
ROOT
HETATM    1  C7  UNL     1     -33.752  17.681  -3.887  1.00 20.00     0.047 C 
HETATM    2  C10 UNL     1     -33.909  16.312  -4.518  1.00 20.00     0.065 C 
ENDROOT
BRANCH   2   3
HETATM    3  C3  UNL     1     -34.311  15.291  -3.447  1.00 20.00    -0.013 A 
HETATM    4  C1  UNL     1     -33.737  13.897  -3.546  1.00 20.00     0.013 A 
HETATM    5  C2  UNL     1     -35.185  14.132  -3.866  1.00 20.00     0.013 A 
HETATM    6  C4  UNL     1     -34.519  15.872  -2.075  1.00 20.00     0.018 C 
ENDBRANCH   2   3
BRANCH   2   7
HETATM    7  C9  UNL     1     -34.885  16.345  -5.742  1.00 20.00     0.016 C 
HETATM    8  C6  UNL     1     -35.414  17.765  -6.016  1.00 20.00     0.013 C 
BRANCH   7   9
HETATM    9  C8  UNL     1     -34.276  15.731  -7.023  1.00 20.00     0.002 C 
HETATM   10  C5  UNL     1     -35.117  14.614  -7.628  1.00 20.00     0.005 C 
ENDBRANCH   7   9
ENDBRANCH   2   7
BRANCH   2  11
HETATM   11  O11 UNL     1     -32.610  15.915  -4.982  1.00 20.00    -0.389 OA
HETATM   12  H31 UNL     1     -32.684  14.978  -5.210  1.00 20.00     0.210 HD
ENDBRANCH   2  11
TORSDOF 4
ENDMDL
MODEL 3
REMARK VINA RESULT:      -4.4      1.629      2.743
REMARK  4 active torsions:
REMARK  status: ('A' for Active; 'I' for Inactive)
REMARK    1  A    between atoms: C3_3  and  C10_10 
REMARK    2  A    between atoms: C8_8  and  C9_9 
REMARK    3  A    between atoms: C9_9  and  C10_10 
REMARK    4  A    between atoms: C10_10  and  O11_11 
ROOT
HETATM    1  C7  UNL     1     -33.398  13.948  -3.719  1.00 20.00     0.047 C 
HETATM    2  C10 UNL     1     -33.796  15.258  -4.368  1.00 20.00     0.065 C 
ENDROOT
BRANCH   2   3
HETATM    3  C3  UNL     1     -34.542  14.981  -5.678  1.00 20.00    -0.013 A 
HETATM    4  C1  UNL     1     -34.071  15.692  -6.925  1.00 20.00     0.013 A 
HETATM    5  C2  UNL     1     -35.362  16.101  -6.276  1.00 20.00     0.013 A 
HETATM    6  C4  UNL     1     -35.058  13.576  -5.820  1.00 20.00     0.018 C 
ENDBRANCH   2   3
BRANCH   2   7
HETATM    7  C9  UNL     1     -34.593  16.176  -3.381  1.00 20.00     0.016 C 
HETATM    8  C6  UNL     1     -35.916  15.527  -2.934  1.00 20.00     0.013 C 
BRANCH   7   9
HETATM    9  C8  UNL     1     -33.761  16.621  -2.156  1.00 20.00     0.002 C 
HETATM   10  C5  UNL     1     -34.555  16.658  -0.856  1.00 20.00     0.005 C 
ENDBRANCH   7   9
ENDBRANCH   2   7
BRANCH   2  11
HETATM   11  O11 UNL     1     -32.580  15.929  -4.733  1.00 20.00    -0.389 OA
HETATM   12  H31 UNL     1     -31.864  15.317  -4.518  1.00 20.00     0.210 HD
ENDBRANCH   2  11
TORSDOF 4
ENDMDL
MODEL 4
REMARK VINA RESULT:      -4.3      1.746      3.002
REMARK  4 active torsions:
REMARK  status: ('A' for Active; 'I' for Inactive)
REMARK    1  A    between atoms: C3_3  and  C10_10 
REMARK    2  A    between atoms: C8_8  and  C9_9 
REMARK    3  A    between atoms: C9_9  and  C10_10 
REMARK    4  A    between atoms: C10_10  and  O11_11 
ROOT
HETATM    1  C7  UNL     1     -32.828  14.431  -3.488  1.00 20.00     0.047 C 
HETATM    2  C10 UNL     1     -33.603  15.410  -4.345  1.00 20.00     0.065 C 
ENDROOT
BRANCH   2   3
HETATM    3  C3  UNL     1     -34.503  14.645  -5.322  1.00 20.00    -0.013 A 
HETATM    4  C1  UNL     1     -34.411  14.991  -6.790  1.00 20.00     0.013 A 
HETATM    5  C2  UNL     1     -35.620  15.405  -6.000  1.00 20.00     0.013 A 
HETATM    6  C4  UNL     1     -34.751  13.209  -4.950  1.00 20.00     0.018 C 
ENDBRANCH   2   3
BRANCH   2   7
HETATM    7  C9  UNL     1     -34.379  16.456  -3.474  1.00 20.00     0.016 C 
HETATM    8  C6  UNL     1     -34.379  16.074  -1.983  1.00 20.00     0.013 C 
BRANCH   7   9
HETATM    9  C8  UNL     1     -33.875  17.904  -3.668  1.00 20.00     0.002 C 
HETATM   10  C5  UNL     1     -34.848  18.795  -4.431  1.00 20.00     0.005 C 
ENDBRANCH   7   9
ENDBRANCH   2   7
BRANCH   2  11
HETATM   11  O11 UNL     1     -32.643  16.112  -5.150  1.00 20.00    -0.389 OA
HETATM   12  H31 UNL     1     -33.030  16.169  -6.034  1.00 20.00     0.210 HD
ENDBRANCH   2  11
TORSDOF 4
ENDMDL
MODEL 5
REMARK VINA RESULT:      -4.3      1.874      3.387
REMARK  4 active torsions:
REMARK  status: ('A' for Active; 'I' for Inactive)
REMARK    1  A    between atoms: C3_3  and  C10_10 
REMARK    2  A    between atoms: C8_8  and  C9_9 
REMARK    3  A    between atoms: C9_9  and  C10_10 
REMARK    4  A    between atoms: C10_10  and  O11_11 
ROOT
HETATM    1  C7  UNL     1     -34.374  15.018  -6.217  1.00 20.00     0.047 C 
HETATM    2  C10 UNL     1     -34.010  15.925  -5.059  1.00 20.00     0.065 C 
ENDROOT
BRANCH   2   3
HETATM    3  C3  UNL     1     -34.534  17.341  -5.325  1.00 20.00    -0.013 A 
HETATM    4  C1  UNL     1     -33.965  18.097  -6.504  1.00 20.00     0.013 A 
HETATM    5  C2  UNL     1     -33.587  18.499  -5.107  1.00 20.00     0.013 A 
HETATM    6  C4  UNL     1     -35.985  17.545  -4.990  1.00 20.00     0.018 C 
ENDBRANCH   2   3
BRANCH   2   7
HETATM    7  C9  UNL     1     -34.485  15.334  -3.688  1.00 20.00     0.016 C 
HETATM    8  C6  UNL     1     -34.369  13.799  -3.653  1.00 20.00     0.013 C 
BRANCH   7   9
HETATM    9  C8  UNL     1     -33.767  15.964  -2.472  1.00 20.00     0.002 C 
HETATM   10  C5  UNL     1     -34.715  16.430  -1.374  1.00 20.00     0.005 C 
ENDBRANCH   7   9
ENDBRANCH   2   7
BRANCH   2  11
HETATM   11  O11 UNL     1     -32.578  16.024  -5.040  1.00 20.00    -0.389 OA
HETATM   12  H31 UNL     1     -32.378  16.932  -4.775  1.00 20.00     0.210 HD
ENDBRANCH   2  11
TORSDOF 4
ENDMDL
MODEL 6
REMARK VINA RESULT:      -4.2      1.903      3.516
REMARK  4 active torsions:
REMARK  status: ('A' for Active; 'I' for Inactive)
REMARK    1  A    between atoms: C3_3  and  C10_10 
REMARK    2  A    between atoms: C8_8  and  C9_9 
REMARK    3  A    between atoms: C9_9  and  C10_10 
REMARK    4  A    between atoms: C10_10  and  O11_11 
ROOT
HETATM    1  C7  UNL     1     -33.724  16.239  -2.768  1.00 20.00     0.047 C 
HETATM    2  C10 UNL     1     -33.837  15.821  -4.220  1.00 20.00     0.065 C 
ENDROOT
BRANCH   2   3
HETATM    3  C3  UNL     1     -34.204  14.335  -4.305  1.00 20.00    -0.013 A 
HETATM    4  C1  UNL     1     -34.928  13.854  -5.541  1.00 20.00     0.013 A 
HETATM    5  C2  UNL     1     -35.667  13.962  -4.238  1.00 20.00     0.013 A 
HETATM    6  C4  UNL     1     -33.210  13.407  -3.665  1.00 20.00     0.018 C 
ENDBRANCH   2   3
BRANCH   2   7
HETATM    7  C9  UNL     1     -34.814  16.750  -5.017  1.00 20.00     0.016 C 
HETATM    8  C6  UNL     1     -35.543  17.743  -4.094  1.00 20.00     0.013 C 
BRANCH   7   9
HETATM    9  C8  UNL     1     -34.131  17.492  -6.189  1.00 20.00     0.002 C 
HETATM   10  C5  UNL     1     -34.613  17.044  -7.563  1.00 20.00     0.005 C 
ENDBRANCH   7   9
ENDBRANCH   2   7
BRANCH   2  11
HETATM   11  O11 UNL     1     -32.525  15.943  -4.793  1.00 20.00    -0.389 OA
HETATM   12  H31 UNL     1     -32.661  16.191  -5.718  1.00 20.00     0.210 HD
ENDBRANCH   2  11
TORSDOF 4
ENDMDL
MODEL 7
REMARK VINA RESULT:      -4.2      1.704      3.917
REMARK  4 active torsions:
REMARK  status: ('A' for Active; 'I' for Inactive)
REMARK    1  A    between atoms: C3_3  and  C10_10 
REMARK    2  A    between atoms: C8_8  and  C9_9 
REMARK    3  A    between atoms: C9_9  and  C10_10 
REMARK    4  A    between atoms: C10_10  and  O11_11 
ROOT
HETATM    1  C7  UNL     1     -33.665  17.593  -5.820  1.00 20.00     0.047 C 
HETATM    2  C10 UNL     1     -33.851  16.382  -4.929  1.00 20.00     0.065 C 
ENDROOT
BRANCH   2   3
HETATM    3  C3  UNL     1     -34.517  16.803  -3.614  1.00 20.00    -0.013 A 
HETATM    4  C1  UNL     1     -33.750  17.726  -2.695  1.00 20.00     0.013 A 
HETATM    5  C2  UNL     1     -33.929  16.282  -2.323  1.00 20.00     0.013 A 
HETATM    6  C4  UNL     1     -36.010  16.968  -3.693  1.00 20.00     0.018 C 
ENDBRANCH   2   3
BRANCH   2   7
HETATM    7  C9  UNL     1     -34.611  15.229  -5.668  1.00 20.00     0.016 C 
HETATM    8  C6  UNL     1     -34.371  15.266  -7.189  1.00 20.00     0.013 C 
BRANCH   7   9
HETATM    9  C8  UNL     1     -34.293  13.827  -5.099  1.00 20.00     0.002 C 
HETATM   10  C5  UNL     1     -35.377  13.279  -4.179  1.00 20.00     0.005 C 
ENDBRANCH   7   9
ENDBRANCH   2   7
BRANCH   2  11
HETATM   11  O11 UNL     1     -32.539  15.913  -4.582  1.00 20.00    -0.389 OA
HETATM   12  H31 UNL     1     -32.440  15.055  -5.017  1.00 20.00     0.210 HD
ENDBRANCH   2  11
TORSDOF 4
ENDMDL
MODEL 8
REMARK VINA RESULT:      -4.1     11.347     12.751
REMARK  4 active torsions:
REMARK  status: ('A' for Active; 'I' for Inactive)
REMARK    1  A    between atoms: C3_3  and  C10_10 
REMARK    2  A    between atoms: C8_8  and  C9_9 
REMARK    3  A    between atoms: C9_9  and  C10_10 
REMARK    4  A    between atoms: C10_10  and  O11_11 
ROOT
HETATM    1  C7  UNL     1     -34.923   5.304   3.383  1.00 20.00     0.047 C 
HETATM    2  C10 UNL     1     -34.016   6.200   4.202  1.00 20.00     0.065 C 
ENDROOT
BRANCH   2   3
HETATM    3  C3  UNL     1     -34.136   5.839   5.688  1.00 20.00    -0.013 A 
HETATM    4  C1  UNL     1     -33.828   4.418   6.100  1.00 20.00     0.013 A 
HETATM    5  C2  UNL     1     -35.249   4.905   6.103  1.00 20.00     0.013 A 
HETATM    6  C4  UNL     1     -33.755   6.945   6.633  1.00 20.00     0.018 C 
ENDBRANCH   2   3
BRANCH   2   7
HETATM    7  C9  UNL     1     -32.542   6.173   3.673  1.00 20.00     0.016 C 
HETATM    8  C6  UNL     1     -32.410   5.341   2.384  1.00 20.00     0.013 C 
BRANCH   7   9
HETATM    9  C8  UNL     1     -31.939   7.583   3.479  1.00 20.00     0.002 C 
HETATM   10  C5  UNL     1     -31.993   8.079   2.039  1.00 20.00     0.005 C 
ENDBRANCH   7   9
ENDBRANCH   2   7
BRANCH   2  11
HETATM   11  O11 UNL     1     -34.522   7.537   4.073  1.00 20.00    -0.389 OA
HETATM   12  H31 UNL     1     -35.113   7.525   3.308  1.00 20.00     0.210 HD
ENDBRANCH   2  11
TORSDOF 4
ENDMDL
MODEL 9
REMARK VINA RESULT:      -4.1      2.034      3.688
REMARK  4 active torsions:
REMARK  status: ('A' for Active; 'I' for Inactive)
REMARK    1  A    between atoms: C3_3  and  C10_10 
REMARK    2  A    between atoms: C8_8  and  C9_9 
REMARK    3  A    between atoms: C9_9  and  C10_10 
REMARK    4  A    between atoms: C10_10  and  O11_11 
ROOT
HETATM    1  C7  UNL     1     -34.911  14.110  -6.074  1.00 20.00     0.047 C 
HETATM    2  C10 UNL     1     -35.360  14.300  -4.640  1.00 20.00     0.065 C 
ENDROOT
BRANCH   2   3
HETATM    3  C3  UNL     1     -34.166  14.718  -3.774  1.00 20.00    -0.013 A 
HETATM    4  C1  UNL     1     -34.426  15.639  -2.604  1.00 20.00     0.013 A 
HETATM    5  C2  UNL     1     -33.724  16.162  -3.825  1.00 20.00     0.013 A 
HETATM    6  C4  UNL     1     -33.107  13.662  -3.617  1.00 20.00     0.018 C 
ENDBRANCH   2   3
BRANCH   2   7
HETATM    7  C9  UNL     1     -36.576  15.283  -4.538  1.00 20.00     0.016 C 
HETATM    8  C6  UNL     1     -37.026  15.784  -5.922  1.00 20.00     0.013 C 
BRANCH   7   9
HETATM    9  C8  UNL     1     -37.771  14.694  -3.753  1.00 20.00     0.002 C 
HETATM   10  C5  UNL     1     -39.086  14.732  -4.521  1.00 20.00     0.005 C 
ENDBRANCH   7   9
ENDBRANCH   2   7
BRANCH   2  11
HETATM   11  O11 UNL     1     -35.774  13.013  -4.157  1.00 20.00    -0.389 OA
HETATM   12  H31 UNL     1     -35.897  12.462  -4.942  1.00 20.00     0.210 HD
ENDBRANCH   2  11
TORSDOF 4
ENDMDL
