MODEL 1
REMARK VINA RESULT:      -5.0      0.000      0.000
REMARK  1 active torsions:
REMARK  status: ('A' for Active; 'I' for Inactive)
REMARK    1  A    between atoms: C3_3  and  C8_8 
ROOT
HETATM    1  C1  UNL     1     -35.095  13.606  -4.144  1.00 20.00     0.089 C 
HETATM    2  C2  UNL     1     -35.435  14.742  -3.361  1.00 20.00     0.113 C 
HETATM    3  C3  UNL     1     -34.543  15.660  -2.960  1.00 20.00     0.030 C 
HETATM    4  N10 UNL     1     -34.825  12.676  -4.784  1.00 20.00    -0.192 NA
HETATM    5 CL11 UNL     1     -32.876  15.465  -3.415  1.00 20.00    -0.087 Cl
ENDROOT
BRANCH   3   6
HETATM    6  C8  UNL     1     -34.814  16.906  -2.120  1.00 20.00    -0.005 C 
HETATM    7  C6  UNL     1     -34.718  16.609  -0.615  1.00 20.00     0.015 C 
HETATM    8  C4  UNL     1     -34.177  17.897  -0.010  1.00 20.00     0.001 C 
HETATM    9  C5  UNL     1     -33.152  18.348  -1.035  1.00 20.00     0.001 C 
HETATM   10  C7  UNL     1     -33.789  18.028  -2.386  1.00 20.00     0.015 C 
HETATM   11  C9  UNL     1     -36.194  17.413  -2.453  1.00 20.00     0.021 C 
ENDBRANCH   3   6
TORSDOF 1
ENDMDL
MODEL 2
REMARK VINA RESULT:      -4.6      2.704      4.591
REMARK  1 active torsions:
REMARK  status: ('A' for Active; 'I' for Inactive)
REMARK    1  A    between atoms: C3_3  and  C8_8 
ROOT
HETATM    1  C1  UNL     1     -34.417  17.202  -0.477  1.00 20.00     0.089 C 
HETATM    2  C2  UNL     1     -34.420  16.263  -1.543  1.00 20.00     0.113 C 
HETATM    3  C3  UNL     1     -34.105  16.577  -2.809  1.00 20.00     0.030 C 
HETATM    4  N10 UNL     1     -34.418  17.963   0.400  1.00 20.00    -0.192 NA
HETATM    5 CL11 UNL     1     -33.668  18.219  -3.182  1.00 20.00    -0.087 Cl
ENDROOT
BRANCH   3   6
HETATM    6  C8  UNL     1     -34.081  15.641  -4.014  1.00 20.00    -0.005 C 
HETATM    7  C6  UNL     1     -33.324  14.339  -3.708  1.00 20.00     0.015 C 
HETATM    8  C4  UNL     1     -34.044  13.281  -4.532  1.00 20.00     0.001 C 
HETATM    9  C5  UNL     1     -35.503  13.679  -4.393  1.00 20.00     0.001 C 
HETATM   10  C7  UNL     1     -35.494  15.205  -4.449  1.00 20.00     0.015 C 
HETATM   11  C9  UNL     1     -33.414  16.360  -5.160  1.00 20.00     0.021 C 
ENDBRANCH   3   6
TORSDOF 1
ENDMDL
MODEL 3
REMARK VINA RESULT:      -4.5      2.770      4.750
REMARK  1 active torsions:
REMARK  status: ('A' for Active; 'I' for Inactive)
REMARK    1  A    between atoms: C3_3  and  C8_8 
ROOT
HETATM    1  C1  UNL     1     -34.958  17.128  -0.519  1.00 20.00     0.089 C 
HETATM    2  C2  UNL     1     -34.303  16.339  -1.503  1.00 20.00     0.113 C 
HETATM    3  C3  UNL     1     -34.865  15.994  -2.671  1.00 20.00     0.030 C 
HETATM    4  N10 UNL     1     -35.486  17.772   0.290  1.00 20.00    -0.192 NA
HETATM    5 CL11 UNL     1     -36.483  16.533  -3.016  1.00 20.00    -0.087 Cl
ENDROOT
BRANCH   3   6
HETATM    6  C8  UNL     1     -34.243  15.154  -3.783  1.00 20.00    -0.005 C 
HETATM    7  C6  UNL     1     -34.693  13.685  -3.706  1.00 20.00     0.015 C 
HETATM    8  C4  UNL     1     -34.744  13.230  -5.157  1.00 20.00     0.001 C 
HETATM    9  C5  UNL     1     -35.313  14.442  -5.873  1.00 20.00     0.001 C 
HETATM   10  C7  UNL     1     -34.656  15.638  -5.187  1.00 20.00     0.015 C 
HETATM   11  C9  UNL     1     -32.743  15.234  -3.657  1.00 20.00     0.021 C 
ENDBRANCH   3   6
TORSDOF 1
ENDMDL
MODEL 4
REMARK VINA RESULT:      -4.5      2.903      4.736
REMARK  1 active torsions:
REMARK  status: ('A' for Active; 'I' for Inactive)
REMARK    1  A    between atoms: C3_3  and  C8_8 
ROOT
HETATM    1  C1  UNL     1     -34.670  16.787  -0.852  1.00 20.00     0.089 C 
HETATM    2  C2  UNL     1     -34.110  16.112  -1.970  1.00 20.00     0.113 C 
HETATM    3  C3  UNL     1     -34.823  15.730  -3.040  1.00 20.00     0.030 C 
HETATM    4  N10 UNL     1     -35.120  17.339   0.064  1.00 20.00    -0.192 NA
HETATM    5 CL11 UNL     1     -36.528  16.073  -3.077  1.00 20.00    -0.087 Cl
ENDROOT
BRANCH   3   6
HETATM    6  C8  UNL     1     -34.311  15.004  -4.281  1.00 20.00    -0.005 C 
HETATM    7  C6  UNL     1     -35.466  14.513  -5.169  1.00 20.00     0.015 C 
HETATM    8  C4  UNL     1     -34.920  14.612  -6.586  1.00 20.00     0.001 C 
HETATM    9  C5  UNL     1     -34.129  15.907  -6.554  1.00 20.00     0.001 C 
HETATM   10  C7  UNL     1     -33.454  15.914  -5.184  1.00 20.00     0.015 C 
HETATM   11  C9  UNL     1     -33.477  13.829  -3.834  1.00 20.00     0.021 C 
ENDBRANCH   3   6
TORSDOF 1
ENDMDL
MODEL 5
REMARK VINA RESULT:      -4.4      2.518      4.655
REMARK  1 active torsions:
REMARK  status: ('A' for Active; 'I' for Inactive)
REMARK    1  A    between atoms: C3_3  and  C8_8 
ROOT
HETATM    1  C1  UNL     1     -34.042  17.256  -0.808  1.00 20.00     0.089 C 
HETATM    2  C2  UNL     1     -34.734  16.273  -1.567  1.00 20.00     0.113 C 
HETATM    3  C3  UNL     1     -34.627  16.153  -2.898  1.00 20.00     0.030 C 
HETATM    4  N10 UNL     1     -33.481  18.055  -0.181  1.00 20.00    -0.192 NA
HETATM    5 CL11 UNL     1     -33.588  17.252  -3.759  1.00 20.00    -0.087 Cl
ENDROOT
BRANCH   3   6
HETATM    6  C8  UNL     1     -35.327  15.135  -3.794  1.00 20.00    -0.005 C 
HETATM    7  C6  UNL     1     -35.137  15.464  -5.284  1.00 20.00     0.015 C 
HETATM    8  C4  UNL     1     -35.094  14.104  -5.967  1.00 20.00     0.001 C 
HETATM    9  C5  UNL     1     -34.294  13.260  -4.992  1.00 20.00     0.001 C 
HETATM   10  C7  UNL     1     -34.770  13.709  -3.612  1.00 20.00     0.015 C 
HETATM   11  C9  UNL     1     -36.797  15.136  -3.456  1.00 20.00     0.021 C 
ENDBRANCH   3   6
TORSDOF 1
ENDMDL
MODEL 6
REMARK VINA RESULT:      -4.4      2.899      4.634
REMARK  1 active torsions:
REMARK  status: ('A' for Active; 'I' for Inactive)
REMARK    1  A    between atoms: C3_3  and  C8_8 
ROOT
HETATM    1  C1  UNL     1     -34.838  17.215  -0.009  1.00 20.00     0.089 C 
HETATM    2  C2  UNL     1     -34.451  16.491  -1.169  1.00 20.00     0.113 C 
HETATM    3  C3  UNL     1     -35.157  16.485  -2.309  1.00 20.00     0.030 C 
HETATM    4  N10 UNL     1     -35.147  17.803   0.943  1.00 20.00    -0.192 NA
HETATM    5 CL11 UNL     1     -36.630  17.408  -2.389  1.00 20.00    -0.087 Cl
ENDROOT
BRANCH   3   6
HETATM    6  C8  UNL     1     -34.823  15.742  -3.600  1.00 20.00    -0.005 C 
HETATM    7  C6  UNL     1     -33.588  14.841  -3.434  1.00 20.00     0.015 C 
HETATM    8  C4  UNL     1     -33.863  13.653  -4.344  1.00 20.00     0.001 C 
HETATM    9  C5  UNL     1     -35.347  13.407  -4.141  1.00 20.00     0.001 C 
HETATM   10  C7  UNL     1     -35.960  14.803  -4.050  1.00 20.00     0.015 C 
HETATM   11  C9  UNL     1     -34.569  16.760  -4.683  1.00 20.00     0.021 C 
ENDBRANCH   3   6
TORSDOF 1
ENDMDL
MODEL 7
REMARK VINA RESULT:      -4.4      2.051      2.743
REMARK  1 active torsions:
REMARK  status: ('A' for Active; 'I' for Inactive)
REMARK    1  A    between atoms: C3_3  and  C8_8 
ROOT
HETATM    1  C1  UNL     1     -38.006  14.876  -3.775  1.00 20.00     0.089 C 
HETATM    2  C2  UNL     1     -36.912  15.690  -3.376  1.00 20.00     0.113 C 
HETATM    3  C3  UNL     1     -35.633  15.286  -3.419  1.00 20.00     0.030 C 
HETATM    4  N10 UNL     1     -38.906  14.218  -4.099  1.00 20.00    -0.192 NA
HETATM    5 CL11 UNL     1     -35.279  13.682  -3.993  1.00 20.00    -0.087 Cl
ENDROOT
BRANCH   3   6
HETATM    6  C8  UNL     1     -34.398  16.085  -3.013  1.00 20.00    -0.005 C 
HETATM    7  C6  UNL     1     -34.383  17.478  -3.663  1.00 20.00     0.015 C 
HETATM    8  C4  UNL     1     -33.707  18.369  -2.630  1.00 20.00     0.001 C 
HETATM    9  C5  UNL     1     -34.271  17.854  -1.318  1.00 20.00     0.001 C 
HETATM   10  C7  UNL     1     -34.334  16.338  -1.494  1.00 20.00     0.015 C 
HETATM   11  C9  UNL     1     -33.173  15.313  -3.435  1.00 20.00     0.021 C 
ENDBRANCH   3   6
TORSDOF 1
ENDMDL
MODEL 8
REMARK VINA RESULT:      -4.3      3.625      4.457
REMARK  1 active torsions:
REMARK  status: ('A' for Active; 'I' for Inactive)
REMARK    1  A    between atoms: C3_3  and  C8_8 
ROOT
HETATM    1  C1  UNL     1     -38.566  14.752  -4.073  1.00 20.00     0.089 C 
HETATM    2  C2  UNL     1     -37.148  14.656  -4.057  1.00 20.00     0.113 C 
HETATM    3  C3  UNL     1     -36.379  14.854  -5.138  1.00 20.00     0.030 C 
HETATM    4  N10 UNL     1     -39.724  14.828  -4.078  1.00 20.00    -0.192 NA
HETATM    5 CL11 UNL     1     -37.143  15.250  -6.650  1.00 20.00    -0.087 Cl
ENDROOT
BRANCH   3   6
HETATM    6  C8  UNL     1     -34.857  14.772  -5.217  1.00 20.00    -0.005 C 
HETATM    7  C6  UNL     1     -34.184  15.788  -4.280  1.00 20.00     0.015 C 
HETATM    8  C4  UNL     1     -32.906  15.095  -3.828  1.00 20.00     0.001 C 
HETATM    9  C5  UNL     1     -33.351  13.657  -3.634  1.00 20.00     0.001 C 
HETATM   10  C7  UNL     1     -34.319  13.393  -4.786  1.00 20.00     0.015 C 
HETATM   11  C9  UNL     1     -34.440  15.039  -6.641  1.00 20.00     0.021 C 
ENDBRANCH   3   6
TORSDOF 1
ENDMDL
MODEL 9
REMARK VINA RESULT:      -4.3      2.666      3.458
REMARK  1 active torsions:
REMARK  status: ('A' for Active; 'I' for Inactive)
REMARK    1  A    between atoms: C3_3  and  C8_8 
ROOT
HETATM    1  C1  UNL     1     -38.433  14.716  -4.078  1.00 20.00     0.089 C 
HETATM    2  C2  UNL     1     -37.034  14.729  -3.832  1.00 20.00     0.113 C 
HETATM    3  C3  UNL     1     -36.387  15.769  -3.285  1.00 20.00     0.030 C 
HETATM    4  N10 UNL     1     -39.576  14.698  -4.282  1.00 20.00    -0.192 NA
HETATM    5 CL11 UNL     1     -37.296  17.186  -2.846  1.00 20.00    -0.087 Cl
ENDROOT
BRANCH   3   6
HETATM    6  C8  UNL     1     -34.894  15.874  -2.985  1.00 20.00    -0.005 C 
HETATM    7  C6  UNL     1     -34.166  14.545  -3.245  1.00 20.00     0.015 C 
HETATM    8  C4  UNL     1     -32.783  14.960  -3.724  1.00 20.00     0.001 C 
HETATM    9  C5  UNL     1     -33.075  16.160  -4.606  1.00 20.00     0.001 C 
HETATM   10  C7  UNL     1     -34.186  16.914  -3.877  1.00 20.00     0.015 C 
HETATM   11  C9  UNL     1     -34.726  16.272  -1.540  1.00 20.00     0.021 C 
ENDBRANCH   3   6
TORSDOF 1
ENDMDL
