MODEL 1
REMARK VINA RESULT:      -4.5      0.000      0.000
REMARK  2 active torsions:
REMARK  status: ('A' for Active; 'I' for Inactive)
REMARK    1  A    between atoms: C1_1  and  C4_4 
REMARK    2  A    between atoms: C1_1  and  C6_6 
ROOT
HETATM    1  C2  UNL     1     -34.271   4.099   5.424  1.00 20.00     0.018 A 
HETATM    2  C3  UNL     1     -35.512   4.819   4.988  1.00 20.00     0.018 A 
HETATM    3  C4  UNL     1     -34.189   5.557   5.018  1.00 20.00     0.018 A 
HETATM    4  C5  UNL     1     -33.992   6.564   6.122  1.00 20.00     0.023 C 
ENDROOT
BRANCH   3   5
HETATM    5  C1  UNL     1     -33.558   5.856   3.711  1.00 20.00     0.148 C 
HETATM    6  O7  UNL     1     -34.046   5.428   2.666  1.00 20.00    -0.296 OA
BRANCH   5   7
HETATM    7  C6  UNL     1     -32.306   6.702   3.764  1.00 20.00     0.193 C 
HETATM    8 CL8  UNL     1     -32.232   7.799   2.379  1.00 20.00    -0.123 Cl
ENDBRANCH   5   7
ENDBRANCH   3   5
TORSDOF 2
ENDMDL
MODEL 2
REMARK VINA RESULT:      -4.2      1.523      1.910
REMARK  2 active torsions:
REMARK  status: ('A' for Active; 'I' for Inactive)
REMARK    1  A    between atoms: C1_1  and  C4_4 
REMARK    2  A    between atoms: C1_1  and  C6_6 
ROOT
HETATM    1  C2  UNL     1     -35.185   4.925   6.222  1.00 20.00     0.018 A 
HETATM    2  C3  UNL     1     -34.506   3.902   5.362  1.00 20.00     0.018 A 
HETATM    3  C4  UNL     1     -34.730   5.300   4.826  1.00 20.00     0.018 A 
HETATM    4  C5  UNL     1     -35.802   5.470   3.779  1.00 20.00     0.023 C 
ENDROOT
BRANCH   3   5
HETATM    5  C1  UNL     1     -33.539   6.177   4.720  1.00 20.00     0.148 C 
HETATM    6  O7  UNL     1     -33.192   6.879   5.667  1.00 20.00    -0.296 OA
BRANCH   5   7
HETATM    7  C6  UNL     1     -32.812   6.139   3.395  1.00 20.00     0.193 C 
HETATM    8 CL8  UNL     1     -31.751   7.544   3.222  1.00 20.00    -0.123 Cl
ENDBRANCH   5   7
ENDBRANCH   3   5
TORSDOF 2
ENDMDL
MODEL 3
REMARK VINA RESULT:      -3.8     12.036     13.192
REMARK  2 active torsions:
REMARK  status: ('A' for Active; 'I' for Inactive)
REMARK    1  A    between atoms: C1_1  and  C4_4 
REMARK    2  A    between atoms: C1_1  and  C6_6 
ROOT
HETATM    1  C2  UNL     1     -34.470  14.792  -7.159  1.00 20.00     0.018 A 
HETATM    2  C3  UNL     1     -34.125  15.906  -6.216  1.00 20.00     0.018 A 
HETATM    3  C4  UNL     1     -35.038  14.788  -5.755  1.00 20.00     0.018 A 
HETATM    4  C5  UNL     1     -36.502  15.116  -5.608  1.00 20.00     0.023 C 
ENDROOT
BRANCH   3   5
HETATM    5  C1  UNL     1     -34.467  13.806  -4.801  1.00 20.00     0.148 C 
HETATM    6  O7  UNL     1     -34.782  12.619  -4.862  1.00 20.00    -0.296 OA
BRANCH   5   7
HETATM    7  C6  UNL     1     -33.501  14.365  -3.782  1.00 20.00     0.193 C 
HETATM    8 CL8  UNL     1     -34.341  15.416  -2.633  1.00 20.00    -0.123 Cl
ENDBRANCH   5   7
ENDBRANCH   3   5
TORSDOF 2
ENDMDL
MODEL 4
REMARK VINA RESULT:      -3.8     11.958     12.433
REMARK  2 active torsions:
REMARK  status: ('A' for Active; 'I' for Inactive)
REMARK    1  A    between atoms: C1_1  and  C4_4 
REMARK    2  A    between atoms: C1_1  and  C6_6 
ROOT
HETATM    1  C2  UNL     1     -33.379  15.693  -4.449  1.00 20.00     0.018 A 
HETATM    2  C3  UNL     1     -32.767  14.660  -3.551  1.00 20.00     0.018 A 
HETATM    3  C4  UNL     1     -34.238  14.992  -3.417  1.00 20.00     0.018 A 
HETATM    4  C5  UNL     1     -34.653  15.796  -2.211  1.00 20.00     0.023 C 
ENDROOT
BRANCH   3   5
HETATM    5  C1  UNL     1     -35.202  13.983  -3.918  1.00 20.00     0.148 C 
HETATM    6  O7  UNL     1     -34.836  12.835  -4.166  1.00 20.00    -0.296 OA
BRANCH   5   7
HETATM    7  C6  UNL     1     -36.625  14.464  -4.095  1.00 20.00     0.193 C 
HETATM    8 CL8  UNL     1     -36.814  15.301  -5.642  1.00 20.00    -0.123 Cl
ENDBRANCH   5   7
ENDBRANCH   3   5
TORSDOF 2
ENDMDL
MODEL 5
REMARK VINA RESULT:      -3.8      2.662      3.583
REMARK  2 active torsions:
REMARK  status: ('A' for Active; 'I' for Inactive)
REMARK    1  A    between atoms: C1_1  and  C4_4 
REMARK    2  A    between atoms: C1_1  and  C6_6 
ROOT
HETATM    1  C2  UNL     1     -32.608   5.727   3.375  1.00 20.00     0.018 A 
HETATM    2  C3  UNL     1     -33.027   7.166   3.316  1.00 20.00     0.018 A 
HETATM    3  C4  UNL     1     -33.909   6.157   4.023  1.00 20.00     0.018 A 
HETATM    4  C5  UNL     1     -35.185   5.755   3.328  1.00 20.00     0.023 C 
ENDROOT
BRANCH   3   5
HETATM    5  C1  UNL     1     -33.936   6.212   5.504  1.00 20.00     0.148 C 
HETATM    6  O7  UNL     1     -33.205   6.990   6.116  1.00 20.00    -0.296 OA
BRANCH   5   7
HETATM    7  C6  UNL     1     -34.902   5.265   6.180  1.00 20.00     0.193 C 
HETATM    8 CL8  UNL     1     -34.599   3.597   5.675  1.00 20.00    -0.123 Cl
ENDBRANCH   5   7
ENDBRANCH   3   5
TORSDOF 2
ENDMDL
MODEL 6
REMARK VINA RESULT:      -3.8      1.752      1.924
REMARK  2 active torsions:
REMARK  status: ('A' for Active; 'I' for Inactive)
REMARK    1  A    between atoms: C1_1  and  C4_4 
REMARK    2  A    between atoms: C1_1  and  C6_6 
ROOT
HETATM    1  C2  UNL     1     -33.838   4.426   6.356  1.00 20.00     0.018 A 
HETATM    2  C3  UNL     1     -35.249   4.896   6.163  1.00 20.00     0.018 A 
HETATM    3  C4  UNL     1     -34.097   5.816   5.811  1.00 20.00     0.018 A 
HETATM    4  C5  UNL     1     -33.837   6.975   6.739  1.00 20.00     0.023 C 
ENDROOT
BRANCH   3   5
HETATM    5  C1  UNL     1     -33.829   6.033   4.369  1.00 20.00     0.148 C 
HETATM    6  O7  UNL     1     -32.781   6.559   3.999  1.00 20.00    -0.296 OA
BRANCH   5   7
HETATM    7  C6  UNL     1     -34.915   5.573   3.422  1.00 20.00     0.193 C 
HETATM    8 CL8  UNL     1     -34.214   4.937   1.928  1.00 20.00    -0.123 Cl
ENDBRANCH   5   7
ENDBRANCH   3   5
TORSDOF 2
ENDMDL
MODEL 7
REMARK VINA RESULT:      -3.8     12.152     12.675
REMARK  2 active torsions:
REMARK  status: ('A' for Active; 'I' for Inactive)
REMARK    1  A    between atoms: C1_1  and  C4_4 
REMARK    2  A    between atoms: C1_1  and  C6_6 
ROOT
HETATM    1  C2  UNL     1     -34.973  15.441  -2.646  1.00 20.00     0.018 A 
HETATM    2  C3  UNL     1     -34.742  16.312  -3.845  1.00 20.00     0.018 A 
HETATM    3  C4  UNL     1     -34.210  14.893  -3.835  1.00 20.00     0.018 A 
HETATM    4  C5  UNL     1     -32.722  14.721  -3.673  1.00 20.00     0.023 C 
ENDROOT
BRANCH   3   5
HETATM    5  C1  UNL     1     -34.915  13.907  -4.688  1.00 20.00     0.148 C 
HETATM    6  O7  UNL     1     -34.968  12.722  -4.363  1.00 20.00    -0.296 OA
BRANCH   5   7
HETATM    7  C6  UNL     1     -35.541  14.457  -5.950  1.00 20.00     0.193 C 
HETATM    8 CL8  UNL     1     -34.296  14.896  -7.126  1.00 20.00    -0.123 Cl
ENDBRANCH   5   7
ENDBRANCH   3   5
TORSDOF 2
ENDMDL
MODEL 8
REMARK VINA RESULT:      -3.8     12.145     13.019
REMARK  2 active torsions:
REMARK  status: ('A' for Active; 'I' for Inactive)
REMARK    1  A    between atoms: C1_1  and  C4_4 
REMARK    2  A    between atoms: C1_1  and  C6_6 
ROOT
HETATM    1  C2  UNL     1     -33.449  13.655  -3.719  1.00 20.00     0.018 A 
HETATM    2  C3  UNL     1     -34.916  13.698  -4.029  1.00 20.00     0.018 A 
HETATM    3  C4  UNL     1     -34.165  14.989  -3.778  1.00 20.00     0.018 A 
HETATM    4  C5  UNL     1     -34.421  15.688  -2.467  1.00 20.00     0.023 C 
ENDROOT
BRANCH   3   5
HETATM    5  C1  UNL     1     -33.893  15.847  -4.957  1.00 20.00     0.148 C 
HETATM    6  O7  UNL     1     -32.855  16.502  -5.029  1.00 20.00    -0.296 OA
BRANCH   5   7
HETATM    7  C6  UNL     1     -34.961  15.850  -6.027  1.00 20.00     0.193 C 
HETATM    8 CL8  UNL     1     -34.450  14.894  -7.425  1.00 20.00    -0.123 Cl
ENDBRANCH   5   7
ENDBRANCH   3   5
TORSDOF 2
ENDMDL
MODEL 9
REMARK VINA RESULT:      -3.7      2.275      3.308
REMARK  2 active torsions:
REMARK  status: ('A' for Active; 'I' for Inactive)
REMARK    1  A    between atoms: C1_1  and  C4_4 
REMARK    2  A    between atoms: C1_1  and  C6_6 
ROOT
HETATM    1  C2  UNL     1     -32.779   7.362   2.919  1.00 20.00     0.018 A 
HETATM    2  C3  UNL     1     -31.954   6.174   3.314  1.00 20.00     0.018 A 
HETATM    3  C4  UNL     1     -33.329   6.366   3.920  1.00 20.00     0.018 A 
HETATM    4  C5  UNL     1     -33.389   6.805   5.360  1.00 20.00     0.023 C 
ENDROOT
BRANCH   3   5
HETATM    5  C1  UNL     1     -34.402   5.459   3.446  1.00 20.00     0.148 C 
HETATM    6  O7  UNL     1     -34.396   5.029   2.294  1.00 20.00    -0.296 OA
BRANCH   5   7
HETATM    7  C6  UNL     1     -35.471   5.119   4.460  1.00 20.00     0.193 C 
HETATM    8 CL8  UNL     1     -34.935   3.806   5.517  1.00 20.00    -0.123 Cl
ENDBRANCH   5   7
ENDBRANCH   3   5
TORSDOF 2
ENDMDL
