MODEL 1
REMARK VINA RESULT:      -4.8      0.000      0.000
REMARK  3 active torsions:
REMARK  status: ('A' for Active; 'I' for Inactive)
REMARK    1  A    between atoms: C1_1  and  C3_3 
REMARK    2  A    between atoms: C2_2  and  C8_8 
REMARK    3  A    between atoms: C8_8  and  C10_10 
ROOT
HETATM    1  C4  UNL     1     -34.111  18.657  -3.622  1.00 20.00     0.002 C 
HETATM    2  C5  UNL     1     -35.622  18.435  -3.693  1.00 20.00     0.002 C 
HETATM    3  C6  UNL     1     -33.667  18.131  -2.257  1.00 20.00     0.022 C 
HETATM    4  C7  UNL     1     -36.021  17.786  -2.368  1.00 20.00     0.022 C 
HETATM    5  C8  UNL     1     -34.742  17.114  -1.853  1.00 20.00     0.024 C 
ENDROOT
BRANCH   5   6
HETATM    6  C2  UNL     1     -34.520  15.818  -2.529  1.00 20.00    -0.085 C 
HETATM    7  C1  UNL     1     -34.339  14.765  -3.078  1.00 20.00     0.005 C 
BRANCH   7   8
HETATM    8  C3  UNL     1     -34.108  13.414  -3.782  1.00 20.00     0.258 C 
HETATM    9  O11 UNL     1     -32.914  12.998  -3.799  1.00 20.00    -0.637 OA
HETATM   10  O12 UNL     1     -35.137  12.863  -4.271  1.00 20.00    -0.637 OA
ENDBRANCH   7   8
ENDBRANCH   5   6
BRANCH   5  11
HETATM   11  C10 UNL     1     -34.781  16.895  -0.342  1.00 20.00     0.018 C 
HETATM   12  C9  UNL     1     -34.123  18.015   0.396  1.00 20.00     0.007 C 
ENDBRANCH   5  11
TORSDOF 3
ENDMDL
MODEL 2
REMARK VINA RESULT:      -4.6      3.040      4.582
REMARK  3 active torsions:
REMARK  status: ('A' for Active; 'I' for Inactive)
REMARK    1  A    between atoms: C1_1  and  C3_3 
REMARK    2  A    between atoms: C2_2  and  C8_8 
REMARK    3  A    between atoms: C8_8  and  C10_10 
ROOT
HETATM    1  C4  UNL     1     -35.114  17.263  -5.121  1.00 20.00     0.002 C 
HETATM    2  C5  UNL     1     -33.587  17.303  -5.134  1.00 20.00     0.002 C 
HETATM    3  C6  UNL     1     -35.500  15.914  -4.514  1.00 20.00     0.022 C 
HETATM    4  C7  UNL     1     -33.120  15.976  -4.534  1.00 20.00     0.022 C 
HETATM    5  C8  UNL     1     -34.291  15.498  -3.667  1.00 20.00     0.024 C 
ENDROOT
BRANCH   5   6
HETATM    6  C2  UNL     1     -34.298  16.193  -2.363  1.00 20.00    -0.085 C 
HETATM    7  C1  UNL     1     -34.303  16.759  -1.303  1.00 20.00     0.005 C 
BRANCH   7   8
HETATM    8  C3  UNL     1     -34.311  17.484   0.056  1.00 20.00     0.258 C 
HETATM    9  O11 UNL     1     -35.270  17.197   0.831  1.00 20.00    -0.637 OA
HETATM   10  O12 UNL     1     -33.358  18.293   0.256  1.00 20.00    -0.637 OA
ENDBRANCH   7   8
ENDBRANCH   5   6
BRANCH   5  11
HETATM   11  C10 UNL     1     -34.250  13.989  -3.435  1.00 20.00     0.018 C 
HETATM   12  C9  UNL     1     -34.688  13.231  -4.645  1.00 20.00     0.007 C 
ENDBRANCH   5  11
TORSDOF 3
ENDMDL
MODEL 3
REMARK VINA RESULT:      -4.5      3.237      4.670
REMARK  3 active torsions:
REMARK  status: ('A' for Active; 'I' for Inactive)
REMARK    1  A    between atoms: C1_1  and  C3_3 
REMARK    2  A    between atoms: C2_2  and  C8_8 
REMARK    3  A    between atoms: C8_8  and  C10_10 
ROOT
HETATM    1  C4  UNL     1     -33.070  16.015  -4.484  1.00 20.00     0.002 C 
HETATM    2  C5  UNL     1     -32.814  14.697  -3.755  1.00 20.00     0.002 C 
HETATM    3  C6  UNL     1     -34.586  16.217  -4.480  1.00 20.00     0.022 C 
HETATM    4  C7  UNL     1     -34.187  14.163  -3.343  1.00 20.00     0.022 C 
HETATM    5  C8  UNL     1     -35.093  15.399  -3.286  1.00 20.00     0.024 C 
ENDROOT
BRANCH   5   6
HETATM    6  C2  UNL     1     -34.897  16.138  -2.021  1.00 20.00    -0.085 C 
HETATM    7  C1  UNL     1     -34.736  16.738  -0.993  1.00 20.00     0.005 C 
BRANCH   7   8
HETATM    8  C3  UNL     1     -34.532  17.508   0.326  1.00 20.00     0.258 C 
HETATM    9  O11 UNL     1     -33.511  18.254   0.377  1.00 20.00    -0.637 OA
HETATM   10  O12 UNL     1     -35.405  17.314   1.221  1.00 20.00    -0.637 OA
ENDBRANCH   7   8
ENDBRANCH   5   6
BRANCH   5  11
HETATM   11  C10 UNL     1     -36.569  15.032  -3.433  1.00 20.00     0.018 C 
HETATM   12  C9  UNL     1     -37.007  15.062  -4.860  1.00 20.00     0.007 C 
ENDBRANCH   5  11
TORSDOF 3
ENDMDL
MODEL 4
REMARK VINA RESULT:      -4.5      0.771      2.651
REMARK  3 active torsions:
REMARK  status: ('A' for Active; 'I' for Inactive)
REMARK    1  A    between atoms: C1_1  and  C3_3 
REMARK    2  A    between atoms: C2_2  and  C8_8 
REMARK    3  A    between atoms: C8_8  and  C10_10 
ROOT
HETATM    1  C4  UNL     1     -34.808  17.192  -0.259  1.00 20.00     0.002 C 
HETATM    2  C5  UNL     1     -33.452  17.648  -0.798  1.00 20.00     0.002 C 
HETATM    3  C6  UNL     1     -35.812  17.411  -1.391  1.00 20.00     0.022 C 
HETATM    4  C7  UNL     1     -33.700  18.121  -2.230  1.00 20.00     0.022 C 
HETATM    5  C8  UNL     1     -34.974  17.393  -2.675  1.00 20.00     0.024 C 
ENDROOT
BRANCH   5   6
HETATM    6  C2  UNL     1     -34.671  16.006  -3.086  1.00 20.00    -0.085 C 
HETATM    7  C1  UNL     1     -34.425  14.879  -3.421  1.00 20.00     0.005 C 
BRANCH   7   8
HETATM    8  C3  UNL     1     -34.109  13.433  -3.849  1.00 20.00     0.258 C 
HETATM    9  O11 UNL     1     -32.904  13.069  -3.719  1.00 20.00    -0.637 OA
HETATM   10  O12 UNL     1     -35.087  12.761  -4.289  1.00 20.00    -0.637 OA
ENDBRANCH   7   8
ENDBRANCH   5   6
BRANCH   5  11
HETATM   11  C10 UNL     1     -35.674  18.118  -3.823  1.00 20.00     0.018 C 
HETATM   12  C9  UNL     1     -34.766  18.309  -4.993  1.00 20.00     0.007 C 
ENDBRANCH   5  11
TORSDOF 3
ENDMDL
MODEL 5
REMARK VINA RESULT:      -4.5      0.845      2.763
REMARK  3 active torsions:
REMARK  status: ('A' for Active; 'I' for Inactive)
REMARK    1  A    between atoms: C1_1  and  C3_3 
REMARK    2  A    between atoms: C2_2  and  C8_8 
REMARK    3  A    between atoms: C8_8  and  C10_10 
ROOT
HETATM    1  C4  UNL     1     -34.648  17.224  -0.175  1.00 20.00     0.002 C 
HETATM    2  C5  UNL     1     -33.364  17.733  -0.829  1.00 20.00     0.002 C 
HETATM    3  C6  UNL     1     -35.753  17.392  -1.218  1.00 20.00     0.022 C 
HETATM    4  C7  UNL     1     -33.752  18.185  -2.236  1.00 20.00     0.022 C 
HETATM    5  C8  UNL     1     -35.027  17.401  -2.569  1.00 20.00     0.024 C 
ENDROOT
BRANCH   5   6
HETATM    6  C2  UNL     1     -34.701  16.024  -2.999  1.00 20.00    -0.085 C 
HETATM    7  C1  UNL     1     -34.437  14.906  -3.349  1.00 20.00     0.005 C 
BRANCH   7   8
HETATM    8  C3  UNL     1     -34.097  13.472  -3.798  1.00 20.00     0.258 C 
HETATM    9  O11 UNL     1     -35.065  12.788  -4.240  1.00 20.00    -0.637 OA
HETATM   10  O12 UNL     1     -32.885  13.128  -3.677  1.00 20.00    -0.637 OA
ENDBRANCH   7   8
ENDBRANCH   5   6
BRANCH   5  11
HETATM   11  C10 UNL     1     -35.853  18.087  -3.655  1.00 20.00     0.018 C 
HETATM   12  C9  UNL     1     -37.211  17.479  -3.785  1.00 20.00     0.007 C 
ENDBRANCH   5  11
TORSDOF 3
ENDMDL
MODEL 6
REMARK VINA RESULT:      -4.4      3.065      4.584
REMARK  3 active torsions:
REMARK  status: ('A' for Active; 'I' for Inactive)
REMARK    1  A    between atoms: C1_1  and  C3_3 
REMARK    2  A    between atoms: C2_2  and  C8_8 
REMARK    3  A    between atoms: C8_8  and  C10_10 
ROOT
HETATM    1  C4  UNL     1     -37.254  16.187  -4.201  1.00 20.00     0.002 C 
HETATM    2  C5  UNL     1     -36.130  16.942  -4.909  1.00 20.00     0.002 C 
HETATM    3  C6  UNL     1     -36.628  14.904  -3.654  1.00 20.00     0.022 C 
HETATM    4  C7  UNL     1     -34.876  16.081  -4.758  1.00 20.00     0.022 C 
HETATM    5  C8  UNL     1     -35.133  15.218  -3.515  1.00 20.00     0.024 C 
ENDROOT
BRANCH   5   6
HETATM    6  C2  UNL     1     -34.870  15.986  -2.279  1.00 20.00    -0.085 C 
HETATM    7  C1  UNL     1     -34.656  16.608  -1.275  1.00 20.00     0.005 C 
BRANCH   7   8
HETATM    8  C3  UNL     1     -34.382  17.407   0.014  1.00 20.00     0.258 C 
HETATM    9  O11 UNL     1     -33.348  18.136   0.002  1.00 20.00    -0.637 OA
HETATM   10  O12 UNL     1     -35.218  17.250   0.951  1.00 20.00    -0.637 OA
ENDBRANCH   7   8
ENDBRANCH   5   6
BRANCH   5  11
HETATM   11  C10 UNL     1     -34.281  13.951  -3.514  1.00 20.00     0.018 C 
HETATM   12  C9  UNL     1     -34.486  13.145  -4.755  1.00 20.00     0.007 C 
ENDBRANCH   5  11
TORSDOF 3
ENDMDL
MODEL 7
REMARK VINA RESULT:      -4.4      2.963      4.681
REMARK  3 active torsions:
REMARK  status: ('A' for Active; 'I' for Inactive)
REMARK    1  A    between atoms: C1_1  and  C3_3 
REMARK    2  A    between atoms: C2_2  and  C8_8 
REMARK    3  A    between atoms: C8_8  and  C10_10 
ROOT
HETATM    1  C4  UNL     1     -34.884  13.470  -3.769  1.00 20.00     0.002 C 
HETATM    2  C5  UNL     1     -36.077  14.343  -4.157  1.00 20.00     0.002 C 
HETATM    3  C6  UNL     1     -33.636  14.236  -4.207  1.00 20.00     0.022 C 
HETATM    4  C7  UNL     1     -35.495  15.596  -4.811  1.00 20.00     0.022 C 
HETATM    5  C8  UNL     1     -34.068  15.706  -4.259  1.00 20.00     0.024 C 
ENDROOT
BRANCH   5   6
HETATM    6  C2  UNL     1     -34.073  16.301  -2.905  1.00 20.00    -0.085 C 
HETATM    7  C1  UNL     1     -34.076  16.784  -1.806  1.00 20.00     0.005 C 
BRANCH   7   8
HETATM    8  C3  UNL     1     -34.081  17.404  -0.395  1.00 20.00     0.258 C 
HETATM    9  O11 UNL     1     -35.033  17.051   0.360  1.00 20.00    -0.637 OA
HETATM   10  O12 UNL     1     -33.133  18.202  -0.139  1.00 20.00    -0.637 OA
ENDBRANCH   7   8
ENDBRANCH   5   6
BRANCH   5  11
HETATM   11  C10 UNL     1     -33.166  16.534  -5.171  1.00 20.00     0.018 C 
HETATM   12  C9  UNL     1     -33.634  17.949  -5.276  1.00 20.00     0.007 C 
ENDBRANCH   5  11
TORSDOF 3
ENDMDL
MODEL 8
REMARK VINA RESULT:      -4.4      2.984      4.257
REMARK  3 active torsions:
REMARK  status: ('A' for Active; 'I' for Inactive)
REMARK    1  A    between atoms: C1_1  and  C3_3 
REMARK    2  A    between atoms: C2_2  and  C8_8 
REMARK    3  A    between atoms: C8_8  and  C10_10 
ROOT
HETATM    1  C4  UNL     1     -34.314  13.632  -4.994  1.00 20.00     0.002 C 
HETATM    2  C5  UNL     1     -34.355  15.015  -5.643  1.00 20.00     0.002 C 
HETATM    3  C6  UNL     1     -34.409  13.866  -3.486  1.00 20.00     0.022 C 
HETATM    4  C7  UNL     1     -34.473  16.021  -4.498  1.00 20.00     0.022 C 
HETATM    5  C8  UNL     1     -35.091  15.232  -3.337  1.00 20.00     0.024 C 
ENDROOT
BRANCH   5   6
HETATM    6  C2  UNL     1     -36.555  15.109  -3.505  1.00 20.00    -0.085 C 
HETATM    7  C1  UNL     1     -37.744  15.009  -3.641  1.00 20.00     0.005 C 
BRANCH   7   8
HETATM    8  C3  UNL     1     -39.270  14.881  -3.815  1.00 20.00     0.258 C 
HETATM    9  O11 UNL     1     -39.973  15.665  -3.114  1.00 20.00    -0.637 OA
HETATM   10  O12 UNL     1     -39.660  14.005  -4.641  1.00 20.00    -0.637 OA
ENDBRANCH   7   8
ENDBRANCH   5   6
BRANCH   5  11
HETATM   11  C10 UNL     1     -34.790  15.875  -1.985  1.00 20.00     0.018 C 
HETATM   12  C9  UNL     1     -33.687  16.877  -2.083  1.00 20.00     0.007 C 
ENDBRANCH   5  11
TORSDOF 3
ENDMDL
MODEL 9
REMARK VINA RESULT:      -4.3     12.390     14.109
REMARK  3 active torsions:
REMARK  status: ('A' for Active; 'I' for Inactive)
REMARK    1  A    between atoms: C1_1  and  C3_3 
REMARK    2  A    between atoms: C2_2  and  C8_8 
REMARK    3  A    between atoms: C8_8  and  C10_10 
ROOT
HETATM    1  C4  UNL     1     -42.300   5.442   0.489  1.00 20.00     0.002 C 
HETATM    2  C5  UNL     1     -40.940   5.883  -0.051  1.00 20.00     0.002 C 
HETATM    3  C6  UNL     1     -43.318   5.766  -0.605  1.00 20.00     0.022 C 
HETATM    4  C7  UNL     1     -41.198   6.454  -1.446  1.00 20.00     0.022 C 
HETATM    5  C8  UNL     1     -42.507   5.800  -1.907  1.00 20.00     0.024 C 
ENDROOT
BRANCH   5   6
HETATM    6  C2  UNL     1     -42.262   4.431  -2.409  1.00 20.00    -0.085 C 
HETATM    7  C1  UNL     1     -42.064   3.320  -2.818  1.00 20.00     0.005 C 
BRANCH   7   8
HETATM    8  C3  UNL     1     -41.809   1.893  -3.342  1.00 20.00     0.258 C 
HETATM    9  O11 UNL     1     -42.607   1.002  -2.929  1.00 20.00    -0.637 OA
HETATM   10  O12 UNL     1     -40.827   1.761  -4.130  1.00 20.00    -0.637 OA
ENDBRANCH   7   8
ENDBRANCH   5   6
BRANCH   5  11
HETATM   11  C10 UNL     1     -43.203   6.619  -2.992  1.00 20.00     0.018 C 
HETATM   12  C9  UNL     1     -42.368   7.777  -3.432  1.00 20.00     0.007 C 
ENDBRANCH   5  11
TORSDOF 3
ENDMDL
