MODEL 1
REMARK VINA RESULT:      -4.3      0.000      0.000
REMARK  1 active torsions:
REMARK  status: ('A' for Active; 'I' for Inactive)
REMARK    1  A    between atoms: C4_4  and  C5_5 
ROOT
HETATM    1  C1  UNL     1     -35.278   4.787   6.163  1.00 20.00     0.013 A 
HETATM    2  C2  UNL     1     -33.850   4.323   6.204  1.00 20.00     0.013 A 
HETATM    3  C4  UNL     1     -34.180   5.690   5.649  1.00 20.00    -0.011 A 
HETATM    4  C6  UNL     1     -33.820   6.870   6.516  1.00 20.00     0.018 C 
ENDROOT
BRANCH   3   5
HETATM    5  C5  UNL     1     -34.046   5.965   4.147  1.00 20.00     0.086 A 
HETATM    6  C3  UNL     1     -33.043   6.953   3.614  1.00 20.00     0.207 A 
HETATM    7  O8  UNL     1     -32.808   5.538   3.574  1.00 20.00    -0.375 OA
HETATM    8  C7  UNL     1     -35.238   5.633   3.308  1.00 20.00     0.049 C 
ENDBRANCH   3   5
TORSDOF 1
ENDMDL
MODEL 2
REMARK VINA RESULT:      -4.2     12.346     12.747
REMARK  1 active torsions:
REMARK  status: ('A' for Active; 'I' for Inactive)
REMARK    1  A    between atoms: C4_4  and  C5_5 
ROOT
HETATM    1  C1  UNL     1     -32.731  14.885  -3.574  1.00 20.00     0.013 A 
HETATM    2  C2  UNL     1     -33.288  16.034  -4.364  1.00 20.00     0.013 A 
HETATM    3  C4  UNL     1     -34.210  15.187  -3.518  1.00 20.00    -0.011 A 
HETATM    4  C6  UNL     1     -34.721  15.815  -2.246  1.00 20.00     0.018 C 
ENDROOT
BRANCH   3   5
HETATM    5  C5  UNL     1     -35.218  14.242  -4.185  1.00 20.00     0.086 A 
HETATM    6  C3  UNL     1     -34.851  13.428  -5.397  1.00 20.00     0.207 A 
HETATM    7  O8  UNL     1     -34.887  12.855  -4.081  1.00 20.00    -0.375 OA
HETATM    8  C7  UNL     1     -36.661  14.532  -3.928  1.00 20.00     0.049 C 
ENDBRANCH   3   5
TORSDOF 1
ENDMDL
MODEL 3
REMARK VINA RESULT:      -4.2      1.054      2.159
REMARK  1 active torsions:
REMARK  status: ('A' for Active; 'I' for Inactive)
REMARK    1  A    between atoms: C4_4  and  C5_5 
ROOT
HETATM    1  C1  UNL     1     -34.474   3.736   5.197  1.00 20.00     0.013 A 
HETATM    2  C2  UNL     1     -35.246   4.573   6.177  1.00 20.00     0.013 A 
HETATM    3  C4  UNL     1     -34.802   5.173   4.863  1.00 20.00    -0.011 A 
HETATM    4  C6  UNL     1     -35.877   5.394   3.828  1.00 20.00     0.018 C 
ENDROOT
BRANCH   3   5
HETATM    5  C5  UNL     1     -33.692   6.231   4.833  1.00 20.00     0.086 A 
HETATM    6  C3  UNL     1     -32.618   6.217   3.779  1.00 20.00     0.207 A 
HETATM    7  O8  UNL     1     -33.741   7.109   3.705  1.00 20.00    -0.375 OA
HETATM    8  C7  UNL     1     -33.419   6.933   6.124  1.00 20.00     0.049 C 
ENDBRANCH   3   5
TORSDOF 1
ENDMDL
MODEL 4
REMARK VINA RESULT:      -4.1      1.163      3.227
REMARK  1 active torsions:
REMARK  status: ('A' for Active; 'I' for Inactive)
REMARK    1  A    between atoms: C4_4  and  C5_5 
ROOT
HETATM    1  C1  UNL     1     -33.224   6.920   3.570  1.00 20.00     0.013 A 
HETATM    2  C2  UNL     1     -32.911   5.475   3.304  1.00 20.00     0.013 A 
HETATM    3  C4  UNL     1     -34.176   5.845   4.043  1.00 20.00    -0.011 A 
HETATM    4  C6  UNL     1     -35.467   5.705   3.275  1.00 20.00     0.018 C 
ENDROOT
BRANCH   3   5
HETATM    5  C5  UNL     1     -34.314   5.539   5.539  1.00 20.00     0.086 A 
HETATM    6  C3  UNL     1     -35.226   4.452   6.039  1.00 20.00     0.207 A 
HETATM    7  O8  UNL     1     -33.808   4.261   5.931  1.00 20.00    -0.375 OA
HETATM    8  C7  UNL     1     -33.935   6.642   6.474  1.00 20.00     0.049 C 
ENDBRANCH   3   5
TORSDOF 1
ENDMDL
MODEL 5
REMARK VINA RESULT:      -4.0      1.201      3.073
REMARK  1 active torsions:
REMARK  status: ('A' for Active; 'I' for Inactive)
REMARK    1  A    between atoms: C4_4  and  C5_5 
ROOT
HETATM    1  C1  UNL     1     -34.401   4.707   3.237  1.00 20.00     0.013 A 
HETATM    2  C2  UNL     1     -35.288   5.919   3.282  1.00 20.00     0.013 A 
HETATM    3  C4  UNL     1     -34.082   5.835   4.189  1.00 20.00    -0.011 A 
HETATM    4  C6  UNL     1     -32.908   6.710   3.827  1.00 20.00     0.018 C 
ENDROOT
BRANCH   3   5
HETATM    5  C5  UNL     1     -34.265   5.646   5.700  1.00 20.00     0.086 A 
HETATM    6  C3  UNL     1     -35.233   4.636   6.256  1.00 20.00     0.207 A 
HETATM    7  O8  UNL     1     -33.822   4.380   6.196  1.00 20.00    -0.375 OA
HETATM    8  C7  UNL     1     -33.860   6.798   6.562  1.00 20.00     0.049 C 
ENDBRANCH   3   5
TORSDOF 1
ENDMDL
MODEL 6
REMARK VINA RESULT:      -3.9     12.107     13.843
REMARK  1 active torsions:
REMARK  status: ('A' for Active; 'I' for Inactive)
REMARK    1  A    between atoms: C4_4  and  C5_5 
ROOT
HETATM    1  C1  UNL     1     -34.384  14.999  -7.105  1.00 20.00     0.013 A 
HETATM    2  C2  UNL     1     -35.495  15.712  -6.390  1.00 20.00     0.013 A 
HETATM    3  C4  UNL     1     -34.260  15.291  -5.628  1.00 20.00    -0.011 A 
HETATM    4  C6  UNL     1     -33.304  16.390  -5.238  1.00 20.00     0.018 C 
ENDROOT
BRANCH   3   5
HETATM    5  C5  UNL     1     -34.335  14.149  -4.606  1.00 20.00     0.086 A 
HETATM    6  C3  UNL     1     -35.653  13.561  -4.178  1.00 20.00     0.207 A 
HETATM    7  O8  UNL     1     -34.807  12.909  -5.137  1.00 20.00    -0.375 OA
HETATM    8  C7  UNL     1     -33.156  14.000  -3.699  1.00 20.00     0.049 C 
ENDBRANCH   3   5
TORSDOF 1
ENDMDL
MODEL 7
REMARK VINA RESULT:      -3.9     12.166     13.559
REMARK  1 active torsions:
REMARK  status: ('A' for Active; 'I' for Inactive)
REMARK    1  A    between atoms: C4_4  and  C5_5 
ROOT
HETATM    1  C1  UNL     1     -34.520  15.829  -2.363  1.00 20.00     0.013 A 
HETATM    2  C2  UNL     1     -35.836  15.572  -3.040  1.00 20.00     0.013 A 
HETATM    3  C4  UNL     1     -34.551  15.129  -3.701  1.00 20.00    -0.011 A 
HETATM    4  C6  UNL     1     -34.268  13.647  -3.692  1.00 20.00     0.018 C 
ENDROOT
BRANCH   3   5
HETATM    5  C5  UNL     1     -34.044  15.844  -4.960  1.00 20.00     0.086 A 
HETATM    6  C3  UNL     1     -33.704  17.311  -4.948  1.00 20.00     0.207 A 
HETATM    7  O8  UNL     1     -32.690  16.297  -4.878  1.00 20.00    -0.375 OA
HETATM    8  C7  UNL     1     -34.379  15.197  -6.264  1.00 20.00     0.049 C 
ENDBRANCH   3   5
TORSDOF 1
ENDMDL
MODEL 8
REMARK VINA RESULT:      -3.8     11.859     12.851
REMARK  1 active torsions:
REMARK  status: ('A' for Active; 'I' for Inactive)
REMARK    1  A    between atoms: C4_4  and  C5_5 
ROOT
HETATM    1  C1  UNL     1     -34.876  15.737  -2.394  1.00 20.00     0.013 A 
HETATM    2  C2  UNL     1     -35.058  16.631  -3.587  1.00 20.00     0.013 A 
HETATM    3  C4  UNL     1     -35.499  15.187  -3.656  1.00 20.00    -0.011 A 
HETATM    4  C6  UNL     1     -36.986  14.938  -3.618  1.00 20.00     0.018 C 
ENDROOT
BRANCH   3   5
HETATM    5  C5  UNL     1     -34.729  14.185  -4.525  1.00 20.00     0.086 A 
HETATM    6  C3  UNL     1     -33.567  13.400  -3.978  1.00 20.00     0.207 A 
HETATM    7  O8  UNL     1     -34.872  12.821  -4.123  1.00 20.00    -0.375 OA
HETATM    8  C7  UNL     1     -34.825  14.386  -6.002  1.00 20.00     0.049 C 
ENDBRANCH   3   5
TORSDOF 1
ENDMDL
MODEL 9
REMARK VINA RESULT:      -3.8     12.116     13.453
REMARK  1 active torsions:
REMARK  status: ('A' for Active; 'I' for Inactive)
REMARK    1  A    between atoms: C4_4  and  C5_5 
ROOT
HETATM    1  C1  UNL     1     -34.887  13.247  -4.274  1.00 20.00     0.013 A 
HETATM    2  C2  UNL     1     -36.014  14.239  -4.241  1.00 20.00     0.013 A 
HETATM    3  C4  UNL     1     -34.733  14.582  -4.965  1.00 20.00    -0.011 A 
HETATM    4  C6  UNL     1     -34.790  14.570  -6.472  1.00 20.00     0.018 C 
ENDROOT
BRANCH   3   5
HETATM    5  C5  UNL     1     -33.783  15.642  -4.393  1.00 20.00     0.086 A 
HETATM    6  C3  UNL     1     -33.685  15.895  -2.913  1.00 20.00     0.207 A 
HETATM    7  O8  UNL     1     -32.706  15.115  -3.615  1.00 20.00    -0.375 OA
HETATM    8  C7  UNL     1     -33.365  16.726  -5.334  1.00 20.00     0.049 C 
ENDBRANCH   3   5
TORSDOF 1
ENDMDL
