MODEL 1
REMARK VINA RESULT:      -4.6      0.000      0.000
REMARK  4 active torsions:
REMARK  status: ('A' for Active; 'I' for Inactive)
REMARK    1  A    between atoms: C2_2  and  C6_6 
REMARK    2  A    between atoms: C6_6  and  O10_10 
REMARK    3  A    between atoms: C7_7  and  C8_8 
REMARK    4  A    between atoms: C8_8  and  O10_10 
ROOT
HETATM    1  C5  UNL     1     -34.366   5.338   3.013  1.00 20.00     0.040 C 
HETATM    2  C8  UNL     1     -33.985   6.274   4.155  1.00 20.00     0.120 C 
ENDROOT
BRANCH   2   3
HETATM    3  C7  UNL     1     -33.975   5.586   5.537  1.00 20.00     0.006 C 
HETATM    4  C3  UNL     1     -35.104   4.565   5.692  1.00 20.00     0.012 C 
HETATM    5  C4  UNL     1     -34.070   6.625   6.663  1.00 20.00     0.012 C 
ENDBRANCH   2   3
BRANCH   2   6
HETATM    6  O10 UNL     1     -32.676   6.781   3.889  1.00 20.00    -0.383 OA
BRANCH   6   7
HETATM    7  C6  UNL     1     -32.466   6.955   2.497  1.00 20.00     0.202 C 
BRANCH   7   8
HETATM    8  C2  UNL     1     -31.812   8.300   2.261  1.00 20.00     0.169 A 
HETATM    9  C1  UNL     1     -32.530   9.395   1.522  1.00 20.00     0.202 A 
HETATM   10  O9  UNL     1     -31.524   8.589   0.889  1.00 20.00    -0.379 OA
ENDBRANCH   7   8
ENDBRANCH   6   7
ENDBRANCH   2   6
TORSDOF 4
ENDMDL
MODEL 2
REMARK VINA RESULT:      -4.5      0.475      1.206
REMARK  4 active torsions:
REMARK  status: ('A' for Active; 'I' for Inactive)
REMARK    1  A    between atoms: C2_2  and  C6_6 
REMARK    2  A    between atoms: C6_6  and  O10_10 
REMARK    3  A    between atoms: C7_7  and  C8_8 
REMARK    4  A    between atoms: C8_8  and  O10_10 
ROOT
HETATM    1  C5  UNL     1     -34.695   5.265   3.270  1.00 20.00     0.040 C 
HETATM    2  C8  UNL     1     -34.249   6.368   4.223  1.00 20.00     0.120 C 
ENDROOT
BRANCH   2   3
HETATM    3  C7  UNL     1     -34.558   6.065   5.704  1.00 20.00     0.006 C 
HETATM    4  C3  UNL     1     -33.670   6.859   6.664  1.00 20.00     0.012 C 
HETATM    5  C4  UNL     1     -34.409   4.565   5.996  1.00 20.00     0.012 C 
ENDBRANCH   2   3
BRANCH   2   6
HETATM    6  O10 UNL     1     -32.837   6.530   4.076  1.00 20.00    -0.383 OA
BRANCH   6   7
HETATM    7  C6  UNL     1     -32.478   6.695   2.714  1.00 20.00     0.202 C 
BRANCH   7   8
HETATM    8  C2  UNL     1     -31.889   8.077   2.524  1.00 20.00     0.169 A 
HETATM    9  C1  UNL     1     -32.605   9.123   1.716  1.00 20.00     0.202 A 
HETATM   10  O9  UNL     1     -31.500   8.379   1.179  1.00 20.00    -0.379 OA
ENDBRANCH   7   8
ENDBRANCH   6   7
ENDBRANCH   2   6
TORSDOF 4
ENDMDL
MODEL 3
REMARK VINA RESULT:      -4.0     10.615     11.569
REMARK  4 active torsions:
REMARK  status: ('A' for Active; 'I' for Inactive)
REMARK    1  A    between atoms: C2_2  and  C6_6 
REMARK    2  A    between atoms: C6_6  and  O10_10 
REMARK    3  A    between atoms: C7_7  and  C8_8 
REMARK    4  A    between atoms: C8_8  and  O10_10 
ROOT
HETATM    1  C5  UNL     1     -35.575  16.997  -2.778  1.00 20.00     0.040 C 
HETATM    2  C8  UNL     1     -34.066  17.060  -2.565  1.00 20.00     0.120 C 
ENDROOT
BRANCH   2   3
HETATM    3  C7  UNL     1     -33.662  17.317  -1.099  1.00 20.00     0.006 C 
HETATM    4  C3  UNL     1     -34.820  17.095  -0.123  1.00 20.00     0.012 C 
HETATM    5  C4  UNL     1     -33.117  18.741  -0.925  1.00 20.00     0.012 C 
ENDBRANCH   2   3
BRANCH   2   6
HETATM    6  O10 UNL     1     -33.513  15.809  -2.978  1.00 20.00    -0.383 OA
BRANCH   6   7
HETATM    7  C6  UNL     1     -34.519  14.816  -3.099  1.00 20.00     0.202 C 
BRANCH   7   8
HETATM    8  C2  UNL     1     -34.062  13.769  -4.092  1.00 20.00     0.169 A 
HETATM    9  C1  UNL     1     -34.775  13.574  -5.401  1.00 20.00     0.202 A 
HETATM   10  O9  UNL     1     -34.985  12.691  -4.287  1.00 20.00    -0.379 OA
ENDBRANCH   7   8
ENDBRANCH   6   7
ENDBRANCH   2   6
TORSDOF 4
ENDMDL
MODEL 4
REMARK VINA RESULT:      -3.7     10.812     12.165
REMARK  4 active torsions:
REMARK  status: ('A' for Active; 'I' for Inactive)
REMARK    1  A    between atoms: C2_2  and  C6_6 
REMARK    2  A    between atoms: C6_6  and  O10_10 
REMARK    3  A    between atoms: C7_7  and  C8_8 
REMARK    4  A    between atoms: C8_8  and  O10_10 
ROOT
HETATM    1  C5  UNL     1     -34.436  16.582  -1.119  1.00 20.00     0.040 C 
HETATM    2  C8  UNL     1     -34.695  16.375  -2.607  1.00 20.00     0.120 C 
ENDROOT
BRANCH   2   3
HETATM    3  C7  UNL     1     -33.570  15.601  -3.326  1.00 20.00     0.006 C 
HETATM    4  C3  UNL     1     -33.160  16.256  -4.647  1.00 20.00     0.012 C 
HETATM    5  C4  UNL     1     -33.989  14.148  -3.587  1.00 20.00     0.012 C 
ENDBRANCH   2   3
BRANCH   2   6
HETATM    6  O10 UNL     1     -35.913  15.639  -2.742  1.00 20.00    -0.383 OA
BRANCH   6   7
HETATM    7  C6  UNL     1     -36.859  16.351  -3.524  1.00 20.00     0.202 C 
BRANCH   7   8
HETATM    8  C2  UNL     1     -37.642  15.366  -4.366  1.00 20.00     0.169 A 
HETATM    9  C1  UNL     1     -39.029  14.939  -3.975  1.00 20.00     0.202 A 
HETATM   10  O9  UNL     1     -37.886  14.104  -3.733  1.00 20.00    -0.379 OA
ENDBRANCH   7   8
ENDBRANCH   6   7
ENDBRANCH   2   6
TORSDOF 4
ENDMDL
MODEL 5
REMARK VINA RESULT:      -3.7     10.673     11.955
REMARK  4 active torsions:
REMARK  status: ('A' for Active; 'I' for Inactive)
REMARK    1  A    between atoms: C2_2  and  C6_6 
REMARK    2  A    between atoms: C6_6  and  O10_10 
REMARK    3  A    between atoms: C7_7  and  C8_8 
REMARK    4  A    between atoms: C8_8  and  O10_10 
ROOT
HETATM    1  C5  UNL     1     -33.516  17.171  -4.594  1.00 20.00     0.040 C 
HETATM    2  C8  UNL     1     -34.051  16.394  -3.396  1.00 20.00     0.120 C 
ENDROOT
BRANCH   2   3
HETATM    3  C7  UNL     1     -33.703  17.041  -2.039  1.00 20.00     0.006 C 
HETATM    4  C3  UNL     1     -34.655  16.607  -0.922  1.00 20.00     0.012 C 
HETATM    5  C4  UNL     1     -33.711  18.572  -2.147  1.00 20.00     0.012 C 
ENDBRANCH   2   3
BRANCH   2   6
HETATM    6  O10 UNL     1     -35.473  16.324  -3.517  1.00 20.00    -0.383 OA
BRANCH   6   7
HETATM    7  C6  UNL     1     -35.871  15.156  -4.217  1.00 20.00     0.202 C 
BRANCH   7   8
HETATM    8  C2  UNL     1     -34.993  14.000  -3.788  1.00 20.00     0.169 A 
HETATM    9  C1  UNL     1     -34.172  13.234  -4.787  1.00 20.00     0.202 A 
HETATM   10  O9  UNL     1     -35.412  12.721  -4.276  1.00 20.00    -0.379 OA
ENDBRANCH   7   8
ENDBRANCH   6   7
ENDBRANCH   2   6
TORSDOF 4
ENDMDL
MODEL 6
REMARK VINA RESULT:      -3.6     10.915     12.120
REMARK  4 active torsions:
REMARK  status: ('A' for Active; 'I' for Inactive)
REMARK    1  A    between atoms: C2_2  and  C6_6 
REMARK    2  A    between atoms: C6_6  and  O10_10 
REMARK    3  A    between atoms: C7_7  and  C8_8 
REMARK    4  A    between atoms: C8_8  and  O10_10 
ROOT
HETATM    1  C5  UNL     1     -34.393  14.129  -3.564  1.00 20.00     0.040 C 
HETATM    2  C8  UNL     1     -35.067  15.344  -2.936  1.00 20.00     0.120 C 
ENDROOT
BRANCH   2   3
HETATM    3  C7  UNL     1     -34.096  16.247  -2.146  1.00 20.00     0.006 C 
HETATM    4  C3  UNL     1     -34.662  16.670  -0.789  1.00 20.00     0.012 C 
HETATM    5  C4  UNL     1     -33.732  17.498  -2.958  1.00 20.00     0.012 C 
ENDBRANCH   2   3
BRANCH   2   6
HETATM    6  O10 UNL     1     -35.652  16.114  -3.988  1.00 20.00    -0.383 OA
BRANCH   6   7
HETATM    7  C6  UNL     1     -37.052  16.249  -3.808  1.00 20.00     0.202 C 
BRANCH   7   8
HETATM    8  C2  UNL     1     -37.756  15.149  -4.575  1.00 20.00     0.169 A 
HETATM    9  C1  UNL     1     -39.234  14.919  -4.426  1.00 20.00     0.202 A 
HETATM   10  O9  UNL     1     -38.269  14.090  -3.759  1.00 20.00    -0.379 OA
ENDBRANCH   7   8
ENDBRANCH   6   7
ENDBRANCH   2   6
TORSDOF 4
ENDMDL
MODEL 7
REMARK VINA RESULT:      -3.6     10.830     11.572
REMARK  4 active torsions:
REMARK  status: ('A' for Active; 'I' for Inactive)
REMARK    1  A    between atoms: C2_2  and  C6_6 
REMARK    2  A    between atoms: C6_6  and  O10_10 
REMARK    3  A    between atoms: C7_7  and  C8_8 
REMARK    4  A    between atoms: C8_8  and  O10_10 
ROOT
HETATM    1  C5  UNL     1     -36.710  14.686  -3.897  1.00 20.00     0.040 C 
HETATM    2  C8  UNL     1     -35.435  14.964  -3.109  1.00 20.00     0.120 C 
ENDROOT
BRANCH   2   3
HETATM    3  C7  UNL     1     -34.233  14.107  -3.560  1.00 20.00     0.006 C 
HETATM    4  C3  UNL     1     -32.962  14.936  -3.753  1.00 20.00     0.012 C 
HETATM    5  C4  UNL     1     -34.555  13.359  -4.861  1.00 20.00     0.012 C 
ENDBRANCH   2   3
BRANCH   2   6
HETATM    6  O10 UNL     1     -35.103  16.343  -3.284  1.00 20.00    -0.383 OA
BRANCH   6   7
HETATM    7  C6  UNL     1     -35.520  17.116  -2.171  1.00 20.00     0.202 C 
BRANCH   7   8
HETATM    8  C2  UNL     1     -34.695  16.727  -0.962  1.00 20.00     0.169 A 
HETATM    9  C1  UNL     1     -34.518  17.669   0.196  1.00 20.00     0.202 A 
HETATM   10  O9  UNL     1     -33.493  17.486  -0.793  1.00 20.00    -0.379 OA
ENDBRANCH   7   8
ENDBRANCH   6   7
ENDBRANCH   2   6
TORSDOF 4
ENDMDL
MODEL 8
REMARK VINA RESULT:      -3.6     11.033     12.658
REMARK  4 active torsions:
REMARK  status: ('A' for Active; 'I' for Inactive)
REMARK    1  A    between atoms: C2_2  and  C6_6 
REMARK    2  A    between atoms: C6_6  and  O10_10 
REMARK    3  A    between atoms: C7_7  and  C8_8 
REMARK    4  A    between atoms: C8_8  and  O10_10 
ROOT
HETATM    1  C5  UNL     1     -35.234  17.271  -4.393  1.00 20.00     0.040 C 
HETATM    2  C8  UNL     1     -33.823  16.755  -4.131  1.00 20.00     0.120 C 
ENDROOT
BRANCH   2   3
HETATM    3  C7  UNL     1     -33.734  15.787  -2.933  1.00 20.00     0.006 C 
HETATM    4  C3  UNL     1     -34.244  14.385  -3.274  1.00 20.00     0.012 C 
HETATM    5  C4  UNL     1     -34.515  16.334  -1.730  1.00 20.00     0.012 C 
ENDBRANCH   2   3
BRANCH   2   6
HETATM    6  O10 UNL     1     -33.381  16.071  -5.304  1.00 20.00    -0.383 OA
BRANCH   6   7
HETATM    7  C6  UNL     1     -34.252  16.311  -6.398  1.00 20.00     0.202 C 
BRANCH   7   8
HETATM    8  C2  UNL     1     -34.390  15.039  -7.207  1.00 20.00     0.169 A 
HETATM    9  C1  UNL     1     -35.705  14.643  -7.816  1.00 20.00     0.202 A 
HETATM   10  O9  UNL     1     -35.221  14.039  -6.607  1.00 20.00    -0.379 OA
ENDBRANCH   7   8
ENDBRANCH   6   7
ENDBRANCH   2   6
TORSDOF 4
ENDMDL
MODEL 9
REMARK VINA RESULT:      -3.5     10.886     12.195
REMARK  4 active torsions:
REMARK  status: ('A' for Active; 'I' for Inactive)
REMARK    1  A    between atoms: C2_2  and  C6_6 
REMARK    2  A    between atoms: C6_6  and  O10_10 
REMARK    3  A    between atoms: C7_7  and  C8_8 
REMARK    4  A    between atoms: C8_8  and  O10_10 
ROOT
HETATM    1  C5  UNL     1     -33.922  13.971  -3.675  1.00 20.00     0.040 C 
HETATM    2  C8  UNL     1     -34.789  15.069  -3.069  1.00 20.00     0.120 C 
ENDROOT
BRANCH   2   3
HETATM    3  C7  UNL     1     -33.978  16.165  -2.346  1.00 20.00     0.006 C 
HETATM    4  C3  UNL     1     -34.604  16.571  -1.010  1.00 20.00     0.012 C 
HETATM    5  C4  UNL     1     -33.826  17.407  -3.235  1.00 20.00     0.012 C 
ENDBRANCH   2   3
BRANCH   2   6
HETATM    6  O10 UNL     1     -35.532  15.676  -4.129  1.00 20.00    -0.383 OA
BRANCH   6   7
HETATM    7  C6  UNL     1     -35.873  14.727  -5.126  1.00 20.00     0.202 C 
BRANCH   7   8
HETATM    8  C2  UNL     1     -35.682  15.356  -6.490  1.00 20.00     0.169 A 
HETATM    9  C1  UNL     1     -34.543  14.948  -7.383  1.00 20.00     0.202 A 
HETATM   10  O9  UNL     1     -34.504  16.161  -6.615  1.00 20.00    -0.379 OA
ENDBRANCH   7   8
ENDBRANCH   6   7
ENDBRANCH   2   6
TORSDOF 4
ENDMDL
