MODEL 1
REMARK VINA RESULT:      -6.0      0.000      0.000
REMARK  0 active torsions:
REMARK  status: ('A' for Active; 'I' for Inactive)
ROOT
HETATM    1  C1  UNL     1     -33.241   6.786   5.119  1.00 20.00     0.005 C 
HETATM    2  C2  UNL     1     -34.026   5.993   6.034  1.00 20.00     0.041 C 
HETATM    3  C3  UNL     1     -33.209   6.516   3.802  1.00 20.00    -0.081 C 
HETATM    4  C4  UNL     1     -34.923   5.107   5.586  1.00 20.00     0.128 C 
HETATM    5  C5  UNL     1     -34.016   5.378   3.217  1.00 20.00     0.078 C 
HETATM    6  C6  UNL     1     -35.154   4.876   4.123  1.00 20.00     0.235 C 
HETATM    7  C7  UNL     1     -32.361   7.300   2.846  1.00 20.00     0.043 C 
HETATM    8  F8  UNL     1     -35.645   4.397   6.481  1.00 20.00    -0.208 F 
HETATM    9  F9  UNL     1     -36.300   5.517   3.748  1.00 20.00    -0.242 F 
ENDROOT
TORSDOF 0
ENDMDL
MODEL 2
REMARK VINA RESULT:      -4.9      1.178      2.288
REMARK  0 active torsions:
REMARK  status: ('A' for Active; 'I' for Inactive)
ROOT
HETATM    1  C1  UNL     1     -34.280   5.206   3.579  1.00 20.00     0.005 C 
HETATM    2  C2  UNL     1     -35.160   4.480   4.461  1.00 20.00     0.041 C 
HETATM    3  C3  UNL     1     -33.587   6.278   4.002  1.00 20.00    -0.081 C 
HETATM    4  C4  UNL     1     -35.151   4.699   5.781  1.00 20.00     0.128 C 
HETATM    5  C5  UNL     1     -33.683   6.756   5.435  1.00 20.00     0.078 C 
HETATM    6  C6  UNL     1     -34.246   5.712   6.415  1.00 20.00     0.235 C 
HETATM    7  C7  UNL     1     -32.706   7.073   3.086  1.00 20.00     0.043 C 
HETATM    8  F8  UNL     1     -35.984   3.984   6.570  1.00 20.00    -0.208 F 
HETATM    9  F9  UNL     1     -33.190   5.066   6.991  1.00 20.00    -0.242 F 
ENDROOT
TORSDOF 0
ENDMDL
MODEL 3
REMARK VINA RESULT:      -4.8      1.434      2.343
REMARK  0 active torsions:
REMARK  status: ('A' for Active; 'I' for Inactive)
ROOT
HETATM    1  C1  UNL     1     -34.542   5.437   6.787  1.00 20.00     0.005 C 
HETATM    2  C2  UNL     1     -34.929   4.266   6.038  1.00 20.00     0.041 C 
HETATM    3  C3  UNL     1     -33.926   6.478   6.200  1.00 20.00    -0.081 C 
HETATM    4  C4  UNL     1     -34.897   4.261   4.700  1.00 20.00     0.128 C 
HETATM    5  C5  UNL     1     -33.632   6.475   4.715  1.00 20.00     0.078 C 
HETATM    6  C6  UNL     1     -34.449   5.452   3.908  1.00 20.00     0.235 C 
HETATM    7  C7  UNL     1     -33.474   7.680   6.973  1.00 20.00     0.043 C 
HETATM    8  F8  UNL     1     -35.282   3.146   4.041  1.00 20.00    -0.208 F 
HETATM    9  F9  UNL     1     -35.547   6.092   3.410  1.00 20.00    -0.242 F 
ENDROOT
TORSDOF 0
ENDMDL
MODEL 4
REMARK VINA RESULT:      -4.7      1.998      3.370
REMARK  0 active torsions:
REMARK  status: ('A' for Active; 'I' for Inactive)
ROOT
HETATM    1  C1  UNL     1     -33.494   6.077   5.508  1.00 20.00     0.005 C 
HETATM    2  C2  UNL     1     -32.884   6.867   4.466  1.00 20.00     0.041 C 
HETATM    3  C3  UNL     1     -34.573   5.311   5.270  1.00 20.00    -0.081 C 
HETATM    4  C4  UNL     1     -33.222   6.698   3.183  1.00 20.00     0.128 C 
HETATM    5  C5  UNL     1     -35.182   5.226   3.886  1.00 20.00     0.078 C 
HETATM    6  C6  UNL     1     -34.253   5.699   2.755  1.00 20.00     0.235 C 
HETATM    7  C7  UNL     1     -35.248   4.522   6.351  1.00 20.00     0.043 C 
HETATM    8  F8  UNL     1     -32.612   7.451   2.241  1.00 20.00    -0.208 F 
HETATM    9  F9  UNL     1     -33.623   4.600   2.244  1.00 20.00    -0.242 F 
ENDROOT
TORSDOF 0
ENDMDL
MODEL 5
REMARK VINA RESULT:      -4.6      8.457      9.886
REMARK  0 active torsions:
REMARK  status: ('A' for Active; 'I' for Inactive)
ROOT
HETATM    1  C1  UNL     1     -42.410   5.524  -2.717  1.00 20.00     0.005 C 
HETATM    2  C2  UNL     1     -42.038   6.834  -2.240  1.00 20.00     0.041 C 
HETATM    3  C3  UNL     1     -41.828   4.410  -2.240  1.00 20.00    -0.081 C 
HETATM    4  C4  UNL     1     -41.270   6.982  -1.154  1.00 20.00     0.128 C 
HETATM    5  C5  UNL     1     -40.769   4.481  -1.161  1.00 20.00     0.078 C 
HETATM    6  C6  UNL     1     -40.744   5.809  -0.384  1.00 20.00     0.235 C 
HETATM    7  C7  UNL     1     -42.167   3.045  -2.760  1.00 20.00     0.043 C 
HETATM    8  F8  UNL     1     -40.960   8.229  -0.737  1.00 20.00    -0.208 F 
HETATM    9  F9  UNL     1     -41.492   5.647   0.746  1.00 20.00    -0.242 F 
ENDROOT
TORSDOF 0
ENDMDL
MODEL 6
REMARK VINA RESULT:      -4.4      1.357      2.860
REMARK  0 active torsions:
REMARK  status: ('A' for Active; 'I' for Inactive)
ROOT
HETATM    1  C1  UNL     1     -32.995   6.686   4.534  1.00 20.00     0.005 C 
HETATM    2  C2  UNL     1     -33.318   6.163   3.229  1.00 20.00     0.041 C 
HETATM    3  C3  UNL     1     -33.803   6.490   5.591  1.00 20.00    -0.081 C 
HETATM    4  C4  UNL     1     -34.309   5.278   3.065  1.00 20.00     0.128 C 
HETATM    5  C5  UNL     1     -35.081   5.689   5.461  1.00 20.00     0.078 C 
HETATM    6  C6  UNL     1     -35.143   4.793   4.211  1.00 20.00     0.235 C 
HETATM    7  C7  UNL     1     -33.507   7.067   6.942  1.00 20.00     0.043 C 
HETATM    8  F8  UNL     1     -34.565   4.806   1.825  1.00 20.00    -0.208 F 
HETATM    9  F9  UNL     1     -34.722   3.545   4.570  1.00 20.00    -0.242 F 
ENDROOT
TORSDOF 0
ENDMDL
MODEL 7
REMARK VINA RESULT:      -4.4      8.881     10.187
REMARK  0 active torsions:
REMARK  status: ('A' for Active; 'I' for Inactive)
ROOT
HETATM    1  C1  UNL     1     -40.883   4.631  -1.272  1.00 20.00     0.005 C 
HETATM    2  C2  UNL     1     -40.755   5.946  -0.693  1.00 20.00     0.041 C 
HETATM    3  C3  UNL     1     -41.813   4.360  -2.204  1.00 20.00    -0.081 C 
HETATM    4  C4  UNL     1     -41.397   6.998  -1.216  1.00 20.00     0.128 C 
HETATM    5  C5  UNL     1     -42.755   5.435  -2.705  1.00 20.00     0.078 C 
HETATM    6  C6  UNL     1     -42.290   6.871  -2.412  1.00 20.00     0.235 C 
HETATM    7  C7  UNL     1     -41.992   2.988  -2.780  1.00 20.00     0.043 C 
HETATM    8  F8  UNL     1     -41.234   8.213  -0.647  1.00 20.00    -0.208 F 
HETATM    9  F9  UNL     1     -41.625   7.328  -3.513  1.00 20.00    -0.242 F 
ENDROOT
TORSDOF 0
ENDMDL
MODEL 8
REMARK VINA RESULT:      -4.4     12.006     12.754
REMARK  0 active torsions:
REMARK  status: ('A' for Active; 'I' for Inactive)
ROOT
HETATM    1  C1  UNL     1     -35.306  13.680  -4.314  1.00 20.00     0.005 C 
HETATM    2  C2  UNL     1     -33.877  13.583  -4.138  1.00 20.00     0.041 C 
HETATM    3  C3  UNL     1     -36.023  14.652  -3.724  1.00 20.00    -0.081 C 
HETATM    4  C4  UNL     1     -33.181  14.577  -3.573  1.00 20.00     0.128 C 
HETATM    5  C5  UNL     1     -35.356  15.705  -2.865  1.00 20.00     0.078 C 
HETATM    6  C6  UNL     1     -33.838  15.830  -3.080  1.00 20.00     0.235 C 
HETATM    7  C7  UNL     1     -37.514  14.739  -3.857  1.00 20.00     0.043 C 
HETATM    8  F8  UNL     1     -31.842  14.446  -3.442  1.00 20.00    -0.208 F 
HETATM    9  F9  UNL     1     -33.625  16.829  -3.986  1.00 20.00    -0.242 F 
ENDROOT
TORSDOF 0
ENDMDL
MODEL 9
REMARK VINA RESULT:      -4.3     12.120     13.374
REMARK  0 active torsions:
REMARK  status: ('A' for Active; 'I' for Inactive)
ROOT
HETATM    1  C1  UNL     1     -33.664  16.608  -3.893  1.00 20.00     0.005 C 
HETATM    2  C2  UNL     1     -33.611  16.279  -5.296  1.00 20.00     0.041 C 
HETATM    3  C3  UNL     1     -34.401  15.889  -3.027  1.00 20.00    -0.081 C 
HETATM    4  C4  UNL     1     -34.104  15.121  -5.753  1.00 20.00     0.128 C 
HETATM    5  C5  UNL     1     -35.191  14.683  -3.488  1.00 20.00     0.078 C 
HETATM    6  C6  UNL     1     -34.748  14.116  -4.848  1.00 20.00     0.235 C 
HETATM    7  C7  UNL     1     -34.506  16.248  -1.576  1.00 20.00     0.043 C 
HETATM    8  F8  UNL     1     -34.018  14.850  -7.074  1.00 20.00    -0.208 F 
HETATM    9  F9  UNL     1     -33.865  13.102  -4.610  1.00 20.00    -0.242 F 
ENDROOT
TORSDOF 0
ENDMDL
