MODEL 1
REMARK VINA RESULT:      -4.5      0.000      0.000
REMARK  4 active torsions:
REMARK  status: ('A' for Active; 'I' for Inactive)
REMARK    1  A    between atoms: C4_4  and  C7_7 
REMARK    2  A    between atoms: C4_4  and  C8_8 
REMARK    3  A    between atoms: C7_7  and  C9_9 
REMARK    4  A    between atoms: C8_8  and  C10_10 
ROOT
HETATM    1  C1  UNL     1     -34.527  13.574  -4.550  1.00 20.00     0.128 C 
HETATM    2  C2  UNL     1     -33.386  14.197  -3.726  1.00 20.00     0.088 C 
HETATM    3  C3  UNL     1     -35.111  14.956  -4.896  1.00 20.00     0.088 C 
HETATM    4  C4  UNL     1     -34.175  15.545  -3.790  1.00 20.00    -0.027 C 
HETATM    5  O11 UNL     1     -34.848  12.436  -4.815  1.00 20.00    -0.298 OA
ENDROOT
BRANCH   4   6
HETATM    6  C7  UNL     1     -34.916  15.868  -2.491  1.00 20.00     0.010 C 
BRANCH   6   7
HETATM    7  C9  UNL     1     -34.032  16.665  -1.538  1.00 20.00    -0.004 C 
HETATM    8  C5  UNL     1     -34.783  17.029  -0.268  1.00 20.00     0.005 C 
ENDBRANCH   6   7
ENDBRANCH   4   6
BRANCH   4   9
HETATM    9  C8  UNL     1     -33.334  16.725  -4.264  1.00 20.00     0.010 C 
BRANCH   9  10
HETATM   10  C10 UNL     1     -34.212  17.878  -4.738  1.00 20.00    -0.004 C 
HETATM   11  C6  UNL     1     -33.791  18.364  -6.115  1.00 20.00     0.005 C 
ENDBRANCH   9  10
ENDBRANCH   4   9
TORSDOF 4
ENDMDL
MODEL 2
REMARK VINA RESULT:      -4.5      0.443      3.312
REMARK  4 active torsions:
REMARK  status: ('A' for Active; 'I' for Inactive)
REMARK    1  A    between atoms: C4_4  and  C7_7 
REMARK    2  A    between atoms: C4_4  and  C8_8 
REMARK    3  A    between atoms: C7_7  and  C9_9 
REMARK    4  A    between atoms: C8_8  and  C10_10 
ROOT
HETATM    1  C1  UNL     1     -34.759  13.572  -4.455  1.00 20.00     0.128 C 
HETATM    2  C2  UNL     1     -35.441  14.917  -4.765  1.00 20.00     0.088 C 
HETATM    3  C3  UNL     1     -33.945  14.183  -3.301  1.00 20.00     0.088 C 
HETATM    4  C4  UNL     1     -34.371  15.587  -3.842  1.00 20.00    -0.027 C 
HETATM    5  O11 UNL     1     -34.829  12.464  -4.940  1.00 20.00    -0.298 OA
ENDROOT
BRANCH   4   6
HETATM    6  C7  UNL     1     -33.260  16.288  -4.626  1.00 20.00     0.010 C 
BRANCH   6   7
HETATM    7  C9  UNL     1     -33.586  17.761  -4.844  1.00 20.00    -0.004 C 
HETATM    8  C5  UNL     1     -33.949  18.034  -6.295  1.00 20.00     0.005 C 
ENDBRANCH   6   7
ENDBRANCH   4   6
BRANCH   4   9
HETATM    9  C8  UNL     1     -34.966  16.500  -2.776  1.00 20.00     0.010 C 
BRANCH   9  10
HETATM   10  C10 UNL     1     -33.992  16.715  -1.622  1.00 20.00    -0.004 C 
HETATM   11  C6  UNL     1     -34.728  16.991  -0.321  1.00 20.00     0.005 C 
ENDBRANCH   9  10
ENDBRANCH   4   9
TORSDOF 4
ENDMDL
MODEL 3
REMARK VINA RESULT:      -4.2      2.227      3.640
REMARK  4 active torsions:
REMARK  status: ('A' for Active; 'I' for Inactive)
REMARK    1  A    between atoms: C4_4  and  C7_7 
REMARK    2  A    between atoms: C4_4  and  C8_8 
REMARK    3  A    between atoms: C7_7  and  C9_9 
REMARK    4  A    between atoms: C8_8  and  C10_10 
ROOT
HETATM    1  C1  UNL     1     -33.812  18.054  -4.875  1.00 20.00     0.128 C 
HETATM    2  C2  UNL     1     -35.034  17.831  -3.966  1.00 20.00     0.088 C 
HETATM    3  C3  UNL     1     -33.314  16.614  -4.660  1.00 20.00     0.088 C 
HETATM    4  C4  UNL     1     -34.342  16.513  -3.486  1.00 20.00    -0.027 C 
HETATM    5  O11 UNL     1     -33.397  19.002  -5.507  1.00 20.00    -0.298 OA
ENDROOT
BRANCH   4   6
HETATM    6  C7  UNL     1     -33.692  16.645  -2.108  1.00 20.00     0.010 C 
BRANCH   6   7
HETATM    7  C9  UNL     1     -34.716  16.453  -0.996  1.00 20.00    -0.004 C 
HETATM    8  C5  UNL     1     -34.568  17.519   0.077  1.00 20.00     0.005 C 
ENDBRANCH   6   7
ENDBRANCH   4   6
BRANCH   4   9
HETATM    9  C8  UNL     1     -35.244  15.285  -3.565  1.00 20.00     0.010 C 
BRANCH   9  10
HETATM   10  C10 UNL     1     -34.429  13.996  -3.524  1.00 20.00    -0.004 C 
HETATM   11  C6  UNL     1     -34.698  13.134  -4.747  1.00 20.00     0.005 C 
ENDBRANCH   9  10
ENDBRANCH   4   9
TORSDOF 4
ENDMDL
MODEL 4
REMARK VINA RESULT:      -4.2      1.640      1.967
REMARK  4 active torsions:
REMARK  status: ('A' for Active; 'I' for Inactive)
REMARK    1  A    between atoms: C4_4  and  C7_7 
REMARK    2  A    between atoms: C4_4  and  C8_8 
REMARK    3  A    between atoms: C7_7  and  C9_9 
REMARK    4  A    between atoms: C8_8  and  C10_10 
ROOT
HETATM    1  C1  UNL     1     -33.553  13.968  -3.713  1.00 20.00     0.128 C 
HETATM    2  C2  UNL     1     -33.094  15.435  -3.641  1.00 20.00     0.088 C 
HETATM    3  C3  UNL     1     -35.038  14.367  -3.644  1.00 20.00     0.088 C 
HETATM    4  C4  UNL     1     -34.558  15.795  -3.225  1.00 20.00    -0.027 C 
HETATM    5  O11 UNL     1     -32.971  12.907  -3.785  1.00 20.00    -0.298 OA
ENDROOT
BRANCH   4   6
HETATM    6  C7  UNL     1     -34.706  16.059  -1.725  1.00 20.00     0.010 C 
BRANCH   6   7
HETATM    7  C9  UNL     1     -33.831  17.226  -1.283  1.00 20.00    -0.004 C 
HETATM    8  C5  UNL     1     -34.257  17.747   0.080  1.00 20.00     0.005 C 
ENDBRANCH   6   7
ENDBRANCH   4   6
BRANCH   4   9
HETATM    9  C8  UNL     1     -35.172  16.917  -4.055  1.00 20.00     0.010 C 
BRANCH   9  10
HETATM   10  C10 UNL     1     -36.515  17.360  -3.482  1.00 20.00    -0.004 C 
HETATM   11  C6  UNL     1     -37.648  17.089  -4.458  1.00 20.00     0.005 C 
ENDBRANCH   9  10
ENDBRANCH   4   9
TORSDOF 4
ENDMDL
MODEL 5
REMARK VINA RESULT:      -4.1      1.684      3.396
REMARK  4 active torsions:
REMARK  status: ('A' for Active; 'I' for Inactive)
REMARK    1  A    between atoms: C4_4  and  C7_7 
REMARK    2  A    between atoms: C4_4  and  C8_8 
REMARK    3  A    between atoms: C7_7  and  C9_9 
REMARK    4  A    between atoms: C8_8  and  C10_10 
ROOT
HETATM    1  C1  UNL     1     -37.046  14.626  -3.790  1.00 20.00     0.128 C 
HETATM    2  C2  UNL     1     -36.515  15.975  -3.272  1.00 20.00     0.088 C 
HETATM    3  C3  UNL     1     -35.623  14.074  -3.987  1.00 20.00     0.088 C 
HETATM    4  C4  UNL     1     -35.109  15.539  -3.799  1.00 20.00    -0.027 C 
HETATM    5  O11 UNL     1     -38.156  14.177  -3.979  1.00 20.00    -0.298 OA
ENDROOT
BRANCH   4   6
HETATM    6  C7  UNL     1     -34.729  16.213  -5.118  1.00 20.00     0.010 C 
BRANCH   6   7
HETATM    7  C9  UNL     1     -33.376  16.907  -5.012  1.00 20.00    -0.004 C 
HETATM    8  C5  UNL     1     -33.527  18.418  -5.071  1.00 20.00     0.005 C 
ENDBRANCH   6   7
ENDBRANCH   4   6
BRANCH   4   9
HETATM    9  C8  UNL     1     -33.999  15.671  -2.762  1.00 20.00     0.010 C 
BRANCH   9  10
HETATM   10  C10 UNL     1     -34.501  16.358  -1.496  1.00 20.00    -0.004 C 
HETATM   11  C6  UNL     1     -33.647  17.565  -1.146  1.00 20.00     0.005 C 
ENDBRANCH   9  10
ENDBRANCH   4   9
TORSDOF 4
ENDMDL
MODEL 6
REMARK VINA RESULT:      -4.1      2.086      4.058
REMARK  4 active torsions:
REMARK  status: ('A' for Active; 'I' for Inactive)
REMARK    1  A    between atoms: C4_4  and  C7_7 
REMARK    2  A    between atoms: C4_4  and  C8_8 
REMARK    3  A    between atoms: C7_7  and  C9_9 
REMARK    4  A    between atoms: C8_8  and  C10_10 
ROOT
HETATM    1  C1  UNL     1     -33.855  17.756  -5.446  1.00 20.00     0.128 C 
HETATM    2  C2  UNL     1     -33.144  16.505  -4.898  1.00 20.00     0.088 C 
HETATM    3  C3  UNL     1     -34.697  17.911  -4.167  1.00 20.00     0.088 C 
HETATM    4  C4  UNL     1     -34.233  16.469  -3.777  1.00 20.00    -0.027 C 
HETATM    5  O11 UNL     1     -33.786  18.374  -6.487  1.00 20.00    -0.298 OA
ENDROOT
BRANCH   4   6
HETATM    6  C7  UNL     1     -35.309  15.409  -4.021  1.00 20.00     0.010 C 
BRANCH   6   7
HETATM    7  C9  UNL     1     -34.791  14.014  -3.691  1.00 20.00    -0.004 C 
HETATM    8  C5  UNL     1     -34.727  13.144  -4.935  1.00 20.00     0.005 C 
ENDBRANCH   6   7
ENDBRANCH   4   6
BRANCH   4   9
HETATM    9  C8  UNL     1     -33.658  16.370  -2.368  1.00 20.00     0.010 C 
BRANCH   9  10
HETATM   10  C10 UNL     1     -34.763  16.382  -1.316  1.00 20.00    -0.004 C 
HETATM   11  C6  UNL     1     -34.462  17.379  -0.210  1.00 20.00     0.005 C 
ENDBRANCH   9  10
ENDBRANCH   4   9
TORSDOF 4
ENDMDL
MODEL 7
REMARK VINA RESULT:      -4.1      2.222      3.674
REMARK  4 active torsions:
REMARK  status: ('A' for Active; 'I' for Inactive)
REMARK    1  A    between atoms: C4_4  and  C7_7 
REMARK    2  A    between atoms: C4_4  and  C8_8 
REMARK    3  A    between atoms: C7_7  and  C9_9 
REMARK    4  A    between atoms: C8_8  and  C10_10 
ROOT
HETATM    1  C1  UNL     1     -34.655  16.659  -1.297  1.00 20.00     0.128 C 
HETATM    2  C2  UNL     1     -35.468  15.962  -2.403  1.00 20.00     0.088 C 
HETATM    3  C3  UNL     1     -33.658  17.241  -2.315  1.00 20.00     0.088 C 
HETATM    4  C4  UNL     1     -34.273  16.260  -3.366  1.00 20.00    -0.027 C 
HETATM    5  O11 UNL     1     -34.756  16.718  -0.091  1.00 20.00    -0.298 OA
ENDROOT
BRANCH   4   6
HETATM    6  C7  UNL     1     -33.394  15.036  -3.627  1.00 20.00     0.010 C 
BRANCH   6   7
HETATM    7  C9  UNL     1     -34.205  13.748  -3.545  1.00 20.00    -0.004 C 
HETATM    8  C5  UNL     1     -34.527  13.212  -4.930  1.00 20.00     0.005 C 
ENDBRANCH   6   7
ENDBRANCH   4   6
BRANCH   4   9
HETATM    9  C8  UNL     1     -34.690  16.938  -4.667  1.00 20.00     0.010 C 
BRANCH   9  10
HETATM   10  C10 UNL     1     -33.692  16.654  -5.785  1.00 20.00    -0.004 C 
HETATM   11  C6  UNL     1     -34.401  16.279  -7.076  1.00 20.00     0.005 C 
ENDBRANCH   9  10
ENDBRANCH   4   9
TORSDOF 4
ENDMDL
MODEL 8
REMARK VINA RESULT:      -4.0      2.004      2.331
REMARK  4 active torsions:
REMARK  status: ('A' for Active; 'I' for Inactive)
REMARK    1  A    between atoms: C4_4  and  C7_7 
REMARK    2  A    between atoms: C4_4  and  C8_8 
REMARK    3  A    between atoms: C7_7  and  C9_9 
REMARK    4  A    between atoms: C8_8  and  C10_10 
ROOT
HETATM    1  C1  UNL     1     -37.491  14.793  -3.866  1.00 20.00     0.128 C 
HETATM    2  C2  UNL     1     -36.135  14.497  -4.533  1.00 20.00     0.088 C 
HETATM    3  C3  UNL     1     -37.032  16.192  -3.418  1.00 20.00     0.088 C 
HETATM    4  C4  UNL     1     -35.577  15.750  -3.783  1.00 20.00    -0.027 C 
HETATM    5  O11 UNL     1     -38.518  14.163  -3.736  1.00 20.00    -0.298 OA
ENDROOT
BRANCH   4   6
HETATM    6  C7  UNL     1     -34.737  15.389  -2.557  1.00 20.00     0.010 C 
BRANCH   6   7
HETATM    7  C9  UNL     1     -34.091  16.628  -1.947  1.00 20.00    -0.004 C 
HETATM    8  C5  UNL     1     -34.600  16.875  -0.536  1.00 20.00     0.005 C 
ENDBRANCH   6   7
ENDBRANCH   4   6
BRANCH   4   9
HETATM    9  C8  UNL     1     -34.847  16.734  -4.692  1.00 20.00     0.010 C 
BRANCH   9  10
HETATM   10  C10 UNL     1     -33.774  16.034  -5.518  1.00 20.00    -0.004 C 
HETATM   11  C6  UNL     1     -34.140  16.009  -6.993  1.00 20.00     0.005 C 
ENDBRANCH   9  10
ENDBRANCH   4   9
TORSDOF 4
ENDMDL
MODEL 9
REMARK VINA RESULT:      -4.0      2.239      4.193
REMARK  4 active torsions:
REMARK  status: ('A' for Active; 'I' for Inactive)
REMARK    1  A    between atoms: C4_4  and  C7_7 
REMARK    2  A    between atoms: C4_4  and  C8_8 
REMARK    3  A    between atoms: C7_7  and  C9_9 
REMARK    4  A    between atoms: C8_8  and  C10_10 
ROOT
HETATM    1  C1  UNL     1     -34.624  16.717  -1.050  1.00 20.00     0.128 C 
HETATM    2  C2  UNL     1     -33.309  16.978  -1.807  1.00 20.00     0.088 C 
HETATM    3  C3  UNL     1     -35.112  15.724  -2.120  1.00 20.00     0.088 C 
HETATM    4  C4  UNL     1     -33.958  16.255  -3.032  1.00 20.00    -0.027 C 
HETATM    5  O11 UNL     1     -35.096  17.138  -0.016  1.00 20.00    -0.298 OA
ENDROOT
BRANCH   4   6
HETATM    6  C7  UNL     1     -34.446  17.225  -4.110  1.00 20.00     0.010 C 
BRANCH   6   7
HETATM    7  C9  UNL     1     -33.545  17.181  -5.338  1.00 20.00    -0.004 C 
HETATM    8  C5  UNL     1     -34.358  17.002  -6.610  1.00 20.00     0.005 C 
ENDBRANCH   6   7
ENDBRANCH   4   6
BRANCH   4   9
HETATM    9  C8  UNL     1     -33.088  15.151  -3.624  1.00 20.00     0.010 C 
BRANCH   9  10
HETATM   10  C10 UNL     1     -33.833  13.821  -3.669  1.00 20.00    -0.004 C 
HETATM   11  C6  UNL     1     -34.449  13.580  -5.037  1.00 20.00     0.005 C 
ENDBRANCH   9  10
ENDBRANCH   4   9
TORSDOF 4
ENDMDL
