MODEL 1
REMARK VINA RESULT:      -4.2      0.000      0.000
REMARK  5 active torsions:
REMARK  status: ('A' for Active; 'I' for Inactive)
REMARK    1  A    between atoms: C4_4  and  C5_5 
REMARK    2  A    between atoms: C4_4  and  O8_8 
REMARK    3  A    between atoms: C5_5  and  S9_9 
REMARK    4  A    between atoms: C6_6  and  C7_7 
REMARK    5  A    between atoms: C7_7  and  O8_8 
ROOT
HETATM    1  C3  UNL     1     -35.738   5.526   3.731  1.00 20.00     0.040 C 
HETATM    2  C7  UNL     1     -34.275   5.459   4.151  1.00 20.00     0.120 C 
ENDROOT
BRANCH   2   3
HETATM    3  C6  UNL     1     -34.078   5.214   5.662  1.00 20.00     0.006 C 
HETATM    4  C1  UNL     1     -35.160   4.309   6.255  1.00 20.00     0.012 C 
HETATM    5  C2  UNL     1     -34.046   6.541   6.431  1.00 20.00     0.012 C 
ENDBRANCH   2   3
BRANCH   2   6
HETATM    6  O8  UNL     1     -33.662   6.704   3.810  1.00 20.00    -0.385 OA
BRANCH   6   7
HETATM    7  C4  UNL     1     -32.496   6.505   3.027  1.00 20.00     0.178 C 
BRANCH   7   8
HETATM    8  C5  UNL     1     -31.699   7.798   2.941  1.00 20.00     0.097 C 
BRANCH   8   9
HETATM    9  S9  UNL     1     -32.070   8.707   1.410  1.00 20.00    -0.180 SA
HETATM   10  H25 UNL     1     -31.039   9.557   1.500  1.00 20.00     0.101 HD
ENDBRANCH   8   9
ENDBRANCH   7   8
ENDBRANCH   6   7
ENDBRANCH   2   6
TORSDOF 5
ENDMDL
MODEL 2
REMARK VINA RESULT:      -4.0      0.695      1.858
REMARK  5 active torsions:
REMARK  status: ('A' for Active; 'I' for Inactive)
REMARK    1  A    between atoms: C4_4  and  C5_5 
REMARK    2  A    between atoms: C4_4  and  O8_8 
REMARK    3  A    between atoms: C5_5  and  S9_9 
REMARK    4  A    between atoms: C6_6  and  C7_7 
REMARK    5  A    between atoms: C7_7  and  O8_8 
ROOT
HETATM    1  C3  UNL     1     -33.647   6.754   6.332  1.00 20.00     0.040 C 
HETATM    2  C7  UNL     1     -33.854   6.459   4.851  1.00 20.00     0.120 C 
ENDROOT
BRANCH   2   3
HETATM    3  C6  UNL     1     -34.640   5.158   4.585  1.00 20.00     0.006 C 
HETATM    4  C1  UNL     1     -35.913   5.398   3.770  1.00 20.00     0.012 C 
HETATM    5  C2  UNL     1     -35.002   4.461   5.903  1.00 20.00     0.012 C 
ENDBRANCH   2   3
BRANCH   2   6
HETATM    6  O8  UNL     1     -32.567   6.346   4.241  1.00 20.00    -0.385 OA
BRANCH   6   7
HETATM    7  C4  UNL     1     -32.597   6.779   2.891  1.00 20.00     0.178 C 
BRANCH   7   8
HETATM    8  C5  UNL     1     -31.786   8.056   2.734  1.00 20.00     0.097 C 
BRANCH   8   9
HETATM    9  S9  UNL     1     -32.152   8.888   1.159  1.00 20.00    -0.180 SA
HETATM   10  H25 UNL     1     -33.291   9.461   1.566  1.00 20.00     0.101 HD
ENDBRANCH   8   9
ENDBRANCH   7   8
ENDBRANCH   6   7
ENDBRANCH   2   6
TORSDOF 5
ENDMDL
MODEL 3
REMARK VINA RESULT:      -3.4     11.877     12.953
REMARK  5 active torsions:
REMARK  status: ('A' for Active; 'I' for Inactive)
REMARK    1  A    between atoms: C4_4  and  C5_5 
REMARK    2  A    between atoms: C4_4  and  O8_8 
REMARK    3  A    between atoms: C5_5  and  S9_9 
REMARK    4  A    between atoms: C6_6  and  C7_7 
REMARK    5  A    between atoms: C7_7  and  O8_8 
ROOT
HETATM    1  C3  UNL     1     -33.363  13.953  -3.788  1.00 20.00     0.040 C 
HETATM    2  C7  UNL     1     -33.259  15.427  -3.417  1.00 20.00     0.120 C 
ENDROOT
BRANCH   2   3
HETATM    3  C6  UNL     1     -34.591  16.036  -2.930  1.00 20.00     0.006 C 
HETATM    4  C1  UNL     1     -34.586  16.331  -1.428  1.00 20.00     0.012 C 
HETATM    5  C2  UNL     1     -35.768  15.110  -3.264  1.00 20.00     0.012 C 
ENDBRANCH   2   3
BRANCH   2   6
HETATM    6  O8  UNL     1     -32.829  16.143  -4.576  1.00 20.00    -0.385 OA
BRANCH   6   7
HETATM    7  C4  UNL     1     -33.503  17.385  -4.692  1.00 20.00     0.178 C 
BRANCH   7   8
HETATM    8  C5  UNL     1     -33.894  17.634  -6.141  1.00 20.00     0.097 C 
BRANCH   8   9
HETATM    9  S9  UNL     1     -34.530  16.121  -6.927  1.00 20.00    -0.180 SA
HETATM   10  H25 UNL     1     -34.701  16.657  -8.142  1.00 20.00     0.101 HD
ENDBRANCH   8   9
ENDBRANCH   7   8
ENDBRANCH   6   7
ENDBRANCH   2   6
TORSDOF 5
ENDMDL
MODEL 4
REMARK VINA RESULT:      -3.4     11.480     12.204
REMARK  5 active torsions:
REMARK  status: ('A' for Active; 'I' for Inactive)
REMARK    1  A    between atoms: C4_4  and  C5_5 
REMARK    2  A    between atoms: C4_4  and  O8_8 
REMARK    3  A    between atoms: C5_5  and  S9_9 
REMARK    4  A    between atoms: C6_6  and  C7_7 
REMARK    5  A    between atoms: C7_7  and  O8_8 
ROOT
HETATM    1  C3  UNL     1     -36.212  16.336  -3.090  1.00 20.00     0.040 C 
HETATM    2  C7  UNL     1     -34.936  15.687  -2.566  1.00 20.00     0.120 C 
ENDROOT
BRANCH   2   3
HETATM    3  C6  UNL     1     -34.078  16.629  -1.696  1.00 20.00     0.006 C 
HETATM    4  C1  UNL     1     -34.731  16.938  -0.346  1.00 20.00     0.012 C 
HETATM    5  C2  UNL     1     -33.790  17.943  -2.434  1.00 20.00     0.012 C 
ENDBRANCH   2   3
BRANCH   2   6
HETATM    6  O8  UNL     1     -34.158  15.275  -3.691  1.00 20.00    -0.385 OA
BRANCH   6   7
HETATM    7  C4  UNL     1     -33.970  13.869  -3.698  1.00 20.00     0.178 C 
BRANCH   7   8
HETATM    8  C5  UNL     1     -34.754  13.243  -4.842  1.00 20.00     0.097 C 
BRANCH   8   9
HETATM    9  S9  UNL     1     -34.973  14.413  -6.217  1.00 20.00    -0.180 SA
HETATM   10  H25 UNL     1     -33.973  13.935  -6.967  1.00 20.00     0.101 HD
ENDBRANCH   8   9
ENDBRANCH   7   8
ENDBRANCH   6   7
ENDBRANCH   2   6
TORSDOF 5
ENDMDL
MODEL 5
REMARK VINA RESULT:      -3.3     11.718     12.529
REMARK  5 active torsions:
REMARK  status: ('A' for Active; 'I' for Inactive)
REMARK    1  A    between atoms: C4_4  and  C5_5 
REMARK    2  A    between atoms: C4_4  and  O8_8 
REMARK    3  A    between atoms: C5_5  and  S9_9 
REMARK    4  A    between atoms: C6_6  and  C7_7 
REMARK    5  A    between atoms: C7_7  and  O8_8 
ROOT
HETATM    1  C3  UNL     1     -36.419  14.324  -4.209  1.00 20.00     0.040 C 
HETATM    2  C7  UNL     1     -35.022  13.753  -3.997  1.00 20.00     0.120 C 
ENDROOT
BRANCH   2   3
HETATM    3  C6  UNL     1     -34.150  14.597  -3.044  1.00 20.00     0.006 C 
HETATM    4  C1  UNL     1     -34.856  15.873  -2.578  1.00 20.00     0.012 C 
HETATM    5  C2  UNL     1     -32.816  14.966  -3.707  1.00 20.00     0.012 C 
ENDBRANCH   2   3
BRANCH   2   6
HETATM    6  O8  UNL     1     -34.374  13.690  -5.268  1.00 20.00    -0.385 OA
BRANCH   6   7
HETATM    7  C4  UNL     1     -35.207  14.201  -6.296  1.00 20.00     0.178 C 
BRANCH   7   8
HETATM    8  C5  UNL     1     -34.417  15.150  -7.185  1.00 20.00     0.097 C 
BRANCH   8   9
HETATM    9  S9  UNL     1     -34.493  16.859  -6.567  1.00 20.00    -0.180 SA
HETATM   10  H25 UNL     1     -35.013  16.551  -5.372  1.00 20.00     0.101 HD
ENDBRANCH   8   9
ENDBRANCH   7   8
ENDBRANCH   6   7
ENDBRANCH   2   6
TORSDOF 5
ENDMDL
MODEL 6
REMARK VINA RESULT:      -3.3     11.699     12.802
REMARK  5 active torsions:
REMARK  status: ('A' for Active; 'I' for Inactive)
REMARK    1  A    between atoms: C4_4  and  C5_5 
REMARK    2  A    between atoms: C4_4  and  O8_8 
REMARK    3  A    between atoms: C5_5  and  S9_9 
REMARK    4  A    between atoms: C6_6  and  C7_7 
REMARK    5  A    between atoms: C7_7  and  O8_8 
ROOT
HETATM    1  C3  UNL     1     -34.422  16.329  -1.805  1.00 20.00     0.040 C 
HETATM    2  C7  UNL     1     -34.514  15.809  -3.234  1.00 20.00     0.120 C 
ENDROOT
BRANCH   2   3
HETATM    3  C6  UNL     1     -34.562  14.269  -3.328  1.00 20.00     0.006 C 
HETATM    4  C1  UNL     1     -33.222  13.666  -3.756  1.00 20.00     0.012 C 
HETATM    5  C2  UNL     1     -35.659  13.816  -4.300  1.00 20.00     0.012 C 
ENDBRANCH   2   3
BRANCH   2   6
HETATM    6  O8  UNL     1     -33.364  16.271  -3.945  1.00 20.00    -0.385 OA
BRANCH   6   7
HETATM    7  C4  UNL     1     -33.633  17.488  -4.622  1.00 20.00     0.178 C 
BRANCH   7   8
HETATM    8  C5  UNL     1     -34.868  17.337  -5.497  1.00 20.00     0.097 C 
BRANCH   8   9
HETATM    9  S9  UNL     1     -34.517  16.339  -6.977  1.00 20.00    -0.180 SA
HETATM   10  H25 UNL     1     -33.351  16.930  -7.269  1.00 20.00     0.101 HD
ENDBRANCH   8   9
ENDBRANCH   7   8
ENDBRANCH   6   7
ENDBRANCH   2   6
TORSDOF 5
ENDMDL
MODEL 7
REMARK VINA RESULT:      -3.3     11.739     12.718
REMARK  5 active torsions:
REMARK  status: ('A' for Active; 'I' for Inactive)
REMARK    1  A    between atoms: C4_4  and  C5_5 
REMARK    2  A    between atoms: C4_4  and  O8_8 
REMARK    3  A    between atoms: C5_5  and  S9_9 
REMARK    4  A    between atoms: C6_6  and  C7_7 
REMARK    5  A    between atoms: C7_7  and  O8_8 
ROOT
HETATM    1  C3  UNL     1     -34.564  16.427  -1.255  1.00 20.00     0.040 C 
HETATM    2  C7  UNL     1     -34.794  15.695  -2.572  1.00 20.00     0.120 C 
ENDROOT
BRANCH   2   3
HETATM    3  C6  UNL     1     -33.490  15.337  -3.315  1.00 20.00     0.006 C 
HETATM    4  C1  UNL     1     -33.228  16.254  -4.512  1.00 20.00     0.012 C 
HETATM    5  C2  UNL     1     -33.514  13.877  -3.786  1.00 20.00     0.012 C 
ENDBRANCH   2   3
BRANCH   2   6
HETATM    6  O8  UNL     1     -35.580  16.540  -3.414  1.00 20.00    -0.385 OA
BRANCH   6   7
HETATM    7  C4  UNL     1     -36.938  16.131  -3.430  1.00 20.00     0.178 C 
BRANCH   7   8
HETATM    8  C5  UNL     1     -37.097  14.883  -4.285  1.00 20.00     0.097 C 
BRANCH   8   9
HETATM    9  S9  UNL     1     -36.616  15.194  -6.011  1.00 20.00    -0.180 SA
HETATM   10  H25 UNL     1     -35.321  14.896  -5.850  1.00 20.00     0.101 HD
ENDBRANCH   8   9
ENDBRANCH   7   8
ENDBRANCH   6   7
ENDBRANCH   2   6
TORSDOF 5
ENDMDL
MODEL 8
REMARK VINA RESULT:      -3.3     11.849     13.184
REMARK  5 active torsions:
REMARK  status: ('A' for Active; 'I' for Inactive)
REMARK    1  A    between atoms: C4_4  and  C5_5 
REMARK    2  A    between atoms: C4_4  and  O8_8 
REMARK    3  A    between atoms: C5_5  and  S9_9 
REMARK    4  A    between atoms: C6_6  and  C7_7 
REMARK    5  A    between atoms: C7_7  and  O8_8 
ROOT
HETATM    1  C3  UNL     1     -33.629  17.419  -5.278  1.00 20.00     0.040 C 
HETATM    2  C7  UNL     1     -33.351  15.956  -4.955  1.00 20.00     0.120 C 
ENDROOT
BRANCH   2   3
HETATM    3  C6  UNL     1     -34.462  14.997  -5.431  1.00 20.00     0.006 C 
HETATM    4  C1  UNL     1     -34.319  13.593  -4.839  1.00 20.00     0.012 C 
HETATM    5  C2  UNL     1     -34.483  14.904  -6.963  1.00 20.00     0.012 C 
ENDBRANCH   2   3
BRANCH   2   6
HETATM    6  O8  UNL     1     -33.223  15.835  -3.537  1.00 20.00    -0.385 OA
BRANCH   6   7
HETATM    7  C4  UNL     1     -33.992  16.820  -2.866  1.00 20.00     0.178 C 
BRANCH   7   8
HETATM    8  C5  UNL     1     -34.721  16.197  -1.685  1.00 20.00     0.097 C 
BRANCH   8   9
HETATM    9  S9  UNL     1     -34.667  17.280  -0.224  1.00 20.00    -0.180 SA
HETATM   10  H25 UNL     1     -35.935  17.698  -0.315  1.00 20.00     0.101 HD
ENDBRANCH   8   9
ENDBRANCH   7   8
ENDBRANCH   6   7
ENDBRANCH   2   6
TORSDOF 5
ENDMDL
MODEL 9
REMARK VINA RESULT:      -3.2      9.248     10.547
REMARK  5 active torsions:
REMARK  status: ('A' for Active; 'I' for Inactive)
REMARK    1  A    between atoms: C4_4  and  C5_5 
REMARK    2  A    between atoms: C4_4  and  O8_8 
REMARK    3  A    between atoms: C5_5  and  S9_9 
REMARK    4  A    between atoms: C6_6  and  C7_7 
REMARK    5  A    between atoms: C7_7  and  O8_8 
ROOT
HETATM    1  C3  UNL     1     -41.829   3.422  -2.577  1.00 20.00     0.040 C 
HETATM    2  C7  UNL     1     -41.668   4.814  -1.977  1.00 20.00     0.120 C 
ENDROOT
BRANCH   2   3
HETATM    3  C6  UNL     1     -41.218   4.801  -0.501  1.00 20.00     0.006 C 
HETATM    4  C1  UNL     1     -42.356   4.437   0.455  1.00 20.00     0.012 C 
HETATM    5  C2  UNL     1     -40.630   6.160  -0.099  1.00 20.00     0.012 C 
ENDBRANCH   2   3
BRANCH   2   6
HETATM    6  O8  UNL     1     -42.930   5.478  -2.062  1.00 20.00    -0.385 OA
BRANCH   6   7
HETATM    7  C4  UNL     1     -43.037   6.230  -3.259  1.00 20.00     0.178 C 
BRANCH   7   8
HETATM    8  C5  UNL     1     -42.274   7.539  -3.123  1.00 20.00     0.097 C 
BRANCH   8   9
HETATM    9  S9  UNL     1     -42.540   8.617  -4.563  1.00 20.00    -0.180 SA
HETATM   10  H25 UNL     1     -43.626   7.978  -5.016  1.00 20.00     0.101 HD
ENDBRANCH   8   9
ENDBRANCH   7   8
ENDBRANCH   6   7
ENDBRANCH   2   6
TORSDOF 5
ENDMDL
