MODEL 1
REMARK VINA RESULT:      -5.2      0.000      0.000
REMARK  3 active torsions:
REMARK  status: ('A' for Active; 'I' for Inactive)
REMARK    1  A    between atoms: C3_3  and  C6_6 
REMARK    2  A    between atoms: C4_4  and  O8_8 
REMARK    3  A    between atoms: C6_6  and  C7_7 
ROOT
HETATM    1  C1  UNL     1     -33.933   5.680   5.225  1.00 20.00     0.036 C 
HETATM    2  C2  UNL     1     -34.653   5.195   3.275  1.00 20.00     0.036 C 
HETATM    3  C3  UNL     1     -33.731   6.310   3.825  1.00 20.00    -0.010 C 
HETATM    4  C4  UNL     1     -35.256   5.078   4.695  1.00 20.00     0.118 C 
ENDROOT
BRANCH   3   5
HETATM    5  C6  UNL     1     -32.314   6.341   3.294  1.00 20.00     0.004 C 
BRANCH   5   6
HETATM    6  C7  UNL     1     -31.792   7.772   3.156  1.00 20.00    -0.004 C 
HETATM    7  C5  UNL     1     -32.064   8.338   1.771  1.00 20.00     0.005 C 
ENDBRANCH   5   6
ENDBRANCH   3   5
BRANCH   4   8
HETATM    8  O8  UNL     1     -35.564   3.748   5.146  1.00 20.00    -0.396 OA
HETATM    9  H22 UNL     1     -36.321   3.839   5.740  1.00 20.00     0.210 HD
ENDBRANCH   4   8
TORSDOF 3
ENDMDL
MODEL 2
REMARK VINA RESULT:      -4.4      2.485      4.256
REMARK  3 active torsions:
REMARK  status: ('A' for Active; 'I' for Inactive)
REMARK    1  A    between atoms: C3_3  and  C6_6 
REMARK    2  A    between atoms: C4_4  and  O8_8 
REMARK    3  A    between atoms: C6_6  and  C7_7 
ROOT
HETATM    1  C1  UNL     1     -33.569   7.452   3.664  1.00 20.00     0.036 C 
HETATM    2  C2  UNL     1     -32.430   5.808   2.920  1.00 20.00     0.036 C 
HETATM    3  C3  UNL     1     -33.512   5.946   4.018  1.00 20.00    -0.010 C 
HETATM    4  C4  UNL     1     -32.130   7.314   3.112  1.00 20.00     0.118 C 
ENDROOT
BRANCH   3   5
HETATM    5  C6  UNL     1     -34.787   5.154   3.816  1.00 20.00     0.004 C 
BRANCH   5   6
HETATM    6  C7  UNL     1     -35.139   4.325   5.052  1.00 20.00    -0.004 C 
HETATM    7  C5  UNL     1     -34.736   5.031   6.337  1.00 20.00     0.005 C 
ENDBRANCH   5   6
ENDBRANCH   3   5
BRANCH   4   8
HETATM    8  O8  UNL     1     -31.843   8.060   1.917  1.00 20.00    -0.396 OA
HETATM    9  H22 UNL     1     -32.510   7.792   1.272  1.00 20.00     0.210 HD
ENDBRANCH   4   8
TORSDOF 3
ENDMDL
MODEL 3
REMARK VINA RESULT:      -4.4     11.035     11.689
REMARK  3 active torsions:
REMARK  status: ('A' for Active; 'I' for Inactive)
REMARK    1  A    between atoms: C3_3  and  C6_6 
REMARK    2  A    between atoms: C4_4  and  O8_8 
REMARK    3  A    between atoms: C6_6  and  C7_7 
ROOT
HETATM    1  C1  UNL     1     -35.296  15.022  -3.964  1.00 20.00     0.036 C 
HETATM    2  C2  UNL     1     -33.413  14.062  -3.674  1.00 20.00     0.036 C 
HETATM    3  C3  UNL     1     -33.857  15.543  -3.736  1.00 20.00    -0.010 C 
HETATM    4  C4  UNL     1     -34.672  13.714  -4.503  1.00 20.00     0.118 C 
ENDROOT
BRANCH   3   5
HETATM    5  C6  UNL     1     -33.625  16.373  -2.491  1.00 20.00     0.004 C 
BRANCH   5   6
HETATM    6  C7  UNL     1     -34.787  16.248  -1.504  1.00 20.00    -0.004 C 
HETATM    7  C5  UNL     1     -34.579  17.124  -0.278  1.00 20.00     0.005 C 
ENDBRANCH   5   6
ENDBRANCH   3   5
BRANCH   4   8
HETATM    8  O8  UNL     1     -35.352  12.500  -4.144  1.00 20.00    -0.396 OA
HETATM    9  H22 UNL     1     -36.114  12.439  -4.735  1.00 20.00     0.210 HD
ENDBRANCH   4   8
TORSDOF 3
ENDMDL
MODEL 4
REMARK VINA RESULT:      -4.2      1.096      1.731
REMARK  3 active torsions:
REMARK  status: ('A' for Active; 'I' for Inactive)
REMARK    1  A    between atoms: C3_3  and  C6_6 
REMARK    2  A    between atoms: C4_4  and  O8_8 
REMARK    3  A    between atoms: C6_6  and  C7_7 
ROOT
HETATM    1  C1  UNL     1     -33.617   5.798   2.677  1.00 20.00     0.036 C 
HETATM    2  C2  UNL     1     -33.701   6.420   4.716  1.00 20.00     0.036 C 
HETATM    3  C3  UNL     1     -32.562   6.337   3.673  1.00 20.00    -0.010 C 
HETATM    4  C4  UNL     1     -34.446   5.338   3.899  1.00 20.00     0.118 C 
ENDROOT
BRANCH   3   5
HETATM    5  C6  UNL     1     -31.884   7.639   3.303  1.00 20.00     0.004 C 
BRANCH   5   6
HETATM    6  C7  UNL     1     -32.075   7.977   1.823  1.00 20.00    -0.004 C 
HETATM    7  C5  UNL     1     -32.399   9.449   1.619  1.00 20.00     0.005 C 
ENDBRANCH   5   6
ENDBRANCH   3   5
BRANCH   4   8
HETATM    8  O8  UNL     1     -35.870   5.496   3.787  1.00 20.00    -0.396 OA
HETATM    9  H22 UNL     1     -36.254   4.669   4.107  1.00 20.00     0.210 HD
ENDBRANCH   4   8
TORSDOF 3
ENDMDL
MODEL 5
REMARK VINA RESULT:      -4.0      0.890      1.383
REMARK  3 active torsions:
REMARK  status: ('A' for Active; 'I' for Inactive)
REMARK    1  A    between atoms: C3_3  and  C6_6 
REMARK    2  A    between atoms: C4_4  and  O8_8 
REMARK    3  A    between atoms: C6_6  and  C7_7 
ROOT
HETATM    1  C1  UNL     1     -34.501   5.030   3.864  1.00 20.00     0.036 C 
HETATM    2  C2  UNL     1     -33.732   6.241   5.444  1.00 20.00     0.036 C 
HETATM    3  C3  UNL     1     -33.328   6.035   3.964  1.00 20.00    -0.010 C 
HETATM    4  C4  UNL     1     -34.389   4.842   5.396  1.00 20.00     0.118 C 
ENDROOT
BRANCH   3   5
HETATM    5  C6  UNL     1     -33.399   7.252   3.066  1.00 20.00     0.004 C 
BRANCH   5   6
HETATM    6  C7  UNL     1     -32.014   7.677   2.577  1.00 20.00    -0.004 C 
HETATM    7  C5  UNL     1     -32.103   8.695   1.451  1.00 20.00     0.005 C 
ENDBRANCH   5   6
ENDBRANCH   3   5
BRANCH   4   8
HETATM    8  O8  UNL     1     -35.633   4.701   6.102  1.00 20.00    -0.396 OA
HETATM    9  H22 UNL     1     -36.300   4.515   5.427  1.00 20.00     0.210 HD
ENDBRANCH   4   8
TORSDOF 3
ENDMDL
MODEL 6
REMARK VINA RESULT:      -3.8     12.118     12.926
REMARK  3 active torsions:
REMARK  status: ('A' for Active; 'I' for Inactive)
REMARK    1  A    between atoms: C3_3  and  C6_6 
REMARK    2  A    between atoms: C4_4  and  O8_8 
REMARK    3  A    between atoms: C6_6  and  C7_7 
ROOT
HETATM    1  C1  UNL     1     -34.271  17.026  -4.138  1.00 20.00     0.036 C 
HETATM    2  C2  UNL     1     -33.160  15.285  -3.601  1.00 20.00     0.036 C 
HETATM    3  C3  UNL     1     -33.750  16.465  -2.793  1.00 20.00    -0.010 C 
HETATM    4  C4  UNL     1     -33.155  16.214  -4.838  1.00 20.00     0.118 C 
ENDROOT
BRANCH   3   5
HETATM    5  C6  UNL     1     -34.795  16.120  -1.753  1.00 20.00     0.004 C 
BRANCH   5   6
HETATM    6  C7  UNL     1     -34.601  16.925  -0.466  1.00 20.00    -0.004 C 
HETATM    7  C5  UNL     1     -33.468  17.931  -0.598  1.00 20.00     0.005 C 
ENDBRANCH   5   6
ENDBRANCH   3   5
BRANCH   4   8
HETATM    8  O8  UNL     1     -33.513  15.606  -6.089  1.00 20.00    -0.396 OA
HETATM    9  H22 UNL     1     -34.265  15.029  -5.897  1.00 20.00     0.210 HD
ENDBRANCH   4   8
TORSDOF 3
ENDMDL
MODEL 7
REMARK VINA RESULT:      -3.6      8.938     10.387
REMARK  3 active torsions:
REMARK  status: ('A' for Active; 'I' for Inactive)
REMARK    1  A    between atoms: C3_3  and  C6_6 
REMARK    2  A    between atoms: C4_4  and  O8_8 
REMARK    3  A    between atoms: C6_6  and  C7_7 
ROOT
HETATM    1  C1  UNL     1     -41.983   6.094  -2.150  1.00 20.00     0.036 C 
HETATM    2  C2  UNL     1     -40.739   5.597  -0.489  1.00 20.00     0.036 C 
HETATM    3  C3  UNL     1     -41.660   4.769  -1.417  1.00 20.00    -0.010 C 
HETATM    4  C4  UNL     1     -41.591   6.837  -0.851  1.00 20.00     0.118 C 
ENDROOT
BRANCH   3   5
HETATM    5  C6  UNL     1     -40.996   3.685  -2.238  1.00 20.00     0.004 C 
BRANCH   5   6
HETATM    6  C7  UNL     1     -42.023   2.824  -2.976  1.00 20.00    -0.004 C 
HETATM    7  C5  UNL     1     -41.354   1.806  -3.886  1.00 20.00     0.005 C 
ENDBRANCH   5   6
ENDBRANCH   3   5
BRANCH   4   8
HETATM    8  O8  UNL     1     -40.874   8.070  -1.026  1.00 20.00    -0.396 OA
HETATM    9  H22 UNL     1     -40.610   8.350  -0.140  1.00 20.00     0.210 HD
ENDBRANCH   4   8
TORSDOF 3
ENDMDL
MODEL 8
REMARK VINA RESULT:      -3.6     10.789     12.347
REMARK  3 active torsions:
REMARK  status: ('A' for Active; 'I' for Inactive)
REMARK    1  A    between atoms: C3_3  and  C6_6 
REMARK    2  A    between atoms: C4_4  and  O8_8 
REMARK    3  A    between atoms: C6_6  and  C7_7 
ROOT
HETATM    1  C1  UNL     1     -33.202  14.440  -3.860  1.00 20.00     0.036 C 
HETATM    2  C2  UNL     1     -35.247  14.884  -3.443  1.00 20.00     0.036 C 
HETATM    3  C3  UNL     1     -33.913  15.597  -3.117  1.00 20.00    -0.010 C 
HETATM    4  C4  UNL     1     -34.444  13.567  -3.560  1.00 20.00     0.118 C 
ENDROOT
BRANCH   3   5
HETATM    5  C6  UNL     1     -33.728  16.986  -3.692  1.00 20.00     0.004 C 
BRANCH   5   6
HETATM    6  C7  UNL     1     -33.313  16.938  -5.164  1.00 20.00    -0.004 C 
HETATM    7  C5  UNL     1     -34.414  17.454  -6.076  1.00 20.00     0.005 C 
ENDBRANCH   5   6
ENDBRANCH   3   5
BRANCH   4   8
HETATM    8  O8  UNL     1     -34.847  12.670  -4.608  1.00 20.00    -0.396 OA
HETATM    9  H22 UNL     1     -34.644  13.124  -5.437  1.00 20.00     0.210 HD
ENDBRANCH   4   8
TORSDOF 3
ENDMDL
MODEL 9
REMARK VINA RESULT:      -3.6     11.533     12.444
REMARK  3 active torsions:
REMARK  status: ('A' for Active; 'I' for Inactive)
REMARK    1  A    between atoms: C3_3  and  C6_6 
REMARK    2  A    between atoms: C4_4  and  O8_8 
REMARK    3  A    between atoms: C6_6  and  C7_7 
ROOT
HETATM    1  C1  UNL     1     -35.048  15.261  -3.129  1.00 20.00     0.036 C 
HETATM    2  C2  UNL     1     -32.984  15.135  -3.655  1.00 20.00     0.036 C 
HETATM    3  C3  UNL     1     -34.132  14.100  -3.586  1.00 20.00    -0.010 C 
HETATM    4  C4  UNL     1     -33.776  15.990  -2.637  1.00 20.00     0.118 C 
ENDROOT
BRANCH   3   5
HETATM    5  C6  UNL     1     -34.505  13.413  -4.882  1.00 20.00     0.004 C 
BRANCH   5   6
HETATM    6  C7  UNL     1     -35.336  14.324  -5.788  1.00 20.00    -0.004 C 
HETATM    7  C5  UNL     1     -34.530  14.817  -6.980  1.00 20.00     0.005 C 
ENDBRANCH   5   6
ENDBRANCH   3   5
BRANCH   4   8
HETATM    8  O8  UNL     1     -33.748  17.412  -2.846  1.00 20.00    -0.396 OA
HETATM    9  H22 UNL     1     -34.405  17.781  -2.241  1.00 20.00     0.210 HD
ENDBRANCH   4   8
TORSDOF 3
ENDMDL
