MODEL 1
REMARK VINA RESULT:      -4.7      0.000      0.000
REMARK  1 active torsions:
REMARK  status: ('A' for Active; 'I' for Inactive)
REMARK    1  A    between atoms: C6_6  and  O8_8 
ROOT
HETATM    1  C1  UNL     1     -32.035   6.837   3.266  1.00 20.00     0.002 C 
HETATM    2  C2  UNL     1     -33.453   7.440   3.441  1.00 20.00     0.010 C 
HETATM    3  C3  UNL     1     -32.695   5.435   3.209  1.00 20.00     0.010 C 
HETATM    4  C4  UNL     1     -34.081   5.810   5.369  1.00 20.00     0.041 C 
HETATM    5  C5  UNL     1     -35.269   5.568   3.565  1.00 20.00     0.041 C 
HETATM    6  C6  UNL     1     -35.308   4.938   4.985  1.00 20.00     0.119 C 
HETATM    7  C7  UNL     1     -33.889   6.069   3.892  1.00 20.00    -0.036 C 
ENDROOT
BRANCH   6   8
HETATM    8  O8  UNL     1     -35.120   3.511   5.051  1.00 20.00    -0.396 OA
HETATM    9  H20 UNL     1     -35.725   3.135   4.399  1.00 20.00     0.210 HD
ENDBRANCH   6   8
TORSDOF 1
ENDMDL
MODEL 2
REMARK VINA RESULT:      -4.5      2.062      3.405
REMARK  1 active torsions:
REMARK  status: ('A' for Active; 'I' for Inactive)
REMARK    1  A    between atoms: C6_6  and  O8_8 
ROOT
HETATM    1  C1  UNL     1     -34.874   4.778   5.977  1.00 20.00     0.002 C 
HETATM    2  C2  UNL     1     -35.290   5.008   4.501  1.00 20.00     0.010 C 
HETATM    3  C3  UNL     1     -34.027   6.073   5.886  1.00 20.00     0.010 C 
HETATM    4  C4  UNL     1     -32.838   5.347   3.697  1.00 20.00     0.041 C 
HETATM    5  C5  UNL     1     -34.101   7.105   3.497  1.00 20.00     0.041 C 
HETATM    6  C6  UNL     1     -32.643   6.761   3.086  1.00 20.00     0.119 C 
HETATM    7  C7  UNL     1     -34.072   5.889   4.383  1.00 20.00    -0.036 C 
ENDROOT
BRANCH   6   8
HETATM    8  O8  UNL     1     -31.609   7.573   3.676  1.00 20.00    -0.396 OA
HETATM    9  H20 UNL     1     -30.980   6.954   4.069  1.00 20.00     0.210 HD
ENDBRANCH   6   8
TORSDOF 1
ENDMDL
MODEL 3
REMARK VINA RESULT:      -4.2     11.409     12.277
REMARK  1 active torsions:
REMARK  status: ('A' for Active; 'I' for Inactive)
REMARK    1  A    between atoms: C6_6  and  O8_8 
ROOT
HETATM    1  C1  UNL     1     -34.384  17.068  -2.709  1.00 20.00     0.002 C 
HETATM    2  C2  UNL     1     -33.312  16.522  -3.687  1.00 20.00     0.010 C 
HETATM    3  C3  UNL     1     -34.747  15.600  -2.369  1.00 20.00     0.010 C 
HETATM    4  C4  UNL     1     -34.976  14.899  -4.856  1.00 20.00     0.041 C 
HETATM    5  C5  UNL     1     -33.361  13.913  -3.786  1.00 20.00     0.041 C 
HETATM    6  C6  UNL     1     -34.517  13.424  -4.701  1.00 20.00     0.119 C 
HETATM    7  C7  UNL     1     -34.085  15.228  -3.679  1.00 20.00    -0.036 C 
ENDROOT
BRANCH   6   8
HETATM    8  O8  UNL     1     -35.465  12.522  -4.097  1.00 20.00    -0.396 OA
HETATM    9  H20 UNL     1     -34.940  11.841  -3.658  1.00 20.00     0.210 HD
ENDBRANCH   6   8
TORSDOF 1
ENDMDL
MODEL 4
REMARK VINA RESULT:      -4.0      1.661      3.119
REMARK  1 active torsions:
REMARK  status: ('A' for Active; 'I' for Inactive)
REMARK    1  A    between atoms: C6_6  and  O8_8 
ROOT
HETATM    1  C1  UNL     1     -35.120   4.541   6.675  1.00 20.00     0.002 C 
HETATM    2  C2  UNL     1     -34.546   5.938   6.323  1.00 20.00     0.010 C 
HETATM    3  C3  UNL     1     -34.393   3.984   5.425  1.00 20.00     0.010 C 
HETATM    4  C4  UNL     1     -35.336   5.815   3.847  1.00 20.00     0.041 C 
HETATM    5  C5  UNL     1     -33.178   5.866   4.100  1.00 20.00     0.041 C 
HETATM    6  C6  UNL     1     -34.130   5.893   2.872  1.00 20.00     0.119 C 
HETATM    7  C7  UNL     1     -34.353   5.412   4.923  1.00 20.00    -0.036 C 
ENDROOT
BRANCH   6   8
HETATM    8  O8  UNL     1     -33.994   4.803   1.940  1.00 20.00    -0.396 OA
HETATM    9  H20 UNL     1     -34.503   5.058   1.159  1.00 20.00     0.210 HD
ENDBRANCH   6   8
TORSDOF 1
ENDMDL
MODEL 5
REMARK VINA RESULT:      -3.8     11.622     12.782
REMARK  1 active torsions:
REMARK  status: ('A' for Active; 'I' for Inactive)
REMARK    1  A    between atoms: C6_6  and  O8_8 
ROOT
HETATM    1  C1  UNL     1     -33.410  17.259  -5.261  1.00 20.00     0.002 C 
HETATM    2  C2  UNL     1     -33.898  17.009  -3.811  1.00 20.00     0.010 C 
HETATM    3  C3  UNL     1     -34.251  16.033  -5.700  1.00 20.00     0.010 C 
HETATM    4  C4  UNL     1     -33.269  14.484  -3.865  1.00 20.00     0.041 C 
HETATM    5  C5  UNL     1     -35.398  14.876  -3.671  1.00 20.00     0.041 C 
HETATM    6  C6  UNL     1     -34.523  13.593  -3.650  1.00 20.00     0.119 C 
HETATM    7  C7  UNL     1     -34.214  15.601  -4.249  1.00 20.00    -0.036 C 
ENDROOT
BRANCH   6   8
HETATM    8  O8  UNL     1     -34.796  12.621  -4.679  1.00 20.00    -0.396 OA
HETATM    9  H20 UNL     1     -35.611  12.176  -4.412  1.00 20.00     0.210 HD
ENDBRANCH   6   8
TORSDOF 1
ENDMDL
MODEL 6
REMARK VINA RESULT:      -3.8     11.608     12.435
REMARK  1 active torsions:
REMARK  status: ('A' for Active; 'I' for Inactive)
REMARK    1  A    between atoms: C6_6  and  O8_8 
ROOT
HETATM    1  C1  UNL     1     -33.685  16.854  -2.398  1.00 20.00     0.002 C 
HETATM    2  C2  UNL     1     -33.312  15.922  -3.580  1.00 20.00     0.010 C 
HETATM    3  C3  UNL     1     -34.832  15.870  -2.052  1.00 20.00     0.010 C 
HETATM    4  C4  UNL     1     -35.752  15.818  -4.476  1.00 20.00     0.041 C 
HETATM    5  C5  UNL     1     -34.975  13.917  -3.765  1.00 20.00     0.041 C 
HETATM    6  C6  UNL     1     -36.289  14.361  -4.466  1.00 20.00     0.119 C 
HETATM    7  C7  UNL     1     -34.711  15.370  -3.476  1.00 20.00    -0.036 C 
ENDROOT
BRANCH   6   8
HETATM    8  O8  UNL     1     -37.507  14.136  -3.729  1.00 20.00    -0.396 OA
HETATM    9  H20 UNL     1     -37.256  13.615  -2.956  1.00 20.00     0.210 HD
ENDBRANCH   6   8
TORSDOF 1
ENDMDL
MODEL 7
REMARK VINA RESULT:      -3.8     11.535     12.308
REMARK  1 active torsions:
REMARK  status: ('A' for Active; 'I' for Inactive)
REMARK    1  A    between atoms: C6_6  and  O8_8 
ROOT
HETATM    1  C1  UNL     1     -33.740  16.940  -2.451  1.00 20.00     0.002 C 
HETATM    2  C2  UNL     1     -34.769  15.947  -1.851  1.00 20.00     0.010 C 
HETATM    3  C3  UNL     1     -34.263  16.552  -3.858  1.00 20.00     0.010 C 
HETATM    4  C4  UNL     1     -34.050  14.003  -3.424  1.00 20.00     0.041 C 
HETATM    5  C5  UNL     1     -36.086  14.699  -3.729  1.00 20.00     0.041 C 
HETATM    6  C6  UNL     1     -35.235  13.539  -4.315  1.00 20.00     0.119 C 
HETATM    7  C7  UNL     1     -34.806  15.295  -3.210  1.00 20.00    -0.036 C 
ENDROOT
BRANCH   6   8
HETATM    8  O8  UNL     1     -35.012  13.572  -5.738  1.00 20.00    -0.396 OA
HETATM    9  H20 UNL     1     -35.804  13.971  -6.120  1.00 20.00     0.210 HD
ENDBRANCH   6   8
TORSDOF 1
ENDMDL
MODEL 8
REMARK VINA RESULT:      -3.7      8.454      9.869
REMARK  1 active torsions:
REMARK  status: ('A' for Active; 'I' for Inactive)
REMARK    1  A    between atoms: C6_6  and  O8_8 
ROOT
HETATM    1  C1  UNL     1     -43.389   3.801  -0.029  1.00 20.00     0.002 C 
HETATM    2  C2  UNL     1     -42.701   4.743   0.992  1.00 20.00     0.010 C 
HETATM    3  C3  UNL     1     -42.339   4.254  -1.075  1.00 20.00     0.010 C 
HETATM    4  C4  UNL     1     -42.728   6.779  -0.628  1.00 20.00     0.041 C 
HETATM    5  C5  UNL     1     -40.740   6.067  -0.112  1.00 20.00     0.041 C 
HETATM    6  C6  UNL     1     -41.286   7.270  -0.930  1.00 20.00     0.119 C 
HETATM    7  C7  UNL     1     -42.117   5.466  -0.195  1.00 20.00    -0.036 C 
ENDROOT
BRANCH   6   8
HETATM    8  O8  UNL     1     -40.907   7.316  -2.320  1.00 20.00    -0.396 OA
HETATM    9  H20 UNL     1     -40.144   7.905  -2.366  1.00 20.00     0.210 HD
ENDBRANCH   6   8
TORSDOF 1
ENDMDL
MODEL 9
REMARK VINA RESULT:      -3.7     11.823     13.038
REMARK  1 active torsions:
REMARK  status: ('A' for Active; 'I' for Inactive)
REMARK    1  A    between atoms: C6_6  and  O8_8 
ROOT
HETATM    1  C1  UNL     1     -36.085  15.062  -6.342  1.00 20.00     0.002 C 
HETATM    2  C2  UNL     1     -36.261  14.718  -4.840  1.00 20.00     0.010 C 
HETATM    3  C3  UNL     1     -34.614  14.588  -6.225  1.00 20.00     0.010 C 
HETATM    4  C4  UNL     1     -34.134  16.034  -4.125  1.00 20.00     0.041 C 
HETATM    5  C5  UNL     1     -34.019  13.890  -3.789  1.00 20.00     0.041 C 
HETATM    6  C6  UNL     1     -33.095  15.093  -3.456  1.00 20.00     0.119 C 
HETATM    7  C7  UNL     1     -34.760  14.799  -4.732  1.00 20.00    -0.036 C 
ENDROOT
BRANCH   6   8
HETATM    8  O8  UNL     1     -31.783  15.069  -4.050  1.00 20.00    -0.396 OA
HETATM    9  H20 UNL     1     -31.630  14.153  -4.315  1.00 20.00     0.210 HD
ENDBRANCH   6   8
TORSDOF 1
ENDMDL
