MODEL 1
REMARK VINA RESULT:      -3.3      0.000      0.000
REMARK  4 active torsions:
REMARK  status: ('A' for Active; 'I' for Inactive)
REMARK    1  A    between atoms: C3_3  and  C6_6 
REMARK    2  A    between atoms: C5_5  and  C6_6 
REMARK    3  A    between atoms: C5_5  and  O7_7 
REMARK    4  A    between atoms: C6_6  and  S8_8 
ROOT
HETATM    1  C6  UNL     1     -33.351   5.846   4.107  1.00 20.00     0.072 C 
ENDROOT
BRANCH   1   2
HETATM    2  C3  UNL     1     -34.337   6.283   5.186  1.00 20.00     0.001 A 
HETATM    3  C1  UNL     1     -34.611   5.392   6.366  1.00 20.00     0.006 A 
HETATM    4  C2  UNL     1     -33.839   6.668   6.551  1.00 20.00     0.006 A 
ENDBRANCH   1   2
BRANCH   1   5
HETATM    5  C5  UNL     1     -32.362   6.952   3.732  1.00 20.00     0.182 C 
BRANCH   5   6
HETATM    6  O7  UNL     1     -32.253   7.093   2.321  1.00 20.00    -0.395 OA
HETATM    7  C4  UNL     1     -32.081   8.453   1.945  1.00 20.00     0.201 C 
ENDBRANCH   5   6
ENDBRANCH   1   5
BRANCH   1   8
HETATM    8  S8  UNL     1     -34.279   5.299   2.628  1.00 20.00    -0.175 SA
HETATM    9  H20 UNL     1     -34.933   6.453   2.452  1.00 20.00     0.102 HD
ENDBRANCH   1   8
TORSDOF 4
ENDMDL
MODEL 2
REMARK VINA RESULT:      -3.3     11.415     12.035
REMARK  4 active torsions:
REMARK  status: ('A' for Active; 'I' for Inactive)
REMARK    1  A    between atoms: C3_3  and  C6_6 
REMARK    2  A    between atoms: C5_5  and  C6_6 
REMARK    3  A    between atoms: C5_5  and  O7_7 
REMARK    4  A    between atoms: C6_6  and  S8_8 
ROOT
HETATM    1  C6  UNL     1     -35.371  15.151  -3.752  1.00 20.00     0.072 C 
ENDROOT
BRANCH   1   2
HETATM    2  C3  UNL     1     -34.421  15.383  -2.580  1.00 20.00     0.001 A 
HETATM    3  C1  UNL     1     -33.686  16.688  -2.448  1.00 20.00     0.006 A 
HETATM    4  C2  UNL     1     -34.791  16.348  -1.488  1.00 20.00     0.006 A 
ENDBRANCH   1   2
BRANCH   1   5
HETATM    5  C5  UNL     1     -36.839  15.339  -3.364  1.00 20.00     0.182 C 
BRANCH   5   6
HETATM    6  O7  UNL     1     -37.630  14.232  -3.779  1.00 20.00    -0.395 OA
HETATM    7  C4  UNL     1     -38.926  14.644  -4.192  1.00 20.00     0.201 C 
ENDBRANCH   5   6
ENDBRANCH   1   5
BRANCH   1   8
HETATM    8  S8  UNL     1     -35.103  13.471  -4.422  1.00 20.00    -0.175 SA
HETATM    9  H20 UNL     1     -36.364  13.293  -4.834  1.00 20.00     0.102 HD
ENDBRANCH   1   8
TORSDOF 4
ENDMDL
MODEL 3
REMARK VINA RESULT:      -3.3     11.507     12.048
REMARK  4 active torsions:
REMARK  status: ('A' for Active; 'I' for Inactive)
REMARK    1  A    between atoms: C3_3  and  C6_6 
REMARK    2  A    between atoms: C5_5  and  C6_6 
REMARK    3  A    between atoms: C5_5  and  O7_7 
REMARK    4  A    between atoms: C6_6  and  S8_8 
ROOT
HETATM    1  C6  UNL     1     -34.080  15.759  -3.919  1.00 20.00     0.072 C 
ENDROOT
BRANCH   1   2
HETATM    2  C3  UNL     1     -34.103  16.733  -2.745  1.00 20.00     0.001 A 
HETATM    3  C1  UNL     1     -35.412  17.236  -2.204  1.00 20.00     0.006 A 
HETATM    4  C2  UNL     1     -34.583  16.277  -1.395  1.00 20.00     0.006 A 
ENDBRANCH   1   2
BRANCH   1   5
HETATM    5  C5  UNL     1     -33.225  14.521  -3.639  1.00 20.00     0.182 C 
BRANCH   5   6
HETATM    6  O7  UNL     1     -34.031  13.359  -3.486  1.00 20.00    -0.395 OA
HETATM    7  C4  UNL     1     -35.191  13.418  -4.305  1.00 20.00     0.201 C 
ENDBRANCH   5   6
ENDBRANCH   1   5
BRANCH   1   8
HETATM    8  S8  UNL     1     -33.470  16.625  -5.410  1.00 20.00    -0.175 SA
HETATM    9  H20 UNL     1     -34.132  17.765  -5.177  1.00 20.00     0.102 HD
ENDBRANCH   1   8
TORSDOF 4
ENDMDL
MODEL 4
REMARK VINA RESULT:      -3.3     11.561     12.125
REMARK  4 active torsions:
REMARK  status: ('A' for Active; 'I' for Inactive)
REMARK    1  A    between atoms: C3_3  and  C6_6 
REMARK    2  A    between atoms: C5_5  and  C6_6 
REMARK    3  A    between atoms: C5_5  and  O7_7 
REMARK    4  A    between atoms: C6_6  and  S8_8 
ROOT
HETATM    1  C6  UNL     1     -34.681  16.568  -3.347  1.00 20.00     0.072 C 
ENDROOT
BRANCH   1   2
HETATM    2  C3  UNL     1     -33.905  16.498  -2.036  1.00 20.00     0.001 A 
HETATM    3  C1  UNL     1     -33.694  17.739  -1.213  1.00 20.00     0.006 A 
HETATM    4  C2  UNL     1     -34.622  16.661  -0.724  1.00 20.00     0.006 A 
ENDBRANCH   1   2
BRANCH   1   5
HETATM    5  C5  UNL     1     -35.545  15.328  -3.586  1.00 20.00     0.182 C 
BRANCH   5   6
HETATM    6  O7  UNL     1     -34.792  14.133  -3.421  1.00 20.00    -0.395 OA
HETATM    7  C4  UNL     1     -34.957  13.257  -4.527  1.00 20.00     0.201 C 
ENDBRANCH   5   6
ENDBRANCH   1   5
BRANCH   1   8
HETATM    8  S8  UNL     1     -33.507  16.797  -4.731  1.00 20.00    -0.175 SA
HETATM    9  H20 UNL     1     -32.491  17.220  -3.970  1.00 20.00     0.102 HD
ENDBRANCH   1   8
TORSDOF 4
ENDMDL
MODEL 5
REMARK VINA RESULT:      -3.2     11.348     12.905
REMARK  4 active torsions:
REMARK  status: ('A' for Active; 'I' for Inactive)
REMARK    1  A    between atoms: C3_3  and  C6_6 
REMARK    2  A    between atoms: C5_5  and  C6_6 
REMARK    3  A    between atoms: C5_5  and  O7_7 
REMARK    4  A    between atoms: C6_6  and  S8_8 
ROOT
HETATM    1  C6  UNL     1     -35.310  14.668  -4.847  1.00 20.00     0.072 C 
ENDROOT
BRANCH   1   2
HETATM    2  C3  UNL     1     -35.495  15.186  -6.270  1.00 20.00     0.001 A 
HETATM    3  C1  UNL     1     -34.649  16.319  -6.780  1.00 20.00     0.006 A 
HETATM    4  C2  UNL     1     -34.441  14.929  -7.311  1.00 20.00     0.006 A 
ENDBRANCH   1   2
BRANCH   1   5
HETATM    5  C5  UNL     1     -34.787  13.230  -4.808  1.00 20.00     0.182 C 
BRANCH   5   6
HETATM    6  O7  UNL     1     -33.593  13.134  -4.041  1.00 20.00    -0.395 OA
HETATM    7  C4  UNL     1     -33.093  14.418  -3.692  1.00 20.00     0.201 C 
ENDBRANCH   5   6
ENDBRANCH   1   5
BRANCH   1   8
HETATM    8  S8  UNL     1     -36.899  14.788  -3.950  1.00 20.00    -0.175 SA
HETATM    9  H20 UNL     1     -36.369  15.244  -2.808  1.00 20.00     0.102 HD
ENDBRANCH   1   8
TORSDOF 4
ENDMDL
MODEL 6
REMARK VINA RESULT:      -3.1     11.581     12.124
REMARK  4 active torsions:
REMARK  status: ('A' for Active; 'I' for Inactive)
REMARK    1  A    between atoms: C3_3  and  C6_6 
REMARK    2  A    between atoms: C5_5  and  C6_6 
REMARK    3  A    between atoms: C5_5  and  O7_7 
REMARK    4  A    between atoms: C6_6  and  S8_8 
ROOT
HETATM    1  C6  UNL     1     -34.629  15.480  -2.602  1.00 20.00     0.072 C 
ENDROOT
BRANCH   1   2
HETATM    2  C3  UNL     1     -34.817  16.803  -1.865  1.00 20.00     0.001 A 
HETATM    3  C1  UNL     1     -34.728  16.853  -0.365  1.00 20.00     0.006 A 
HETATM    4  C2  UNL     1     -33.645  17.471  -1.203  1.00 20.00     0.006 A 
ENDBRANCH   1   2
BRANCH   1   5
HETATM    5  C5  UNL     1     -33.418  15.496  -3.536  1.00 20.00     0.182 C 
BRANCH   5   6
HETATM    6  O7  UNL     1     -33.801  15.783  -4.876  1.00 20.00    -0.395 OA
HETATM    7  C4  UNL     1     -33.389  17.086  -5.267  1.00 20.00     0.201 C 
ENDBRANCH   5   6
ENDBRANCH   1   5
BRANCH   1   8
HETATM    8  S8  UNL     1     -36.150  15.092  -3.542  1.00 20.00    -0.175 SA
HETATM    9  H20 UNL     1     -36.784  14.500  -2.524  1.00 20.00     0.102 HD
ENDBRANCH   1   8
TORSDOF 4
ENDMDL
MODEL 7
REMARK VINA RESULT:      -3.1      1.844      2.098
REMARK  4 active torsions:
REMARK  status: ('A' for Active; 'I' for Inactive)
REMARK    1  A    between atoms: C3_3  and  C6_6 
REMARK    2  A    between atoms: C5_5  and  C6_6 
REMARK    3  A    between atoms: C5_5  and  O7_7 
REMARK    4  A    between atoms: C6_6  and  S8_8 
ROOT
HETATM    1  C6  UNL     1     -34.280   6.274   4.610  1.00 20.00     0.072 C 
ENDROOT
BRANCH   1   2
HETATM    2  C3  UNL     1     -35.174   5.060   4.847  1.00 20.00     0.001 A 
HETATM    3  C1  UNL     1     -34.565   3.700   5.050  1.00 20.00     0.006 A 
HETATM    4  C2  UNL     1     -35.220   4.410   6.202  1.00 20.00     0.006 A 
ENDBRANCH   1   2
BRANCH   1   5
HETATM    5  C5  UNL     1     -33.160   5.992   3.606  1.00 20.00     0.182 C 
BRANCH   5   6
HETATM    6  O7  UNL     1     -32.134   6.973   3.687  1.00 20.00    -0.395 OA
HETATM    7  C4  UNL     1     -32.091   7.779   2.517  1.00 20.00     0.201 C 
ENDBRANCH   5   6
ENDBRANCH   1   5
BRANCH   1   8
HETATM    8  S8  UNL     1     -33.576   6.826   6.205  1.00 20.00    -0.175 SA
HETATM    9  H20 UNL     1     -34.740   7.234   6.726  1.00 20.00     0.102 HD
ENDBRANCH   1   8
TORSDOF 4
ENDMDL
MODEL 8
REMARK VINA RESULT:      -3.1     11.257     11.835
REMARK  4 active torsions:
REMARK  status: ('A' for Active; 'I' for Inactive)
REMARK    1  A    between atoms: C3_3  and  C6_6 
REMARK    2  A    between atoms: C5_5  and  C6_6 
REMARK    3  A    between atoms: C5_5  and  O7_7 
REMARK    4  A    between atoms: C6_6  and  S8_8 
ROOT
HETATM    1  C6  UNL     1     -35.340  15.515  -3.795  1.00 20.00     0.072 C 
ENDROOT
BRANCH   1   2
HETATM    2  C3  UNL     1     -34.872  14.071  -3.640  1.00 20.00     0.001 A 
HETATM    3  C1  UNL     1     -34.439  13.282  -4.844  1.00 20.00     0.006 A 
HETATM    4  C2  UNL     1     -33.422  13.723  -3.829  1.00 20.00     0.006 A 
ENDBRANCH   1   2
BRANCH   1   5
HETATM    5  C5  UNL     1     -34.668  16.462  -2.798  1.00 20.00     0.182 C 
BRANCH   5   6
HETATM    6  O7  UNL     1     -34.751  15.959  -1.471  1.00 20.00    -0.395 OA
HETATM    7  C4  UNL     1     -34.630  17.001  -0.511  1.00 20.00     0.201 C 
ENDBRANCH   5   6
ENDBRANCH   1   5
BRANCH   1   8
HETATM    8  S8  UNL     1     -37.158  15.584  -3.605  1.00 20.00    -0.175 SA
HETATM    9  H20 UNL     1     -37.140  15.906  -2.306  1.00 20.00     0.102 HD
ENDBRANCH   1   8
TORSDOF 4
ENDMDL
MODEL 9
REMARK VINA RESULT:      -3.1     11.599     12.540
REMARK  4 active torsions:
REMARK  status: ('A' for Active; 'I' for Inactive)
REMARK    1  A    between atoms: C3_3  and  C6_6 
REMARK    2  A    between atoms: C5_5  and  C6_6 
REMARK    3  A    between atoms: C5_5  and  O7_7 
REMARK    4  A    between atoms: C6_6  and  S8_8 
ROOT
HETATM    1  C6  UNL     1     -34.894  15.910  -3.954  1.00 20.00     0.072 C 
ENDROOT
BRANCH   1   2
HETATM    2  C3  UNL     1     -34.756  14.487  -3.422  1.00 20.00     0.001 A 
HETATM    3  C1  UNL     1     -34.997  13.313  -4.330  1.00 20.00     0.006 A 
HETATM    4  C2  UNL     1     -33.604  13.626  -3.860  1.00 20.00     0.006 A 
ENDBRANCH   1   2
BRANCH   1   5
HETATM    5  C5  UNL     1     -33.584  16.697  -3.874  1.00 20.00     0.182 C 
BRANCH   5   6
HETATM    6  O7  UNL     1     -32.995  16.853  -5.159  1.00 20.00    -0.395 OA
HETATM    7  C4  UNL     1     -33.977  16.847  -6.186  1.00 20.00     0.201 C 
ENDBRANCH   5   6
ENDBRANCH   1   5
BRANCH   1   8
HETATM    8  S8  UNL     1     -36.210  16.776  -3.024  1.00 20.00    -0.175 SA
HETATM    9  H20 UNL     1     -36.372  15.817  -2.105  1.00 20.00     0.102 HD
ENDBRANCH   1   8
TORSDOF 4
ENDMDL
