MODEL 1
REMARK VINA RESULT:      -4.9      0.000      0.000
REMARK  0 active torsions:
REMARK  status: ('A' for Active; 'I' for Inactive)
ROOT
HETATM    1  C1  UNL     1     -33.718  17.560  -1.397  1.00 20.00     0.128 C 
HETATM    2  C2  UNL     1     -34.529  16.257  -1.460  1.00 20.00     0.088 C 
HETATM    3  C3  UNL     1     -33.846  17.780  -2.912  1.00 20.00     0.088 C 
HETATM    4  C4  UNL     1     -34.332  13.535  -4.746  1.00 20.00     0.000 C 
HETATM    5  C5  UNL     1     -35.835  13.681  -4.533  1.00 20.00     0.000 C 
HETATM    6  C6  UNL     1     -33.465  13.911  -3.548  1.00 20.00     0.001 C 
HETATM    7  C7  UNL     1     -36.304  14.824  -3.638  1.00 20.00     0.001 C 
HETATM    8  C8  UNL     1     -33.144  15.404  -3.505  1.00 20.00     0.010 C 
HETATM    9  C9  UNL     1     -35.590  16.154  -3.860  1.00 20.00     0.010 C 
HETATM   10  C10 UNL     1     -34.311  16.279  -3.017  1.00 20.00    -0.027 C 
HETATM   11  O11 UNL     1     -33.176  18.171  -0.501  1.00 20.00    -0.298 OA
ENDROOT
TORSDOF 0
ENDMDL
MODEL 2
REMARK VINA RESULT:      -4.9      2.510      4.251
REMARK  0 active torsions:
REMARK  status: ('A' for Active; 'I' for Inactive)
ROOT
HETATM    1  C1  UNL     1     -34.511  13.550  -4.291  1.00 20.00     0.128 C 
HETATM    2  C2  UNL     1     -35.283  14.850  -4.016  1.00 20.00     0.088 C 
HETATM    3  C3  UNL     1     -33.232  14.105  -3.644  1.00 20.00     0.088 C 
HETATM    4  C4  UNL     1     -33.478  18.719  -4.168  1.00 20.00     0.000 C 
HETATM    5  C5  UNL     1     -34.242  18.767  -2.849  1.00 20.00     0.000 C 
HETATM    6  C6  UNL     1     -33.960  17.667  -5.162  1.00 20.00     0.001 C 
HETATM    7  C7  UNL     1     -34.764  17.444  -2.297  1.00 20.00     0.001 C 
HETATM    8  C8  UNL     1     -33.311  16.303  -4.930  1.00 20.00     0.010 C 
HETATM    9  C9  UNL     1     -33.789  16.274  -2.392  1.00 20.00     0.010 C 
HETATM   10  C10 UNL     1     -33.893  15.531  -3.733  1.00 20.00    -0.027 C 
HETATM   11  O11 UNL     1     -34.796  12.499  -4.824  1.00 20.00    -0.298 OA
ENDROOT
TORSDOF 0
ENDMDL
MODEL 3
REMARK VINA RESULT:      -4.8      2.276      4.278
REMARK  0 active torsions:
REMARK  status: ('A' for Active; 'I' for Inactive)
ROOT
HETATM    1  C1  UNL     1     -34.946  13.847  -4.117  1.00 20.00     0.128 C 
HETATM    2  C2  UNL     1     -33.849  14.924  -4.103  1.00 20.00     0.088 C 
HETATM    3  C3  UNL     1     -36.053  14.892  -3.907  1.00 20.00     0.088 C 
HETATM    4  C4  UNL     1     -34.026  18.412  -1.644  1.00 20.00     0.000 C 
HETATM    5  C5  UNL     1     -33.651  18.991  -3.004  1.00 20.00     0.000 C 
HETATM    6  C6  UNL     1     -33.728  16.927  -1.463  1.00 20.00     0.001 C 
HETATM    7  C7  UNL     1     -33.800  18.076  -4.216  1.00 20.00     0.001 C 
HETATM    8  C8  UNL     1     -34.864  16.037  -1.967  1.00 20.00     0.010 C 
HETATM    9  C9  UNL     1     -35.077  17.240  -4.242  1.00 20.00     0.010 C 
HETATM   10  C10 UNL     1     -34.919  15.905  -3.499  1.00 20.00    -0.027 C 
HETATM   11  O11 UNL     1     -34.938  12.641  -4.235  1.00 20.00    -0.298 OA
ENDROOT
TORSDOF 0
ENDMDL
MODEL 4
REMARK VINA RESULT:      -4.8      1.377      1.687
REMARK  0 active torsions:
REMARK  status: ('A' for Active; 'I' for Inactive)
ROOT
HETATM    1  C1  UNL     1     -34.698  16.466  -1.384  1.00 20.00     0.128 C 
HETATM    2  C2  UNL     1     -35.716  16.077  -2.467  1.00 20.00     0.088 C 
HETATM    3  C3  UNL     1     -33.541  16.475  -2.395  1.00 20.00     0.088 C 
HETATM    4  C4  UNL     1     -34.781  13.484  -5.731  1.00 20.00     0.000 C 
HETATM    5  C5  UNL     1     -35.482  14.646  -6.428  1.00 20.00     0.000 C 
HETATM    6  C6  UNL     1     -35.071  13.349  -4.239  1.00 20.00     0.001 C 
HETATM    7  C7  UNL     1     -35.688  15.922  -5.618  1.00 20.00     0.001 C 
HETATM    8  C8  UNL     1     -34.138  14.205  -3.383  1.00 20.00     0.010 C 
HETATM    9  C9  UNL     1     -34.492  16.352  -4.774  1.00 20.00     0.010 C 
HETATM   10  C10 UNL     1     -34.492  15.702  -3.382  1.00 20.00    -0.027 C 
HETATM   11  O11 UNL     1     -34.776  16.673  -0.192  1.00 20.00    -0.298 OA
ENDROOT
TORSDOF 0
ENDMDL
MODEL 5
REMARK VINA RESULT:      -4.6      2.853      3.847
REMARK  0 active torsions:
REMARK  status: ('A' for Active; 'I' for Inactive)
ROOT
HETATM    1  C1  UNL     1     -33.595  13.666  -3.973  1.00 20.00     0.128 C 
HETATM    2  C2  UNL     1     -34.997  13.395  -4.540  1.00 20.00     0.088 C 
HETATM    3  C3  UNL     1     -33.718  15.174  -4.236  1.00 20.00     0.088 C 
HETATM    4  C4  UNL     1     -36.656  15.575  -7.818  1.00 20.00     0.000 C 
HETATM    5  C5  UNL     1     -37.794  15.596  -6.803  1.00 20.00     0.000 C 
HETATM    6  C6  UNL     1     -35.621  14.473  -7.613  1.00 20.00     0.001 C 
HETATM    7  C7  UNL     1     -37.461  15.179  -5.373  1.00 20.00     0.001 C 
HETATM    8  C8  UNL     1     -34.519  14.881  -6.636  1.00 20.00     0.010 C 
HETATM    9  C9  UNL     1     -36.150  15.737  -4.827  1.00 20.00     0.010 C 
HETATM   10  C10 UNL     1     -34.948  14.840  -5.160  1.00 20.00    -0.027 C 
HETATM   11  O11 UNL     1     -32.725  12.960  -3.510  1.00 20.00    -0.298 OA
ENDROOT
TORSDOF 0
ENDMDL
MODEL 6
REMARK VINA RESULT:      -4.5      1.927      2.644
REMARK  0 active torsions:
REMARK  status: ('A' for Active; 'I' for Inactive)
ROOT
HETATM    1  C1  UNL     1     -34.744  16.190  -1.821  1.00 20.00     0.128 C 
HETATM    2  C2  UNL     1     -33.936  15.521  -2.944  1.00 20.00     0.088 C 
HETATM    3  C3  UNL     1     -35.995  16.295  -2.707  1.00 20.00     0.088 C 
HETATM    4  C4  UNL     1     -34.409  16.506  -7.073  1.00 20.00     0.000 C 
HETATM    5  C5  UNL     1     -34.445  14.982  -7.095  1.00 20.00     0.000 C 
HETATM    6  C6  UNL     1     -33.756  17.125  -5.841  1.00 20.00     0.001 C 
HETATM    7  C7  UNL     1     -34.617  14.269  -5.758  1.00 20.00     0.001 C 
HETATM    8  C8  UNL     1     -34.740  17.298  -4.684  1.00 20.00     0.010 C 
HETATM    9  C9  UNL     1     -35.655  14.887  -4.824  1.00 20.00     0.010 C 
HETATM   10  C10 UNL     1     -35.060  15.992  -3.937  1.00 20.00    -0.027 C 
HETATM   11  O11 UNL     1     -34.490  16.519  -0.682  1.00 20.00    -0.298 OA
ENDROOT
TORSDOF 0
ENDMDL
MODEL 7
REMARK VINA RESULT:      -4.5     11.126     12.174
REMARK  0 active torsions:
REMARK  status: ('A' for Active; 'I' for Inactive)
ROOT
HETATM    1  C1  UNL     1     -32.550   8.006   2.520  1.00 20.00     0.128 C 
HETATM    2  C2  UNL     1     -33.923   7.589   3.069  1.00 20.00     0.088 C 
HETATM    3  C3  UNL     1     -31.916   6.668   2.930  1.00 20.00     0.088 C 
HETATM    4  C4  UNL     1     -34.412   5.172   6.557  1.00 20.00     0.000 C 
HETATM    5  C5  UNL     1     -35.345   4.496   5.558  1.00 20.00     0.000 C 
HETATM    6  C6  UNL     1     -34.055   6.620   6.238  1.00 20.00     0.001 C 
HETATM    7  C7  UNL     1     -35.204   4.894   4.092  1.00 20.00     0.001 C 
HETATM    8  C8  UNL     1     -32.857   6.733   5.296  1.00 20.00     0.010 C 
HETATM    9  C9  UNL     1     -33.768   5.020   3.592  1.00 20.00     0.010 C 
HETATM   10  C10 UNL     1     -33.187   6.423   3.826  1.00 20.00    -0.027 C 
HETATM   11  O11 UNL     1     -32.127   9.008   1.983  1.00 20.00    -0.298 OA
ENDROOT
TORSDOF 0
ENDMDL
MODEL 8
REMARK VINA RESULT:      -4.4      2.796      4.159
REMARK  0 active torsions:
REMARK  status: ('A' for Active; 'I' for Inactive)
ROOT
HETATM    1  C1  UNL     1     -37.992  15.380  -5.090  1.00 20.00     0.128 C 
HETATM    2  C2  UNL     1     -36.532  15.711  -5.435  1.00 20.00     0.088 C 
HETATM    3  C3  UNL     1     -37.636  15.073  -3.627  1.00 20.00     0.088 C 
HETATM    4  C4  UNL     1     -33.200  13.683  -3.694  1.00 20.00     0.000 C 
HETATM    5  C5  UNL     1     -32.802  15.149  -3.549  1.00 20.00     0.000 C 
HETATM    6  C6  UNL     1     -34.255  13.397  -4.758  1.00 20.00     0.001 C 
HETATM    7  C7  UNL     1     -33.890  16.192  -3.779  1.00 20.00     0.001 C 
HETATM    8  C8  UNL     1     -35.679  13.557  -4.226  1.00 20.00     0.010 C 
HETATM    9  C9  UNL     1     -35.243  15.865  -3.152  1.00 20.00     0.010 C 
HETATM   10  C10 UNL     1     -36.130  15.020  -4.080  1.00 20.00    -0.027 C 
HETATM   11  O11 UNL     1     -39.023  15.358  -5.728  1.00 20.00    -0.298 OA
ENDROOT
TORSDOF 0
ENDMDL
MODEL 9
REMARK VINA RESULT:      -4.3      3.253      4.439
REMARK  0 active torsions:
REMARK  status: ('A' for Active; 'I' for Inactive)
ROOT
HETATM    1  C1  UNL     1     -36.454  16.251  -7.289  1.00 20.00     0.128 C 
HETATM    2  C2  UNL     1     -36.402  15.828  -5.812  1.00 20.00     0.088 C 
HETATM    3  C3  UNL     1     -35.288  15.321  -7.655  1.00 20.00     0.088 C 
HETATM    4  C4  UNL     1     -32.766  14.903  -3.771  1.00 20.00     0.000 C 
HETATM    5  C5  UNL     1     -33.663  13.731  -3.387  1.00 20.00     0.000 C 
HETATM    6  C6  UNL     1     -33.497  16.154  -4.246  1.00 20.00     0.001 C 
HETATM    7  C7  UNL     1     -34.952  13.550  -4.182  1.00 20.00     0.001 C 
HETATM    8  C8  UNL     1     -33.806  16.118  -5.743  1.00 20.00     0.010 C 
HETATM    9  C9  UNL     1     -34.814  13.741  -5.690  1.00 20.00     0.010 C 
HETATM   10  C10 UNL     1     -34.989  15.207  -6.114  1.00 20.00    -0.027 C 
HETATM   11  O11 UNL     1     -37.141  17.027  -7.918  1.00 20.00    -0.298 OA
ENDROOT
TORSDOF 0
ENDMDL
