MODEL 1
REMARK VINA RESULT:      -4.2      0.000      0.000
REMARK  3 active torsions:
REMARK  status: ('A' for Active; 'I' for Inactive)
REMARK    1  A    between atoms: C3_3  and  C6_6 
REMARK    2  A    between atoms: C5_5  and  C6_6 
REMARK    3  A    between atoms: C5_5  and  O7_7 
ROOT
HETATM    1  C6  UNL     1     -33.709   5.466   3.977  1.00 20.00     0.110 C 
HETATM    2 CL8  UNL     1     -34.397   5.194   2.332  1.00 20.00    -0.122 Cl
ENDROOT
BRANCH   1   3
HETATM    3  C3  UNL     1     -34.797   5.485   4.993  1.00 20.00     0.006 A 
HETATM    4  C1  UNL     1     -34.954   4.339   5.955  1.00 20.00     0.006 A 
HETATM    5  C2  UNL     1     -34.469   5.674   6.448  1.00 20.00     0.006 A 
ENDBRANCH   1   3
BRANCH   1   6
HETATM    6  C5  UNL     1     -32.898   6.772   3.952  1.00 20.00     0.187 C 
BRANCH   6   7
HETATM    7  O7  UNL     1     -32.063   6.827   2.802  1.00 20.00    -0.394 OA
HETATM    8  C4  UNL     1     -32.086   8.113   2.201  1.00 20.00     0.201 C 
ENDBRANCH   6   7
ENDBRANCH   1   6
TORSDOF 3
ENDMDL
MODEL 2
REMARK VINA RESULT:      -3.8      1.886      2.019
REMARK  3 active torsions:
REMARK  status: ('A' for Active; 'I' for Inactive)
REMARK    1  A    between atoms: C3_3  and  C6_6 
REMARK    2  A    between atoms: C5_5  and  C6_6 
REMARK    3  A    between atoms: C5_5  and  O7_7 
ROOT
HETATM    1  C6  UNL     1     -33.765   6.415   4.970  1.00 20.00     0.110 C 
HETATM    2 CL8  UNL     1     -33.420   7.150   6.581  1.00 20.00    -0.122 Cl
ENDROOT
BRANCH   1   3
HETATM    3  C3  UNL     1     -34.070   4.965   5.121  1.00 20.00     0.006 A 
HETATM    4  C1  UNL     1     -35.159   4.515   6.056  1.00 20.00     0.006 A 
HETATM    5  C2  UNL     1     -35.350   4.401   4.569  1.00 20.00     0.006 A 
ENDBRANCH   1   3
BRANCH   1   6
HETATM    6  C5  UNL     1     -32.559   6.675   4.052  1.00 20.00     0.187 C 
BRANCH   6   7
HETATM    7  O7  UNL     1     -32.986   7.113   2.768  1.00 20.00    -0.394 OA
HETATM    8  C4  UNL     1     -32.079   8.051   2.209  1.00 20.00     0.201 C 
ENDBRANCH   6   7
ENDBRANCH   1   6
TORSDOF 3
ENDMDL
MODEL 3
REMARK VINA RESULT:      -3.7      1.811      3.930
REMARK  3 active torsions:
REMARK  status: ('A' for Active; 'I' for Inactive)
REMARK    1  A    between atoms: C3_3  and  C6_6 
REMARK    2  A    between atoms: C5_5  and  C6_6 
REMARK    3  A    between atoms: C5_5  and  O7_7 
ROOT
HETATM    1  C6  UNL     1     -33.888   6.556   3.911  1.00 20.00     0.110 C 
HETATM    2 CL8  UNL     1     -34.956   5.419   3.006  1.00 20.00    -0.122 Cl
ENDROOT
BRANCH   1   3
HETATM    3  C3  UNL     1     -32.527   6.573   3.308  1.00 20.00     0.006 A 
HETATM    4  C1  UNL     1     -32.110   7.706   2.412  1.00 20.00     0.006 A 
HETATM    5  C2  UNL     1     -31.503   7.568   3.780  1.00 20.00     0.006 A 
ENDBRANCH   1   3
BRANCH   1   6
HETATM    6  C5  UNL     1     -33.877   6.135   5.390  1.00 20.00     0.187 C 
BRANCH   6   7
HETATM    7  O7  UNL     1     -35.039   5.380   5.710  1.00 20.00    -0.394 OA
HETATM    8  C4  UNL     1     -34.719   4.026   5.994  1.00 20.00     0.201 C 
ENDBRANCH   6   7
ENDBRANCH   1   6
TORSDOF 3
ENDMDL
MODEL 4
REMARK VINA RESULT:      -3.5     11.745     12.356
REMARK  3 active torsions:
REMARK  status: ('A' for Active; 'I' for Inactive)
REMARK    1  A    between atoms: C3_3  and  C6_6 
REMARK    2  A    between atoms: C5_5  and  C6_6 
REMARK    3  A    between atoms: C5_5  and  O7_7 
ROOT
HETATM    1  C6  UNL     1     -33.841  15.642  -3.746  1.00 20.00     0.110 C 
HETATM    2 CL8  UNL     1     -33.144  16.514  -5.162  1.00 20.00    -0.122 Cl
ENDROOT
BRANCH   1   3
HETATM    3  C3  UNL     1     -33.673  16.454  -2.508  1.00 20.00     0.006 A 
HETATM    4  C1  UNL     1     -34.641  17.562  -2.192  1.00 20.00     0.006 A 
HETATM    5  C2  UNL     1     -34.641  16.304  -1.368  1.00 20.00     0.006 A 
ENDBRANCH   1   3
BRANCH   1   6
HETATM    6  C5  UNL     1     -33.169  14.264  -3.647  1.00 20.00     0.187 C 
BRANCH   6   7
HETATM    7  O7  UNL     1     -34.138  13.241  -3.451  1.00 20.00    -0.394 OA
HETATM    8  C4  UNL     1     -35.228  13.376  -4.351  1.00 20.00     0.201 C 
ENDBRANCH   6   7
ENDBRANCH   1   6
TORSDOF 3
ENDMDL
MODEL 5
REMARK VINA RESULT:      -3.5      2.505      4.143
REMARK  3 active torsions:
REMARK  status: ('A' for Active; 'I' for Inactive)
REMARK    1  A    between atoms: C3_3  and  C6_6 
REMARK    2  A    between atoms: C5_5  and  C6_6 
REMARK    3  A    between atoms: C5_5  and  O7_7 
ROOT
HETATM    1  C6  UNL     1     -33.883   5.856   4.763  1.00 20.00     0.110 C 
HETATM    2 CL8  UNL     1     -34.066   6.800   6.289  1.00 20.00    -0.122 Cl
ENDROOT
BRANCH   1   3
HETATM    3  C3  UNL     1     -33.364   6.732   3.676  1.00 20.00     0.006 A 
HETATM    4  C1  UNL     1     -31.898   7.062   3.604  1.00 20.00     0.006 A 
HETATM    5  C2  UNL     1     -32.516   6.153   2.578  1.00 20.00     0.006 A 
ENDBRANCH   1   3
BRANCH   1   6
HETATM    6  C5  UNL     1     -35.241   5.225   4.419  1.00 20.00     0.187 C 
BRANCH   6   7
HETATM    7  O7  UNL     1     -35.273   3.855   4.798  1.00 20.00    -0.394 OA
HETATM    8  C4  UNL     1     -34.508   3.620   5.971  1.00 20.00     0.201 C 
ENDBRANCH   6   7
ENDBRANCH   1   6
TORSDOF 3
ENDMDL
MODEL 6
REMARK VINA RESULT:      -3.3     11.559     12.347
REMARK  3 active torsions:
REMARK  status: ('A' for Active; 'I' for Inactive)
REMARK    1  A    between atoms: C3_3  and  C6_6 
REMARK    2  A    between atoms: C5_5  and  C6_6 
REMARK    3  A    between atoms: C5_5  and  O7_7 
ROOT
HETATM    1  C6  UNL     1     -35.420  14.931  -2.964  1.00 20.00     0.110 C 
HETATM    2 CL8  UNL     1     -34.852  16.194  -1.809  1.00 20.00    -0.122 Cl
ENDROOT
BRANCH   1   3
HETATM    3  C3  UNL     1     -34.382  14.680  -4.003  1.00 20.00     0.006 A 
HETATM    4  C1  UNL     1     -33.306  13.657  -3.765  1.00 20.00     0.006 A 
HETATM    5  C2  UNL     1     -34.384  13.392  -4.779  1.00 20.00     0.006 A 
ENDBRANCH   1   3
BRANCH   1   6
HETATM    6  C5  UNL     1     -36.759  15.390  -3.563  1.00 20.00     0.187 C 
BRANCH   6   7
HETATM    7  O7  UNL     1     -37.649  14.291  -3.713  1.00 20.00    -0.394 OA
HETATM    8  C4  UNL     1     -38.954  14.721  -4.072  1.00 20.00     0.201 C 
ENDBRANCH   6   7
ENDBRANCH   1   6
TORSDOF 3
ENDMDL
MODEL 7
REMARK VINA RESULT:      -3.3     11.923     12.589
REMARK  3 active torsions:
REMARK  status: ('A' for Active; 'I' for Inactive)
REMARK    1  A    between atoms: C3_3  and  C6_6 
REMARK    2  A    between atoms: C5_5  and  C6_6 
REMARK    3  A    between atoms: C5_5  and  O7_7 
ROOT
HETATM    1  C6  UNL     1     -34.388  15.718  -3.294  1.00 20.00     0.110 C 
HETATM    2 CL8  UNL     1     -34.320  16.354  -1.608  1.00 20.00    -0.122 Cl
ENDROOT
BRANCH   1   3
HETATM    3  C3  UNL     1     -35.176  14.455  -3.336  1.00 20.00     0.006 A 
HETATM    4  C1  UNL     1     -36.399  14.354  -4.207  1.00 20.00     0.006 A 
HETATM    5  C2  UNL     1     -35.154  13.591  -4.566  1.00 20.00     0.006 A 
ENDBRANCH   1   3
BRANCH   1   6
HETATM    6  C5  UNL     1     -32.949  15.537  -3.802  1.00 20.00     0.187 C 
BRANCH   6   7
HETATM    7  O7  UNL     1     -32.723  16.313  -4.972  1.00 20.00    -0.394 OA
HETATM    8  C4  UNL     1     -33.600  17.429  -5.035  1.00 20.00     0.201 C 
ENDBRANCH   6   7
ENDBRANCH   1   6
TORSDOF 3
ENDMDL
MODEL 8
REMARK VINA RESULT:      -3.3     11.783     12.457
REMARK  3 active torsions:
REMARK  status: ('A' for Active; 'I' for Inactive)
REMARK    1  A    between atoms: C3_3  and  C6_6 
REMARK    2  A    between atoms: C5_5  and  C6_6 
REMARK    3  A    between atoms: C5_5  and  O7_7 
ROOT
HETATM    1  C6  UNL     1     -35.635  15.182  -3.768  1.00 20.00     0.110 C 
HETATM    2 CL8  UNL     1     -35.488  13.569  -4.562  1.00 20.00    -0.122 Cl
ENDROOT
BRANCH   1   3
HETATM    3  C3  UNL     1     -34.710  15.268  -2.604  1.00 20.00     0.006 A 
HETATM    4  C1  UNL     1     -33.607  16.290  -2.589  1.00 20.00     0.006 A 
HETATM    5  C2  UNL     1     -34.784  16.440  -1.666  1.00 20.00     0.006 A 
ENDBRANCH   1   3
BRANCH   1   6
HETATM    6  C5  UNL     1     -37.106  15.394  -3.375  1.00 20.00     0.187 C 
BRANCH   6   7
HETATM    7  O7  UNL     1     -37.889  14.255  -3.708  1.00 20.00    -0.394 OA
HETATM    8  C4  UNL     1     -39.117  14.627  -4.318  1.00 20.00     0.201 C 
ENDBRANCH   6   7
ENDBRANCH   1   6
TORSDOF 3
ENDMDL
MODEL 9
REMARK VINA RESULT:      -3.3     12.003     12.773
REMARK  3 active torsions:
REMARK  status: ('A' for Active; 'I' for Inactive)
REMARK    1  A    between atoms: C3_3  and  C6_6 
REMARK    2  A    between atoms: C5_5  and  C6_6 
REMARK    3  A    between atoms: C5_5  and  O7_7 
ROOT
HETATM    1  C6  UNL     1     -33.337  15.434  -3.339  1.00 20.00     0.110 C 
HETATM    2 CL8  UNL     1     -33.204  13.681  -3.742  1.00 20.00    -0.122 Cl
ENDROOT
BRANCH   1   3
HETATM    3  C3  UNL     1     -34.611  15.700  -2.615  1.00 20.00     0.006 A 
HETATM    4  C1  UNL     1     -34.592  16.406  -1.287  1.00 20.00     0.006 A 
HETATM    5  C2  UNL     1     -35.138  17.103  -2.502  1.00 20.00     0.006 A 
ENDBRANCH   1   3
BRANCH   1   6
HETATM    6  C5  UNL     1     -33.217  16.241  -4.642  1.00 20.00     0.187 C 
BRANCH   6   7
HETATM    7  O7  UNL     1     -33.955  15.623  -5.690  1.00 20.00    -0.394 OA
HETATM    8  C4  UNL     1     -34.661  16.581  -6.465  1.00 20.00     0.201 C 
ENDBRANCH   6   7
ENDBRANCH   1   6
TORSDOF 3
ENDMDL
