MODEL 1
REMARK VINA RESULT:      -4.3      0.000      0.000
REMARK  3 active torsions:
REMARK  status: ('A' for Active; 'I' for Inactive)
REMARK    1  A    between atoms: C3_3  and  C6_6 
REMARK    2  A    between atoms: C5_5  and  C6_6 
REMARK    3  A    between atoms: C5_5  and  O7_7 
ROOT
HETATM    1  C6  UNL     1     -33.865   6.391   4.054  1.00 20.00     0.110 C 
HETATM    2 CL8  UNL     1     -35.248   5.473   3.350  1.00 20.00    -0.122 Cl
ENDROOT
BRANCH   1   3
HETATM    3  C3  UNL     1     -33.579   5.905   5.432  1.00 20.00     0.006 A 
HETATM    4  C1  UNL     1     -34.074   6.673   6.626  1.00 20.00     0.006 A 
HETATM    5  C2  UNL     1     -34.683   5.343   6.282  1.00 20.00     0.006 A 
ENDBRANCH   1   3
BRANCH   1   6
HETATM    6  C5  UNL     1     -32.655   6.257   3.116  1.00 20.00     0.187 C 
BRANCH   6   7
HETATM    7  O7  UNL     1     -31.849   7.428   3.160  1.00 20.00    -0.394 OA
HETATM    8  C4  UNL     1     -32.070   8.255   2.026  1.00 20.00     0.201 C 
ENDBRANCH   6   7
ENDBRANCH   1   6
TORSDOF 3
ENDMDL
MODEL 2
REMARK VINA RESULT:      -4.1      1.703      2.059
REMARK  3 active torsions:
REMARK  status: ('A' for Active; 'I' for Inactive)
REMARK    1  A    between atoms: C3_3  and  C6_6 
REMARK    2  A    between atoms: C5_5  and  C6_6 
REMARK    3  A    between atoms: C5_5  and  O7_7 
ROOT
HETATM    1  C6  UNL     1     -33.647   5.980   5.006  1.00 20.00     0.110 C 
HETATM    2 CL8  UNL     1     -33.508   7.058   6.445  1.00 20.00    -0.122 Cl
ENDROOT
BRANCH   1   3
HETATM    3  C3  UNL     1     -34.902   5.182   5.085  1.00 20.00     0.006 A 
HETATM    4  C1  UNL     1     -34.846   3.679   5.102  1.00 20.00     0.006 A 
HETATM    5  C2  UNL     1     -35.244   4.430   6.341  1.00 20.00     0.006 A 
ENDBRANCH   1   3
BRANCH   1   6
HETATM    6  C5  UNL     1     -33.573   6.841   3.735  1.00 20.00     0.187 C 
BRANCH   6   7
HETATM    7  O7  UNL     1     -32.250   6.860   3.214  1.00 20.00    -0.394 OA
HETATM    8  C4  UNL     1     -32.057   7.950   2.323  1.00 20.00     0.201 C 
ENDBRANCH   6   7
ENDBRANCH   1   6
TORSDOF 3
ENDMDL
MODEL 3
REMARK VINA RESULT:      -3.9      2.384      3.993
REMARK  3 active torsions:
REMARK  status: ('A' for Active; 'I' for Inactive)
REMARK    1  A    between atoms: C3_3  and  C6_6 
REMARK    2  A    between atoms: C5_5  and  C6_6 
REMARK    3  A    between atoms: C5_5  and  O7_7 
ROOT
HETATM    1  C6  UNL     1     -33.897   6.578   4.024  1.00 20.00     0.110 C 
HETATM    2 CL8  UNL     1     -33.687   6.720   5.809  1.00 20.00    -0.122 Cl
ENDROOT
BRANCH   1   3
HETATM    3  C3  UNL     1     -32.568   6.549   3.354  1.00 20.00     0.006 A 
HETATM    4  C1  UNL     1     -32.160   7.661   2.426  1.00 20.00     0.006 A 
HETATM    5  C2  UNL     1     -31.491   7.514   3.764  1.00 20.00     0.006 A 
ENDBRANCH   1   3
BRANCH   1   6
HETATM    6  C5  UNL     1     -34.738   5.327   3.724  1.00 20.00     0.187 C 
BRANCH   6   7
HETATM    7  O7  UNL     1     -35.517   4.958   4.855  1.00 20.00    -0.394 OA
HETATM    8  C4  UNL     1     -34.963   3.834   5.525  1.00 20.00     0.201 C 
ENDBRANCH   6   7
ENDBRANCH   1   6
TORSDOF 3
ENDMDL
MODEL 4
REMARK VINA RESULT:      -3.6     11.518     11.901
REMARK  3 active torsions:
REMARK  status: ('A' for Active; 'I' for Inactive)
REMARK    1  A    between atoms: C3_3  and  C6_6 
REMARK    2  A    between atoms: C5_5  and  C6_6 
REMARK    3  A    between atoms: C5_5  and  O7_7 
ROOT
HETATM    1  C6  UNL     1     -33.348  15.602  -3.216  1.00 20.00     0.110 C 
HETATM    2 CL8  UNL     1     -33.431  16.631  -4.694  1.00 20.00    -0.122 Cl
ENDROOT
BRANCH   1   3
HETATM    3  C3  UNL     1     -34.599  15.747  -2.422  1.00 20.00     0.006 A 
HETATM    4  C1  UNL     1     -34.589  16.504  -1.122  1.00 20.00     0.006 A 
HETATM    5  C2  UNL     1     -35.283  17.082  -2.323  1.00 20.00     0.006 A 
ENDBRANCH   1   3
BRANCH   1   6
HETATM    6  C5  UNL     1     -33.082  14.148  -3.640  1.00 20.00     0.187 C 
BRANCH   6   7
HETATM    7  O7  UNL     1     -34.277  13.379  -3.584  1.00 20.00    -0.394 OA
HETATM    8  C4  UNL     1     -34.798  13.132  -4.884  1.00 20.00     0.201 C 
ENDBRANCH   6   7
ENDBRANCH   1   6
TORSDOF 3
ENDMDL
MODEL 5
REMARK VINA RESULT:      -3.5     11.331     12.212
REMARK  3 active torsions:
REMARK  status: ('A' for Active; 'I' for Inactive)
REMARK    1  A    between atoms: C3_3  and  C6_6 
REMARK    2  A    between atoms: C5_5  and  C6_6 
REMARK    3  A    between atoms: C5_5  and  O7_7 
ROOT
HETATM    1  C6  UNL     1     -35.515  15.352  -3.514  1.00 20.00     0.110 C 
HETATM    2 CL8  UNL     1     -34.749  15.904  -1.978  1.00 20.00    -0.122 Cl
ENDROOT
BRANCH   1   3
HETATM    3  C3  UNL     1     -35.124  13.944  -3.802  1.00 20.00     0.006 A 
HETATM    4  C1  UNL     1     -34.524  13.580  -5.132  1.00 20.00     0.006 A 
HETATM    5  C2  UNL     1     -33.672  13.564  -3.894  1.00 20.00     0.006 A 
ENDBRANCH   1   3
BRANCH   1   6
HETATM    6  C5  UNL     1     -37.037  15.531  -3.399  1.00 20.00     0.187 C 
BRANCH   6   7
HETATM    7  O7  UNL     1     -37.714  14.326  -3.734  1.00 20.00    -0.394 OA
HETATM    8  C4  UNL     1     -39.020  14.584  -4.234  1.00 20.00     0.201 C 
ENDBRANCH   6   7
ENDBRANCH   1   6
TORSDOF 3
ENDMDL
MODEL 6
REMARK VINA RESULT:      -3.4     11.515     12.073
REMARK  3 active torsions:
REMARK  status: ('A' for Active; 'I' for Inactive)
REMARK    1  A    between atoms: C3_3  and  C6_6 
REMARK    2  A    between atoms: C5_5  and  C6_6 
REMARK    3  A    between atoms: C5_5  and  O7_7 
ROOT
HETATM    1  C6  UNL     1     -35.240  14.757  -3.142  1.00 20.00     0.110 C 
HETATM    2 CL8  UNL     1     -33.702  14.085  -3.801  1.00 20.00    -0.122 Cl
ENDROOT
BRANCH   1   3
HETATM    3  C3  UNL     1     -35.024  16.150  -2.661  1.00 20.00     0.006 A 
HETATM    4  C1  UNL     1     -34.710  16.413  -1.214  1.00 20.00     0.006 A 
HETATM    5  C2  UNL     1     -33.649  16.608  -2.260  1.00 20.00     0.006 A 
ENDBRANCH   1   3
BRANCH   1   6
HETATM    6  C5  UNL     1     -36.323  14.668  -4.228  1.00 20.00     0.187 C 
BRANCH   6   7
HETATM    7  O7  UNL     1     -37.503  14.060  -3.717  1.00 20.00    -0.394 OA
HETATM    8  C4  UNL     1     -38.657  14.838  -4.006  1.00 20.00     0.201 C 
ENDBRANCH   6   7
ENDBRANCH   1   6
TORSDOF 3
ENDMDL
MODEL 7
REMARK VINA RESULT:      -3.4     11.332     12.911
REMARK  3 active torsions:
REMARK  status: ('A' for Active; 'I' for Inactive)
REMARK    1  A    between atoms: C3_3  and  C6_6 
REMARK    2  A    between atoms: C5_5  and  C6_6 
REMARK    3  A    between atoms: C5_5  and  O7_7 
ROOT
HETATM    1  C6  UNL     1     -33.841  15.496  -3.881  1.00 20.00     0.110 C 
HETATM    2 CL8  UNL     1     -33.860  16.356  -2.297  1.00 20.00    -0.122 Cl
ENDROOT
BRANCH   1   3
HETATM    3  C3  UNL     1     -33.210  16.356  -4.921  1.00 20.00     0.006 A 
HETATM    4  C1  UNL     1     -34.022  16.867  -6.079  1.00 20.00     0.006 A 
HETATM    5  C2  UNL     1     -33.557  17.816  -5.010  1.00 20.00     0.006 A 
ENDBRANCH   1   3
BRANCH   1   6
HETATM    6  C5  UNL     1     -33.115  14.153  -3.705  1.00 20.00     0.187 C 
BRANCH   6   7
HETATM    7  O7  UNL     1     -34.045  13.078  -3.656  1.00 20.00    -0.394 OA
HETATM    8  C4  UNL     1     -35.262  13.413  -4.311  1.00 20.00     0.201 C 
ENDBRANCH   6   7
ENDBRANCH   1   6
TORSDOF 3
ENDMDL
MODEL 8
REMARK VINA RESULT:      -3.4     11.371     11.977
REMARK  3 active torsions:
REMARK  status: ('A' for Active; 'I' for Inactive)
REMARK    1  A    between atoms: C3_3  and  C6_6 
REMARK    2  A    between atoms: C5_5  and  C6_6 
REMARK    3  A    between atoms: C5_5  and  O7_7 
ROOT
HETATM    1  C6  UNL     1     -34.311  14.572  -3.052  1.00 20.00     0.110 C 
HETATM    2 CL8  UNL     1     -32.632  14.702  -3.696  1.00 20.00    -0.122 Cl
ENDROOT
BRANCH   1   3
HETATM    3  C3  UNL     1     -34.814  15.918  -2.662  1.00 20.00     0.006 A 
HETATM    4  C1  UNL     1     -34.686  16.394  -1.241  1.00 20.00     0.006 A 
HETATM    5  C2  UNL     1     -33.849  17.019  -2.322  1.00 20.00     0.006 A 
ENDBRANCH   1   3
BRANCH   1   6
HETATM    6  C5  UNL     1     -35.195  13.894  -4.111  1.00 20.00     0.187 C 
BRANCH   6   7
HETATM    7  O7  UNL     1     -34.477  13.707  -5.324  1.00 20.00    -0.394 OA
HETATM    8  C4  UNL     1     -35.106  14.375  -6.410  1.00 20.00     0.201 C 
ENDBRANCH   6   7
ENDBRANCH   1   6
TORSDOF 3
ENDMDL
MODEL 9
REMARK VINA RESULT:      -3.3     11.879     12.501
REMARK  3 active torsions:
REMARK  status: ('A' for Active; 'I' for Inactive)
REMARK    1  A    between atoms: C3_3  and  C6_6 
REMARK    2  A    between atoms: C5_5  and  C6_6 
REMARK    3  A    between atoms: C5_5  and  O7_7 
ROOT
HETATM    1  C6  UNL     1     -34.243  16.412  -3.040  1.00 20.00     0.110 C 
HETATM    2 CL8  UNL     1     -35.795  15.494  -3.005  1.00 20.00    -0.122 Cl
ENDROOT
BRANCH   1   3
HETATM    3  C3  UNL     1     -33.759  16.651  -1.652  1.00 20.00     0.006 A 
HETATM    4  C1  UNL     1     -33.906  18.008  -1.021  1.00 20.00     0.006 A 
HETATM    5  C2  UNL     1     -34.741  16.857  -0.533  1.00 20.00     0.006 A 
ENDBRANCH   1   3
BRANCH   1   6
HETATM    6  C5  UNL     1     -33.228  15.633  -3.894  1.00 20.00     0.187 C 
BRANCH   6   7
HETATM    7  O7  UNL     1     -32.798  16.413  -5.003  1.00 20.00    -0.394 OA
HETATM    8  C4  UNL     1     -33.576  17.594  -5.142  1.00 20.00     0.201 C 
ENDBRANCH   6   7
ENDBRANCH   1   6
TORSDOF 3
ENDMDL
