MODEL 1
REMARK VINA RESULT:      -4.2      0.000      0.000
REMARK  3 active torsions:
REMARK  status: ('A' for Active; 'I' for Inactive)
REMARK    1  A    between atoms: C5_5  and  C7_7 
REMARK    2  A    between atoms: C5_5  and  O9_9 
REMARK    3  A    between atoms: C6_6  and  C7_7 
ROOT
HETATM    1  C1  UNL     1     -34.665  13.714  -4.280  1.00 20.00     0.088 C 
HETATM    2  C7  UNL     1     -34.162  15.080  -4.001  1.00 20.00     0.149 C 
HETATM    3  N8  UNL     1     -35.063  12.646  -4.496  1.00 20.00    -0.195 NA
HETATM    4 CL10 UNL     1     -32.407  14.904  -3.631  1.00 20.00    -0.100 Cl
ENDROOT
BRANCH   2   5
HETATM    5  C5  UNL     1     -34.875  15.634  -2.749  1.00 20.00     0.208 C 
BRANCH   5   6
HETATM    6  O9  UNL     1     -33.956  16.293  -1.880  1.00 20.00    -0.393 OA
HETATM    7  C4  UNL     1     -34.597  16.747  -0.698  1.00 20.00     0.201 C 
ENDBRANCH   5   6
ENDBRANCH   2   5
BRANCH   2   8
HETATM    8  C6  UNL     1     -34.387  15.999  -5.248  1.00 20.00     0.017 C 
HETATM    9  C2  UNL     1     -33.479  17.238  -5.277  1.00 20.00     0.012 C 
HETATM   10  C3  UNL     1     -34.248  15.263  -6.593  1.00 20.00     0.012 C 
ENDBRANCH   2   8
TORSDOF 3
ENDMDL
MODEL 2
REMARK VINA RESULT:      -4.1      1.575      1.575
REMARK  3 active torsions:
REMARK  status: ('A' for Active; 'I' for Inactive)
REMARK    1  A    between atoms: C5_5  and  C7_7 
REMARK    2  A    between atoms: C5_5  and  O9_9 
REMARK    3  A    between atoms: C6_6  and  C7_7 
ROOT
HETATM    1  C1  UNL     1     -36.374  14.473  -4.058  1.00 20.00     0.088 C 
HETATM    2  C7  UNL     1     -34.924  14.679  -4.284  1.00 20.00     0.149 C 
HETATM    3  N8  UNL     1     -37.509  14.315  -3.877  1.00 20.00    -0.195 NA
HETATM    4 CL10 UNL     1     -34.238  13.055  -4.665  1.00 20.00    -0.100 Cl
ENDROOT
BRANCH   2   5
HETATM    5  C5  UNL     1     -34.277  15.190  -2.980  1.00 20.00     0.208 C 
BRANCH   5   6
HETATM    6  O9  UNL     1     -35.205  15.946  -2.204  1.00 20.00    -0.393 OA
HETATM    7  C4  UNL     1     -34.570  16.558  -1.092  1.00 20.00     0.201 C 
ENDBRANCH   5   6
ENDBRANCH   2   5
BRANCH   2   8
HETATM    8  C6  UNL     1     -34.702  15.677  -5.469  1.00 20.00     0.017 C 
HETATM    9  C2  UNL     1     -33.510  16.625  -5.267  1.00 20.00     0.012 C 
HETATM   10  C3  UNL     1     -34.550  14.990  -6.838  1.00 20.00     0.012 C 
ENDBRANCH   2   8
TORSDOF 3
ENDMDL
MODEL 3
REMARK VINA RESULT:      -4.1      2.456      2.714
REMARK  3 active torsions:
REMARK  status: ('A' for Active; 'I' for Inactive)
REMARK    1  A    between atoms: C5_5  and  C7_7 
REMARK    2  A    between atoms: C5_5  and  O9_9 
REMARK    3  A    between atoms: C6_6  and  C7_7 
ROOT
HETATM    1  C1  UNL     1     -35.053  13.648  -4.518  1.00 20.00     0.088 C 
HETATM    2  C7  UNL     1     -35.495  15.062  -4.465  1.00 20.00     0.149 C 
HETATM    3  N8  UNL     1     -34.712  12.540  -4.562  1.00 20.00    -0.195 NA
HETATM    4 CL10 UNL     1     -35.246  15.605  -2.764  1.00 20.00    -0.100 Cl
ENDROOT
BRANCH   2   5
HETATM    5  C5  UNL     1     -37.003  15.131  -4.786  1.00 20.00     0.208 C 
BRANCH   5   6
HETATM    6  O9  UNL     1     -37.764  14.350  -3.867  1.00 20.00    -0.393 OA
HETATM    7  C4  UNL     1     -38.952  15.024  -3.476  1.00 20.00     0.201 C 
ENDBRANCH   5   6
ENDBRANCH   2   5
BRANCH   2   8
HETATM    8  C6  UNL     1     -34.652  15.925  -5.462  1.00 20.00     0.017 C 
HETATM    9  C2  UNL     1     -33.278  16.339  -4.916  1.00 20.00     0.012 C 
HETATM   10  C3  UNL     1     -34.449  15.261  -6.837  1.00 20.00     0.012 C 
ENDBRANCH   2   8
TORSDOF 3
ENDMDL
MODEL 4
REMARK VINA RESULT:      -4.1      2.678      4.008
REMARK  3 active torsions:
REMARK  status: ('A' for Active; 'I' for Inactive)
REMARK    1  A    between atoms: C5_5  and  C7_7 
REMARK    2  A    between atoms: C5_5  and  O9_9 
REMARK    3  A    between atoms: C6_6  and  C7_7 
ROOT
HETATM    1  C1  UNL     1     -36.719  14.595  -4.049  1.00 20.00     0.088 C 
HETATM    2  C7  UNL     1     -35.344  14.969  -4.457  1.00 20.00     0.149 C 
HETATM    3  N8  UNL     1     -37.794  14.297  -3.732  1.00 20.00    -0.195 NA
HETATM    4 CL10 UNL     1     -35.444  16.661  -5.071  1.00 20.00    -0.100 Cl
ENDROOT
BRANCH   2   5
HETATM    5  C5  UNL     1     -34.894  14.053  -5.615  1.00 20.00     0.208 C 
BRANCH   5   6
HETATM    6  O9  UNL     1     -34.620  14.807  -6.794  1.00 20.00    -0.393 OA
HETATM    7  C4  UNL     1     -35.508  14.461  -7.846  1.00 20.00     0.201 C 
ENDBRANCH   5   6
ENDBRANCH   2   5
BRANCH   2   8
HETATM    8  C6  UNL     1     -34.375  14.869  -3.232  1.00 20.00     0.017 C 
HETATM    9  C2  UNL     1     -32.888  14.935  -3.610  1.00 20.00     0.012 C 
HETATM   10  C3  UNL     1     -34.646  15.921  -2.140  1.00 20.00     0.012 C 
ENDBRANCH   2   8
TORSDOF 3
ENDMDL
MODEL 5
REMARK VINA RESULT:      -4.1      2.282      3.163
REMARK  3 active torsions:
REMARK  status: ('A' for Active; 'I' for Inactive)
REMARK    1  A    between atoms: C5_5  and  C7_7 
REMARK    2  A    between atoms: C5_5  and  O9_9 
REMARK    3  A    between atoms: C6_6  and  C7_7 
ROOT
HETATM    1  C1  UNL     1     -36.785  14.771  -3.646  1.00 20.00     0.088 C 
HETATM    2  C7  UNL     1     -35.379  15.236  -3.630  1.00 20.00     0.149 C 
HETATM    3  N8  UNL     1     -37.887  14.408  -3.664  1.00 20.00    -0.195 NA
HETATM    4 CL10 UNL     1     -35.162  16.132  -2.080  1.00 20.00    -0.100 Cl
ENDROOT
BRANCH   2   5
HETATM    5  C5  UNL     1     -35.158  16.219  -4.799  1.00 20.00     0.208 C 
BRANCH   5   6
HETATM    6  O9  UNL     1     -34.730  17.495  -4.328  1.00 20.00    -0.393 OA
HETATM    7  C4  UNL     1     -33.527  17.902  -4.962  1.00 20.00     0.201 C 
ENDBRANCH   5   6
ENDBRANCH   2   5
BRANCH   2   8
HETATM    8  C6  UNL     1     -34.408  14.011  -3.714  1.00 20.00     0.017 C 
HETATM    9  C2  UNL     1     -34.623  13.133  -4.956  1.00 20.00     0.012 C 
HETATM   10  C3  UNL     1     -32.918  14.395  -3.643  1.00 20.00     0.012 C 
ENDBRANCH   2   8
TORSDOF 3
ENDMDL
MODEL 6
REMARK VINA RESULT:      -4.0      2.409      3.521
REMARK  3 active torsions:
REMARK  status: ('A' for Active; 'I' for Inactive)
REMARK    1  A    between atoms: C5_5  and  C7_7 
REMARK    2  A    between atoms: C5_5  and  O9_9 
REMARK    3  A    between atoms: C6_6  and  C7_7 
ROOT
HETATM    1  C1  UNL     1     -36.566  14.795  -3.619  1.00 20.00     0.088 C 
HETATM    2  C7  UNL     1     -35.190  15.324  -3.466  1.00 20.00     0.149 C 
HETATM    3  N8  UNL     1     -37.643  14.383  -3.744  1.00 20.00    -0.195 NA
HETATM    4 CL10 UNL     1     -35.126  16.102  -1.841  1.00 20.00    -0.100 Cl
ENDROOT
BRANCH   2   5
HETATM    5  C5  UNL     1     -34.943  16.407  -4.538  1.00 20.00     0.208 C 
BRANCH   5   6
HETATM    6  O9  UNL     1     -35.549  16.053  -5.780  1.00 20.00    -0.393 OA
HETATM    7  C4  UNL     1     -34.667  16.282  -6.868  1.00 20.00     0.201 C 
ENDBRANCH   5   6
ENDBRANCH   2   5
BRANCH   2   8
HETATM    8  C6  UNL     1     -34.152  14.157  -3.575  1.00 20.00     0.017 C 
HETATM    9  C2  UNL     1     -34.433  13.182  -4.728  1.00 20.00     0.012 C 
HETATM   10  C3  UNL     1     -32.692  14.635  -3.688  1.00 20.00     0.012 C 
ENDBRANCH   2   8
TORSDOF 3
ENDMDL
MODEL 7
REMARK VINA RESULT:      -3.9      2.829      3.507
REMARK  3 active torsions:
REMARK  status: ('A' for Active; 'I' for Inactive)
REMARK    1  A    between atoms: C5_5  and  C7_7 
REMARK    2  A    between atoms: C5_5  and  O9_9 
REMARK    3  A    between atoms: C6_6  and  C7_7 
ROOT
HETATM    1  C1  UNL     1     -35.640  15.416  -5.569  1.00 20.00     0.088 C 
HETATM    2  C7  UNL     1     -35.497  14.978  -4.160  1.00 20.00     0.149 C 
HETATM    3  N8  UNL     1     -35.756  15.762  -6.670  1.00 20.00    -0.195 NA
HETATM    4 CL10 UNL     1     -35.140  13.212  -4.215  1.00 20.00    -0.100 Cl
ENDROOT
BRANCH   2   5
HETATM    5  C5  UNL     1     -36.841  15.184  -3.429  1.00 20.00     0.208 C 
BRANCH   5   6
HETATM    6  O9  UNL     1     -37.783  14.175  -3.784  1.00 20.00    -0.393 OA
HETATM    7  C4  UNL     1     -39.041  14.738  -4.126  1.00 20.00     0.201 C 
ENDBRANCH   5   6
ENDBRANCH   2   5
BRANCH   2   8
HETATM    8  C6  UNL     1     -34.336  15.768  -3.469  1.00 20.00     0.017 C 
HETATM    9  C2  UNL     1     -34.575  16.042  -1.976  1.00 20.00     0.012 C 
HETATM   10  C3  UNL     1     -32.956  15.104  -3.626  1.00 20.00     0.012 C 
ENDBRANCH   2   8
TORSDOF 3
ENDMDL
MODEL 8
REMARK VINA RESULT:      -3.9      2.788      3.559
REMARK  3 active torsions:
REMARK  status: ('A' for Active; 'I' for Inactive)
REMARK    1  A    between atoms: C5_5  and  C7_7 
REMARK    2  A    between atoms: C5_5  and  O9_9 
REMARK    3  A    between atoms: C6_6  and  C7_7 
ROOT
HETATM    1  C1  UNL     1     -35.068  15.622  -5.204  1.00 20.00     0.088 C 
HETATM    2  C7  UNL     1     -35.249  14.814  -3.975  1.00 20.00     0.149 C 
HETATM    3  N8  UNL     1     -34.930  16.259  -6.164  1.00 20.00    -0.195 NA
HETATM    4 CL10 UNL     1     -35.236  13.089  -4.500  1.00 20.00    -0.100 Cl
ENDROOT
BRANCH   2   5
HETATM    5  C5  UNL     1     -36.630  15.129  -3.363  1.00 20.00     0.208 C 
BRANCH   5   6
HETATM    6  O9  UNL     1     -37.608  14.176  -3.774  1.00 20.00    -0.393 OA
HETATM    7  C4  UNL     1     -38.872  14.790  -3.981  1.00 20.00     0.201 C 
ENDBRANCH   5   6
ENDBRANCH   2   5
BRANCH   2   8
HETATM    8  C6  UNL     1     -34.089  15.105  -2.965  1.00 20.00     0.017 C 
HETATM    9  C2  UNL     1     -32.689  15.050  -3.595  1.00 20.00     0.012 C 
HETATM   10  C3  UNL     1     -34.235  16.447  -2.224  1.00 20.00     0.012 C 
ENDBRANCH   2   8
TORSDOF 3
ENDMDL
MODEL 9
REMARK VINA RESULT:      -3.9      2.429      3.739
REMARK  3 active torsions:
REMARK  status: ('A' for Active; 'I' for Inactive)
REMARK    1  A    between atoms: C5_5  and  C7_7 
REMARK    2  A    between atoms: C5_5  and  O9_9 
REMARK    3  A    between atoms: C6_6  and  C7_7 
ROOT
HETATM    1  C1  UNL     1     -35.112  13.736  -4.426  1.00 20.00     0.088 C 
HETATM    2  C7  UNL     1     -35.369  15.193  -4.346  1.00 20.00     0.149 C 
HETATM    3  N8  UNL     1     -34.908  12.596  -4.495  1.00 20.00    -0.195 NA
HETATM    4 CL10 UNL     1     -36.984  15.376  -3.565  1.00 20.00    -0.100 Cl
ENDROOT
BRANCH   2   5
HETATM    5  C5  UNL     1     -35.447  15.772  -5.774  1.00 20.00     0.208 C 
BRANCH   5   6
HETATM    6  O9  UNL     1     -34.500  15.146  -6.638  1.00 20.00    -0.393 OA
HETATM    7  C4  UNL     1     -35.061  14.881  -7.914  1.00 20.00     0.201 C 
ENDBRANCH   5   6
ENDBRANCH   2   5
BRANCH   2   8
HETATM    8  C6  UNL     1     -34.251  15.889  -3.500  1.00 20.00     0.017 C 
HETATM    9  C2  UNL     1     -34.602  16.041  -2.012  1.00 20.00     0.012 C 
HETATM   10  C3  UNL     1     -32.876  15.205  -3.607  1.00 20.00     0.012 C 
ENDBRANCH   2   8
TORSDOF 3
ENDMDL
