MODEL 1
REMARK VINA RESULT:      -4.5      0.000      0.000
REMARK  3 active torsions:
REMARK  status: ('A' for Active; 'I' for Inactive)
REMARK    1  A    between atoms: C4_4  and  C7_7 
REMARK    2  A    between atoms: C6_6  and  C7_7 
REMARK    3  A    between atoms: C6_6  and  O9_9 
ROOT
HETATM    1  C1  UNL     1     -33.824   6.669   5.678  1.00 20.00     0.066 C 
HETATM    2  C7  UNL     1     -34.357   6.195   4.391  1.00 20.00     0.120 C 
HETATM    3  N8  UNL     1     -33.401   7.049   6.690  1.00 20.00    -0.197 NA
ENDROOT
BRANCH   2   4
HETATM    4  C4  UNL     1     -35.204   5.002   4.736  1.00 20.00     0.005 A 
HETATM    5  C2  UNL     1     -34.560   3.675   5.029  1.00 20.00     0.006 A 
HETATM    6  C3  UNL     1     -35.210   4.458   6.137  1.00 20.00     0.006 A 
ENDBRANCH   2   4
BRANCH   2   7
HETATM    7  C6  UNL     1     -33.248   5.868   3.393  1.00 20.00     0.186 C 
BRANCH   7   8
HETATM    8  O9  UNL     1     -32.151   6.762   3.533  1.00 20.00    -0.395 OA
HETATM    9  C5  UNL     1     -32.134   7.732   2.497  1.00 20.00     0.201 C 
ENDBRANCH   7   8
ENDBRANCH   2   7
TORSDOF 3
ENDMDL
MODEL 2
REMARK VINA RESULT:      -4.3     12.118     12.800
REMARK  3 active torsions:
REMARK  status: ('A' for Active; 'I' for Inactive)
REMARK    1  A    between atoms: C4_4  and  C7_7 
REMARK    2  A    between atoms: C6_6  and  C7_7 
REMARK    3  A    between atoms: C6_6  and  O9_9 
ROOT
HETATM    1  C1  UNL     1     -35.095  13.746  -4.180  1.00 20.00     0.066 C 
HETATM    2  C7  UNL     1     -35.371  15.135  -3.781  1.00 20.00     0.120 C 
HETATM    3  N8  UNL     1     -34.882  12.651  -4.501  1.00 20.00    -0.197 NA
ENDROOT
BRANCH   2   4
HETATM    4  C4  UNL     1     -34.378  15.432  -2.692  1.00 20.00     0.005 A 
HETATM    5  C2  UNL     1     -33.813  16.817  -2.538  1.00 20.00     0.006 A 
HETATM    6  C3  UNL     1     -34.776  16.279  -1.516  1.00 20.00     0.006 A 
ENDBRANCH   2   4
BRANCH   2   7
HETATM    7  C6  UNL     1     -36.818  15.329  -3.335  1.00 20.00     0.186 C 
BRANCH   7   8
HETATM    8  O9  UNL     1     -37.637  14.247  -3.761  1.00 20.00    -0.395 OA
HETATM    9  C5  UNL     1     -38.933  14.690  -4.134  1.00 20.00     0.201 C 
ENDBRANCH   7   8
ENDBRANCH   2   7
TORSDOF 3
ENDMDL
MODEL 3
REMARK VINA RESULT:      -4.1     12.043     13.026
REMARK  3 active torsions:
REMARK  status: ('A' for Active; 'I' for Inactive)
REMARK    1  A    between atoms: C4_4  and  C7_7 
REMARK    2  A    between atoms: C6_6  and  C7_7 
REMARK    3  A    between atoms: C6_6  and  O9_9 
ROOT
HETATM    1  C1  UNL     1     -34.427  13.782  -3.830  1.00 20.00     0.066 C 
HETATM    2  C7  UNL     1     -33.801  14.982  -3.253  1.00 20.00     0.120 C 
HETATM    3  N8  UNL     1     -34.914  12.832  -4.287  1.00 20.00    -0.197 NA
ENDROOT
BRANCH   2   4
HETATM    4  C4  UNL     1     -34.903  15.670  -2.496  1.00 20.00     0.005 A 
HETATM    5  C2  UNL     1     -34.598  16.422  -1.230  1.00 20.00     0.006 A 
HETATM    6  C3  UNL     1     -34.983  17.171  -2.475  1.00 20.00     0.006 A 
ENDBRANCH   2   4
BRANCH   2   7
HETATM    7  C6  UNL     1     -33.168  15.872  -4.321  1.00 20.00     0.186 C 
BRANCH   7   8
HETATM    8  O9  UNL     1     -33.831  15.724  -5.571  1.00 20.00    -0.395 OA
HETATM    9  C5  UNL     1     -34.151  16.983  -6.143  1.00 20.00     0.201 C 
ENDBRANCH   7   8
ENDBRANCH   2   7
TORSDOF 3
ENDMDL
MODEL 4
REMARK VINA RESULT:      -4.1     12.084     13.286
REMARK  3 active torsions:
REMARK  status: ('A' for Active; 'I' for Inactive)
REMARK    1  A    between atoms: C4_4  and  C7_7 
REMARK    2  A    between atoms: C6_6  and  C7_7 
REMARK    3  A    between atoms: C6_6  and  O9_9 
ROOT
HETATM    1  C1  UNL     1     -36.673  14.433  -4.194  1.00 20.00     0.066 C 
HETATM    2  C7  UNL     1     -35.312  14.577  -4.734  1.00 20.00     0.120 C 
HETATM    3  N8  UNL     1     -37.744  14.318  -3.762  1.00 20.00    -0.197 NA
ENDROOT
BRANCH   2   4
HETATM    4  C4  UNL     1     -35.494  15.212  -6.085  1.00 20.00     0.005 A 
HETATM    5  C2  UNL     1     -34.341  15.289  -7.047  1.00 20.00     0.006 A 
HETATM    6  C3  UNL     1     -35.492  14.363  -7.326  1.00 20.00     0.006 A 
ENDBRANCH   2   4
BRANCH   2   7
HETATM    7  C6  UNL     1     -34.573  13.242  -4.799  1.00 20.00     0.186 C 
BRANCH   7   8
HETATM    8  O9  UNL     1     -33.491  13.208  -3.877  1.00 20.00    -0.395 OA
HETATM    9  C5  UNL     1     -32.969  14.506  -3.638  1.00 20.00     0.201 C 
ENDBRANCH   7   8
ENDBRANCH   2   7
TORSDOF 3
ENDMDL
MODEL 5
REMARK VINA RESULT:      -4.0     12.300     13.039
REMARK  3 active torsions:
REMARK  status: ('A' for Active; 'I' for Inactive)
REMARK    1  A    between atoms: C4_4  and  C7_7 
REMARK    2  A    between atoms: C6_6  and  C7_7 
REMARK    3  A    between atoms: C6_6  and  O9_9 
ROOT
HETATM    1  C1  UNL     1     -33.810  16.606  -4.240  1.00 20.00     0.066 C 
HETATM    2  C7  UNL     1     -34.804  16.337  -3.189  1.00 20.00     0.120 C 
HETATM    3  N8  UNL     1     -33.032  16.820  -5.074  1.00 20.00    -0.197 NA
ENDROOT
BRANCH   2   4
HETATM    4  C4  UNL     1     -34.024  16.352  -1.904  1.00 20.00     0.005 A 
HETATM    5  C2  UNL     1     -33.676  17.658  -1.244  1.00 20.00     0.006 A 
HETATM    6  C3  UNL     1     -34.694  16.746  -0.617  1.00 20.00     0.006 A 
ENDBRANCH   2   4
BRANCH   2   7
HETATM    7  C6  UNL     1     -35.543  15.021  -3.419  1.00 20.00     0.186 C 
BRANCH   7   8
HETATM    8  O9  UNL     1     -34.635  13.931  -3.517  1.00 20.00    -0.395 OA
HETATM    9  C5  UNL     1     -34.838  13.188  -4.709  1.00 20.00     0.201 C 
ENDBRANCH   7   8
ENDBRANCH   2   7
TORSDOF 3
ENDMDL
MODEL 6
REMARK VINA RESULT:      -4.0     11.955     12.490
REMARK  3 active torsions:
REMARK  status: ('A' for Active; 'I' for Inactive)
REMARK    1  A    between atoms: C4_4  and  C7_7 
REMARK    2  A    between atoms: C6_6  and  C7_7 
REMARK    3  A    between atoms: C6_6  and  O9_9 
ROOT
HETATM    1  C1  UNL     1     -36.970  14.810  -3.673  1.00 20.00     0.066 C 
HETATM    2  C7  UNL     1     -35.612  15.375  -3.654  1.00 20.00     0.120 C 
HETATM    3  N8  UNL     1     -38.044  14.370  -3.691  1.00 20.00    -0.197 NA
ENDROOT
BRANCH   2   4
HETATM    4  C4  UNL     1     -34.704  14.201  -3.416  1.00 20.00     0.005 A 
HETATM    5  C2  UNL     1     -34.291  13.318  -4.562  1.00 20.00     0.006 A 
HETATM    6  C3  UNL     1     -33.285  14.228  -3.912  1.00 20.00     0.006 A 
ENDBRANCH   2   4
BRANCH   2   7
HETATM    7  C6  UNL     1     -35.457  16.468  -2.598  1.00 20.00     0.186 C 
BRANCH   7   8
HETATM    8  O9  UNL     1     -34.757  15.985  -1.458  1.00 20.00    -0.395 OA
HETATM    9  C5  UNL     1     -34.691  16.966  -0.433  1.00 20.00     0.201 C 
ENDBRANCH   7   8
ENDBRANCH   2   7
TORSDOF 3
ENDMDL
MODEL 7
REMARK VINA RESULT:      -3.9     12.530     13.931
REMARK  3 active torsions:
REMARK  status: ('A' for Active; 'I' for Inactive)
REMARK    1  A    between atoms: C4_4  and  C7_7 
REMARK    2  A    between atoms: C6_6  and  C7_7 
REMARK    3  A    between atoms: C6_6  and  O9_9 
ROOT
HETATM    1  C1  UNL     1     -34.652  13.845  -4.947  1.00 20.00     0.066 C 
HETATM    2  C7  UNL     1     -34.470  15.243  -5.368  1.00 20.00     0.120 C 
HETATM    3  N8  UNL     1     -34.797  12.744  -4.609  1.00 20.00    -0.197 NA
ENDROOT
BRANCH   2   4
HETATM    4  C4  UNL     1     -34.256  15.177  -6.855  1.00 20.00     0.005 A 
HETATM    5  C2  UNL     1     -35.318  14.600  -7.749  1.00 20.00     0.006 A 
HETATM    6  C3  UNL     1     -35.036  16.077  -7.772  1.00 20.00     0.006 A 
ENDBRANCH   2   4
BRANCH   2   7
HETATM    7  C6  UNL     1     -33.318  15.921  -4.631  1.00 20.00     0.186 C 
BRANCH   7   8
HETATM    8  O9  UNL     1     -33.248  15.489  -3.278  1.00 20.00    -0.395 OA
HETATM    9  C5  UNL     1     -33.838  16.435  -2.398  1.00 20.00     0.201 C 
ENDBRANCH   7   8
ENDBRANCH   2   7
TORSDOF 3
ENDMDL
MODEL 8
REMARK VINA RESULT:      -3.9     12.327     13.226
REMARK  3 active torsions:
REMARK  status: ('A' for Active; 'I' for Inactive)
REMARK    1  A    between atoms: C4_4  and  C7_7 
REMARK    2  A    between atoms: C6_6  and  C7_7 
REMARK    3  A    between atoms: C6_6  and  O9_9 
ROOT
HETATM    1  C1  UNL     1     -36.624  14.316  -4.142  1.00 20.00     0.066 C 
HETATM    2  C7  UNL     1     -35.257  14.235  -4.679  1.00 20.00     0.120 C 
HETATM    3  N8  UNL     1     -37.705  14.377  -3.724  1.00 20.00    -0.197 NA
ENDROOT
BRANCH   2   4
HETATM    4  C4  UNL     1     -34.359  14.339  -3.478  1.00 20.00     0.005 A 
HETATM    5  C2  UNL     1     -33.184  15.278  -3.489  1.00 20.00     0.006 A 
HETATM    6  C3  UNL     1     -34.378  15.577  -2.624  1.00 20.00     0.006 A 
ENDBRANCH   2   4
BRANCH   2   7
HETATM    7  C6  UNL     1     -34.983  15.317  -5.721  1.00 20.00     0.186 C 
BRANCH   7   8
HETATM    8  O9  UNL     1     -34.490  14.753  -6.930  1.00 20.00    -0.395 OA
HETATM    9  C5  UNL     1     -35.543  14.457  -7.834  1.00 20.00     0.201 C 
ENDBRANCH   7   8
ENDBRANCH   2   7
TORSDOF 3
ENDMDL
MODEL 9
REMARK VINA RESULT:      -3.9     11.992     13.459
REMARK  3 active torsions:
REMARK  status: ('A' for Active; 'I' for Inactive)
REMARK    1  A    between atoms: C4_4  and  C7_7 
REMARK    2  A    between atoms: C6_6  and  C7_7 
REMARK    3  A    between atoms: C6_6  and  O9_9 
ROOT
HETATM    1  C1  UNL     1     -34.384  13.580  -4.220  1.00 20.00     0.066 C 
HETATM    2  C7  UNL     1     -35.667  14.028  -4.785  1.00 20.00     0.120 C 
HETATM    3  N8  UNL     1     -33.376  13.222  -3.770  1.00 20.00    -0.197 NA
ENDROOT
BRANCH   2   4
HETATM    4  C4  UNL     1     -35.296  14.944  -5.917  1.00 20.00     0.005 A 
HETATM    5  C2  UNL     1     -35.239  14.423  -7.327  1.00 20.00     0.006 A 
HETATM    6  C3  UNL     1     -36.334  15.370  -6.918  1.00 20.00     0.006 A 
ENDBRANCH   2   4
BRANCH   2   7
HETATM    7  C6  UNL     1     -36.552  14.704  -3.740  1.00 20.00     0.186 C 
BRANCH   7   8
HETATM    8  O9  UNL     1     -37.856  14.135  -3.726  1.00 20.00    -0.395 OA
HETATM    9  C5  UNL     1     -38.861  15.137  -3.677  1.00 20.00     0.201 C 
ENDBRANCH   7   8
ENDBRANCH   2   7
TORSDOF 3
ENDMDL
