MODEL 1
REMARK VINA RESULT:      -4.7      0.000      0.000
REMARK  3 active torsions:
REMARK  status: ('A' for Active; 'I' for Inactive)
REMARK    1  A    between atoms: C4_4  and  O7_7 
REMARK    2  A    between atoms: C5_5  and  C6_6 
REMARK    3  A    between atoms: C6_6  and  O7_7 
ROOT
HETATM    1  C3  UNL     1     -35.558   5.616   3.506  1.00 20.00     0.040 C 
HETATM    2  C6  UNL     1     -34.271   6.173   4.105  1.00 20.00     0.122 C 
ENDROOT
BRANCH   2   3
HETATM    3  C5  UNL     1     -33.943   5.601   5.500  1.00 20.00     0.006 C 
HETATM    4  C1  UNL     1     -34.896   4.477   5.911  1.00 20.00     0.012 C 
HETATM    5  C2  UNL     1     -33.971   6.707   6.563  1.00 20.00     0.012 C 
ENDBRANCH   2   3
BRANCH   2   6
HETATM    6  O7  UNL     1     -33.199   5.852   3.216  1.00 20.00    -0.371 OA
BRANCH   6   7
HETATM    7  C4  UNL     1     -32.098   6.725   3.405  1.00 20.00     0.282 C 
HETATM    8 CL8  UNL     1     -32.187   8.016   2.193  1.00 20.00    -0.102 Cl
ENDBRANCH   6   7
ENDBRANCH   2   6
TORSDOF 3
ENDMDL
MODEL 2
REMARK VINA RESULT:      -4.5      0.773      1.460
REMARK  3 active torsions:
REMARK  status: ('A' for Active; 'I' for Inactive)
REMARK    1  A    between atoms: C4_4  and  O7_7 
REMARK    2  A    between atoms: C5_5  and  C6_6 
REMARK    3  A    between atoms: C6_6  and  O7_7 
ROOT
HETATM    1  C3  UNL     1     -34.391   5.191   2.983  1.00 20.00     0.040 C 
HETATM    2  C6  UNL     1     -34.251   6.234   4.087  1.00 20.00     0.122 C 
ENDROOT
BRANCH   2   3
HETATM    3  C5  UNL     1     -34.797   5.762   5.452  1.00 20.00     0.006 C 
HETATM    4  C1  UNL     1     -34.056   6.397   6.630  1.00 20.00     0.012 C 
HETATM    5  C2  UNL     1     -34.726   4.234   5.568  1.00 20.00     0.012 C 
ENDBRANCH   2   3
BRANCH   2   6
HETATM    6  O7  UNL     1     -32.862   6.537   4.231  1.00 20.00    -0.371 OA
BRANCH   6   7
HETATM    7  C4  UNL     1     -32.184   6.437   2.990  1.00 20.00     0.282 C 
HETATM    8 CL8  UNL     1     -32.124   8.047   2.249  1.00 20.00    -0.102 Cl
ENDBRANCH   6   7
ENDBRANCH   2   6
TORSDOF 3
ENDMDL
MODEL 3
REMARK VINA RESULT:      -4.5      0.724      1.957
REMARK  3 active torsions:
REMARK  status: ('A' for Active; 'I' for Inactive)
REMARK    1  A    between atoms: C4_4  and  O7_7 
REMARK    2  A    between atoms: C5_5  and  C6_6 
REMARK    3  A    between atoms: C6_6  and  O7_7 
ROOT
HETATM    1  C3  UNL     1     -33.854   6.726   6.312  1.00 20.00     0.040 C 
HETATM    2  C6  UNL     1     -33.532   5.946   5.041  1.00 20.00     0.122 C 
ENDROOT
BRANCH   2   3
HETATM    3  C5  UNL     1     -34.595   4.885   4.684  1.00 20.00     0.006 C 
HETATM    4  C1  UNL     1     -35.725   5.455   3.824  1.00 20.00     0.012 C 
HETATM    5  C2  UNL     1     -35.187   4.258   5.952  1.00 20.00     0.012 C 
ENDBRANCH   2   3
BRANCH   2   6
HETATM    6  O7  UNL     1     -33.440   6.881   3.964  1.00 20.00    -0.371 OA
BRANCH   6   7
HETATM    7  C4  UNL     1     -32.183   6.792   3.314  1.00 20.00     0.282 C 
HETATM    8 CL8  UNL     1     -32.079   8.088   2.109  1.00 20.00    -0.102 Cl
ENDBRANCH   6   7
ENDBRANCH   2   6
TORSDOF 3
ENDMDL
MODEL 4
REMARK VINA RESULT:      -3.6      1.301      2.170
REMARK  3 active torsions:
REMARK  status: ('A' for Active; 'I' for Inactive)
REMARK    1  A    between atoms: C4_4  and  O7_7 
REMARK    2  A    between atoms: C5_5  and  C6_6 
REMARK    3  A    between atoms: C6_6  and  O7_7 
ROOT
HETATM    1  C3  UNL     1     -32.176   5.603   3.341  1.00 20.00     0.040 C 
HETATM    2  C6  UNL     1     -33.530   6.281   3.158  1.00 20.00     0.122 C 
ENDROOT
BRANCH   2   3
HETATM    3  C5  UNL     1     -34.460   6.139   4.381  1.00 20.00     0.006 C 
HETATM    4  C1  UNL     1     -33.739   6.419   5.701  1.00 20.00     0.012 C 
HETATM    5  C2  UNL     1     -35.086   4.740   4.430  1.00 20.00     0.012 C 
ENDBRANCH   2   3
BRANCH   2   6
HETATM    6  O7  UNL     1     -33.296   7.671   2.922  1.00 20.00    -0.371 OA
BRANCH   6   7
HETATM    7  C4  UNL     1     -31.994   7.892   2.406  1.00 20.00     0.282 C 
HETATM    8 CL8  UNL     1     -32.112   9.010   1.035  1.00 20.00    -0.102 Cl
ENDBRANCH   6   7
ENDBRANCH   2   6
TORSDOF 3
ENDMDL
MODEL 5
REMARK VINA RESULT:      -3.6      2.381      3.878
REMARK  3 active torsions:
REMARK  status: ('A' for Active; 'I' for Inactive)
REMARK    1  A    between atoms: C4_4  and  O7_7 
REMARK    2  A    between atoms: C5_5  and  C6_6 
REMARK    3  A    between atoms: C6_6  and  O7_7 
ROOT
HETATM    1  C3  UNL     1     -33.800   6.649   5.634  1.00 20.00     0.040 C 
HETATM    2  C6  UNL     1     -33.789   6.691   4.109  1.00 20.00     0.122 C 
ENDROOT
BRANCH   2   3
HETATM    3  C5  UNL     1     -32.369   6.738   3.506  1.00 20.00     0.006 C 
HETATM    4  C1  UNL     1     -32.199   7.874   2.496  1.00 20.00     0.012 C 
HETATM    5  C2  UNL     1     -32.017   5.403   2.836  1.00 20.00     0.012 C 
ENDBRANCH   2   3
BRANCH   2   6
HETATM    6  O7  UNL     1     -34.448   5.516   3.633  1.00 20.00    -0.371 OA
BRANCH   6   7
HETATM    7  C4  UNL     1     -35.448   5.085   4.542  1.00 20.00     0.282 C 
HETATM    8 CL8  UNL     1     -34.856   3.646   5.391  1.00 20.00    -0.102 Cl
ENDBRANCH   6   7
ENDBRANCH   2   6
TORSDOF 3
ENDMDL
MODEL 6
REMARK VINA RESULT:      -3.5     11.810     12.579
REMARK  3 active torsions:
REMARK  status: ('A' for Active; 'I' for Inactive)
REMARK    1  A    between atoms: C4_4  and  O7_7 
REMARK    2  A    between atoms: C5_5  and  C6_6 
REMARK    3  A    between atoms: C6_6  and  O7_7 
ROOT
HETATM    1  C3  UNL     1     -33.357  13.649  -3.761  1.00 20.00     0.040 C 
HETATM    2  C6  UNL     1     -34.417  14.677  -3.380  1.00 20.00     0.122 C 
ENDROOT
BRANCH   2   3
HETATM    3  C5  UNL     1     -33.837  15.936  -2.702  1.00 20.00     0.006 C 
HETATM    4  C1  UNL     1     -34.641  16.362  -1.472  1.00 20.00     0.012 C 
HETATM    5  C2  UNL     1     -33.763  17.105  -3.692  1.00 20.00     0.012 C 
ENDBRANCH   2   3
BRANCH   2   6
HETATM    6  O7  UNL     1     -35.092  15.074  -4.576  1.00 20.00    -0.371 OA
BRANCH   6   7
HETATM    7  C4  UNL     1     -34.885  14.134  -5.617  1.00 20.00     0.282 C 
HETATM    8 CL8  UNL     1     -34.302  15.000  -7.050  1.00 20.00    -0.102 Cl
ENDBRANCH   6   7
ENDBRANCH   2   6
TORSDOF 3
ENDMDL
MODEL 7
REMARK VINA RESULT:      -3.4     11.784     13.066
REMARK  3 active torsions:
REMARK  status: ('A' for Active; 'I' for Inactive)
REMARK    1  A    between atoms: C4_4  and  O7_7 
REMARK    2  A    between atoms: C5_5  and  C6_6 
REMARK    3  A    between atoms: C6_6  and  O7_7 
ROOT
HETATM    1  C3  UNL     1     -33.726  13.811  -3.802  1.00 20.00     0.040 C 
HETATM    2  C6  UNL     1     -33.297  15.253  -4.049  1.00 20.00     0.122 C 
ENDROOT
BRANCH   2   3
HETATM    3  C5  UNL     1     -34.166  15.984  -5.094  1.00 20.00     0.006 C 
HETATM    4  C1  UNL     1     -34.406  15.142  -6.349  1.00 20.00     0.012 C 
HETATM    5  C2  UNL     1     -33.531  17.322  -5.493  1.00 20.00     0.012 C 
ENDBRANCH   2   3
BRANCH   2   6
HETATM    6  O7  UNL     1     -33.386  15.957  -2.809  1.00 20.00    -0.371 OA
BRANCH   6   7
HETATM    7  C4  UNL     1     -34.696  15.886  -2.272  1.00 20.00     0.282 C 
HETATM    8 CL8  UNL     1     -34.680  16.597  -0.648  1.00 20.00    -0.102 Cl
ENDBRANCH   6   7
ENDBRANCH   2   6
TORSDOF 3
ENDMDL
MODEL 8
REMARK VINA RESULT:      -3.4     11.642     12.237
REMARK  3 active torsions:
REMARK  status: ('A' for Active; 'I' for Inactive)
REMARK    1  A    between atoms: C4_4  and  O7_7 
REMARK    2  A    between atoms: C5_5  and  C6_6 
REMARK    3  A    between atoms: C6_6  and  O7_7 
ROOT
HETATM    1  C3  UNL     1     -36.685  14.756  -3.867  1.00 20.00     0.040 C 
HETATM    2  C6  UNL     1     -35.380  15.014  -3.122  1.00 20.00     0.122 C 
ENDROOT
BRANCH   2   3
HETATM    3  C5  UNL     1     -34.240  14.056  -3.528  1.00 20.00     0.006 C 
HETATM    4  C1  UNL     1     -32.910  14.783  -3.736  1.00 20.00     0.012 C 
HETATM    5  C2  UNL     1     -34.604  13.285  -4.802  1.00 20.00     0.012 C 
ENDBRANCH   2   3
BRANCH   2   6
HETATM    6  O7  UNL     1     -34.972  16.354  -3.404  1.00 20.00    -0.371 OA
BRANCH   6   7
HETATM    7  C4  UNL     1     -35.285  17.223  -2.328  1.00 20.00     0.282 C 
HETATM    8 CL8  UNL     1     -34.652  16.517  -0.830  1.00 20.00    -0.102 Cl
ENDBRANCH   6   7
ENDBRANCH   2   6
TORSDOF 3
ENDMDL
MODEL 9
REMARK VINA RESULT:      -3.4      9.268     10.397
REMARK  3 active torsions:
REMARK  status: ('A' for Active; 'I' for Inactive)
REMARK    1  A    between atoms: C4_4  and  O7_7 
REMARK    2  A    between atoms: C5_5  and  C6_6 
REMARK    3  A    between atoms: C6_6  and  O7_7 
ROOT
HETATM    1  C3  UNL     1     -41.544   4.699   0.151  1.00 20.00     0.040 C 
HETATM    2  C6  UNL     1     -41.175   4.613  -1.327  1.00 20.00     0.122 C 
ENDROOT
BRANCH   2   3
HETATM    3  C5  UNL     1     -42.204   3.835  -2.174  1.00 20.00     0.006 C 
HETATM    4  C1  UNL     1     -41.553   2.760  -3.045  1.00 20.00     0.012 C 
HETATM    5  C2  UNL     1     -43.012   4.790  -3.062  1.00 20.00     0.012 C 
ENDBRANCH   2   3
BRANCH   2   6
HETATM    6  O7  UNL     1     -41.081   5.946  -1.833  1.00 20.00    -0.371 OA
BRANCH   6   7
HETATM    7  C4  UNL     1     -41.069   6.895  -0.780  1.00 20.00     0.282 C 
HETATM    8 CL8  UNL     1     -42.474   7.961  -0.965  1.00 20.00    -0.102 Cl
ENDBRANCH   6   7
ENDBRANCH   2   6
TORSDOF 3
ENDMDL
