MODEL 1
REMARK VINA RESULT:      -4.2      0.000      0.000
REMARK  4 active torsions:
REMARK  status: ('A' for Active; 'I' for Inactive)
REMARK    1  A    between atoms: C2_2  and  C7_7 
REMARK    2  A    between atoms: C7_7  and  O11_11 
REMARK    3  A    between atoms: C8_8  and  C9_9 
REMARK    4  A    between atoms: C9_9  and  O11_11 
ROOT
HETATM    1  O11 UNL     1     -34.637  15.768  -2.437  1.00 20.00    -0.383 OA
ENDROOT
BRANCH   1   2
HETATM    2  C7  UNL     1     -34.102  14.699  -3.200  1.00 20.00     0.208 C 
BRANCH   2   3
HETATM    3  C2  UNL     1     -35.192  14.129  -4.083  1.00 20.00     0.100 A 
HETATM    4  C1  UNL     1     -34.832  13.547  -5.428  1.00 20.00     0.208 A 
HETATM    5  O10 UNL     1     -35.089  12.713  -4.287  1.00 20.00    -0.373 OA
HETATM    6  C3  UNL     1     -36.587  14.601  -3.833  1.00 20.00     0.050 C 
ENDBRANCH   2   3
ENDBRANCH   1   2
BRANCH   1   7
HETATM    7  C9  UNL     1     -33.737  16.877  -2.395  1.00 20.00     0.120 C 
HETATM    8  C6  UNL     1     -33.828  17.604  -3.732  1.00 20.00     0.040 C 
BRANCH   7   9
HETATM    9  C8  UNL     1     -34.103  17.765  -1.187  1.00 20.00     0.006 C 
HETATM   10  C4  UNL     1     -32.874  18.402  -0.536  1.00 20.00     0.012 C 
HETATM   11  C5  UNL     1     -34.876  16.959  -0.133  1.00 20.00     0.012 C 
ENDBRANCH   7   9
ENDBRANCH   1   7
TORSDOF 4
ENDMDL
MODEL 2
REMARK VINA RESULT:      -4.2     10.901     11.887
REMARK  4 active torsions:
REMARK  status: ('A' for Active; 'I' for Inactive)
REMARK    1  A    between atoms: C2_2  and  C7_7 
REMARK    2  A    between atoms: C7_7  and  O11_11 
REMARK    3  A    between atoms: C8_8  and  C9_9 
REMARK    4  A    between atoms: C9_9  and  O11_11 
ROOT
HETATM    1  O11 UNL     1     -33.026   5.968   4.010  1.00 20.00    -0.383 OA
ENDROOT
BRANCH   1   2
HETATM    2  C7  UNL     1     -32.749   6.352   2.673  1.00 20.00     0.208 C 
BRANCH   2   3
HETATM    3  C2  UNL     1     -31.998   7.667   2.682  1.00 20.00     0.100 A 
HETATM    4  C1  UNL     1     -31.734   8.382   1.379  1.00 20.00     0.208 A 
HETATM    5  O10 UNL     1     -32.790   8.787   2.264  1.00 20.00    -0.373 OA
HETATM    6  C3  UNL     1     -31.133   7.950   3.867  1.00 20.00     0.050 C 
ENDBRANCH   2   3
ENDBRANCH   1   2
BRANCH   1   7
HETATM    7  C9  UNL     1     -34.380   6.253   4.361  1.00 20.00     0.120 C 
HETATM    8  C6  UNL     1     -35.281   5.348   3.528  1.00 20.00     0.040 C 
BRANCH   7   9
HETATM    9  C8  UNL     1     -34.547   6.055   5.883  1.00 20.00     0.006 C 
HETATM   10  C4  UNL     1     -33.558   6.893   6.695  1.00 20.00     0.012 C 
HETATM   11  C5  UNL     1     -34.390   4.575   6.260  1.00 20.00     0.012 C 
ENDBRANCH   7   9
ENDBRANCH   1   7
TORSDOF 4
ENDMDL
MODEL 3
REMARK VINA RESULT:      -4.0      1.853      2.899
REMARK  4 active torsions:
REMARK  status: ('A' for Active; 'I' for Inactive)
REMARK    1  A    between atoms: C2_2  and  C7_7 
REMARK    2  A    between atoms: C7_7  and  O11_11 
REMARK    3  A    between atoms: C8_8  and  C9_9 
REMARK    4  A    between atoms: C9_9  and  O11_11 
ROOT
HETATM    1  O11 UNL     1     -35.597  13.926  -4.117  1.00 20.00    -0.383 OA
ENDROOT
BRANCH   1   2
HETATM    2  C7  UNL     1     -35.048  13.599  -5.383  1.00 20.00     0.208 C 
BRANCH   2   3
HETATM    3  C2  UNL     1     -35.528  14.608  -6.405  1.00 20.00     0.100 A 
HETATM    4  C1  UNL     1     -34.545  15.201  -7.384  1.00 20.00     0.208 A 
HETATM    5  O10 UNL     1     -35.442  14.145  -7.760  1.00 20.00    -0.373 OA
HETATM    6  C3  UNL     1     -36.795  15.339  -6.099  1.00 20.00     0.050 C 
ENDBRANCH   2   3
ENDBRANCH   1   2
BRANCH   1   7
HETATM    7  C9  UNL     1     -34.581  14.337  -3.202  1.00 20.00     0.120 C 
HETATM    8  C6  UNL     1     -33.239  13.866  -3.751  1.00 20.00     0.040 C 
BRANCH   7   9
HETATM    9  C8  UNL     1     -34.669  15.867  -3.021  1.00 20.00     0.006 C 
HETATM   10  C4  UNL     1     -33.563  16.610  -3.772  1.00 20.00     0.012 C 
HETATM   11  C5  UNL     1     -34.616  16.243  -1.534  1.00 20.00     0.012 C 
ENDBRANCH   7   9
ENDBRANCH   1   7
TORSDOF 4
ENDMDL
MODEL 4
REMARK VINA RESULT:      -4.0      1.021      1.333
REMARK  4 active torsions:
REMARK  status: ('A' for Active; 'I' for Inactive)
REMARK    1  A    between atoms: C2_2  and  C7_7 
REMARK    2  A    between atoms: C7_7  and  O11_11 
REMARK    3  A    between atoms: C8_8  and  C9_9 
REMARK    4  A    between atoms: C9_9  and  O11_11 
ROOT
HETATM    1  O11 UNL     1     -33.536  15.635  -2.778  1.00 20.00    -0.383 OA
ENDROOT
BRANCH   1   2
HETATM    2  C7  UNL     1     -34.034  15.534  -4.102  1.00 20.00     0.208 C 
BRANCH   2   3
HETATM    3  C2  UNL     1     -34.969  14.346  -4.189  1.00 20.00     0.100 A 
HETATM    4  C1  UNL     1     -34.584  13.155  -5.034  1.00 20.00     0.208 A 
HETATM    5  O10 UNL     1     -34.437  13.148  -3.606  1.00 20.00    -0.373 OA
HETATM    6  C3  UNL     1     -36.408  14.585  -3.865  1.00 20.00     0.050 C 
ENDBRANCH   2   3
ENDBRANCH   1   2
BRANCH   1   7
HETATM    7  C9  UNL     1     -33.769  16.934  -2.234  1.00 20.00     0.120 C 
HETATM    8  C6  UNL     1     -33.899  17.912  -3.397  1.00 20.00     0.040 C 
BRANCH   7   9
HETATM    9  C8  UNL     1     -35.024  16.876  -1.337  1.00 20.00     0.006 C 
HETATM   10  C4  UNL     1     -36.162  17.752  -1.864  1.00 20.00     0.012 C 
HETATM   11  C5  UNL     1     -34.684  17.294   0.101  1.00 20.00     0.012 C 
ENDBRANCH   7   9
ENDBRANCH   1   7
TORSDOF 4
ENDMDL
MODEL 5
REMARK VINA RESULT:      -3.9     10.933     12.033
REMARK  4 active torsions:
REMARK  status: ('A' for Active; 'I' for Inactive)
REMARK    1  A    between atoms: C2_2  and  C7_7 
REMARK    2  A    between atoms: C7_7  and  O11_11 
REMARK    3  A    between atoms: C8_8  and  C9_9 
REMARK    4  A    between atoms: C9_9  and  O11_11 
ROOT
HETATM    1  O11 UNL     1     -33.815   6.906   3.914  1.00 20.00    -0.383 OA
ENDROOT
BRANCH   1   2
HETATM    2  C7  UNL     1     -32.923   6.629   2.847  1.00 20.00     0.208 C 
BRANCH   2   3
HETATM    3  C2  UNL     1     -31.983   7.803   2.671  1.00 20.00     0.100 A 
HETATM    4  C1  UNL     1     -31.742   8.364   1.291  1.00 20.00     0.208 A 
HETATM    5  O10 UNL     1     -32.632   9.000   2.221  1.00 20.00    -0.373 OA
HETATM    6  C3  UNL     1     -30.973   8.035   3.748  1.00 20.00     0.050 C 
ENDBRANCH   2   3
ENDBRANCH   1   2
BRANCH   1   7
HETATM    7  C9  UNL     1     -33.678   5.951   4.966  1.00 20.00     0.120 C 
HETATM    8  C6  UNL     1     -33.858   6.685   6.291  1.00 20.00     0.040 C 
BRANCH   7   9
HETATM    9  C8  UNL     1     -34.705   4.820   4.745  1.00 20.00     0.006 C 
HETATM   10  C4  UNL     1     -35.920   5.283   3.939  1.00 20.00     0.012 C 
HETATM   11  C5  UNL     1     -35.174   4.241   6.087  1.00 20.00     0.012 C 
ENDBRANCH   7   9
ENDBRANCH   1   7
TORSDOF 4
ENDMDL
MODEL 6
REMARK VINA RESULT:      -3.9      1.720      4.776
REMARK  4 active torsions:
REMARK  status: ('A' for Active; 'I' for Inactive)
REMARK    1  A    between atoms: C2_2  and  C7_7 
REMARK    2  A    between atoms: C7_7  and  O11_11 
REMARK    3  A    between atoms: C8_8  and  C9_9 
REMARK    4  A    between atoms: C9_9  and  O11_11 
ROOT
HETATM    1  O11 UNL     1     -33.755  16.604  -2.443  1.00 20.00    -0.383 OA
ENDROOT
BRANCH   1   2
HETATM    2  C7  UNL     1     -34.629  16.356  -1.354  1.00 20.00     0.208 C 
BRANCH   2   3
HETATM    3  C2  UNL     1     -34.537  17.507  -0.375  1.00 20.00     0.100 A 
HETATM    4  C1  UNL     1     -35.799  18.196   0.085  1.00 20.00     0.208 A 
HETATM    5  O10 UNL     1     -35.126  17.228   0.903  1.00 20.00    -0.373 OA
HETATM    6  C3  UNL     1     -33.232  18.228  -0.292  1.00 20.00     0.050 C 
ENDBRANCH   2   3
ENDBRANCH   1   2
BRANCH   1   7
HETATM    7  C9  UNL     1     -34.255  16.029  -3.651  1.00 20.00     0.120 C 
HETATM    8  C6  UNL     1     -33.228  16.280  -4.750  1.00 20.00     0.040 C 
BRANCH   7   9
HETATM    9  C8  UNL     1     -34.539  14.532  -3.405  1.00 20.00     0.006 C 
HETATM   10  C4  UNL     1     -33.342  13.645  -3.753  1.00 20.00     0.012 C 
HETATM   11  C5  UNL     1     -35.764  14.071  -4.207  1.00 20.00     0.012 C 
ENDBRANCH   7   9
ENDBRANCH   1   7
TORSDOF 4
ENDMDL
MODEL 7
REMARK VINA RESULT:      -3.8      1.894      3.390
REMARK  4 active torsions:
REMARK  status: ('A' for Active; 'I' for Inactive)
REMARK    1  A    between atoms: C2_2  and  C7_7 
REMARK    2  A    between atoms: C7_7  and  O11_11 
REMARK    3  A    between atoms: C8_8  and  C9_9 
REMARK    4  A    between atoms: C9_9  and  O11_11 
ROOT
HETATM    1  O11 UNL     1     -35.590  14.672  -3.171  1.00 20.00    -0.383 OA
ENDROOT
BRANCH   1   2
HETATM    2  C7  UNL     1     -36.465  14.388  -4.250  1.00 20.00     0.208 C 
BRANCH   2   3
HETATM    3  C2  UNL     1     -37.746  15.174  -4.067  1.00 20.00     0.100 A 
HETATM    4  C1  UNL     1     -38.931  14.884  -4.956  1.00 20.00     0.208 A 
HETATM    5  O10 UNL     1     -38.852  14.380  -3.614  1.00 20.00    -0.373 OA
HETATM    6  C3  UNL     1     -37.641  16.501  -3.389  1.00 20.00     0.050 C 
ENDBRANCH   2   3
ENDBRANCH   1   2
BRANCH   1   7
HETATM    7  C9  UNL     1     -34.254  14.260  -3.464  1.00 20.00     0.120 C 
HETATM    8  C6  UNL     1     -34.258  13.605  -4.841  1.00 20.00     0.040 C 
BRANCH   7   9
HETATM    9  C8  UNL     1     -33.326  15.490  -3.371  1.00 20.00     0.006 C 
HETATM   10  C4  UNL     1     -33.783  16.489  -2.306  1.00 20.00     0.012 C 
HETATM   11  C5  UNL     1     -33.227  16.201  -4.727  1.00 20.00     0.012 C 
ENDBRANCH   7   9
ENDBRANCH   1   7
TORSDOF 4
ENDMDL
MODEL 8
REMARK VINA RESULT:      -3.8      1.475      2.334
REMARK  4 active torsions:
REMARK  status: ('A' for Active; 'I' for Inactive)
REMARK    1  A    between atoms: C2_2  and  C7_7 
REMARK    2  A    between atoms: C7_7  and  O11_11 
REMARK    3  A    between atoms: C8_8  and  C9_9 
REMARK    4  A    between atoms: C9_9  and  O11_11 
ROOT
HETATM    1  O11 UNL     1     -36.239  15.173  -3.058  1.00 20.00    -0.383 OA
ENDROOT
BRANCH   1   2
HETATM    2  C7  UNL     1     -36.442  14.361  -4.204  1.00 20.00     0.208 C 
BRANCH   2   3
HETATM    3  C2  UNL     1     -35.097  14.004  -4.800  1.00 20.00     0.100 A 
HETATM    4  C1  UNL     1     -33.989  13.516  -3.898  1.00 20.00     0.208 A 
HETATM    5  O10 UNL     1     -34.770  12.611  -4.694  1.00 20.00    -0.373 OA
HETATM    6  C3  UNL     1     -34.759  14.602  -6.126  1.00 20.00     0.050 C 
ENDBRANCH   2   3
ENDBRANCH   1   2
BRANCH   1   7
HETATM    7  C9  UNL     1     -36.160  16.555  -3.410  1.00 20.00     0.120 C 
HETATM    8  C6  UNL     1     -37.493  17.205  -3.057  1.00 20.00     0.040 C 
BRANCH   7   9
HETATM    9  C8  UNL     1     -34.956  17.183  -2.676  1.00 20.00     0.006 C 
HETATM   10  C4  UNL     1     -33.723  17.305  -3.572  1.00 20.00     0.012 C 
HETATM   11  C5  UNL     1     -34.597  16.370  -1.424  1.00 20.00     0.012 C 
ENDBRANCH   7   9
ENDBRANCH   1   7
TORSDOF 4
ENDMDL
MODEL 9
REMARK VINA RESULT:      -3.7      1.977      2.816
REMARK  4 active torsions:
REMARK  status: ('A' for Active; 'I' for Inactive)
REMARK    1  A    between atoms: C2_2  and  C7_7 
REMARK    2  A    between atoms: C7_7  and  O11_11 
REMARK    3  A    between atoms: C8_8  and  C9_9 
REMARK    4  A    between atoms: C9_9  and  O11_11 
ROOT
HETATM    1  O11 UNL     1     -35.219  16.501  -4.709  1.00 20.00    -0.383 OA
ENDROOT
BRANCH   1   2
HETATM    2  C7  UNL     1     -36.102  15.663  -5.437  1.00 20.00     0.208 C 
BRANCH   2   3
HETATM    3  C2  UNL     1     -35.303  14.561  -6.099  1.00 20.00     0.100 A 
HETATM    4  C1  UNL     1     -35.355  14.402  -7.599  1.00 20.00     0.208 A 
HETATM    5  O10 UNL     1     -34.248  15.039  -6.945  1.00 20.00    -0.373 OA
HETATM    6  C3  UNL     1     -34.911  13.397  -5.248  1.00 20.00     0.050 C 
ENDBRANCH   2   3
ENDBRANCH   1   2
BRANCH   1   7
HETATM    7  C9  UNL     1     -35.676  16.700  -3.371  1.00 20.00     0.120 C 
HETATM    8  C6  UNL     1     -37.135  16.261  -3.305  1.00 20.00     0.040 C 
BRANCH   7   9
HETATM    9  C8  UNL     1     -34.754  15.917  -2.413  1.00 20.00     0.006 C 
HETATM   10  C4  UNL     1     -34.673  16.557  -1.026  1.00 20.00     0.012 C 
HETATM   11  C5  UNL     1     -33.342  15.789  -2.999  1.00 20.00     0.012 C 
ENDBRANCH   7   9
ENDBRANCH   1   7
TORSDOF 4
ENDMDL
