MODEL 1
REMARK VINA RESULT:      -4.5      0.000      0.000
REMARK  3 active torsions:
REMARK  status: ('A' for Active; 'I' for Inactive)
REMARK    1  A    between atoms: C1_1  and  C4_4 
REMARK    2  A    between atoms: C1_1  and  C7_7 
REMARK    3  A    between atoms: C7_7  and  O9_9 
ROOT
HETATM    1  C1  UNL     1     -33.788   5.879   4.108  1.00 20.00     0.158 C 
HETATM    2  O8  UNL     1     -34.442   5.409   3.177  1.00 20.00    -0.295 OA
ENDROOT
BRANCH   1   3
HETATM    3  C4  UNL     1     -34.175   5.638   5.519  1.00 20.00     0.019 A 
HETATM    4  C2  UNL     1     -34.009   4.226   6.044  1.00 20.00     0.018 A 
HETATM    5  C3  UNL     1     -35.382   4.755   5.758  1.00 20.00     0.018 A 
HETATM    6  C5  UNL     1     -33.944   6.764   6.495  1.00 20.00     0.023 C 
ENDBRANCH   1   3
BRANCH   1   7
HETATM    7  C7  UNL     1     -32.555   6.729   3.885  1.00 20.00     0.246 C 
BRANCH   7   8
HETATM    8  O9  UNL     1     -32.268   6.840   2.507  1.00 20.00    -0.389 OA
HETATM    9  C6  UNL     1     -32.102   8.197   2.108  1.00 20.00     0.202 C 
ENDBRANCH   7   8
ENDBRANCH   1   7
TORSDOF 3
ENDMDL
MODEL 2
REMARK VINA RESULT:      -4.3      1.437      1.800
REMARK  3 active torsions:
REMARK  status: ('A' for Active; 'I' for Inactive)
REMARK    1  A    between atoms: C1_1  and  C4_4 
REMARK    2  A    between atoms: C1_1  and  C7_7 
REMARK    3  A    between atoms: C7_7  and  O9_9 
ROOT
HETATM    1  C1  UNL     1     -33.545   6.197   4.754  1.00 20.00     0.158 C 
HETATM    2  O8  UNL     1     -33.200   6.909   5.697  1.00 20.00    -0.295 OA
ENDROOT
BRANCH   1   3
HETATM    3  C4  UNL     1     -34.719   5.297   4.857  1.00 20.00     0.019 A 
HETATM    4  C2  UNL     1     -35.168   4.912   6.251  1.00 20.00     0.018 A 
HETATM    5  C3  UNL     1     -34.469   3.903   5.393  1.00 20.00     0.018 A 
HETATM    6  C5  UNL     1     -35.791   5.446   3.807  1.00 20.00     0.023 C 
ENDBRANCH   1   3
BRANCH   1   7
HETATM    7  C7  UNL     1     -32.805   6.187   3.433  1.00 20.00     0.246 C 
BRANCH   7   8
HETATM    8  O9  UNL     1     -31.871   7.245   3.377  1.00 20.00    -0.389 OA
HETATM    9  C6  UNL     1     -32.071   8.068   2.231  1.00 20.00     0.202 C 
ENDBRANCH   7   8
ENDBRANCH   1   7
TORSDOF 3
ENDMDL
MODEL 3
REMARK VINA RESULT:      -4.1     11.668     12.450
REMARK  3 active torsions:
REMARK  status: ('A' for Active; 'I' for Inactive)
REMARK    1  A    between atoms: C1_1  and  C4_4 
REMARK    2  A    between atoms: C1_1  and  C7_7 
REMARK    3  A    between atoms: C7_7  and  O9_9 
ROOT
HETATM    1  C1  UNL     1     -35.207  14.028  -4.049  1.00 20.00     0.158 C 
HETATM    2  O8  UNL     1     -34.930  12.833  -4.146  1.00 20.00    -0.295 OA
ENDROOT
BRANCH   1   3
HETATM    3  C4  UNL     1     -34.250  14.996  -3.462  1.00 20.00     0.019 A 
HETATM    4  C2  UNL     1     -33.333  15.723  -4.425  1.00 20.00     0.018 A 
HETATM    5  C3  UNL     1     -32.779  14.643  -3.546  1.00 20.00     0.018 A 
HETATM    6  C5  UNL     1     -34.705  15.756  -2.242  1.00 20.00     0.023 C 
ENDBRANCH   1   3
BRANCH   1   7
HETATM    7  C7  UNL     1     -36.532  14.593  -4.515  1.00 20.00     0.246 C 
BRANCH   7   8
HETATM    8  O9  UNL     1     -37.591  14.099  -3.723  1.00 20.00    -0.389 OA
HETATM    9  C6  UNL     1     -38.710  14.981  -3.723  1.00 20.00     0.202 C 
ENDBRANCH   7   8
ENDBRANCH   1   7
TORSDOF 3
ENDMDL
MODEL 4
REMARK VINA RESULT:      -3.9     11.695     12.476
REMARK  3 active torsions:
REMARK  status: ('A' for Active; 'I' for Inactive)
REMARK    1  A    between atoms: C1_1  and  C4_4 
REMARK    2  A    between atoms: C1_1  and  C7_7 
REMARK    3  A    between atoms: C7_7  and  O9_9 
ROOT
HETATM    1  C1  UNL     1     -35.261  14.046  -4.045  1.00 20.00     0.158 C 
HETATM    2  O8  UNL     1     -34.939  12.859  -4.070  1.00 20.00    -0.295 OA
ENDROOT
BRANCH   1   3
HETATM    3  C4  UNL     1     -34.361  15.076  -3.472  1.00 20.00     0.019 A 
HETATM    4  C2  UNL     1     -34.795  15.719  -2.171  1.00 20.00     0.018 A 
HETATM    5  C3  UNL     1     -34.877  16.500  -3.447  1.00 20.00     0.018 A 
HETATM    6  C5  UNL     1     -32.880  14.886  -3.683  1.00 20.00     0.023 C 
ENDBRANCH   1   3
BRANCH   1   7
HETATM    7  C7  UNL     1     -36.585  14.539  -4.589  1.00 20.00     0.246 C 
BRANCH   7   8
HETATM    8  O9  UNL     1     -37.649  14.132  -3.755  1.00 20.00    -0.389 OA
HETATM    9  C6  UNL     1     -38.600  15.176  -3.561  1.00 20.00     0.202 C 
ENDBRANCH   7   8
ENDBRANCH   1   7
TORSDOF 3
ENDMDL
MODEL 5
REMARK VINA RESULT:      -3.8     11.776     13.173
REMARK  3 active torsions:
REMARK  status: ('A' for Active; 'I' for Inactive)
REMARK    1  A    between atoms: C1_1  and  C4_4 
REMARK    2  A    between atoms: C1_1  and  C7_7 
REMARK    3  A    between atoms: C7_7  and  O9_9 
ROOT
HETATM    1  C1  UNL     1     -34.510  13.792  -4.841  1.00 20.00     0.158 C 
HETATM    2  O8  UNL     1     -34.782  12.594  -4.922  1.00 20.00    -0.295 OA
ENDROOT
BRANCH   1   3
HETATM    3  C4  UNL     1     -35.065  14.774  -5.803  1.00 20.00     0.019 A 
HETATM    4  C2  UNL     1     -34.491  14.761  -7.205  1.00 20.00     0.018 A 
HETATM    5  C3  UNL     1     -34.138  15.877  -6.269  1.00 20.00     0.018 A 
HETATM    6  C5  UNL     1     -36.526  15.120  -5.663  1.00 20.00     0.023 C 
ENDBRANCH   1   3
BRANCH   1   7
HETATM    7  C7  UNL     1     -33.598  14.345  -3.768  1.00 20.00     0.246 C 
BRANCH   7   8
HETATM    8  O9  UNL     1     -34.343  15.038  -2.788  1.00 20.00    -0.389 OA
HETATM    9  C6  UNL     1     -33.809  16.333  -2.532  1.00 20.00     0.202 C 
ENDBRANCH   7   8
ENDBRANCH   1   7
TORSDOF 3
ENDMDL
MODEL 6
REMARK VINA RESULT:      -3.8     11.621     12.611
REMARK  3 active torsions:
REMARK  status: ('A' for Active; 'I' for Inactive)
REMARK    1  A    between atoms: C1_1  and  C4_4 
REMARK    2  A    between atoms: C1_1  and  C7_7 
REMARK    3  A    between atoms: C7_7  and  O9_9 
ROOT
HETATM    1  C1  UNL     1     -35.198  13.992  -3.935  1.00 20.00     0.158 C 
HETATM    2  O8  UNL     1     -34.853  12.843  -4.211  1.00 20.00    -0.295 OA
ENDROOT
BRANCH   1   3
HETATM    3  C4  UNL     1     -34.225  14.984  -3.418  1.00 20.00     0.019 A 
HETATM    4  C2  UNL     1     -33.348  15.681  -4.439  1.00 20.00     0.018 A 
HETATM    5  C3  UNL     1     -32.757  14.636  -3.543  1.00 20.00     0.018 A 
HETATM    6  C5  UNL     1     -34.640  15.785  -2.210  1.00 20.00     0.023 C 
ENDBRANCH   1   3
BRANCH   1   7
HETATM    7  C7  UNL     1     -36.624  14.472  -4.101  1.00 20.00     0.246 C 
BRANCH   7   8
HETATM    8  O9  UNL     1     -36.687  15.535  -5.028  1.00 20.00    -0.389 OA
HETATM    9  C6  UNL     1     -36.567  15.076  -6.371  1.00 20.00     0.202 C 
ENDBRANCH   7   8
ENDBRANCH   1   7
TORSDOF 3
ENDMDL
MODEL 7
REMARK VINA RESULT:      -3.7     11.992     13.222
REMARK  3 active torsions:
REMARK  status: ('A' for Active; 'I' for Inactive)
REMARK    1  A    between atoms: C1_1  and  C4_4 
REMARK    2  A    between atoms: C1_1  and  C7_7 
REMARK    3  A    between atoms: C7_7  and  O9_9 
ROOT
HETATM    1  C1  UNL     1     -33.848  15.838  -4.953  1.00 20.00     0.158 C 
HETATM    2  O8  UNL     1     -32.811  16.498  -5.010  1.00 20.00    -0.295 OA
ENDROOT
BRANCH   1   3
HETATM    3  C4  UNL     1     -34.149  14.976  -3.785  1.00 20.00     0.019 A 
HETATM    4  C2  UNL     1     -33.425  13.647  -3.710  1.00 20.00     0.018 A 
HETATM    5  C3  UNL     1     -34.881  13.679  -4.060  1.00 20.00     0.018 A 
HETATM    6  C5  UNL     1     -34.448  15.669  -2.480  1.00 20.00     0.023 C 
ENDBRANCH   1   3
BRANCH   1   7
HETATM    7  C7  UNL     1     -34.883  15.856  -6.058  1.00 20.00     0.246 C 
BRANCH   7   8
HETATM    8  O9  UNL     1     -34.421  15.144  -7.186  1.00 20.00    -0.389 OA
HETATM    9  C6  UNL     1     -35.478  14.461  -7.853  1.00 20.00     0.202 C 
ENDBRANCH   7   8
ENDBRANCH   1   7
TORSDOF 3
ENDMDL
MODEL 8
REMARK VINA RESULT:      -3.6     11.617     12.762
REMARK  3 active torsions:
REMARK  status: ('A' for Active; 'I' for Inactive)
REMARK    1  A    between atoms: C1_1  and  C4_4 
REMARK    2  A    between atoms: C1_1  and  C7_7 
REMARK    3  A    between atoms: C7_7  and  O9_9 
ROOT
HETATM    1  C1  UNL     1     -33.643  16.044  -4.174  1.00 20.00     0.158 C 
HETATM    2  O8  UNL     1     -32.816  16.422  -5.004  1.00 20.00    -0.295 OA
ENDROOT
BRANCH   1   3
HETATM    3  C4  UNL     1     -34.149  14.650  -4.171  1.00 20.00     0.019 A 
HETATM    4  C2  UNL     1     -35.128  14.273  -5.265  1.00 20.00     0.018 A 
HETATM    5  C3  UNL     1     -35.618  14.454  -3.861  1.00 20.00     0.018 A 
HETATM    6  C5  UNL     1     -33.200  13.577  -3.700  1.00 20.00     0.023 C 
ENDBRANCH   1   3
BRANCH   1   7
HETATM    7  C7  UNL     1     -34.200  16.962  -3.108  1.00 20.00     0.246 C 
BRANCH   7   8
HETATM    8  O9  UNL     1     -33.627  16.672  -1.850  1.00 20.00    -0.389 OA
HETATM    9  C6  UNL     1     -34.600  16.670  -0.811  1.00 20.00     0.202 C 
ENDBRANCH   7   8
ENDBRANCH   1   7
TORSDOF 3
ENDMDL
MODEL 9
REMARK VINA RESULT:      -3.6     11.706     12.864
REMARK  3 active torsions:
REMARK  status: ('A' for Active; 'I' for Inactive)
REMARK    1  A    between atoms: C1_1  and  C4_4 
REMARK    2  A    between atoms: C1_1  and  C7_7 
REMARK    3  A    between atoms: C7_7  and  O9_9 
ROOT
HETATM    1  C1  UNL     1     -33.406  15.931  -3.963  1.00 20.00     0.158 C 
HETATM    2  O8  UNL     1     -32.783  16.470  -4.877  1.00 20.00    -0.295 OA
ENDROOT
BRANCH   1   3
HETATM    3  C4  UNL     1     -34.302  16.711  -3.076  1.00 20.00     0.019 A 
HETATM    4  C2  UNL     1     -33.700  17.251  -1.795  1.00 20.00     0.018 A 
HETATM    5  C3  UNL     1     -34.650  16.094  -1.738  1.00 20.00     0.018 A 
HETATM    6  C5  UNL     1     -35.364  17.550  -3.741  1.00 20.00     0.023 C 
ENDBRANCH   1   3
BRANCH   1   7
HETATM    7  C7  UNL     1     -33.305  14.448  -3.677  1.00 20.00     0.246 C 
BRANCH   7   8
HETATM    8  O9  UNL     1     -33.955  13.701  -4.684  1.00 20.00    -0.389 OA
HETATM    9  C6  UNL     1     -35.287  13.356  -4.313  1.00 20.00     0.202 C 
ENDBRANCH   7   8
ENDBRANCH   1   7
TORSDOF 3
ENDMDL
