MODEL 1
REMARK VINA RESULT:      -4.2      0.000      0.000
REMARK  3 active torsions:
REMARK  status: ('A' for Active; 'I' for Inactive)
REMARK    1  A    between atoms: C1_1  and  C6_6 
REMARK    2  A    between atoms: C1_1  and  O8_8 
REMARK    3  A    between atoms: C4_4  and  C6_6 
ROOT
HETATM    1  C1  UNL     1     -34.790   4.972   5.127  1.00 20.00     0.132 C 
HETATM    2  N7  UNL     1     -35.261   3.808   4.821  1.00 20.00    -0.282 NA
HETATM    3  H19 UNL     1     -35.544   3.786   3.836  1.00 20.00     0.189 HD
ENDROOT
BRANCH   1   4
HETATM    4  C6  UNL     1     -34.700   6.111   4.152  1.00 20.00     0.090 C 
BRANCH   4   5
HETATM    5  C4  UNL     1     -33.643   5.887   3.119  1.00 20.00    -0.007 A 
HETATM    6  C2  UNL     1     -32.742   7.016   2.700  1.00 20.00     0.005 A 
HETATM    7  C3  UNL     1     -32.192   5.876   3.512  1.00 20.00     0.005 A 
ENDBRANCH   4   5
ENDBRANCH   1   4
BRANCH   1   8
HETATM    8  O8  UNL     1     -34.348   5.319   6.362  1.00 20.00    -0.343 OA
HETATM    9  C5  UNL     1     -33.981   6.690   6.567  1.00 20.00     0.211 C 
ENDBRANCH   1   8
TORSDOF 3
ENDMDL
MODEL 2
REMARK VINA RESULT:      -4.1      2.089      3.624
REMARK  3 active torsions:
REMARK  status: ('A' for Active; 'I' for Inactive)
REMARK    1  A    between atoms: C1_1  and  C6_6 
REMARK    2  A    between atoms: C1_1  and  O8_8 
REMARK    3  A    between atoms: C4_4  and  C6_6 
ROOT
HETATM    1  C1  UNL     1     -33.256   6.135   3.432  1.00 20.00     0.132 C 
HETATM    2  N7  UNL     1     -33.907   5.511   2.508  1.00 20.00    -0.282 NA
HETATM    3  H19 UNL     1     -34.751   5.077   2.898  1.00 20.00     0.189 HD
ENDROOT
BRANCH   1   4
HETATM    4  C6  UNL     1     -33.697   6.186   4.867  1.00 20.00     0.090 C 
BRANCH   4   5
HETATM    5  C4  UNL     1     -34.882   5.312   5.124  1.00 20.00    -0.007 A 
HETATM    6  C2  UNL     1     -34.692   3.885   5.558  1.00 20.00     0.005 A 
HETATM    7  C3  UNL     1     -35.229   4.901   6.527  1.00 20.00     0.005 A 
ENDBRANCH   4   5
ENDBRANCH   1   4
BRANCH   1   8
HETATM    8  O8  UNL     1     -32.087   6.796   3.232  1.00 20.00    -0.343 OA
HETATM    9  C5  UNL     1     -32.113   7.919   2.340  1.00 20.00     0.211 C 
ENDBRANCH   1   8
TORSDOF 3
ENDMDL
MODEL 3
REMARK VINA RESULT:      -4.0      3.021      4.157
REMARK  3 active torsions:
REMARK  status: ('A' for Active; 'I' for Inactive)
REMARK    1  A    between atoms: C1_1  and  C6_6 
REMARK    2  A    between atoms: C1_1  and  O8_8 
REMARK    3  A    between atoms: C4_4  and  C6_6 
ROOT
HETATM    1  C1  UNL     1     -32.098   7.276   2.992  1.00 20.00     0.132 C 
HETATM    2  N7  UNL     1     -31.368   7.760   3.941  1.00 20.00    -0.282 NA
HETATM    3  H19 UNL     1     -31.438   7.175   4.780  1.00 20.00     0.189 HD
ENDROOT
BRANCH   1   4
HETATM    4  C6  UNL     1     -32.930   6.034   3.140  1.00 20.00     0.090 C 
BRANCH   4   5
HETATM    5  C4  UNL     1     -34.151   6.269   3.970  1.00 20.00    -0.007 A 
HETATM    6  C2  UNL     1     -35.099   5.139   4.261  1.00 20.00     0.005 A 
HETATM    7  C3  UNL     1     -34.241   5.702   5.360  1.00 20.00     0.005 A 
ENDBRANCH   4   5
ENDBRANCH   1   4
BRANCH   1   8
HETATM    8  O8  UNL     1     -32.227   7.836   1.762  1.00 20.00    -0.343 OA
HETATM    9  C5  UNL     1     -32.308   9.266   1.698  1.00 20.00     0.211 C 
ENDBRANCH   1   8
TORSDOF 3
ENDMDL
MODEL 4
REMARK VINA RESULT:      -4.0      1.670      2.120
REMARK  3 active torsions:
REMARK  status: ('A' for Active; 'I' for Inactive)
REMARK    1  A    between atoms: C1_1  and  C6_6 
REMARK    2  A    between atoms: C1_1  and  O8_8 
REMARK    3  A    between atoms: C4_4  and  C6_6 
ROOT
HETATM    1  C1  UNL     1     -34.225   6.224   5.907  1.00 20.00     0.132 C 
HETATM    2  N7  UNL     1     -33.632   7.044   6.710  1.00 20.00    -0.282 NA
HETATM    3  H19 UNL     1     -33.100   7.741   6.179  1.00 20.00     0.189 HD
ENDROOT
BRANCH   1   4
HETATM    4  C6  UNL     1     -34.115   6.304   4.411  1.00 20.00     0.090 C 
BRANCH   4   5
HETATM    5  C4  UNL     1     -32.713   6.564   3.962  1.00 20.00    -0.007 A 
HETATM    6  C2  UNL     1     -32.182   5.906   2.719  1.00 20.00     0.005 A 
HETATM    7  C3  UNL     1     -32.453   7.385   2.730  1.00 20.00     0.005 A 
ENDBRANCH   4   5
ENDBRANCH   1   4
BRANCH   1   8
HETATM    8  O8  UNL     1     -34.992   5.179   6.309  1.00 20.00    -0.343 OA
HETATM    9  C5  UNL     1     -34.950   3.989   5.510  1.00 20.00     0.211 C 
ENDBRANCH   1   8
TORSDOF 3
ENDMDL
MODEL 5
REMARK VINA RESULT:      -4.0     12.074     12.589
REMARK  3 active torsions:
REMARK  status: ('A' for Active; 'I' for Inactive)
REMARK    1  A    between atoms: C1_1  and  C6_6 
REMARK    2  A    between atoms: C1_1  and  O8_8 
REMARK    3  A    between atoms: C4_4  and  C6_6 
ROOT
HETATM    1  C1  UNL     1     -33.262  14.351  -3.657  1.00 20.00     0.132 C 
HETATM    2  N7  UNL     1     -32.055  14.800  -3.746  1.00 20.00    -0.282 NA
HETATM    3  H19 UNL     1     -31.993  15.739  -3.338  1.00 20.00     0.189 HD
ENDROOT
BRANCH   1   4
HETATM    4  C6  UNL     1     -34.393  15.129  -3.047  1.00 20.00     0.090 C 
BRANCH   4   5
HETATM    5  C4  UNL     1     -33.907  16.282  -2.229  1.00 20.00    -0.007 A 
HETATM    6  C2  UNL     1     -34.736  17.531  -2.113  1.00 20.00     0.005 A 
HETATM    7  C3  UNL     1     -34.577  16.621  -0.927  1.00 20.00     0.005 A 
ENDBRANCH   4   5
ENDBRANCH   1   4
BRANCH   1   8
HETATM    8  O8  UNL     1     -33.665  13.141  -4.124  1.00 20.00    -0.343 OA
HETATM    9  C5  UNL     1     -34.802  13.122  -4.997  1.00 20.00     0.211 C 
ENDBRANCH   1   8
TORSDOF 3
ENDMDL
MODEL 6
REMARK VINA RESULT:      -3.9     12.020     12.492
REMARK  3 active torsions:
REMARK  status: ('A' for Active; 'I' for Inactive)
REMARK    1  A    between atoms: C1_1  and  C6_6 
REMARK    2  A    between atoms: C1_1  and  O8_8 
REMARK    3  A    between atoms: C4_4  and  C6_6 
ROOT
HETATM    1  C1  UNL     1     -35.820  13.916  -3.996  1.00 20.00     0.132 C 
HETATM    2  N7  UNL     1     -35.125  12.847  -4.198  1.00 20.00    -0.282 NA
HETATM    3  H19 UNL     1     -34.130  13.079  -4.284  1.00 20.00     0.189 HD
ENDROOT
BRANCH   1   4
HETATM    4  C6  UNL     1     -35.221  15.292  -3.918  1.00 20.00     0.090 C 
BRANCH   4   5
HETATM    5  C4  UNL     1     -34.322  15.449  -2.735  1.00 20.00    -0.007 A 
HETATM    6  C2  UNL     1     -33.699  16.782  -2.428  1.00 20.00     0.005 A 
HETATM    7  C3  UNL     1     -34.778  16.233  -1.536  1.00 20.00     0.005 A 
ENDBRANCH   4   5
ENDBRANCH   1   4
BRANCH   1   8
HETATM    8  O8  UNL     1     -37.171  13.938  -3.858  1.00 20.00    -0.343 OA
HETATM    9  C5  UNL     1     -37.812  15.220  -3.879  1.00 20.00     0.211 C 
ENDBRANCH   1   8
TORSDOF 3
ENDMDL
MODEL 7
REMARK VINA RESULT:      -3.8     12.260     12.855
REMARK  3 active torsions:
REMARK  status: ('A' for Active; 'I' for Inactive)
REMARK    1  A    between atoms: C1_1  and  C6_6 
REMARK    2  A    between atoms: C1_1  and  O8_8 
REMARK    3  A    between atoms: C4_4  and  C6_6 
ROOT
HETATM    1  C1  UNL     1     -35.064  13.883  -4.424  1.00 20.00     0.132 C 
HETATM    2  N7  UNL     1     -35.318  12.647  -4.148  1.00 20.00    -0.282 NA
HETATM    3  H19 UNL     1     -35.833  12.578  -3.264  1.00 20.00     0.189 HD
ENDROOT
BRANCH   1   4
HETATM    4  C6  UNL     1     -35.468  15.029  -3.542  1.00 20.00     0.090 C 
BRANCH   4   5
HETATM    5  C4  UNL     1     -34.358  15.467  -2.642  1.00 20.00    -0.007 A 
HETATM    6  C2  UNL     1     -33.919  16.905  -2.625  1.00 20.00     0.005 A 
HETATM    7  C3  UNL     1     -34.649  16.328  -1.444  1.00 20.00     0.005 A 
ENDBRANCH   4   5
ENDBRANCH   1   4
BRANCH   1   8
HETATM    8  O8  UNL     1     -34.380  14.298  -5.521  1.00 20.00    -0.343 OA
HETATM    9  C5  UNL     1     -35.124  14.456  -6.737  1.00 20.00     0.211 C 
ENDBRANCH   1   8
TORSDOF 3
ENDMDL
MODEL 8
REMARK VINA RESULT:      -3.8     12.069     12.812
REMARK  3 active torsions:
REMARK  status: ('A' for Active; 'I' for Inactive)
REMARK    1  A    between atoms: C1_1  and  C6_6 
REMARK    2  A    between atoms: C1_1  and  O8_8 
REMARK    3  A    between atoms: C4_4  and  C6_6 
ROOT
HETATM    1  C1  UNL     1     -35.051  13.907  -4.204  1.00 20.00     0.132 C 
HETATM    2  N7  UNL     1     -35.327  12.648  -4.130  1.00 20.00    -0.282 NA
HETATM    3  H19 UNL     1     -34.847  12.225  -3.329  1.00 20.00     0.189 HD
ENDROOT
BRANCH   1   4
HETATM    4  C6  UNL     1     -34.140  14.615  -3.242  1.00 20.00     0.090 C 
BRANCH   4   5
HETATM    5  C4  UNL     1     -34.703  15.924  -2.791  1.00 20.00    -0.007 A 
HETATM    6  C2  UNL     1     -34.649  16.313  -1.340  1.00 20.00     0.005 A 
HETATM    7  C3  UNL     1     -33.786  17.028  -2.343  1.00 20.00     0.005 A 
ENDBRANCH   4   5
ENDBRANCH   1   4
BRANCH   1   8
HETATM    8  O8  UNL     1     -35.523  14.739  -5.168  1.00 20.00    -0.343 OA
HETATM    9  C5  UNL     1     -35.095  14.492  -6.514  1.00 20.00     0.211 C 
ENDBRANCH   1   8
TORSDOF 3
ENDMDL
MODEL 9
REMARK VINA RESULT:      -3.8      1.651      1.881
REMARK  3 active torsions:
REMARK  status: ('A' for Active; 'I' for Inactive)
REMARK    1  A    between atoms: C1_1  and  C6_6 
REMARK    2  A    between atoms: C1_1  and  O8_8 
REMARK    3  A    between atoms: C4_4  and  C6_6 
ROOT
HETATM    1  C1  UNL     1     -34.585   5.441   3.687  1.00 20.00     0.132 C 
HETATM    2  N7  UNL     1     -34.576   5.058   2.454  1.00 20.00    -0.282 NA
HETATM    3  H19 UNL     1     -33.828   5.533   1.938  1.00 20.00     0.189 HD
ENDROOT
BRANCH   1   4
HETATM    4  C6  UNL     1     -33.628   6.455   4.247  1.00 20.00     0.090 C 
BRANCH   4   5
HETATM    5  C4  UNL     1     -32.387   6.574   3.422  1.00 20.00    -0.007 A 
HETATM    6  C2  UNL     1     -32.193   7.756   2.513  1.00 20.00     0.005 A 
HETATM    7  C3  UNL     1     -31.356   7.616   3.753  1.00 20.00     0.005 A 
ENDBRANCH   4   5
ENDBRANCH   1   4
BRANCH   1   8
HETATM    8  O8  UNL     1     -35.471   5.004   4.619  1.00 20.00    -0.343 OA
HETATM    9  C5  UNL     1     -34.938   4.575   5.879  1.00 20.00     0.211 C 
ENDBRANCH   1   8
TORSDOF 3
ENDMDL
