MODEL 1
REMARK VINA RESULT:      -3.9      0.000      0.000
REMARK  4 active torsions:
REMARK  status: ('A' for Active; 'I' for Inactive)
REMARK    1  A    between atoms: C3_3  and  C7_7 
REMARK    2  A    between atoms: C6_6  and  C7_7 
REMARK    3  A    between atoms: C6_6  and  O9_9 
REMARK    4  A    between atoms: C7_7  and  C8_8 
ROOT
HETATM    1  C7  UNL     1     -35.435  15.195  -3.360  1.00 20.00     0.032 C 
ENDROOT
BRANCH   1   2
HETATM    2  C3  UNL     1     -34.342  14.644  -4.252  1.00 20.00    -0.007 A 
HETATM    3  C1  UNL     1     -33.424  13.564  -3.748  1.00 20.00     0.005 A 
HETATM    4  C2  UNL     1     -34.446  13.248  -4.803  1.00 20.00     0.005 A 
ENDBRANCH   1   2
BRANCH   1   5
HETATM    5  C6  UNL     1     -36.755  15.312  -4.139  1.00 20.00     0.173 C 
BRANCH   5   6
HETATM    6  O9  UNL     1     -37.681  14.344  -3.655  1.00 20.00    -0.396 OA
HETATM    7  C5  UNL     1     -39.016  14.684  -3.999  1.00 20.00     0.201 C 
ENDBRANCH   5   6
ENDBRANCH   1   5
BRANCH   1   8
HETATM    8  C8  UNL     1     -35.064  16.540  -2.689  1.00 20.00     0.084 C 
HETATM    9  C4  UNL     1     -34.664  16.402  -1.223  1.00 20.00     0.027 C 
HETATM   10 CL10 UNL     1     -33.767  17.406  -3.572  1.00 20.00    -0.125 Cl
ENDBRANCH   1   8
TORSDOF 4
ENDMDL
MODEL 2
REMARK VINA RESULT:      -3.9      1.778      3.043
REMARK  4 active torsions:
REMARK  status: ('A' for Active; 'I' for Inactive)
REMARK    1  A    between atoms: C3_3  and  C7_7 
REMARK    2  A    between atoms: C6_6  and  C7_7 
REMARK    3  A    between atoms: C6_6  and  O9_9 
REMARK    4  A    between atoms: C7_7  and  C8_8 
ROOT
HETATM    1  C7  UNL     1     -35.649  15.335  -3.948  1.00 20.00     0.032 C 
ENDROOT
BRANCH   1   2
HETATM    2  C3  UNL     1     -34.653  15.259  -2.808  1.00 20.00    -0.007 A 
HETATM    3  C1  UNL     1     -33.600  16.322  -2.650  1.00 20.00     0.005 A 
HETATM    4  C2  UNL     1     -34.734  16.235  -1.667  1.00 20.00     0.005 A 
ENDBRANCH   1   2
BRANCH   1   5
HETATM    5  C6  UNL     1     -37.084  15.417  -3.401  1.00 20.00     0.173 C 
BRANCH   5   6
HETATM    6  O9  UNL     1     -37.815  14.265  -3.810  1.00 20.00    -0.396 OA
HETATM    7  C5  UNL     1     -39.113  14.611  -4.272  1.00 20.00     0.201 C 
ENDBRANCH   5   6
ENDBRANCH   1   5
BRANCH   1   8
HETATM    8  C8  UNL     1     -35.509  14.178  -4.967  1.00 20.00     0.084 C 
HETATM    9  C4  UNL     1     -35.432  14.648  -6.418  1.00 20.00     0.027 C 
HETATM   10 CL10 UNL     1     -34.099  13.127  -4.616  1.00 20.00    -0.125 Cl
ENDBRANCH   1   8
TORSDOF 4
ENDMDL
MODEL 3
REMARK VINA RESULT:      -3.9      2.466      4.066
REMARK  4 active torsions:
REMARK  status: ('A' for Active; 'I' for Inactive)
REMARK    1  A    between atoms: C3_3  and  C7_7 
REMARK    2  A    between atoms: C6_6  and  C7_7 
REMARK    3  A    between atoms: C6_6  and  O9_9 
REMARK    4  A    between atoms: C7_7  and  C8_8 
ROOT
HETATM    1  C7  UNL     1     -33.861  15.385  -3.047  1.00 20.00     0.032 C 
ENDROOT
BRANCH   1   2
HETATM    2  C3  UNL     1     -34.507  16.558  -2.338  1.00 20.00    -0.007 A 
HETATM    3  C1  UNL     1     -34.663  16.546  -0.842  1.00 20.00     0.005 A 
HETATM    4  C2  UNL     1     -33.676  17.478  -1.486  1.00 20.00     0.005 A 
ENDBRANCH   1   2
BRANCH   1   5
HETATM    5  C6  UNL     1     -33.061  15.870  -4.267  1.00 20.00     0.173 C 
BRANCH   5   6
HETATM    6  O9  UNL     1     -33.722  16.987  -4.855  1.00 20.00    -0.396 OA
HETATM    7  C5  UNL     1     -34.115  16.712  -6.193  1.00 20.00     0.201 C 
ENDBRANCH   5   6
ENDBRANCH   1   5
BRANCH   1   8
HETATM    8  C8  UNL     1     -34.865  14.277  -3.446  1.00 20.00     0.084 C 
HETATM    9  C4  UNL     1     -36.265  14.802  -3.753  1.00 20.00     0.027 C 
HETATM   10 CL10 UNL     1     -34.287  13.302  -4.835  1.00 20.00    -0.125 Cl
ENDBRANCH   1   8
TORSDOF 4
ENDMDL
MODEL 4
REMARK VINA RESULT:      -3.9      2.277      3.723
REMARK  4 active torsions:
REMARK  status: ('A' for Active; 'I' for Inactive)
REMARK    1  A    between atoms: C3_3  and  C7_7 
REMARK    2  A    between atoms: C6_6  and  C7_7 
REMARK    3  A    between atoms: C6_6  and  O9_9 
REMARK    4  A    between atoms: C7_7  and  C8_8 
ROOT
HETATM    1  C7  UNL     1     -33.942  15.703  -4.043  1.00 20.00     0.032 C 
ENDROOT
BRANCH   1   2
HETATM    2  C3  UNL     1     -34.083  16.672  -2.887  1.00 20.00    -0.007 A 
HETATM    3  C1  UNL     1     -35.447  17.073  -2.396  1.00 20.00     0.005 A 
HETATM    4  C2  UNL     1     -34.575  16.188  -1.550  1.00 20.00     0.005 A 
ENDBRANCH   1   2
BRANCH   1   5
HETATM    5  C6  UNL     1     -33.087  14.494  -3.629  1.00 20.00     0.173 C 
BRANCH   5   6
HETATM    6  O9  UNL     1     -33.658  13.303  -4.164  1.00 20.00    -0.396 OA
HETATM    7  C5  UNL     1     -35.078  13.345  -4.123  1.00 20.00     0.201 C 
ENDBRANCH   5   6
ENDBRANCH   1   5
BRANCH   1   8
HETATM    8  C8  UNL     1     -33.389  16.358  -5.333  1.00 20.00     0.084 C 
HETATM    9  C4  UNL     1     -34.092  15.893  -6.604  1.00 20.00     0.027 C 
HETATM   10 CL10 UNL     1     -33.433  18.149  -5.260  1.00 20.00    -0.125 Cl
ENDBRANCH   1   8
TORSDOF 4
ENDMDL
MODEL 5
REMARK VINA RESULT:      -3.8      1.775      3.264
REMARK  4 active torsions:
REMARK  status: ('A' for Active; 'I' for Inactive)
REMARK    1  A    between atoms: C3_3  and  C7_7 
REMARK    2  A    between atoms: C6_6  and  C7_7 
REMARK    3  A    between atoms: C6_6  and  O9_9 
REMARK    4  A    between atoms: C7_7  and  C8_8 
ROOT
HETATM    1  C7  UNL     1     -34.693  16.672  -3.067  1.00 20.00     0.032 C 
ENDROOT
BRANCH   1   2
HETATM    2  C3  UNL     1     -34.041  16.479  -1.713  1.00 20.00    -0.007 A 
HETATM    3  C1  UNL     1     -33.567  17.669  -0.923  1.00 20.00     0.005 A 
HETATM    4  C2  UNL     1     -34.765  16.887  -0.459  1.00 20.00     0.005 A 
ENDBRANCH   1   2
BRANCH   1   5
HETATM    5  C6  UNL     1     -36.180  16.285  -3.006  1.00 20.00     0.173 C 
BRANCH   5   6
HETATM    6  O9  UNL     1     -36.333  14.922  -3.389  1.00 20.00    -0.396 OA
HETATM    7  C5  UNL     1     -37.595  14.693  -3.999  1.00 20.00     0.201 C 
ENDBRANCH   5   6
ENDBRANCH   1   5
BRANCH   1   8
HETATM    8  C8  UNL     1     -33.971  15.920  -4.212  1.00 20.00     0.084 C 
HETATM    9  C4  UNL     1     -33.386  16.845  -5.276  1.00 20.00     0.027 C 
HETATM   10 CL10 UNL     1     -32.681  14.833  -3.606  1.00 20.00    -0.125 Cl
ENDBRANCH   1   8
TORSDOF 4
ENDMDL
MODEL 6
REMARK VINA RESULT:      -3.8      1.584      2.184
REMARK  4 active torsions:
REMARK  status: ('A' for Active; 'I' for Inactive)
REMARK    1  A    between atoms: C3_3  and  C7_7 
REMARK    2  A    between atoms: C6_6  and  C7_7 
REMARK    3  A    between atoms: C6_6  and  O9_9 
REMARK    4  A    between atoms: C7_7  and  C8_8 
ROOT
HETATM    1  C7  UNL     1     -35.497  14.611  -4.167  1.00 20.00     0.032 C 
ENDROOT
BRANCH   1   2
HETATM    2  C3  UNL     1     -35.160  15.218  -5.514  1.00 20.00    -0.007 A 
HETATM    3  C1  UNL     1     -35.131  14.356  -6.747  1.00 20.00     0.005 A 
HETATM    4  C2  UNL     1     -36.227  15.368  -6.563  1.00 20.00     0.005 A 
ENDBRANCH   1   2
BRANCH   1   5
HETATM    5  C6  UNL     1     -36.822  15.183  -3.637  1.00 20.00     0.173 C 
BRANCH   5   6
HETATM    6  O9  UNL     1     -37.832  14.181  -3.702  1.00 20.00    -0.396 OA
HETATM    7  C5  UNL     1     -39.067  14.718  -4.153  1.00 20.00     0.201 C 
ENDBRANCH   5   6
ENDBRANCH   1   5
BRANCH   1   8
HETATM    8  C8  UNL     1     -34.366  14.768  -3.120  1.00 20.00     0.084 C 
HETATM    9  C4  UNL     1     -33.011  15.113  -3.731  1.00 20.00     0.027 C 
HETATM   10 CL10 UNL     1     -34.767  15.979  -1.861  1.00 20.00    -0.125 Cl
ENDBRANCH   1   8
TORSDOF 4
ENDMDL
MODEL 7
REMARK VINA RESULT:      -3.7      2.463      3.839
REMARK  4 active torsions:
REMARK  status: ('A' for Active; 'I' for Inactive)
REMARK    1  A    between atoms: C3_3  and  C7_7 
REMARK    2  A    between atoms: C6_6  and  C7_7 
REMARK    3  A    between atoms: C6_6  and  O9_9 
REMARK    4  A    between atoms: C7_7  and  C8_8 
ROOT
HETATM    1  C7  UNL     1     -34.729  15.644  -3.655  1.00 20.00     0.032 C 
ENDROOT
BRANCH   1   2
HETATM    2  C3  UNL     1     -33.535  16.482  -4.065  1.00 20.00    -0.007 A 
HETATM    3  C1  UNL     1     -33.463  17.075  -5.445  1.00 20.00     0.005 A 
HETATM    4  C2  UNL     1     -33.683  17.967  -4.256  1.00 20.00     0.005 A 
ENDBRANCH   1   2
BRANCH   1   5
HETATM    5  C6  UNL     1     -35.386  16.227  -2.393  1.00 20.00     0.173 C 
BRANCH   5   6
HETATM    6  O9  UNL     1     -34.470  16.156  -1.305  1.00 20.00    -0.396 OA
HETATM    7  C5  UNL     1     -34.770  17.126  -0.310  1.00 20.00     0.201 C 
ENDBRANCH   5   6
ENDBRANCH   1   5
BRANCH   1   8
HETATM    8  C8  UNL     1     -34.393  14.145  -3.464  1.00 20.00     0.084 C 
HETATM    9  C4  UNL     1     -35.083  13.231  -4.474  1.00 20.00     0.027 C 
HETATM   10 CL10 UNL     1     -32.629  13.832  -3.500  1.00 20.00    -0.125 Cl
ENDBRANCH   1   8
TORSDOF 4
ENDMDL
MODEL 8
REMARK VINA RESULT:      -3.7      2.393      2.889
REMARK  4 active torsions:
REMARK  status: ('A' for Active; 'I' for Inactive)
REMARK    1  A    between atoms: C3_3  and  C7_7 
REMARK    2  A    between atoms: C6_6  and  C7_7 
REMARK    3  A    between atoms: C6_6  and  O9_9 
REMARK    4  A    between atoms: C7_7  and  C8_8 
ROOT
HETATM    1  C7  UNL     1     -34.476  16.001  -3.746  1.00 20.00     0.032 C 
ENDROOT
BRANCH   1   2
HETATM    2  C3  UNL     1     -34.430  14.571  -3.248  1.00 20.00    -0.007 A 
HETATM    3  C1  UNL     1     -35.047  13.466  -4.060  1.00 20.00     0.005 A 
HETATM    4  C2  UNL     1     -33.552  13.560  -3.932  1.00 20.00     0.005 A 
ENDBRANCH   1   2
BRANCH   1   5
HETATM    5  C6  UNL     1     -33.190  16.342  -4.518  1.00 20.00     0.173 C 
BRANCH   5   6
HETATM    6  O9  UNL     1     -33.528  16.983  -5.744  1.00 20.00    -0.396 OA
HETATM    7  C5  UNL     1     -34.238  16.108  -6.608  1.00 20.00     0.201 C 
ENDBRANCH   5   6
ENDBRANCH   1   5
BRANCH   1   8
HETATM    8  C8  UNL     1     -34.742  17.037  -2.625  1.00 20.00     0.084 C 
HETATM    9  C4  UNL     1     -34.641  16.453  -1.219  1.00 20.00     0.027 C 
HETATM   10 CL10 UNL     1     -33.664  18.464  -2.747  1.00 20.00    -0.125 Cl
ENDBRANCH   1   8
TORSDOF 4
ENDMDL
MODEL 9
REMARK VINA RESULT:      -3.6      2.416      3.216
REMARK  4 active torsions:
REMARK  status: ('A' for Active; 'I' for Inactive)
REMARK    1  A    between atoms: C3_3  and  C7_7 
REMARK    2  A    between atoms: C6_6  and  C7_7 
REMARK    3  A    between atoms: C6_6  and  O9_9 
REMARK    4  A    between atoms: C7_7  and  C8_8 
ROOT
HETATM    1  C7  UNL     1     -33.776  16.070  -3.252  1.00 20.00     0.032 C 
ENDROOT
BRANCH   1   2
HETATM    2  C3  UNL     1     -34.255  16.825  -4.475  1.00 20.00    -0.007 A 
HETATM    3  C1  UNL     1     -33.529  18.059  -4.937  1.00 20.00     0.005 A 
HETATM    4  C2  UNL     1     -33.451  16.794  -5.746  1.00 20.00     0.005 A 
ENDBRANCH   1   2
BRANCH   1   5
HETATM    5  C6  UNL     1     -33.170  14.717  -3.659  1.00 20.00     0.173 C 
BRANCH   5   6
HETATM    6  O9  UNL     1     -34.125  13.683  -3.439  1.00 20.00    -0.396 OA
HETATM    7  C5  UNL     1     -34.601  13.147  -4.665  1.00 20.00     0.201 C 
ENDBRANCH   5   6
ENDBRANCH   1   5
BRANCH   1   8
HETATM    8  C8  UNL     1     -34.871  15.886  -2.173  1.00 20.00     0.084 C 
HETATM    9  C4  UNL     1     -34.587  16.643  -0.878  1.00 20.00     0.027 C 
HETATM   10 CL10 UNL     1     -36.499  16.338  -2.770  1.00 20.00    -0.125 Cl
ENDBRANCH   1   8
TORSDOF 4
ENDMDL
