MODEL 1
REMARK VINA RESULT:      -4.8      0.000      0.000
REMARK  3 active torsions:
REMARK  status: ('A' for Active; 'I' for Inactive)
REMARK    1  A    between atoms: C1_1  and  C7_7 
REMARK    2  A    between atoms: C2_2  and  C3_3 
REMARK    3  A    between atoms: C3_3  and  C9_9 
ROOT
HETATM    1  C1  UNL     1     -35.509  15.952  -2.547  1.00 20.00    -0.012 C 
HETATM    2  C3  UNL     1     -35.555  14.911  -3.397  1.00 20.00    -0.024 C 
ENDROOT
BRANCH   1   3
HETATM    3  C7  UNL     1     -34.382  16.338  -1.680  1.00 20.00     0.009 C 
HETATM    4  C5  UNL     1     -33.722  17.703  -2.002  1.00 20.00     0.008 C 
HETATM    5  C4  UNL     1     -33.567  17.903  -0.479  1.00 20.00     0.001 C 
HETATM    6  C6  UNL     1     -34.769  16.950  -0.309  1.00 20.00     0.008 C 
ENDBRANCH   1   3
BRANCH   2   7
HETATM    7  C2  UNL     1     -36.824  14.734  -4.155  1.00 20.00     0.265 C 
HETATM    8  O10 UNL     1     -37.810  14.177  -3.689  1.00 20.00    -0.302 OA
ENDBRANCH   2   7
BRANCH   2   9
HETATM    9  C9  UNL     1     -34.456  13.907  -3.606  1.00 20.00     0.037 C 
HETATM   10  C8  UNL     1     -34.593  13.175  -4.933  1.00 20.00     0.010 C 
ENDBRANCH   2   9
TORSDOF 3
ENDMDL
MODEL 2
REMARK VINA RESULT:      -4.6      1.710      1.840
REMARK  3 active torsions:
REMARK  status: ('A' for Active; 'I' for Inactive)
REMARK    1  A    between atoms: C1_1  and  C7_7 
REMARK    2  A    between atoms: C2_2  and  C3_3 
REMARK    3  A    between atoms: C3_3  and  C9_9 
ROOT
HETATM    1  C1  UNL     1     -34.829  15.613  -2.228  1.00 20.00    -0.012 C 
HETATM    2  C3  UNL     1     -34.393  15.035  -3.361  1.00 20.00    -0.024 C 
ENDROOT
BRANCH   1   3
HETATM    3  C7  UNL     1     -34.143  16.655  -1.443  1.00 20.00     0.009 C 
HETATM    4  C5  UNL     1     -34.383  18.114  -1.907  1.00 20.00     0.008 C 
HETATM    5  C4  UNL     1     -34.396  18.508  -0.415  1.00 20.00     0.001 C 
HETATM    6  C6  UNL     1     -34.834  17.059  -0.115  1.00 20.00     0.008 C 
ENDBRANCH   1   3
BRANCH   2   7
HETATM    7  C2  UNL     1     -35.277  13.996  -3.955  1.00 20.00     0.265 C 
HETATM    8  O10 UNL     1     -34.919  12.839  -4.139  1.00 20.00    -0.302 OA
ENDBRANCH   2   7
BRANCH   2   9
HETATM    9  C9  UNL     1     -33.082  15.327  -4.039  1.00 20.00     0.037 C 
HETATM   10  C8  UNL     1     -33.214  16.417  -5.094  1.00 20.00     0.010 C 
ENDBRANCH   2   9
TORSDOF 3
ENDMDL
MODEL 3
REMARK VINA RESULT:      -4.4      1.260      2.141
REMARK  3 active torsions:
REMARK  status: ('A' for Active; 'I' for Inactive)
REMARK    1  A    between atoms: C1_1  and  C7_7 
REMARK    2  A    between atoms: C2_2  and  C3_3 
REMARK    3  A    between atoms: C3_3  and  C9_9 
ROOT
HETATM    1  C1  UNL     1     -34.186  15.660  -2.706  1.00 20.00    -0.012 C 
HETATM    2  C3  UNL     1     -35.019  14.865  -3.400  1.00 20.00    -0.024 C 
ENDROOT
BRANCH   1   3
HETATM    3  C7  UNL     1     -34.542  16.882  -1.963  1.00 20.00     0.009 C 
HETATM    4  C5  UNL     1     -34.808  16.696  -0.449  1.00 20.00     0.008 C 
HETATM    5  C4  UNL     1     -34.110  18.056  -0.234  1.00 20.00     0.001 C 
HETATM    6  C6  UNL     1     -33.353  17.788  -1.552  1.00 20.00     0.008 C 
ENDBRANCH   1   3
BRANCH   2   7
HETATM    7  C2  UNL     1     -34.401  13.689  -4.072  1.00 20.00     0.265 C 
HETATM    8  O10 UNL     1     -35.011  12.652  -4.301  1.00 20.00    -0.302 OA
ENDBRANCH   2   7
BRANCH   2   9
HETATM    9  C9  UNL     1     -36.495  15.091  -3.577  1.00 20.00     0.037 C 
HETATM   10  C8  UNL     1     -36.830  15.622  -4.964  1.00 20.00     0.010 C 
ENDBRANCH   2   9
TORSDOF 3
ENDMDL
MODEL 4
REMARK VINA RESULT:      -4.2      2.169      2.268
REMARK  3 active torsions:
REMARK  status: ('A' for Active; 'I' for Inactive)
REMARK    1  A    between atoms: C1_1  and  C7_7 
REMARK    2  A    between atoms: C2_2  and  C3_3 
REMARK    3  A    between atoms: C3_3  and  C9_9 
ROOT
HETATM    1  C1  UNL     1     -33.979  16.610  -3.758  1.00 20.00    -0.012 C 
HETATM    2  C3  UNL     1     -34.038  15.563  -4.600  1.00 20.00    -0.024 C 
ENDROOT
BRANCH   1   3
HETATM    3  C7  UNL     1     -33.677  16.572  -2.317  1.00 20.00     0.009 C 
HETATM    4  C5  UNL     1     -33.601  17.949  -1.609  1.00 20.00     0.008 C 
HETATM    5  C4  UNL     1     -34.277  17.278  -0.394  1.00 20.00     0.001 C 
HETATM    6  C6  UNL     1     -34.878  16.261  -1.387  1.00 20.00     0.008 C 
ENDBRANCH   1   3
BRANCH   2   7
HETATM    7  C2  UNL     1     -34.375  15.872  -6.016  1.00 20.00     0.265 C 
HETATM    8  O10 UNL     1     -33.929  15.238  -6.964  1.00 20.00    -0.302 OA
ENDBRANCH   2   7
BRANCH   2   9
HETATM    9  C9  UNL     1     -33.829  14.124  -4.216  1.00 20.00     0.037 C 
HETATM   10  C8  UNL     1     -35.128  13.330  -4.242  1.00 20.00     0.010 C 
ENDBRANCH   2   9
TORSDOF 3
ENDMDL
MODEL 5
REMARK VINA RESULT:      -4.0      2.263      4.663
REMARK  3 active torsions:
REMARK  status: ('A' for Active; 'I' for Inactive)
REMARK    1  A    between atoms: C1_1  and  C7_7 
REMARK    2  A    between atoms: C2_2  and  C3_3 
REMARK    3  A    between atoms: C3_3  and  C9_9 
ROOT
HETATM    1  C1  UNL     1     -34.795  15.543  -2.234  1.00 20.00    -0.012 C 
HETATM    2  C3  UNL     1     -34.408  16.743  -1.765  1.00 20.00    -0.024 C 
ENDROOT
BRANCH   1   3
HETATM    3  C7  UNL     1     -34.637  15.036  -3.609  1.00 20.00     0.009 C 
HETATM    4  C5  UNL     1     -33.605  13.894  -3.790  1.00 20.00     0.008 C 
HETATM    5  C4  UNL     1     -34.578  13.279  -4.819  1.00 20.00     0.001 C 
HETATM    6  C6  UNL     1     -35.710  14.019  -4.077  1.00 20.00     0.008 C 
ENDBRANCH   1   3
BRANCH   2   7
HETATM    7  C2  UNL     1     -34.695  17.014  -0.331  1.00 20.00     0.265 C 
HETATM    8  O10 UNL     1     -34.098  17.862   0.323  1.00 20.00    -0.302 OA
ENDBRANCH   2   7
BRANCH   2   9
HETATM    9  C9  UNL     1     -33.755  17.826  -2.578  1.00 20.00     0.037 C 
HETATM   10  C8  UNL     1     -34.747  18.897  -3.009  1.00 20.00     0.010 C 
ENDBRANCH   2   9
TORSDOF 3
ENDMDL
MODEL 6
REMARK VINA RESULT:      -4.0      2.587      4.912
REMARK  3 active torsions:
REMARK  status: ('A' for Active; 'I' for Inactive)
REMARK    1  A    between atoms: C1_1  and  C7_7 
REMARK    2  A    between atoms: C2_2  and  C3_3 
REMARK    3  A    between atoms: C3_3  and  C9_9 
ROOT
HETATM    1  C1  UNL     1     -34.508  16.398  -1.338  1.00 20.00    -0.012 C 
HETATM    2  C3  UNL     1     -34.260  17.451  -0.539  1.00 20.00    -0.024 C 
ENDROOT
BRANCH   1   3
HETATM    3  C7  UNL     1     -33.866  16.094  -2.629  1.00 20.00     0.009 C 
HETATM    4  C5  UNL     1     -34.230  14.724  -3.254  1.00 20.00     0.008 C 
HETATM    5  C4  UNL     1     -34.207  15.429  -4.628  1.00 20.00     0.001 C 
HETATM    6  C6  UNL     1     -34.525  16.737  -3.875  1.00 20.00     0.008 C 
ENDBRANCH   1   3
BRANCH   2   7
HETATM    7  C2  UNL     1     -35.058  17.532   0.714  1.00 20.00     0.265 C 
HETATM    8  O10 UNL     1     -35.737  18.507   1.013  1.00 20.00    -0.302 OA
ENDBRANCH   2   7
BRANCH   2   9
HETATM    9  C9  UNL     1     -33.281  18.555  -0.832  1.00 20.00     0.037 C 
HETATM   10  C8  UNL     1     -32.249  18.714   0.277  1.00 20.00     0.010 C 
ENDBRANCH   2   9
TORSDOF 3
ENDMDL
MODEL 7
REMARK VINA RESULT:      -4.0     12.315     14.480
REMARK  3 active torsions:
REMARK  status: ('A' for Active; 'I' for Inactive)
REMARK    1  A    between atoms: C1_1  and  C7_7 
REMARK    2  A    between atoms: C2_2  and  C3_3 
REMARK    3  A    between atoms: C3_3  and  C9_9 
ROOT
HETATM    1  C1  UNL     1     -42.595   3.606  -3.040  1.00 20.00    -0.012 C 
HETATM    2  C3  UNL     1     -42.165   4.680  -2.354  1.00 20.00    -0.024 C 
ENDROOT
BRANCH   1   3
HETATM    3  C7  UNL     1     -42.076   2.230  -2.949  1.00 20.00     0.009 C 
HETATM    4  C5  UNL     1     -43.046   1.113  -3.408  1.00 20.00     0.008 C 
HETATM    5  C4  UNL     1     -41.818   0.394  -4.006  1.00 20.00     0.001 C 
HETATM    6  C6  UNL     1     -41.153   1.782  -4.112  1.00 20.00     0.008 C 
ENDBRANCH   1   3
BRANCH   2   7
HETATM    7  C2  UNL     1     -42.856   5.966  -2.640  1.00 20.00     0.265 C 
HETATM    8  O10 UNL     1     -43.159   6.326  -3.771  1.00 20.00    -0.302 OA
ENDBRANCH   2   7
BRANCH   2   9
HETATM    9  C9  UNL     1     -41.032   4.685  -1.365  1.00 20.00     0.037 C 
HETATM   10  C8  UNL     1     -40.880   6.034  -0.676  1.00 20.00     0.010 C 
ENDBRANCH   2   9
TORSDOF 3
ENDMDL
MODEL 8
REMARK VINA RESULT:      -4.0     12.220     14.330
REMARK  3 active torsions:
REMARK  status: ('A' for Active; 'I' for Inactive)
REMARK    1  A    between atoms: C1_1  and  C7_7 
REMARK    2  A    between atoms: C2_2  and  C3_3 
REMARK    3  A    between atoms: C3_3  and  C9_9 
ROOT
HETATM    1  C1  UNL     1     -41.445   3.913  -2.213  1.00 20.00    -0.012 C 
HETATM    2  C3  UNL     1     -41.713   4.558  -1.064  1.00 20.00    -0.024 C 
ENDROOT
BRANCH   1   3
HETATM    3  C7  UNL     1     -42.144   2.732  -2.750  1.00 20.00     0.009 C 
HETATM    4  C5  UNL     1     -43.191   3.015  -3.857  1.00 20.00     0.008 C 
HETATM    5  C4  UNL     1     -42.718   1.712  -4.535  1.00 20.00     0.001 C 
HETATM    6  C6  UNL     1     -41.368   1.920  -3.818  1.00 20.00     0.008 C 
ENDBRANCH   1   3
BRANCH   2   7
HETATM    7  C2  UNL     1     -40.846   5.725  -0.745  1.00 20.00     0.265 C 
HETATM    8  O10 UNL     1     -40.752   6.707  -1.471  1.00 20.00    -0.302 OA
ENDBRANCH   2   7
BRANCH   2   9
HETATM    9  C9  UNL     1     -42.778   4.172  -0.076  1.00 20.00     0.037 C 
HETATM   10  C8  UNL     1     -43.059   5.282   0.927  1.00 20.00     0.010 C 
ENDBRANCH   2   9
TORSDOF 3
ENDMDL
MODEL 9
REMARK VINA RESULT:      -3.9      2.917      4.107
REMARK  3 active torsions:
REMARK  status: ('A' for Active; 'I' for Inactive)
REMARK    1  A    between atoms: C1_1  and  C7_7 
REMARK    2  A    between atoms: C2_2  and  C3_3 
REMARK    3  A    between atoms: C3_3  and  C9_9 
ROOT
HETATM    1  C1  UNL     1     -34.448  15.534  -5.313  1.00 20.00    -0.012 C 
HETATM    2  C3  UNL     1     -34.707  14.972  -4.119  1.00 20.00    -0.024 C 
ENDROOT
BRANCH   1   3
HETATM    3  C7  UNL     1     -34.726  16.923  -5.718  1.00 20.00     0.009 C 
HETATM    4  C5  UNL     1     -33.580  17.937  -5.474  1.00 20.00     0.008 C 
HETATM    5  C4  UNL     1     -33.982  18.600  -6.808  1.00 20.00     0.001 C 
HETATM    6  C6  UNL     1     -34.555  17.230  -7.228  1.00 20.00     0.008 C 
ENDBRANCH   1   3
BRANCH   2   7
HETATM    7  C2  UNL     1     -34.335  13.539  -3.970  1.00 20.00     0.265 C 
HETATM    8  O10 UNL     1     -35.003  12.622  -4.431  1.00 20.00    -0.302 OA
ENDBRANCH   2   7
BRANCH   2   9
HETATM    9  C9  UNL     1     -35.369  15.660  -2.958  1.00 20.00     0.037 C 
HETATM   10  C8  UNL     1     -34.355  16.202  -1.960  1.00 20.00     0.010 C 
ENDBRANCH   2   9
TORSDOF 3
ENDMDL
