MODEL 1
REMARK VINA RESULT:      -5.2      0.000      0.000
REMARK  6 active torsions:
REMARK  status: ('A' for Active; 'I' for Inactive)
REMARK    1  A    between atoms: C5_5  and  C10_10 
REMARK    2  A    between atoms: C6_6  and  C7_7 
REMARK    3  A    between atoms: C6_6  and  C10_10 
REMARK    4  A    between atoms: C7_7  and  C11_11 
REMARK    5  A    between atoms: C8_8  and  C9_9 
REMARK    6  A    between atoms: C8_8  and  C11_11 
ROOT
HETATM    1  C7  UNL     1     -33.034   6.126   3.103  1.00 20.00     0.020 C 
ENDROOT
BRANCH   1   2
HETATM    2  C6  UNL     1     -34.310   6.114   3.961  1.00 20.00     0.005 C 
BRANCH   2   3
HETATM    3  C10 UNL     1     -34.216   5.156   5.168  1.00 20.00    -0.019 C 
HETATM    4  C4  UNL     1     -35.165   3.962   5.028  1.00 20.00     0.010 C 
BRANCH   3   5
HETATM    5  C5  UNL     1     -34.439   5.900   6.501  1.00 20.00    -0.000 C 
HETATM    6  C1  UNL     1     -33.634   7.181   6.677  1.00 20.00     0.005 C 
ENDBRANCH   3   5
ENDBRANCH   2   3
ENDBRANCH   1   2
BRANCH   1   7
HETATM    7  C11 UNL     1     -32.400   7.522   2.971  1.00 20.00     0.082 C 
HETATM    8 CL12 UNL     1     -31.101   7.738   4.198  1.00 20.00    -0.125 Cl
BRANCH   7   9
HETATM    9  C8  UNL     1     -31.779   7.778   1.587  1.00 20.00     0.024 C 
BRANCH   9  10
HETATM   10  C9  UNL     1     -32.059   9.163   0.969  1.00 20.00    -0.021 C 
HETATM   11  C2  UNL     1     -32.784  10.100   1.935  1.00 20.00     0.009 C 
HETATM   12  C3  UNL     1     -32.887   8.998  -0.309  1.00 20.00     0.009 C 
ENDBRANCH   9  10
ENDBRANCH   7   9
ENDBRANCH   1   7
TORSDOF 6
ENDMDL
MODEL 2
REMARK VINA RESULT:      -4.6      0.733      1.570
REMARK  6 active torsions:
REMARK  status: ('A' for Active; 'I' for Inactive)
REMARK    1  A    between atoms: C5_5  and  C10_10 
REMARK    2  A    between atoms: C6_6  and  C7_7 
REMARK    3  A    between atoms: C6_6  and  C10_10 
REMARK    4  A    between atoms: C7_7  and  C11_11 
REMARK    5  A    between atoms: C8_8  and  C9_9 
REMARK    6  A    between atoms: C8_8  and  C11_11 
ROOT
HETATM    1  C7  UNL     1     -32.560   6.036   3.160  1.00 20.00     0.020 C 
ENDROOT
BRANCH   1   2
HETATM    2  C6  UNL     1     -34.064   5.763   2.992  1.00 20.00     0.005 C 
BRANCH   2   3
HETATM    3  C10 UNL     1     -34.834   5.776   4.329  1.00 20.00    -0.019 C 
HETATM    4  C4  UNL     1     -34.025   6.437   5.451  1.00 20.00     0.010 C 
BRANCH   3   5
HETATM    5  C5  UNL     1     -35.301   4.361   4.730  1.00 20.00    -0.000 C 
HETATM    6  C1  UNL     1     -34.783   3.858   6.071  1.00 20.00     0.005 C 
ENDBRANCH   3   5
ENDBRANCH   2   3
ENDBRANCH   1   2
BRANCH   1   7
HETATM    7  C11 UNL     1     -32.184   7.516   2.980  1.00 20.00     0.082 C 
HETATM    8 CL12 UNL     1     -30.910   7.987   4.160  1.00 20.00    -0.125 Cl
BRANCH   7   9
HETATM    9  C8  UNL     1     -31.657   7.842   1.572  1.00 20.00     0.024 C 
BRANCH   9  10
HETATM   10  C9  UNL     1     -32.056   9.219   1.004  1.00 20.00    -0.021 C 
HETATM   11  C2  UNL     1     -32.849  10.058   2.006  1.00 20.00     0.009 C 
HETATM   12  C3  UNL     1     -32.877   9.029  -0.275  1.00 20.00     0.009 C 
ENDBRANCH   9  10
ENDBRANCH   7   9
ENDBRANCH   1   7
TORSDOF 6
ENDMDL
MODEL 3
REMARK VINA RESULT:      -4.5     10.510     11.762
REMARK  6 active torsions:
REMARK  status: ('A' for Active; 'I' for Inactive)
REMARK    1  A    between atoms: C5_5  and  C10_10 
REMARK    2  A    between atoms: C6_6  and  C7_7 
REMARK    3  A    between atoms: C6_6  and  C10_10 
REMARK    4  A    between atoms: C7_7  and  C11_11 
REMARK    5  A    between atoms: C8_8  and  C9_9 
REMARK    6  A    between atoms: C8_8  and  C11_11 
ROOT
HETATM    1  C7  UNL     1     -33.299  15.312  -3.630  1.00 20.00     0.020 C 
ENDROOT
BRANCH   1   2
HETATM    2  C6  UNL     1     -34.162  14.067  -3.370  1.00 20.00     0.005 C 
BRANCH   2   3
HETATM    3  C10 UNL     1     -35.179  13.792  -4.497  1.00 20.00    -0.019 C 
HETATM    4  C4  UNL     1     -34.692  14.315  -5.852  1.00 20.00     0.010 C 
BRANCH   3   5
HETATM    5  C5  UNL     1     -36.577  14.346  -4.148  1.00 20.00    -0.000 C 
HETATM    6  C1  UNL     1     -37.202  15.249  -5.202  1.00 20.00     0.005 C 
ENDBRANCH   3   5
ENDBRANCH   2   3
ENDBRANCH   1   2
BRANCH   1   7
HETATM    7  C11 UNL     1     -33.788  16.562  -2.878  1.00 20.00     0.082 C 
HETATM    8 CL12 UNL     1     -34.739  17.622  -3.977  1.00 20.00    -0.125 Cl
BRANCH   7   9
HETATM    9  C8  UNL     1     -34.677  16.233  -1.666  1.00 20.00     0.024 C 
BRANCH   9  10
HETATM   10  C9  UNL     1     -34.427  17.075  -0.399  1.00 20.00    -0.021 C 
HETATM   11  C2  UNL     1     -35.670  17.842   0.050  1.00 20.00     0.009 C 
HETATM   12  C3  UNL     1     -33.277  18.056  -0.651  1.00 20.00     0.009 C 
ENDBRANCH   9  10
ENDBRANCH   7   9
ENDBRANCH   1   7
TORSDOF 6
ENDMDL
MODEL 4
REMARK VINA RESULT:      -4.4     10.362     12.271
REMARK  6 active torsions:
REMARK  status: ('A' for Active; 'I' for Inactive)
REMARK    1  A    between atoms: C5_5  and  C10_10 
REMARK    2  A    between atoms: C6_6  and  C7_7 
REMARK    3  A    between atoms: C6_6  and  C10_10 
REMARK    4  A    between atoms: C7_7  and  C11_11 
REMARK    5  A    between atoms: C8_8  and  C9_9 
REMARK    6  A    between atoms: C8_8  and  C11_11 
ROOT
HETATM    1  C7  UNL     1     -35.202  13.797  -4.213  1.00 20.00     0.020 C 
ENDROOT
BRANCH   1   2
HETATM    2  C6  UNL     1     -36.296  14.705  -4.799  1.00 20.00     0.005 C 
BRANCH   2   3
HETATM    3  C10 UNL     1     -35.910  15.310  -6.165  1.00 20.00    -0.019 C 
HETATM    4  C4  UNL     1     -34.761  14.544  -6.828  1.00 20.00     0.010 C 
BRANCH   3   5
HETATM    5  C5  UNL     1     -35.592  16.816  -6.050  1.00 20.00    -0.000 C 
HETATM    6  C1  UNL     1     -34.114  17.177  -6.113  1.00 20.00     0.005 C 
ENDBRANCH   3   5
ENDBRANCH   2   3
ENDBRANCH   1   2
BRANCH   1   7
HETATM    7  C11 UNL     1     -34.378  14.471  -3.102  1.00 20.00     0.082 C 
HETATM    8 CL12 UNL     1     -32.721  14.848  -3.693  1.00 20.00    -0.125 Cl
BRANCH   7   9
HETATM    9  C8  UNL     1     -35.001  15.784  -2.596  1.00 20.00     0.024 C 
BRANCH   9  10
HETATM   10  C9  UNL     1     -34.087  16.672  -1.729  1.00 20.00    -0.021 C 
HETATM   11  C2  UNL     1     -34.673  16.940  -0.342  1.00 20.00     0.009 C 
HETATM   12  C3  UNL     1     -33.830  18.002  -2.446  1.00 20.00     0.009 C 
ENDBRANCH   9  10
ENDBRANCH   7   9
ENDBRANCH   1   7
TORSDOF 6
ENDMDL
MODEL 5
REMARK VINA RESULT:      -4.4     10.356     12.214
REMARK  6 active torsions:
REMARK  status: ('A' for Active; 'I' for Inactive)
REMARK    1  A    between atoms: C5_5  and  C10_10 
REMARK    2  A    between atoms: C6_6  and  C7_7 
REMARK    3  A    between atoms: C6_6  and  C10_10 
REMARK    4  A    between atoms: C7_7  and  C11_11 
REMARK    5  A    between atoms: C8_8  and  C9_9 
REMARK    6  A    between atoms: C8_8  and  C11_11 
ROOT
HETATM    1  C7  UNL     1     -34.248  13.999  -3.351  1.00 20.00     0.020 C 
ENDROOT
BRANCH   1   2
HETATM    2  C6  UNL     1     -33.274  15.165  -3.587  1.00 20.00     0.005 C 
BRANCH   2   3
HETATM    3  C10 UNL     1     -33.607  16.411  -2.739  1.00 20.00    -0.019 C 
HETATM    4  C4  UNL     1     -34.656  16.110  -1.664  1.00 20.00     0.010 C 
BRANCH   3   5
HETATM    5  C5  UNL     1     -34.032  17.602  -3.623  1.00 20.00    -0.000 C 
HETATM    6  C1  UNL     1     -35.532  17.847  -3.712  1.00 20.00     0.005 C 
ENDBRANCH   3   5
ENDBRANCH   2   3
ENDBRANCH   1   2
BRANCH   1   7
HETATM    7  C11 UNL     1     -35.185  13.735  -4.542  1.00 20.00     0.082 C 
HETATM    8 CL12 UNL     1     -36.762  14.564  -4.293  1.00 20.00    -0.125 Cl
BRANCH   7   9
HETATM    9  C8  UNL     1     -34.612  14.219  -5.885  1.00 20.00     0.024 C 
BRANCH   9  10
HETATM   10  C9  UNL     1     -35.484  15.223  -6.667  1.00 20.00    -0.021 C 
HETATM   11  C2  UNL     1     -36.110  14.605  -7.917  1.00 20.00     0.009 C 
HETATM   12  C3  UNL     1     -34.641  16.440  -7.059  1.00 20.00     0.009 C 
ENDBRANCH   9  10
ENDBRANCH   7   9
ENDBRANCH   1   7
TORSDOF 6
ENDMDL
MODEL 6
REMARK VINA RESULT:      -4.4     10.701     11.536
REMARK  6 active torsions:
REMARK  status: ('A' for Active; 'I' for Inactive)
REMARK    1  A    between atoms: C5_5  and  C10_10 
REMARK    2  A    between atoms: C6_6  and  C7_7 
REMARK    3  A    between atoms: C6_6  and  C10_10 
REMARK    4  A    between atoms: C7_7  and  C11_11 
REMARK    5  A    between atoms: C8_8  and  C9_9 
REMARK    6  A    between atoms: C8_8  and  C11_11 
ROOT
HETATM    1  C7  UNL     1     -33.629  16.462  -2.255  1.00 20.00     0.020 C 
ENDROOT
BRANCH   1   2
HETATM    2  C6  UNL     1     -34.709  16.484  -1.160  1.00 20.00     0.005 C 
BRANCH   2   3
HETATM    3  C10 UNL     1     -34.365  17.432   0.007  1.00 20.00    -0.019 C 
HETATM    4  C4  UNL     1     -35.617  17.891   0.762  1.00 20.00     0.010 C 
BRANCH   3   5
HETATM    5  C5  UNL     1     -33.522  18.635  -0.468  1.00 20.00    -0.000 C 
HETATM    6  C1  UNL     1     -32.203  18.837   0.266  1.00 20.00     0.005 C 
ENDBRANCH   3   5
ENDBRANCH   2   3
ENDBRANCH   1   2
BRANCH   1   7
HETATM    7  C11 UNL     1     -34.120  15.864  -3.585  1.00 20.00     0.082 C 
HETATM    8 CL12 UNL     1     -33.097  16.444  -4.947  1.00 20.00    -0.125 Cl
BRANCH   7   9
HETATM    9  C8  UNL     1     -34.094  14.326  -3.606  1.00 20.00     0.024 C 
BRANCH   9  10
HETATM   10  C9  UNL     1     -35.268  13.642  -4.336  1.00 20.00    -0.021 C 
HETATM   11  C2  UNL     1     -35.075  13.607  -5.852  1.00 20.00     0.009 C 
HETATM   12  C3  UNL     1     -36.575  14.367  -3.999  1.00 20.00     0.009 C 
ENDBRANCH   9  10
ENDBRANCH   7   9
ENDBRANCH   1   7
TORSDOF 6
ENDMDL
MODEL 7
REMARK VINA RESULT:      -4.4     10.164     12.793
REMARK  6 active torsions:
REMARK  status: ('A' for Active; 'I' for Inactive)
REMARK    1  A    between atoms: C5_5  and  C10_10 
REMARK    2  A    between atoms: C6_6  and  C7_7 
REMARK    3  A    between atoms: C6_6  and  C10_10 
REMARK    4  A    between atoms: C7_7  and  C11_11 
REMARK    5  A    between atoms: C8_8  and  C9_9 
REMARK    6  A    between atoms: C8_8  and  C11_11 
ROOT
HETATM    1  C7  UNL     1     -34.255  17.577  -3.753  1.00 20.00     0.020 C 
ENDROOT
BRANCH   1   2
HETATM    2  C6  UNL     1     -33.480  17.461  -5.075  1.00 20.00     0.005 C 
BRANCH   2   3
HETATM    3  C10 UNL     1     -34.380  17.091  -6.273  1.00 20.00    -0.019 C 
HETATM    4  C4  UNL     1     -35.868  17.191  -5.925  1.00 20.00     0.010 C 
BRANCH   3   5
HETATM    5  C5  UNL     1     -34.026  15.701  -6.841  1.00 20.00    -0.000 C 
HETATM    6  C1  UNL     1     -35.088  15.071  -7.731  1.00 20.00     0.005 C 
ENDBRANCH   3   5
ENDBRANCH   2   3
ENDBRANCH   1   2
BRANCH   1   7
HETATM    7  C11 UNL     1     -33.978  16.420  -2.778  1.00 20.00     0.082 C 
HETATM    8 CL12 UNL     1     -34.021  17.008  -1.079  1.00 20.00    -0.125 Cl
BRANCH   7   9
HETATM    9  C8  UNL     1     -34.993  15.269  -2.898  1.00 20.00     0.024 C 
BRANCH   9  10
HETATM   10  C9  UNL     1     -34.413  13.900  -3.305  1.00 20.00    -0.021 C 
HETATM   11  C2  UNL     1     -32.944  13.984  -3.718  1.00 20.00     0.009 C 
HETATM   12  C3  UNL     1     -35.239  13.312  -4.454  1.00 20.00     0.009 C 
ENDBRANCH   9  10
ENDBRANCH   7   9
ENDBRANCH   1   7
TORSDOF 6
ENDMDL
MODEL 8
REMARK VINA RESULT:      -4.3     10.874     11.978
REMARK  6 active torsions:
REMARK  status: ('A' for Active; 'I' for Inactive)
REMARK    1  A    between atoms: C5_5  and  C10_10 
REMARK    2  A    between atoms: C6_6  and  C7_7 
REMARK    3  A    between atoms: C6_6  and  C10_10 
REMARK    4  A    between atoms: C7_7  and  C11_11 
REMARK    5  A    between atoms: C8_8  and  C9_9 
REMARK    6  A    between atoms: C8_8  and  C11_11 
ROOT
HETATM    1  C7  UNL     1     -34.364  15.839  -2.576  1.00 20.00     0.020 C 
ENDROOT
BRANCH   1   2
HETATM    2  C6  UNL     1     -34.290  17.323  -2.180  1.00 20.00     0.005 C 
BRANCH   2   3
HETATM    3  C10 UNL     1     -33.717  17.541  -0.764  1.00 20.00    -0.019 C 
HETATM    4  C4  UNL     1     -34.798  17.436   0.316  1.00 20.00     0.010 C 
BRANCH   3   5
HETATM    5  C5  UNL     1     -32.947  18.875  -0.662  1.00 20.00    -0.000 C 
HETATM    6  C1  UNL     1     -31.906  18.944   0.446  1.00 20.00     0.005 C 
ENDBRANCH   3   5
ENDBRANCH   2   3
ENDBRANCH   1   2
BRANCH   1   7
HETATM    7  C11 UNL     1     -33.216  15.394  -3.498  1.00 20.00     0.082 C 
HETATM    8 CL12 UNL     1     -33.330  13.631  -3.835  1.00 20.00    -0.125 Cl
BRANCH   7   9
HETATM    9  C8  UNL     1     -33.204  16.127  -4.851  1.00 20.00     0.024 C 
BRANCH   9  10
HETATM   10  C9  UNL     1     -34.495  16.016  -5.687  1.00 20.00    -0.021 C 
HETATM   11  C2  UNL     1     -34.292  15.219  -6.976  1.00 20.00     0.009 C 
HETATM   12  C3  UNL     1     -35.011  17.419  -6.025  1.00 20.00     0.009 C 
ENDBRANCH   9  10
ENDBRANCH   7   9
ENDBRANCH   1   7
TORSDOF 6
ENDMDL
MODEL 9
REMARK VINA RESULT:      -4.3     10.565     11.987
REMARK  6 active torsions:
REMARK  status: ('A' for Active; 'I' for Inactive)
REMARK    1  A    between atoms: C5_5  and  C10_10 
REMARK    2  A    between atoms: C6_6  and  C7_7 
REMARK    3  A    between atoms: C6_6  and  C10_10 
REMARK    4  A    between atoms: C7_7  and  C11_11 
REMARK    5  A    between atoms: C8_8  and  C9_9 
REMARK    6  A    between atoms: C8_8  and  C11_11 
ROOT
HETATM    1  C7  UNL     1     -34.615  16.323  -1.260  1.00 20.00     0.020 C 
ENDROOT
BRANCH   1   2
HETATM    2  C6  UNL     1     -34.778  16.090  -2.771  1.00 20.00     0.005 C 
BRANCH   2   3
HETATM    3  C10 UNL     1     -33.496  15.553  -3.441  1.00 20.00    -0.019 C 
HETATM    4  C4  UNL     1     -33.190  16.276  -4.757  1.00 20.00     0.010 C 
BRANCH   3   5
HETATM    5  C5  UNL     1     -33.557  14.024  -3.639  1.00 20.00    -0.000 C 
HETATM    6  C1  UNL     1     -34.882  13.485  -4.161  1.00 20.00     0.005 C 
ENDBRANCH   3   5
ENDBRANCH   2   3
ENDBRANCH   1   2
BRANCH   1   7
HETATM    7  C11 UNL     1     -33.856  17.618  -0.920  1.00 20.00     0.082 C 
HETATM    8 CL12 UNL     1     -34.266  18.912  -2.100  1.00 20.00    -0.125 Cl
BRANCH   7   9
HETATM    9  C8  UNL     1     -34.171  18.155   0.487  1.00 20.00     0.024 C 
BRANCH   9  10
HETATM   10  C9  UNL     1     -33.092  19.054   1.122  1.00 20.00    -0.021 C 
HETATM   11  C2  UNL     1     -31.733  18.912   0.436  1.00 20.00     0.009 C 
HETATM   12  C3  UNL     1     -32.956  18.722   2.611  1.00 20.00     0.009 C 
ENDBRANCH   9  10
ENDBRANCH   7   9
ENDBRANCH   1   7
TORSDOF 6
ENDMDL
