MODEL 1
REMARK VINA RESULT:      -4.4      0.000      0.000
REMARK  3 active torsions:
REMARK  status: ('A' for Active; 'I' for Inactive)
REMARK    1  A    between atoms: C1_1  and  C6_6 
REMARK    2  A    between atoms: C2_2  and  C8_8 
REMARK    3  A    between atoms: C2_2  and  C9_9 
ROOT
HETATM    1  C1  UNL     1     -35.593  16.020  -2.620  1.00 20.00    -0.018 C 
HETATM    2  C2  UNL     1     -35.615  14.973  -3.466  1.00 20.00    -0.070 C 
ENDROOT
BRANCH   1   3
HETATM    3  C6  UNL     1     -34.440  16.324  -1.757  1.00 20.00     0.008 C 
HETATM    4  C4  UNL     1     -33.711  17.660  -2.052  1.00 20.00     0.008 C 
HETATM    5  C3  UNL     1     -33.531  17.813  -0.527  1.00 20.00     0.001 C 
HETATM    6  C5  UNL     1     -34.780  16.921  -0.366  1.00 20.00     0.008 C 
ENDBRANCH   1   3
BRANCH   2   7
HETATM    7  C8  UNL     1     -34.411  14.054  -3.547  1.00 20.00     0.030 C 
HETATM    8  C7  UNL     1     -34.422  13.184  -4.796  1.00 20.00     0.010 C 
ENDBRANCH   2   7
BRANCH   2   9
HETATM    9  C9  UNL     1     -36.775  14.637  -4.367  1.00 20.00     0.148 C 
HETATM   10 CL10 UNL     1     -38.318  14.946  -3.536  1.00 20.00    -0.126 Cl
ENDBRANCH   2   9
TORSDOF 3
ENDMDL
MODEL 2
REMARK VINA RESULT:      -4.3      1.882      1.984
REMARK  3 active torsions:
REMARK  status: ('A' for Active; 'I' for Inactive)
REMARK    1  A    between atoms: C1_1  and  C6_6 
REMARK    2  A    between atoms: C2_2  and  C8_8 
REMARK    3  A    between atoms: C2_2  and  C9_9 
ROOT
HETATM    1  C1  UNL     1     -35.034  15.884  -2.093  1.00 20.00    -0.018 C 
HETATM    2  C2  UNL     1     -34.656  15.237  -3.212  1.00 20.00    -0.070 C 
ENDROOT
BRANCH   1   3
HETATM    3  C6  UNL     1     -34.125  16.756  -1.330  1.00 20.00     0.008 C 
HETATM    4  C4  UNL     1     -34.116  18.249  -1.747  1.00 20.00     0.008 C 
HETATM    5  C3  UNL     1     -33.972  18.590  -0.249  1.00 20.00     0.001 C 
HETATM    6  C5  UNL     1     -34.654  17.238   0.046  1.00 20.00     0.008 C 
ENDBRANCH   1   3
BRANCH   2   7
HETATM    7  C8  UNL     1     -33.238  15.399  -3.724  1.00 20.00     0.030 C 
HETATM    8  C7  UNL     1     -33.147  16.357  -4.904  1.00 20.00     0.010 C 
ENDBRANCH   2   7
BRANCH   2   9
HETATM    9  C9  UNL     1     -35.561  14.344  -4.020  1.00 20.00     0.148 C 
HETATM   10 CL10 UNL     1     -34.619  13.064  -4.820  1.00 20.00    -0.126 Cl
ENDBRANCH   2   9
TORSDOF 3
ENDMDL
MODEL 3
REMARK VINA RESULT:      -4.3      2.711      5.002
REMARK  3 active torsions:
REMARK  status: ('A' for Active; 'I' for Inactive)
REMARK    1  A    between atoms: C1_1  and  C6_6 
REMARK    2  A    between atoms: C2_2  and  C8_8 
REMARK    3  A    between atoms: C2_2  and  C9_9 
ROOT
HETATM    1  C1  UNL     1     -33.733  16.538  -2.674  1.00 20.00    -0.018 C 
HETATM    2  C2  UNL     1     -33.906  17.334  -1.602  1.00 20.00    -0.070 C 
ENDROOT
BRANCH   1   3
HETATM    3  C6  UNL     1     -34.261  15.165  -2.741  1.00 20.00     0.008 C 
HETATM    4  C4  UNL     1     -35.538  14.975  -3.599  1.00 20.00     0.008 C 
HETATM    5  C3  UNL     1     -34.944  13.625  -4.052  1.00 20.00     0.001 C 
HETATM    6  C5  UNL     1     -33.554  14.222  -3.749  1.00 20.00     0.008 C 
ENDBRANCH   1   3
BRANCH   2   7
HETATM    7  C8  UNL     1     -34.672  16.812  -0.402  1.00 20.00     0.030 C 
HETATM    8  C7  UNL     1     -35.553  17.877   0.238  1.00 20.00     0.010 C 
ENDBRANCH   2   7
BRANCH   2   9
HETATM    9  C9  UNL     1     -33.385  18.744  -1.503  1.00 20.00     0.148 C 
HETATM   10 CL10 UNL     1     -32.183  18.874  -0.197  1.00 20.00    -0.126 Cl
ENDBRANCH   2   9
TORSDOF 3
ENDMDL
MODEL 4
REMARK VINA RESULT:      -4.2      2.049      2.336
REMARK  3 active torsions:
REMARK  status: ('A' for Active; 'I' for Inactive)
REMARK    1  A    between atoms: C1_1  and  C6_6 
REMARK    2  A    between atoms: C2_2  and  C8_8 
REMARK    3  A    between atoms: C2_2  and  C9_9 
ROOT
HETATM    1  C1  UNL     1     -33.789  17.171  -3.219  1.00 20.00    -0.018 C 
HETATM    2  C2  UNL     1     -33.426  16.245  -4.127  1.00 20.00    -0.070 C 
ENDROOT
BRANCH   1   3
HETATM    3  C6  UNL     1     -33.648  16.965  -1.768  1.00 20.00     0.008 C 
HETATM    4  C4  UNL     1     -33.687  18.247  -0.898  1.00 20.00     0.008 C 
HETATM    5  C3  UNL     1     -34.475  17.426   0.145  1.00 20.00     0.001 C 
HETATM    6  C5  UNL     1     -34.935  16.529  -1.022  1.00 20.00     0.008 C 
ENDBRANCH   1   3
BRANCH   2   7
HETATM    7  C8  UNL     1     -32.846  14.926  -3.655  1.00 20.00     0.030 C 
HETATM    8  C7  UNL     1     -33.841  13.778  -3.761  1.00 20.00     0.010 C 
ENDBRANCH   2   7
BRANCH   2   9
HETATM    9  C9  UNL     1     -33.552  16.426  -5.617  1.00 20.00     0.148 C 
HETATM   10 CL10 UNL     1     -35.245  16.235  -6.127  1.00 20.00    -0.126 Cl
ENDBRANCH   2   9
TORSDOF 3
ENDMDL
MODEL 5
REMARK VINA RESULT:      -4.2     10.943     11.821
REMARK  3 active torsions:
REMARK  status: ('A' for Active; 'I' for Inactive)
REMARK    1  A    between atoms: C1_1  and  C6_6 
REMARK    2  A    between atoms: C2_2  and  C8_8 
REMARK    3  A    between atoms: C2_2  and  C9_9 
ROOT
HETATM    1  C1  UNL     1     -34.038   6.746   3.409  1.00 20.00    -0.018 C 
HETATM    2  C2  UNL     1     -32.947   7.364   2.916  1.00 20.00    -0.070 C 
ENDROOT
BRANCH   1   3
HETATM    3  C6  UNL     1     -33.959   5.650   4.389  1.00 20.00     0.008 C 
HETATM    4  C4  UNL     1     -34.172   6.054   5.870  1.00 20.00     0.008 C 
HETATM    5  C3  UNL     1     -34.934   4.723   6.046  1.00 20.00     0.001 C 
HETATM    6  C5  UNL     1     -35.238   4.785   4.535  1.00 20.00     0.008 C 
ENDBRANCH   1   3
BRANCH   2   7
HETATM    7  C8  UNL     1     -31.570   6.926   3.376  1.00 20.00     0.030 C 
HETATM    8  C7  UNL     1     -30.932   7.918   4.339  1.00 20.00     0.010 C 
ENDBRANCH   2   7
BRANCH   2   9
HETATM    9  C9  UNL     1     -32.992   8.491   1.918  1.00 20.00     0.148 C 
HETATM   10 CL10 UNL     1     -31.540   8.471   0.889  1.00 20.00    -0.126 Cl
ENDBRANCH   2   9
TORSDOF 3
ENDMDL
MODEL 6
REMARK VINA RESULT:      -4.1      1.881      2.634
REMARK  3 active torsions:
REMARK  status: ('A' for Active; 'I' for Inactive)
REMARK    1  A    between atoms: C1_1  and  C6_6 
REMARK    2  A    between atoms: C2_2  and  C8_8 
REMARK    3  A    between atoms: C2_2  and  C9_9 
ROOT
HETATM    1  C1  UNL     1     -34.266  15.881  -2.178  1.00 20.00    -0.018 C 
HETATM    2  C2  UNL     1     -35.140  15.320  -3.035  1.00 20.00    -0.070 C 
ENDROOT
BRANCH   1   3
HETATM    3  C6  UNL     1     -34.537  17.147  -1.476  1.00 20.00     0.008 C 
HETATM    4  C4  UNL     1     -34.923  17.019   0.019  1.00 20.00     0.008 C 
HETATM    5  C3  UNL     1     -34.099  18.300   0.265  1.00 20.00     0.001 C 
HETATM    6  C5  UNL     1     -33.288  17.928  -0.993  1.00 20.00     0.008 C 
ENDBRANCH   1   3
BRANCH   2   7
HETATM    7  C8  UNL     1     -36.466  16.007  -3.304  1.00 20.00     0.030 C 
HETATM    8  C7  UNL     1     -37.556  15.030  -3.724  1.00 20.00     0.010 C 
ENDBRANCH   2   7
BRANCH   2   9
HETATM    9  C9  UNL     1     -34.898  14.024  -3.764  1.00 20.00     0.148 C 
HETATM   10 CL10 UNL     1     -33.163  13.629  -3.770  1.00 20.00    -0.126 Cl
ENDBRANCH   2   9
TORSDOF 3
ENDMDL
MODEL 7
REMARK VINA RESULT:      -4.1      2.394      4.663
REMARK  3 active torsions:
REMARK  status: ('A' for Active; 'I' for Inactive)
REMARK    1  A    between atoms: C1_1  and  C6_6 
REMARK    2  A    between atoms: C2_2  and  C8_8 
REMARK    3  A    between atoms: C2_2  and  C9_9 
ROOT
HETATM    1  C1  UNL     1     -34.846  15.423  -2.240  1.00 20.00    -0.018 C 
HETATM    2  C2  UNL     1     -34.460  16.641  -1.813  1.00 20.00    -0.070 C 
ENDROOT
BRANCH   1   3
HETATM    3  C6  UNL     1     -34.640  14.960  -3.623  1.00 20.00     0.008 C 
HETATM    4  C4  UNL     1     -33.595  13.831  -3.807  1.00 20.00     0.008 C 
HETATM    5  C3  UNL     1     -34.529  13.243  -4.886  1.00 20.00     0.001 C 
HETATM    6  C5  UNL     1     -35.690  13.952  -4.158  1.00 20.00     0.008 C 
ENDBRANCH   1   3
BRANCH   2   7
HETATM    7  C8  UNL     1     -33.785  17.591  -2.783  1.00 20.00     0.030 C 
HETATM    8  C7  UNL     1     -34.720  18.689  -3.272  1.00 20.00     0.010 C 
ENDBRANCH   2   7
BRANCH   2   9
HETATM    9  C9  UNL     1     -34.650  17.143  -0.406  1.00 20.00     0.148 C 
HETATM   10 CL10 UNL     1     -33.300  18.203   0.064  1.00 20.00    -0.126 Cl
ENDBRANCH   2   9
TORSDOF 3
ENDMDL
MODEL 8
REMARK VINA RESULT:      -4.0     12.074     14.080
REMARK  3 active torsions:
REMARK  status: ('A' for Active; 'I' for Inactive)
REMARK    1  A    between atoms: C1_1  and  C6_6 
REMARK    2  A    between atoms: C2_2  and  C8_8 
REMARK    3  A    between atoms: C2_2  and  C9_9 
ROOT
HETATM    1  C1  UNL     1     -41.383   4.333  -1.838  1.00 20.00    -0.018 C 
HETATM    2  C2  UNL     1     -41.547   4.851  -0.606  1.00 20.00    -0.070 C 
ENDROOT
BRANCH   1   3
HETATM    3  C6  UNL     1     -42.204   3.223  -2.352  1.00 20.00     0.008 C 
HETATM    4  C4  UNL     1     -43.218   3.595  -3.464  1.00 20.00     0.008 C 
HETATM    5  C3  UNL     1     -42.887   2.236  -4.117  1.00 20.00     0.001 C 
HETATM    6  C5  UNL     1     -41.520   2.314  -3.406  1.00 20.00     0.008 C 
ENDBRANCH   1   3
BRANCH   2   7
HETATM    7  C8  UNL     1     -42.615   4.281   0.307  1.00 20.00     0.030 C 
HETATM    8  C7  UNL     1     -43.282   5.347   1.165  1.00 20.00     0.010 C 
ENDBRANCH   2   7
BRANCH   2   9
HETATM    9  C9  UNL     1     -40.730   5.989  -0.051  1.00 20.00     0.148 C 
HETATM   10 CL10 UNL     1     -41.131   7.508  -0.886  1.00 20.00    -0.126 Cl
ENDBRANCH   2   9
TORSDOF 3
ENDMDL
MODEL 9
REMARK VINA RESULT:      -3.9      2.433      4.935
REMARK  3 active torsions:
REMARK  status: ('A' for Active; 'I' for Inactive)
REMARK    1  A    between atoms: C1_1  and  C6_6 
REMARK    2  A    between atoms: C2_2  and  C8_8 
REMARK    3  A    between atoms: C2_2  and  C9_9 
ROOT
HETATM    1  C1  UNL     1     -34.505  16.726  -0.941  1.00 20.00    -0.018 C 
HETATM    2  C2  UNL     1     -34.069  17.707  -0.127  1.00 20.00    -0.070 C 
ENDROOT
BRANCH   1   3
HETATM    3  C6  UNL     1     -33.910  16.462  -2.262  1.00 20.00     0.008 C 
HETATM    4  C4  UNL     1     -34.348  15.142  -2.946  1.00 20.00     0.008 C 
HETATM    5  C3  UNL     1     -34.330  15.915  -4.282  1.00 20.00     0.001 C 
HETATM    6  C5  UNL     1     -34.574  17.195  -3.456  1.00 20.00     0.008 C 
ENDBRANCH   1   3
BRANCH   2   7
HETATM    7  C8  UNL     1     -32.920  18.589  -0.573  1.00 20.00     0.030 C 
HETATM    8  C7  UNL     1     -31.963  18.923   0.564  1.00 20.00     0.010 C 
ENDBRANCH   2   7
BRANCH   2   9
HETATM    9  C9  UNL     1     -34.651  18.000   1.231  1.00 20.00     0.148 C 
HETATM   10 CL10 UNL     1     -36.425  18.105   1.140  1.00 20.00    -0.126 Cl
ENDBRANCH   2   9
TORSDOF 3
ENDMDL
