MODEL 1
REMARK VINA RESULT:      -5.3      0.000      0.000
REMARK  2 active torsions:
REMARK  status: ('A' for Active; 'I' for Inactive)
REMARK    1  A    between atoms: C1_1  and  C5_5 
REMARK    2  A    between atoms: C1_1  and  C8_8 
ROOT
HETATM    1  C2  UNL     1     -33.567   6.365   5.582  1.00 20.00     0.017 C 
HETATM    2  C3  UNL     1     -34.273   5.490   3.412  1.00 20.00     0.017 C 
HETATM    3  C4  UNL     1     -34.859   4.076   5.550  1.00 20.00     0.010 A 
HETATM    4  C5  UNL     1     -33.034   5.956   4.198  1.00 20.00     0.057 C 
HETATM    5  C6  UNL     1     -34.821   5.564   5.776  1.00 20.00    -0.009 A 
HETATM    6  C7  UNL     1     -35.251   5.030   4.452  1.00 20.00    -0.009 A 
ENDROOT
BRANCH   4   7
HETATM    7  C1  UNL     1     -32.332   7.084   3.514  1.00 20.00     0.144 C 
HETATM    8  O9  UNL     1     -31.283   7.538   3.971  1.00 20.00    -0.296 OA
BRANCH   7   9
HETATM    9  C8  UNL     1     -32.994   7.605   2.259  1.00 20.00     0.193 C 
HETATM   10 CL10 UNL     1     -31.866   8.598   1.323  1.00 20.00    -0.123 Cl
ENDBRANCH   7   9
ENDBRANCH   4   7
TORSDOF 2
ENDMDL
MODEL 2
REMARK VINA RESULT:      -4.9     11.559     12.170
REMARK  2 active torsions:
REMARK  status: ('A' for Active; 'I' for Inactive)
REMARK    1  A    between atoms: C1_1  and  C5_5 
REMARK    2  A    between atoms: C1_1  and  C8_8 
ROOT
HETATM    1  C2  UNL     1     -33.575  15.302  -3.354  1.00 20.00     0.017 C 
HETATM    2  C3  UNL     1     -36.004  15.535  -3.208  1.00 20.00     0.017 C 
HETATM    3  C4  UNL     1     -34.567  16.413  -1.189  1.00 20.00     0.010 A 
HETATM    4  C5  UNL     1     -34.885  14.496  -3.405  1.00 20.00     0.057 C 
HETATM    5  C6  UNL     1     -33.889  16.515  -2.529  1.00 20.00    -0.009 A 
HETATM    6  C7  UNL     1     -35.370  16.657  -2.440  1.00 20.00    -0.009 A 
ENDROOT
BRANCH   4   7
HETATM    7  C1  UNL     1     -35.034  13.754  -4.695  1.00 20.00     0.144 C 
HETATM    8  O9  UNL     1     -34.715  12.569  -4.775  1.00 20.00    -0.296 OA
BRANCH   7   9
HETATM    9  C8  UNL     1     -35.588  14.554  -5.852  1.00 20.00     0.193 C 
HETATM   10 CL10 UNL     1     -34.305  14.961  -7.002  1.00 20.00    -0.123 Cl
ENDBRANCH   7   9
ENDBRANCH   4   7
TORSDOF 2
ENDMDL
MODEL 3
REMARK VINA RESULT:      -4.2      1.588      2.204
REMARK  2 active torsions:
REMARK  status: ('A' for Active; 'I' for Inactive)
REMARK    1  A    between atoms: C1_1  and  C5_5 
REMARK    2  A    between atoms: C1_1  and  C8_8 
ROOT
HETATM    1  C2  UNL     1     -34.727   4.188   4.469  1.00 20.00     0.017 C 
HETATM    2  C3  UNL     1     -33.652   6.154   5.447  1.00 20.00     0.017 C 
HETATM    3  C4  UNL     1     -35.574   5.000   6.821  1.00 20.00     0.010 A 
HETATM    4  C5  UNL     1     -34.409   5.668   4.197  1.00 20.00     0.057 C 
HETATM    5  C6  UNL     1     -34.769   4.061   5.964  1.00 20.00    -0.009 A 
HETATM    6  C7  UNL     1     -34.113   5.259   6.560  1.00 20.00    -0.009 A 
ENDROOT
BRANCH   4   7
HETATM    7  C1  UNL     1     -33.600   5.846   2.952  1.00 20.00     0.144 C 
HETATM    8  O9  UNL     1     -34.010   5.421   1.873  1.00 20.00    -0.296 OA
BRANCH   7   9
HETATM    9  C8  UNL     1     -32.282   6.566   3.123  1.00 20.00     0.193 C 
HETATM   10 CL10 UNL     1     -32.253   8.054   2.163  1.00 20.00    -0.123 Cl
ENDBRANCH   7   9
ENDBRANCH   4   7
TORSDOF 2
ENDMDL
MODEL 4
REMARK VINA RESULT:      -4.2     11.414     12.250
REMARK  2 active torsions:
REMARK  status: ('A' for Active; 'I' for Inactive)
REMARK    1  A    between atoms: C1_1  and  C5_5 
REMARK    2  A    between atoms: C1_1  and  C8_8 
ROOT
HETATM    1  C2  UNL     1     -33.280  15.051  -3.591  1.00 20.00     0.017 C 
HETATM    2  C3  UNL     1     -35.716  15.174  -3.750  1.00 20.00     0.017 C 
HETATM    3  C4  UNL     1     -34.499  13.263  -5.083  1.00 20.00     0.010 A 
HETATM    4  C5  UNL     1     -34.433  15.994  -3.976  1.00 20.00     0.057 C 
HETATM    5  C6  UNL     1     -33.815  13.665  -3.804  1.00 20.00    -0.009 A 
HETATM    6  C7  UNL     1     -35.300  13.741  -3.901  1.00 20.00    -0.009 A 
ENDROOT
BRANCH   4   7
HETATM    7  C1  UNL     1     -34.423  17.249  -3.163  1.00 20.00     0.144 C 
HETATM    8  O9  UNL     1     -35.008  18.256  -3.558  1.00 20.00    -0.296 OA
BRANCH   7   9
HETATM    9  C8  UNL     1     -33.658  17.182  -1.861  1.00 20.00     0.193 C 
HETATM   10 CL10 UNL     1     -34.701  16.609  -0.551  1.00 20.00    -0.123 Cl
ENDBRANCH   7   9
ENDBRANCH   4   7
TORSDOF 2
ENDMDL
MODEL 5
REMARK VINA RESULT:      -4.1     11.606     12.511
REMARK  2 active torsions:
REMARK  status: ('A' for Active; 'I' for Inactive)
REMARK    1  A    between atoms: C1_1  and  C5_5 
REMARK    2  A    between atoms: C1_1  and  C8_8 
ROOT
HETATM    1  C2  UNL     1     -33.735  18.008  -2.521  1.00 20.00     0.017 C 
HETATM    2  C3  UNL     1     -34.614  16.671  -0.674  1.00 20.00     0.017 C 
HETATM    3  C4  UNL     1     -32.799  18.488  -0.113  1.00 20.00     0.010 A 
HETATM    4  C5  UNL     1     -33.916  16.558  -2.041  1.00 20.00     0.057 C 
HETATM    5  C6  UNL     1     -33.694  18.837  -1.271  1.00 20.00    -0.009 A 
HETATM    6  C7  UNL     1     -34.230  18.021  -0.145  1.00 20.00    -0.009 A 
ENDROOT
BRANCH   4   7
HETATM    7  C1  UNL     1     -34.713  15.744  -3.009  1.00 20.00     0.144 C 
HETATM    8  O9  UNL     1     -35.918  15.567  -2.835  1.00 20.00    -0.296 OA
BRANCH   7   9
HETATM    9  C8  UNL     1     -33.942  15.175  -4.179  1.00 20.00     0.193 C 
HETATM   10 CL10 UNL     1     -33.233  13.609  -3.758  1.00 20.00    -0.123 Cl
ENDBRANCH   7   9
ENDBRANCH   4   7
TORSDOF 2
ENDMDL
MODEL 6
REMARK VINA RESULT:      -4.1     11.544     12.136
REMARK  2 active torsions:
REMARK  status: ('A' for Active; 'I' for Inactive)
REMARK    1  A    between atoms: C1_1  and  C5_5 
REMARK    2  A    between atoms: C1_1  and  C8_8 
ROOT
HETATM    1  C2  UNL     1     -35.752  15.324  -3.155  1.00 20.00     0.017 C 
HETATM    2  C3  UNL     1     -33.419  15.420  -3.876  1.00 20.00     0.017 C 
HETATM    3  C4  UNL     1     -34.789  13.252  -4.453  1.00 20.00     0.010 A 
HETATM    4  C5  UNL     1     -34.319  15.520  -2.631  1.00 20.00     0.057 C 
HETATM    5  C6  UNL     1     -35.607  14.514  -4.410  1.00 20.00    -0.009 A 
HETATM    6  C7  UNL     1     -34.184  14.573  -4.849  1.00 20.00    -0.009 A 
ENDROOT
BRANCH   4   7
HETATM    7  C1  UNL     1     -34.155  16.831  -1.929  1.00 20.00     0.144 C 
HETATM    8  O9  UNL     1     -33.644  17.790  -2.505  1.00 20.00    -0.296 OA
BRANCH   7   9
HETATM    9  C8  UNL     1     -34.651  16.877  -0.502  1.00 20.00     0.193 C 
HETATM   10 CL10 UNL     1     -33.782  18.111   0.422  1.00 20.00    -0.123 Cl
ENDBRANCH   7   9
ENDBRANCH   4   7
TORSDOF 2
ENDMDL
MODEL 7
REMARK VINA RESULT:      -4.1     11.509     12.568
REMARK  2 active torsions:
REMARK  status: ('A' for Active; 'I' for Inactive)
REMARK    1  A    between atoms: C1_1  and  C5_5 
REMARK    2  A    between atoms: C1_1  and  C8_8 
ROOT
HETATM    1  C2  UNL     1     -35.632  15.788  -3.227  1.00 20.00     0.017 C 
HETATM    2  C3  UNL     1     -35.342  13.603  -4.283  1.00 20.00     0.017 C 
HETATM    3  C4  UNL     1     -33.185  15.035  -3.824  1.00 20.00     0.010 A 
HETATM    4  C5  UNL     1     -36.066  14.952  -4.443  1.00 20.00     0.057 C 
HETATM    5  C6  UNL     1     -34.294  15.238  -2.827  1.00 20.00    -0.009 A 
HETATM    6  C7  UNL     1     -34.118  13.906  -3.471  1.00 20.00    -0.009 A 
ENDROOT
BRANCH   4   7
HETATM    7  C1  UNL     1     -37.551  14.784  -4.503  1.00 20.00     0.144 C 
HETATM    8  O9  UNL     1     -38.157  14.231  -3.586  1.00 20.00    -0.296 OA
BRANCH   7   9
HETATM    9  C8  UNL     1     -38.223  15.329  -5.743  1.00 20.00     0.193 C 
HETATM   10 CL10 UNL     1     -37.037  15.604  -7.028  1.00 20.00    -0.123 Cl
ENDBRANCH   7   9
ENDBRANCH   4   7
TORSDOF 2
ENDMDL
MODEL 8
REMARK VINA RESULT:      -4.1     10.167     11.079
REMARK  2 active torsions:
REMARK  status: ('A' for Active; 'I' for Inactive)
REMARK    1  A    between atoms: C1_1  and  C5_5 
REMARK    2  A    between atoms: C1_1  and  C8_8 
ROOT
HETATM    1  C2  UNL     1     -42.934   5.461  -1.491  1.00 20.00     0.017 C 
HETATM    2  C3  UNL     1     -40.692   4.600  -1.036  1.00 20.00     0.017 C 
HETATM    3  C4  UNL     1     -41.045   7.204  -0.943  1.00 20.00     0.010 A 
HETATM    4  C5  UNL     1     -41.810   4.600  -2.094  1.00 20.00     0.057 C 
HETATM    5  C6  UNL     1     -42.249   6.396  -0.539  1.00 20.00    -0.009 A 
HETATM    6  C7  UNL     1     -40.882   5.871  -0.261  1.00 20.00    -0.009 A 
ENDROOT
BRANCH   4   7
HETATM    7  C1  UNL     1     -42.277   3.216  -2.413  1.00 20.00     0.144 C 
HETATM    8  O9  UNL     1     -43.313   2.774  -1.917  1.00 20.00    -0.296 OA
BRANCH   7   9
HETATM    9  C8  UNL     1     -41.400   2.430  -3.361  1.00 20.00     0.193 C 
HETATM   10 CL10 UNL     1     -42.016   0.783  -3.563  1.00 20.00    -0.123 Cl
ENDBRANCH   7   9
ENDBRANCH   4   7
TORSDOF 2
ENDMDL
MODEL 9
REMARK VINA RESULT:      -4.1     11.710     12.568
REMARK  2 active torsions:
REMARK  status: ('A' for Active; 'I' for Inactive)
REMARK    1  A    between atoms: C1_1  and  C5_5 
REMARK    2  A    between atoms: C1_1  and  C8_8 
ROOT
HETATM    1  C2  UNL     1     -33.787  18.096  -2.683  1.00 20.00     0.017 C 
HETATM    2  C3  UNL     1     -34.640  15.979  -1.807  1.00 20.00     0.017 C 
HETATM    3  C4  UNL     1     -33.916  17.818  -0.073  1.00 20.00     0.010 A 
HETATM    4  C5  UNL     1     -33.554  16.576  -2.721  1.00 20.00     0.057 C 
HETATM    5  C6  UNL     1     -34.459  18.361  -1.368  1.00 20.00    -0.009 A 
HETATM    6  C7  UNL     1     -34.978  17.070  -0.834  1.00 20.00    -0.009 A 
ENDROOT
BRANCH   4   7
HETATM    7  C1  UNL     1     -33.637  16.033  -4.112  1.00 20.00     0.144 C 
HETATM    8  O9  UNL     1     -32.813  16.363  -4.964  1.00 20.00    -0.296 OA
BRANCH   7   9
HETATM    9  C8  UNL     1     -34.779  15.078  -4.377  1.00 20.00     0.193 C 
HETATM   10 CL10 UNL     1     -34.182  13.420  -4.542  1.00 20.00    -0.123 Cl
ENDBRANCH   7   9
ENDBRANCH   4   7
TORSDOF 2
ENDMDL
