MODEL 1
REMARK VINA RESULT:      -4.6      0.000      0.000
REMARK  4 active torsions:
REMARK  status: ('A' for Active; 'I' for Inactive)
REMARK    1  A    between atoms: C1_1  and  C4_4 
REMARK    2  A    between atoms: C1_1  and  C9_9 
REMARK    3  A    between atoms: C9_9  and  C10_10 
REMARK    4  A    between atoms: C10_10  and  C11_11 
ROOT
HETATM    1  C1  UNL     1     -34.583  13.900  -4.841  1.00 20.00     0.135 C 
HETATM    2  O12 UNL     1     -34.739  12.690  -4.941  1.00 20.00    -0.297 OA
ENDROOT
BRANCH   1   3
HETATM    3  C4  UNL     1     -35.135  14.813  -5.884  1.00 20.00     0.017 A 
HETATM    4  C2  UNL     1     -34.491  14.748  -7.250  1.00 20.00     0.018 A 
HETATM    5  C3  UNL     1     -34.228  15.924  -6.360  1.00 20.00     0.018 A 
HETATM    6  C5  UNL     1     -36.610  15.096  -5.825  1.00 20.00     0.023 C 
ENDBRANCH   1   3
BRANCH   1   7
HETATM    7  C9  UNL     1     -33.852  14.585  -3.704  1.00 20.00     0.080 C 
BRANCH   7   8
HETATM    8  C10 UNL     1     -34.805  15.004  -2.580  1.00 20.00     0.015 C 
BRANCH   8   9
HETATM    9  C11 UNL     1     -34.809  16.516  -2.230  1.00 20.00    -0.051 C 
HETATM   10  C6  UNL     1     -36.172  17.102  -2.646  1.00 20.00     0.014 C 
HETATM   11  C7  UNL     1     -33.703  17.266  -2.991  1.00 20.00     0.014 C 
HETATM   12  C8  UNL     1     -34.622  16.737  -0.719  1.00 20.00     0.014 C 
ENDBRANCH   8   9
ENDBRANCH   7   8
ENDBRANCH   1   7
TORSDOF 4
ENDMDL
MODEL 2
REMARK VINA RESULT:      -4.6      0.072      1.258
REMARK  4 active torsions:
REMARK  status: ('A' for Active; 'I' for Inactive)
REMARK    1  A    between atoms: C1_1  and  C4_4 
REMARK    2  A    between atoms: C1_1  and  C9_9 
REMARK    3  A    between atoms: C9_9  and  C10_10 
REMARK    4  A    between atoms: C10_10  and  C11_11 
ROOT
HETATM    1  C1  UNL     1     -34.571  13.899  -4.894  1.00 20.00     0.135 C 
HETATM    2  O12 UNL     1     -34.749  12.689  -4.971  1.00 20.00    -0.297 OA
ENDROOT
BRANCH   1   3
HETATM    3  C4  UNL     1     -35.135  14.803  -5.938  1.00 20.00     0.017 A 
HETATM    4  C2  UNL     1     -34.501  14.734  -7.308  1.00 20.00     0.018 A 
HETATM    5  C3  UNL     1     -34.237  15.916  -6.425  1.00 20.00     0.018 A 
HETATM    6  C5  UNL     1     -36.611  15.080  -5.869  1.00 20.00     0.023 C 
ENDBRANCH   1   3
BRANCH   1   7
HETATM    7  C9  UNL     1     -33.802  14.589  -3.786  1.00 20.00     0.080 C 
BRANCH   7   8
HETATM    8  C10 UNL     1     -34.707  14.976  -2.614  1.00 20.00     0.015 C 
BRANCH   8   9
HETATM    9  C11 UNL     1     -34.804  16.494  -2.310  1.00 20.00    -0.051 C 
HETATM   10  C6  UNL     1     -34.599  16.696  -0.796  1.00 20.00     0.014 C 
HETATM   11  C7  UNL     1     -36.184  17.052  -2.695  1.00 20.00     0.014 C 
HETATM   12  C8  UNL     1     -33.714  17.281  -3.059  1.00 20.00     0.014 C 
ENDBRANCH   8   9
ENDBRANCH   7   8
ENDBRANCH   1   7
TORSDOF 4
ENDMDL
MODEL 3
REMARK VINA RESULT:      -4.6      0.061      1.250
REMARK  4 active torsions:
REMARK  status: ('A' for Active; 'I' for Inactive)
REMARK    1  A    between atoms: C1_1  and  C4_4 
REMARK    2  A    between atoms: C1_1  and  C9_9 
REMARK    3  A    between atoms: C9_9  and  C10_10 
REMARK    4  A    between atoms: C10_10  and  C11_11 
ROOT
HETATM    1  C1  UNL     1     -34.574  13.901  -4.890  1.00 20.00     0.135 C 
HETATM    2  O12 UNL     1     -34.738  12.691  -4.973  1.00 20.00    -0.297 OA
ENDROOT
BRANCH   1   3
HETATM    3  C4  UNL     1     -35.144  14.804  -5.932  1.00 20.00     0.017 A 
HETATM    4  C2  UNL     1     -34.518  14.733  -7.305  1.00 20.00     0.018 A 
HETATM    5  C3  UNL     1     -34.248  15.916  -6.426  1.00 20.00     0.018 A 
HETATM    6  C5  UNL     1     -36.619  15.081  -5.854  1.00 20.00     0.023 C 
ENDBRANCH   1   3
BRANCH   1   7
HETATM    7  C9  UNL     1     -33.816  14.595  -3.776  1.00 20.00     0.080 C 
BRANCH   7   8
HETATM    8  C10 UNL     1     -34.729  14.962  -2.603  1.00 20.00     0.015 C 
BRANCH   8   9
HETATM    9  C11 UNL     1     -34.813  16.473  -2.263  1.00 20.00    -0.051 C 
HETATM   10  C6  UNL     1     -33.701  17.204  -3.039  1.00 20.00     0.014 C 
HETATM   11  C7  UNL     1     -34.601  16.718  -0.760  1.00 20.00     0.014 C 
HETATM   12  C8  UNL     1     -36.170  17.063  -2.684  1.00 20.00     0.014 C 
ENDBRANCH   8   9
ENDBRANCH   7   8
ENDBRANCH   1   7
TORSDOF 4
ENDMDL
MODEL 4
REMARK VINA RESULT:      -4.2      1.811      2.559
REMARK  4 active torsions:
REMARK  status: ('A' for Active; 'I' for Inactive)
REMARK    1  A    between atoms: C1_1  and  C4_4 
REMARK    2  A    between atoms: C1_1  and  C9_9 
REMARK    3  A    between atoms: C9_9  and  C10_10 
REMARK    4  A    between atoms: C10_10  and  C11_11 
ROOT
HETATM    1  C1  UNL     1     -34.633  16.065  -3.940  1.00 20.00     0.135 C 
HETATM    2  O12 UNL     1     -35.406  16.913  -4.367  1.00 20.00    -0.297 OA
ENDROOT
BRANCH   1   3
HETATM    3  C4  UNL     1     -34.444  14.786  -4.685  1.00 20.00     0.017 A 
HETATM    4  C2  UNL     1     -35.119  13.562  -4.111  1.00 20.00     0.018 A 
HETATM    5  C3  UNL     1     -33.633  13.715  -3.994  1.00 20.00     0.018 A 
HETATM    6  C5  UNL     1     -34.336  14.884  -6.181  1.00 20.00     0.023 C 
ENDBRANCH   1   3
BRANCH   1   7
HETATM    7  C9  UNL     1     -33.816  16.203  -2.672  1.00 20.00     0.080 C 
BRANCH   7   8
HETATM    8  C10 UNL     1     -34.701  16.284  -1.425  1.00 20.00     0.015 C 
BRANCH   8   9
HETATM    9  C11 UNL     1     -34.616  17.610  -0.624  1.00 20.00    -0.051 C 
HETATM   10  C6  UNL     1     -35.557  18.634  -1.288  1.00 20.00     0.014 C 
HETATM   11  C7  UNL     1     -33.188  18.179  -0.640  1.00 20.00     0.014 C 
HETATM   12  C8  UNL     1     -35.064  17.409   0.834  1.00 20.00     0.014 C 
ENDBRANCH   8   9
ENDBRANCH   7   8
ENDBRANCH   1   7
TORSDOF 4
ENDMDL
MODEL 5
REMARK VINA RESULT:      -4.2      1.578      2.721
REMARK  4 active torsions:
REMARK  status: ('A' for Active; 'I' for Inactive)
REMARK    1  A    between atoms: C1_1  and  C4_4 
REMARK    2  A    between atoms: C1_1  and  C9_9 
REMARK    3  A    between atoms: C9_9  and  C10_10 
REMARK    4  A    between atoms: C10_10  and  C11_11 
ROOT
HETATM    1  C1  UNL     1     -33.368  15.238  -3.715  1.00 20.00     0.135 C 
HETATM    2  O12 UNL     1     -32.341  14.612  -3.484  1.00 20.00    -0.297 OA
ENDROOT
BRANCH   1   3
HETATM    3  C4  UNL     1     -34.361  14.706  -4.694  1.00 20.00     0.017 A 
HETATM    4  C2  UNL     1     -35.533  13.943  -4.122  1.00 20.00     0.018 A 
HETATM    5  C3  UNL     1     -34.439  13.204  -4.830  1.00 20.00     0.018 A 
HETATM    6  C5  UNL     1     -34.603  15.531  -5.927  1.00 20.00     0.023 C 
ENDBRANCH   1   3
BRANCH   1   7
HETATM    7  C9  UNL     1     -33.740  16.557  -3.068  1.00 20.00     0.080 C 
BRANCH   7   8
HETATM    8  C10 UNL     1     -34.349  16.361  -1.677  1.00 20.00     0.015 C 
BRANCH   8   9
HETATM    9  C11 UNL     1     -34.485  17.644  -0.814  1.00 20.00    -0.051 C 
HETATM   10  C6  UNL     1     -33.077  18.233  -0.604  1.00 20.00     0.014 C 
HETATM   11  C7  UNL     1     -35.091  17.327   0.562  1.00 20.00     0.014 C 
HETATM   12  C8  UNL     1     -35.355  18.698  -1.520  1.00 20.00     0.014 C 
ENDBRANCH   8   9
ENDBRANCH   7   8
ENDBRANCH   1   7
TORSDOF 4
ENDMDL
MODEL 6
REMARK VINA RESULT:      -4.1      1.240      4.402
REMARK  4 active torsions:
REMARK  status: ('A' for Active; 'I' for Inactive)
REMARK    1  A    between atoms: C1_1  and  C4_4 
REMARK    2  A    between atoms: C1_1  and  C9_9 
REMARK    3  A    between atoms: C9_9  and  C10_10 
REMARK    4  A    between atoms: C10_10  and  C11_11 
ROOT
HETATM    1  C1  UNL     1     -33.784  14.897  -3.539  1.00 20.00     0.135 C 
HETATM    2  O12 UNL     1     -32.619  14.537  -3.421  1.00 20.00    -0.297 OA
ENDROOT
BRANCH   1   3
HETATM    3  C4  UNL     1     -34.212  16.224  -3.009  1.00 20.00     0.017 A 
HETATM    4  C2  UNL     1     -34.435  16.317  -1.517  1.00 20.00     0.018 A 
HETATM    5  C3  UNL     1     -35.611  16.308  -2.445  1.00 20.00     0.018 A 
HETATM    6  C5  UNL     1     -33.669  17.439  -3.707  1.00 20.00     0.023 C 
ENDBRANCH   1   3
BRANCH   1   7
HETATM    7  C9  UNL     1     -34.875  14.084  -4.205  1.00 20.00     0.080 C 
BRANCH   7   8
HETATM    8  C10 UNL     1     -34.635  13.925  -5.709  1.00 20.00     0.015 C 
BRANCH   8   9
HETATM    9  C11 UNL     1     -35.366  14.947  -6.619  1.00 20.00    -0.051 C 
HETATM   10  C6  UNL     1     -34.370  16.064  -6.986  1.00 20.00     0.014 C 
HETATM   11  C7  UNL     1     -36.563  15.582  -5.893  1.00 20.00     0.014 C 
HETATM   12  C8  UNL     1     -35.857  14.285  -7.918  1.00 20.00     0.014 C 
ENDBRANCH   8   9
ENDBRANCH   7   8
ENDBRANCH   1   7
TORSDOF 4
ENDMDL
MODEL 7
REMARK VINA RESULT:      -4.1      1.959      4.621
REMARK  4 active torsions:
REMARK  status: ('A' for Active; 'I' for Inactive)
REMARK    1  A    between atoms: C1_1  and  C4_4 
REMARK    2  A    between atoms: C1_1  and  C9_9 
REMARK    3  A    between atoms: C9_9  and  C10_10 
REMARK    4  A    between atoms: C10_10  and  C11_11 
ROOT
HETATM    1  C1  UNL     1     -33.783  17.505  -3.742  1.00 20.00     0.135 C 
HETATM    2  O12 UNL     1     -33.462  18.663  -3.979  1.00 20.00    -0.297 OA
ENDROOT
BRANCH   1   3
HETATM    3  C4  UNL     1     -34.751  17.210  -2.646  1.00 20.00     0.017 A 
HETATM    4  C2  UNL     1     -34.166  16.955  -1.276  1.00 20.00     0.018 A 
HETATM    5  C3  UNL     1     -34.720  15.812  -2.073  1.00 20.00     0.018 A 
HETATM    6  C5  UNL     1     -36.084  17.904  -2.714  1.00 20.00     0.023 C 
ENDBRANCH   1   3
BRANCH   1   7
HETATM    7  C9  UNL     1     -33.268  16.295  -4.494  1.00 20.00     0.080 C 
BRANCH   7   8
HETATM    8  C10 UNL     1     -33.934  16.145  -5.864  1.00 20.00     0.015 C 
BRANCH   8   9
HETATM    9  C11 UNL     1     -34.960  14.989  -5.991  1.00 20.00    -0.051 C 
HETATM   10  C6  UNL     1     -35.045  14.581  -7.475  1.00 20.00     0.014 C 
HETATM   11  C7  UNL     1     -36.358  15.431  -5.527  1.00 20.00     0.014 C 
HETATM   12  C8  UNL     1     -34.521  13.763  -5.172  1.00 20.00     0.014 C 
ENDBRANCH   8   9
ENDBRANCH   7   8
ENDBRANCH   1   7
TORSDOF 4
ENDMDL
MODEL 8
REMARK VINA RESULT:      -4.0      1.436      2.304
REMARK  4 active torsions:
REMARK  status: ('A' for Active; 'I' for Inactive)
REMARK    1  A    between atoms: C1_1  and  C4_4 
REMARK    2  A    between atoms: C1_1  and  C9_9 
REMARK    3  A    between atoms: C9_9  and  C10_10 
REMARK    4  A    between atoms: C10_10  and  C11_11 
ROOT
HETATM    1  C1  UNL     1     -36.367  15.011  -4.879  1.00 20.00     0.135 C 
HETATM    2  O12 UNL     1     -37.372  15.393  -5.465  1.00 20.00    -0.297 OA
ENDROOT
BRANCH   1   3
HETATM    3  C4  UNL     1     -35.264  14.356  -5.640  1.00 20.00     0.017 A 
HETATM    4  C2  UNL     1     -34.373  15.263  -6.457  1.00 20.00     0.018 A 
HETATM    5  C3  UNL     1     -35.372  14.384  -7.147  1.00 20.00     0.018 A 
HETATM    6  C5  UNL     1     -34.633  13.146  -5.010  1.00 20.00     0.023 C 
ENDBRANCH   1   3
BRANCH   1   7
HETATM    7  C9  UNL     1     -36.131  15.152  -3.389  1.00 20.00     0.080 C 
BRANCH   7   8
HETATM    8  C10 UNL     1     -35.866  16.605  -2.986  1.00 20.00     0.015 C 
BRANCH   8   9
HETATM    9  C11 UNL     1     -34.514  16.871  -2.274  1.00 20.00    -0.051 C 
HETATM   10  C6  UNL     1     -33.477  15.872  -2.823  1.00 20.00     0.014 C 
HETATM   11  C7  UNL     1     -34.634  16.664  -0.756  1.00 20.00     0.014 C 
HETATM   12  C8  UNL     1     -34.011  18.298  -2.551  1.00 20.00     0.014 C 
ENDBRANCH   8   9
ENDBRANCH   7   8
ENDBRANCH   1   7
TORSDOF 4
ENDMDL
MODEL 9
REMARK VINA RESULT:      -4.0      1.629      2.654
REMARK  4 active torsions:
REMARK  status: ('A' for Active; 'I' for Inactive)
REMARK    1  A    between atoms: C1_1  and  C4_4 
REMARK    2  A    between atoms: C1_1  and  C9_9 
REMARK    3  A    between atoms: C9_9  and  C10_10 
REMARK    4  A    between atoms: C10_10  and  C11_11 
ROOT
HETATM    1  C1  UNL     1     -34.584  15.735  -5.131  1.00 20.00     0.135 C 
HETATM    2  O12 UNL     1     -34.025  15.552  -6.205  1.00 20.00    -0.297 OA
ENDROOT
BRANCH   1   3
HETATM    3  C4  UNL     1     -35.140  14.576  -4.374  1.00 20.00     0.017 A 
HETATM    4  C2  UNL     1     -34.151  13.735  -3.600  1.00 20.00     0.018 A 
HETATM    5  C3  UNL     1     -34.754  13.200  -4.863  1.00 20.00     0.018 A 
HETATM    6  C5  UNL     1     -36.515  14.746  -3.789  1.00 20.00     0.023 C 
ENDBRANCH   1   3
BRANCH   1   7
HETATM    7  C9  UNL     1     -34.767  17.086  -4.472  1.00 20.00     0.080 C 
BRANCH   7   8
HETATM    8  C10 UNL     1     -33.763  17.313  -3.340  1.00 20.00     0.015 C 
BRANCH   8   9
HETATM    9  C11 UNL     1     -34.371  17.715  -1.970  1.00 20.00    -0.051 C 
HETATM   10  C6  UNL     1     -33.383  18.665  -1.265  1.00 20.00     0.014 C 
HETATM   11  C7  UNL     1     -34.587  16.484  -1.075  1.00 20.00     0.014 C 
HETATM   12  C8  UNL     1     -35.710  18.450  -2.151  1.00 20.00     0.014 C 
ENDBRANCH   8   9
ENDBRANCH   7   8
ENDBRANCH   1   7
TORSDOF 4
ENDMDL
