MODEL 1
REMARK VINA RESULT:      -4.1      0.000      0.000
REMARK  3 active torsions:
REMARK  status: ('A' for Active; 'I' for Inactive)
REMARK    1  A    between atoms: C3_3  and  C8_8 
REMARK    2  A    between atoms: C8_8  and  C9_9 
REMARK    3  A    between atoms: C8_8  and  O10_10 
ROOT
HETATM    1  C8  UNL     1     -33.566  15.432  -3.965  1.00 20.00     0.133 C 
ENDROOT
BRANCH   1   2
HETATM    2  C3  UNL     1     -34.475  14.613  -4.879  1.00 20.00    -0.017 A 
HETATM    3  C1  UNL     1     -35.586  13.813  -4.240  1.00 20.00     0.012 A 
HETATM    4  C2  UNL     1     -34.385  13.107  -4.801  1.00 20.00     0.012 A 
HETATM    5  C4  UNL     1     -34.737  15.235  -6.223  1.00 20.00     0.018 C 
ENDBRANCH   1   2
BRANCH   1   6
HETATM    6  C9  UNL     1     -34.208  16.712  -3.350  1.00 20.00    -0.025 C 
HETATM    7  C5  UNL     1     -33.834  16.842  -1.861  1.00 20.00     0.017 C 
HETATM    8  C6  UNL     1     -33.669  17.955  -4.091  1.00 20.00     0.017 C 
HETATM    9  C7  UNL     1     -35.743  16.714  -3.476  1.00 20.00     0.017 C 
ENDBRANCH   1   6
BRANCH   1  10
HETATM   10  O10 UNL     1     -32.386  15.764  -4.702  1.00 20.00    -0.394 OA
HETATM   11  H28 UNL     1     -31.743  15.064  -4.514  1.00 20.00     0.210 HD
ENDBRANCH   1  10
TORSDOF 3
ENDMDL
MODEL 2
REMARK VINA RESULT:      -4.1      1.263      2.997
REMARK  3 active torsions:
REMARK  status: ('A' for Active; 'I' for Inactive)
REMARK    1  A    between atoms: C3_3  and  C8_8 
REMARK    2  A    between atoms: C8_8  and  C9_9 
REMARK    3  A    between atoms: C8_8  and  O10_10 
ROOT
HETATM    1  C8  UNL     1     -33.863  16.308  -4.686  1.00 20.00     0.133 C 
ENDROOT
BRANCH   1   2
HETATM    2  C3  UNL     1     -34.349  15.535  -3.462  1.00 20.00    -0.017 A 
HETATM    3  C1  UNL     1     -35.498  16.114  -2.669  1.00 20.00     0.012 A 
HETATM    4  C2  UNL     1     -34.108  16.142  -2.100  1.00 20.00     0.012 A 
HETATM    5  C4  UNL     1     -34.265  14.039  -3.593  1.00 20.00     0.018 C 
ENDBRANCH   1   2
BRANCH   1   6
HETATM    6  C9  UNL     1     -34.733  16.154  -5.969  1.00 20.00    -0.025 C 
HETATM    7  C5  UNL     1     -36.230  16.136  -5.608  1.00 20.00     0.017 C 
HETATM    8  C6  UNL     1     -34.476  17.356  -6.903  1.00 20.00     0.017 C 
HETATM    9  C7  UNL     1     -34.399  14.868  -6.750  1.00 20.00     0.017 C 
ENDBRANCH   1   6
BRANCH   1  10
HETATM   10  O10 UNL     1     -32.511  15.919  -4.943  1.00 20.00    -0.394 OA
HETATM   11  H28 UNL     1     -32.012  16.119  -4.137  1.00 20.00     0.210 HD
ENDBRANCH   1  10
TORSDOF 3
ENDMDL
MODEL 3
REMARK VINA RESULT:      -4.1      1.270      3.039
REMARK  3 active torsions:
REMARK  status: ('A' for Active; 'I' for Inactive)
REMARK    1  A    between atoms: C3_3  and  C8_8 
REMARK    2  A    between atoms: C8_8  and  C9_9 
REMARK    3  A    between atoms: C8_8  and  O10_10 
ROOT
HETATM    1  C8  UNL     1     -33.830  16.321  -4.668  1.00 20.00     0.133 C 
ENDROOT
BRANCH   1   2
HETATM    2  C3  UNL     1     -34.347  15.555  -3.452  1.00 20.00    -0.017 A 
HETATM    3  C1  UNL     1     -35.497  16.153  -2.675  1.00 20.00     0.012 A 
HETATM    4  C2  UNL     1     -34.115  16.157  -2.086  1.00 20.00     0.012 A 
HETATM    5  C4  UNL     1     -34.288  14.059  -3.583  1.00 20.00     0.018 C 
ENDBRANCH   1   2
BRANCH   1   6
HETATM    6  C9  UNL     1     -34.705  16.215  -5.952  1.00 20.00    -0.025 C 
HETATM    7  C5  UNL     1     -34.468  17.430  -6.870  1.00 20.00     0.017 C 
HETATM    8  C6  UNL     1     -34.312  14.941  -6.730  1.00 20.00     0.017 C 
HETATM    9  C7  UNL     1     -36.209  16.127  -5.629  1.00 20.00     0.017 C 
ENDBRANCH   1   6
BRANCH   1  10
HETATM   10  O10 UNL     1     -32.495  15.881  -4.930  1.00 20.00    -0.394 OA
HETATM   11  H28 UNL     1     -32.533  14.914  -4.979  1.00 20.00     0.210 HD
ENDBRANCH   1  10
TORSDOF 3
ENDMDL
MODEL 4
REMARK VINA RESULT:      -4.1      0.905      3.588
REMARK  3 active torsions:
REMARK  status: ('A' for Active; 'I' for Inactive)
REMARK    1  A    between atoms: C3_3  and  C8_8 
REMARK    2  A    between atoms: C8_8  and  C9_9 
REMARK    3  A    between atoms: C8_8  and  O10_10 
ROOT
HETATM    1  C8  UNL     1     -33.780  15.966  -4.708  1.00 20.00     0.133 C 
ENDROOT
BRANCH   1   2
HETATM    2  C3  UNL     1     -34.054  17.010  -3.628  1.00 20.00    -0.017 A 
HETATM    3  C1  UNL     1     -35.200  17.971  -3.847  1.00 20.00     0.012 A 
HETATM    4  C2  UNL     1     -33.784  18.459  -3.961  1.00 20.00     0.012 A 
HETATM    5  C4  UNL     1     -33.782  16.545  -2.225  1.00 20.00     0.018 C 
ENDBRANCH   1   2
BRANCH   1   6
HETATM    6  C9  UNL     1     -34.539  14.615  -4.546  1.00 20.00    -0.025 C 
HETATM    7  C5  UNL     1     -34.949  14.057  -5.922  1.00 20.00     0.017 C 
HETATM    8  C6  UNL     1     -33.606  13.587  -3.869  1.00 20.00     0.017 C 
HETATM    9  C7  UNL     1     -35.802  14.755  -3.674  1.00 20.00     0.017 C 
ENDBRANCH   1   6
BRANCH   1  10
HETATM   10  O10 UNL     1     -32.367  15.747  -4.760  1.00 20.00    -0.394 OA
HETATM   11  H28 UNL     1     -32.212  14.880  -4.357  1.00 20.00     0.210 HD
ENDBRANCH   1  10
TORSDOF 3
ENDMDL
MODEL 5
REMARK VINA RESULT:      -4.0      1.885      3.853
REMARK  3 active torsions:
REMARK  status: ('A' for Active; 'I' for Inactive)
REMARK    1  A    between atoms: C3_3  and  C8_8 
REMARK    2  A    between atoms: C8_8  and  C9_9 
REMARK    3  A    between atoms: C8_8  and  O10_10 
ROOT
HETATM    1  C8  UNL     1     -35.110  15.422  -2.661  1.00 20.00     0.133 C 
ENDROOT
BRANCH   1   2
HETATM    2  C3  UNL     1     -34.913  16.817  -2.072  1.00 20.00    -0.017 A 
HETATM    3  C1  UNL     1     -33.605  17.113  -1.374  1.00 20.00     0.012 A 
HETATM    4  C2  UNL     1     -34.861  16.948  -0.567  1.00 20.00     0.012 A 
HETATM    5  C4  UNL     1     -35.560  17.925  -2.855  1.00 20.00     0.018 C 
ENDBRANCH   1   2
BRANCH   1   6
HETATM    6  C9  UNL     1     -34.310  15.123  -3.964  1.00 20.00    -0.025 C 
HETATM    7  C5  UNL     1     -33.571  13.776  -3.848  1.00 20.00     0.017 C 
HETATM    8  C6  UNL     1     -35.292  15.032  -5.152  1.00 20.00     0.017 C 
HETATM    9  C7  UNL     1     -33.281  16.224  -4.284  1.00 20.00     0.017 C 
ENDBRANCH   1   6
BRANCH   1  10
HETATM   10  O10 UNL     1     -36.511  15.229  -2.874  1.00 20.00    -0.394 OA
HETATM   11  H28 UNL     1     -36.763  14.460  -2.341  1.00 20.00     0.210 HD
ENDBRANCH   1  10
TORSDOF 3
ENDMDL
MODEL 6
REMARK VINA RESULT:      -4.0      0.904      3.563
REMARK  3 active torsions:
REMARK  status: ('A' for Active; 'I' for Inactive)
REMARK    1  A    between atoms: C3_3  and  C8_8 
REMARK    2  A    between atoms: C8_8  and  C9_9 
REMARK    3  A    between atoms: C8_8  and  O10_10 
ROOT
HETATM    1  C8  UNL     1     -33.856  16.020  -4.685  1.00 20.00     0.133 C 
ENDROOT
BRANCH   1   2
HETATM    2  C3  UNL     1     -34.111  17.018  -3.558  1.00 20.00    -0.017 A 
HETATM    3  C1  UNL     1     -35.262  17.985  -3.715  1.00 20.00     0.012 A 
HETATM    4  C2  UNL     1     -33.848  18.480  -3.835  1.00 20.00     0.012 A 
HETATM    5  C4  UNL     1     -33.811  16.496  -2.180  1.00 20.00     0.018 C 
ENDBRANCH   1   2
BRANCH   1   6
HETATM    6  C9  UNL     1     -34.547  14.632  -4.525  1.00 20.00    -0.025 C 
HETATM    7  C5  UNL     1     -35.836  14.764  -3.691  1.00 20.00     0.017 C 
HETATM    8  C6  UNL     1     -34.929  14.092  -5.920  1.00 20.00     0.017 C 
HETATM    9  C7  UNL     1     -33.627  13.596  -3.851  1.00 20.00     0.017 C 
ENDBRANCH   1   6
BRANCH   1  10
HETATM   10  O10 UNL     1     -32.441  15.865  -4.824  1.00 20.00    -0.394 OA
HETATM   11  H28 UNL     1     -32.207  16.260  -5.676  1.00 20.00     0.210 HD
ENDBRANCH   1  10
TORSDOF 3
ENDMDL
MODEL 7
REMARK VINA RESULT:      -4.0      1.621      2.625
REMARK  3 active torsions:
REMARK  status: ('A' for Active; 'I' for Inactive)
REMARK    1  A    between atoms: C3_3  and  C8_8 
REMARK    2  A    between atoms: C8_8  and  C9_9 
REMARK    3  A    between atoms: C8_8  and  O10_10 
ROOT
HETATM    1  C8  UNL     1     -35.506  15.701  -3.950  1.00 20.00     0.133 C 
ENDROOT
BRANCH   1   2
HETATM    2  C3  UNL     1     -35.260  14.642  -5.023  1.00 20.00    -0.017 A 
HETATM    3  C1  UNL     1     -34.509  15.057  -6.268  1.00 20.00     0.012 A 
HETATM    4  C2  UNL     1     -35.986  14.788  -6.340  1.00 20.00     0.012 A 
HETATM    5  C4  UNL     1     -35.032  13.254  -4.492  1.00 20.00     0.018 C 
ENDBRANCH   1   2
BRANCH   1   6
HETATM    6  C9  UNL     1     -34.239  16.200  -3.194  1.00 20.00    -0.025 C 
HETATM    7  C5  UNL     1     -33.859  17.620  -3.654  1.00 20.00     0.017 C 
HETATM    8  C6  UNL     1     -34.539  16.249  -1.680  1.00 20.00     0.017 C 
HETATM    9  C7  UNL     1     -33.027  15.272  -3.407  1.00 20.00     0.017 C 
ENDBRANCH   1   6
BRANCH   1  10
HETATM   10  O10 UNL     1     -36.469  15.179  -3.031  1.00 20.00    -0.394 OA
HETATM   11  H28 UNL     1     -36.163  14.292  -2.791  1.00 20.00     0.210 HD
ENDBRANCH   1  10
TORSDOF 3
ENDMDL
MODEL 8
REMARK VINA RESULT:      -4.0      1.957      2.791
REMARK  3 active torsions:
REMARK  status: ('A' for Active; 'I' for Inactive)
REMARK    1  A    between atoms: C3_3  and  C8_8 
REMARK    2  A    between atoms: C8_8  and  C9_9 
REMARK    3  A    between atoms: C8_8  and  O10_10 
ROOT
HETATM    1  C8  UNL     1     -35.394  14.255  -4.086  1.00 20.00     0.133 C 
ENDROOT
BRANCH   1   2
HETATM    2  C3  UNL     1     -36.039  14.788  -5.362  1.00 20.00    -0.017 A 
HETATM    3  C1  UNL     1     -36.608  16.188  -5.336  1.00 20.00     0.012 A 
HETATM    4  C2  UNL     1     -37.535  15.006  -5.361  1.00 20.00     0.012 A 
HETATM    5  C4  UNL     1     -35.397  14.312  -6.635  1.00 20.00     0.018 C 
ENDBRANCH   1   2
BRANCH   1   6
HETATM    6  C9  UNL     1     -34.041  14.917  -3.688  1.00 20.00    -0.025 C 
HETATM    7  C5  UNL     1     -34.189  15.697  -2.367  1.00 20.00     0.017 C 
HETATM    8  C6  UNL     1     -32.979  13.816  -3.480  1.00 20.00     0.017 C 
HETATM    9  C7  UNL     1     -33.520  15.879  -4.773  1.00 20.00     0.017 C 
ENDBRANCH   1   6
BRANCH   1  10
HETATM   10  O10 UNL     1     -35.239  12.840  -4.229  1.00 20.00    -0.394 OA
HETATM   11  H28 UNL     1     -35.574  12.618  -5.110  1.00 20.00     0.210 HD
ENDBRANCH   1  10
TORSDOF 3
ENDMDL
MODEL 9
REMARK VINA RESULT:      -3.9     11.874     13.963
REMARK  3 active torsions:
REMARK  status: ('A' for Active; 'I' for Inactive)
REMARK    1  A    between atoms: C3_3  and  C8_8 
REMARK    2  A    between atoms: C8_8  and  C9_9 
REMARK    3  A    between atoms: C8_8  and  O10_10 
ROOT
HETATM    1  C8  UNL     1     -41.310   4.737  -1.652  1.00 20.00     0.133 C 
ENDROOT
BRANCH   1   2
HETATM    2  C3  UNL     1     -41.750   5.922  -0.794  1.00 20.00    -0.017 A 
HETATM    3  C1  UNL     1     -42.097   7.214  -1.496  1.00 20.00     0.012 A 
HETATM    4  C2  UNL     1     -40.825   7.112  -0.704  1.00 20.00     0.012 A 
HETATM    5  C4  UNL     1     -42.543   5.549   0.428  1.00 20.00     0.018 C 
ENDBRANCH   1   2
BRANCH   1   6
HETATM    6  C9  UNL     1     -42.461   3.865  -2.236  1.00 20.00    -0.025 C 
HETATM    7  C5  UNL     1     -43.349   4.701  -3.177  1.00 20.00     0.017 C 
HETATM    8  C6  UNL     1     -41.852   2.705  -3.054  1.00 20.00     0.017 C 
HETATM    9  C7  UNL     1     -43.347   3.253  -1.135  1.00 20.00     0.017 C 
ENDBRANCH   1   6
BRANCH   1  10
HETATM   10  O10 UNL     1     -40.417   3.938  -0.872  1.00 20.00    -0.394 OA
HETATM   11  H28 UNL     1     -39.749   4.543  -0.518  1.00 20.00     0.210 HD
ENDBRANCH   1  10
TORSDOF 3
ENDMDL
