MODEL 1
REMARK VINA RESULT:      -5.0      0.000      0.000
REMARK  1 active torsions:
REMARK  status: ('A' for Active; 'I' for Inactive)
REMARK    1  A    between atoms: C3_3  and  C7_7 
ROOT
HETATM    1  C1  UNL     1     -32.485   7.240   2.958  1.00 20.00     0.087 C 
HETATM    2  C2  UNL     1     -33.326   6.739   3.988  1.00 20.00     0.090 C 
HETATM    3  C3  UNL     1     -34.283   5.837   3.736  1.00 20.00    -0.011 C 
HETATM    4  N8  UNL     1     -31.795   7.650   2.121  1.00 20.00    -0.192 NA
ENDROOT
BRANCH   3   5
HETATM    5  C7  UNL     1     -35.184   5.285   4.773  1.00 20.00     0.009 C 
HETATM    6  C5  UNL     1     -35.025   3.770   5.054  1.00 20.00     0.008 C 
HETATM    7  C4  UNL     1     -34.079   4.132   6.215  1.00 20.00     0.001 C 
HETATM    8  C6  UNL     1     -34.737   5.525   6.237  1.00 20.00     0.008 C 
ENDBRANCH   3   5
TORSDOF 1
ENDMDL
MODEL 2
REMARK VINA RESULT:      -4.4      0.847      1.350
REMARK  1 active torsions:
REMARK  status: ('A' for Active; 'I' for Inactive)
REMARK    1  A    between atoms: C3_3  and  C7_7 
ROOT
HETATM    1  C1  UNL     1     -32.256   7.624   2.506  1.00 20.00     0.087 C 
HETATM    2  C2  UNL     1     -32.510   6.383   3.151  1.00 20.00     0.090 C 
HETATM    3  C3  UNL     1     -33.663   6.148   3.790  1.00 20.00    -0.011 C 
HETATM    4  N8  UNL     1     -32.044   8.635   1.977  1.00 20.00    -0.192 NA
ENDROOT
BRANCH   3   5
HETATM    5  C7  UNL     1     -33.975   4.874   4.476  1.00 20.00     0.009 C 
HETATM    6  C5  UNL     1     -33.680   4.848   5.997  1.00 20.00     0.008 C 
HETATM    7  C4  UNL     1     -35.155   5.223   6.242  1.00 20.00     0.001 C 
HETATM    8  C6  UNL     1     -35.467   4.664   4.840  1.00 20.00     0.008 C 
ENDBRANCH   3   5
TORSDOF 1
ENDMDL
MODEL 3
REMARK VINA RESULT:      -4.2     11.820     12.652
REMARK  1 active torsions:
REMARK  status: ('A' for Active; 'I' for Inactive)
REMARK    1  A    between atoms: C3_3  and  C7_7 
ROOT
HETATM    1  C1  UNL     1     -34.349  13.625  -4.148  1.00 20.00     0.087 C 
HETATM    2  C2  UNL     1     -33.777  14.700  -3.416  1.00 20.00     0.090 C 
HETATM    3  C3  UNL     1     -34.520  15.484  -2.625  1.00 20.00    -0.011 C 
HETATM    4  N8  UNL     1     -34.812  12.746  -4.747  1.00 20.00    -0.192 NA
ENDROOT
BRANCH   3   5
HETATM    5  C7  UNL     1     -33.972  16.615  -1.842  1.00 20.00     0.009 C 
HETATM    6  C5  UNL     1     -34.465  18.021  -2.271  1.00 20.00     0.008 C 
HETATM    7  C4  UNL     1     -35.547  17.923  -1.178  1.00 20.00     0.001 C 
HETATM    8  C6  UNL     1     -34.660  16.875  -0.478  1.00 20.00     0.008 C 
ENDBRANCH   3   5
TORSDOF 1
ENDMDL
MODEL 4
REMARK VINA RESULT:      -4.1     11.672     12.396
REMARK  1 active torsions:
REMARK  status: ('A' for Active; 'I' for Inactive)
REMARK    1  A    between atoms: C3_3  and  C7_7 
ROOT
HETATM    1  C1  UNL     1     -34.716  17.036  -0.246  1.00 20.00     0.087 C 
HETATM    2  C2  UNL     1     -34.287  16.660  -1.548  1.00 20.00     0.090 C 
HETATM    3  C3  UNL     1     -34.955  15.752  -2.272  1.00 20.00    -0.011 C 
HETATM    4  N8  UNL     1     -35.063  17.347   0.816  1.00 20.00    -0.192 NA
ENDROOT
BRANCH   3   5
HETATM    5  C7  UNL     1     -34.550  15.327  -3.630  1.00 20.00     0.009 C 
HETATM    6  C5  UNL     1     -33.021  15.244  -3.873  1.00 20.00     0.008 C 
HETATM    7  C4  UNL     1     -33.097  13.742  -3.537  1.00 20.00     0.001 C 
HETATM    8  C6  UNL     1     -34.596  13.800  -3.890  1.00 20.00     0.008 C 
ENDBRANCH   3   5
TORSDOF 1
ENDMDL
MODEL 5
REMARK VINA RESULT:      -4.1     11.807     12.451
REMARK  1 active torsions:
REMARK  status: ('A' for Active; 'I' for Inactive)
REMARK    1  A    between atoms: C3_3  and  C7_7 
ROOT
HETATM    1  C1  UNL     1     -34.619  16.981  -0.477  1.00 20.00     0.087 C 
HETATM    2  C2  UNL     1     -34.070  16.606  -1.733  1.00 20.00     0.090 C 
HETATM    3  C3  UNL     1     -34.589  15.604  -2.454  1.00 20.00    -0.011 C 
HETATM    4  N8  UNL     1     -35.064  17.292   0.548  1.00 20.00    -0.192 NA
ENDROOT
BRANCH   3   5
HETATM    5  C7  UNL     1     -34.054  15.175  -3.766  1.00 20.00     0.009 C 
HETATM    6  C5  UNL     1     -33.573  13.704  -3.840  1.00 20.00     0.008 C 
HETATM    7  C4  UNL     1     -34.959  13.326  -4.397  1.00 20.00     0.001 C 
HETATM    8  C6  UNL     1     -35.120  14.797  -4.826  1.00 20.00     0.008 C 
ENDBRANCH   3   5
TORSDOF 1
ENDMDL
MODEL 6
REMARK VINA RESULT:      -3.9      2.481      5.165
REMARK  1 active torsions:
REMARK  status: ('A' for Active; 'I' for Inactive)
REMARK    1  A    between atoms: C3_3  and  C7_7 
ROOT
HETATM    1  C1  UNL     1     -34.028   5.739   4.125  1.00 20.00     0.087 C 
HETATM    2  C2  UNL     1     -33.060   6.731   3.807  1.00 20.00     0.090 C 
HETATM    3  C3  UNL     1     -32.969   7.253   2.577  1.00 20.00    -0.011 C 
HETATM    4  N8  UNL     1     -34.816   4.930   4.388  1.00 20.00    -0.192 NA
ENDROOT
BRANCH   3   5
HETATM    5  C7  UNL     1     -31.981   8.287   2.197  1.00 20.00     0.009 C 
HETATM    6  C5  UNL     1     -31.547   8.277   0.709  1.00 20.00     0.008 C 
HETATM    7  C4  UNL     1     -32.620   9.350   0.438  1.00 20.00     0.001 C 
HETATM    8  C6  UNL     1     -32.563   9.700   1.937  1.00 20.00     0.008 C 
ENDBRANCH   3   5
TORSDOF 1
ENDMDL
MODEL 7
REMARK VINA RESULT:      -3.8     12.072     12.707
REMARK  1 active torsions:
REMARK  status: ('A' for Active; 'I' for Inactive)
REMARK    1  A    between atoms: C3_3  and  C7_7 
ROOT
HETATM    1  C1  UNL     1     -33.930  17.225  -1.034  1.00 20.00     0.087 C 
HETATM    2  C2  UNL     1     -34.687  16.206  -1.673  1.00 20.00     0.090 C 
HETATM    3  C3  UNL     1     -34.234  15.573  -2.763  1.00 20.00    -0.011 C 
HETATM    4  N8  UNL     1     -33.315  18.056  -0.509  1.00 20.00    -0.192 NA
ENDROOT
BRANCH   3   5
HETATM    5  C7  UNL     1     -34.983  14.506  -3.464  1.00 20.00     0.009 C 
HETATM    6  C5  UNL     1     -35.688  14.940  -4.774  1.00 20.00     0.008 C 
HETATM    7  C4  UNL     1     -34.453  14.438  -5.548  1.00 20.00     0.001 C 
HETATM    8  C6  UNL     1     -34.125  13.552  -4.331  1.00 20.00     0.008 C 
ENDBRANCH   3   5
TORSDOF 1
ENDMDL
MODEL 8
REMARK VINA RESULT:      -3.8     12.434     13.270
REMARK  1 active torsions:
REMARK  status: ('A' for Active; 'I' for Inactive)
REMARK    1  A    between atoms: C3_3  and  C7_7 
ROOT
HETATM    1  C1  UNL     1     -32.426  18.681  -0.047  1.00 20.00     0.087 C 
HETATM    2  C2  UNL     1     -33.604  17.969  -0.403  1.00 20.00     0.090 C 
HETATM    3  C3  UNL     1     -33.602  17.054  -1.382  1.00 20.00    -0.011 C 
HETATM    4  N8  UNL     1     -31.467  19.263   0.247  1.00 20.00    -0.192 NA
ENDROOT
BRANCH   3   5
HETATM    5  C7  UNL     1     -34.800  16.287  -1.790  1.00 20.00     0.009 C 
HETATM    6  C5  UNL     1     -35.761  17.020  -2.760  1.00 20.00     0.008 C 
HETATM    7  C4  UNL     1     -35.041  16.319  -3.928  1.00 20.00     0.001 C 
HETATM    8  C6  UNL     1     -34.573  15.252  -2.920  1.00 20.00     0.008 C 
ENDBRANCH   3   5
TORSDOF 1
ENDMDL
MODEL 9
REMARK VINA RESULT:      -3.7     12.367     13.046
REMARK  1 active torsions:
REMARK  status: ('A' for Active; 'I' for Inactive)
REMARK    1  A    between atoms: C3_3  and  C7_7 
ROOT
HETATM    1  C1  UNL     1     -34.733  17.275  -0.456  1.00 20.00     0.087 C 
HETATM    2  C2  UNL     1     -33.848  16.838  -1.479  1.00 20.00     0.090 C 
HETATM    3  C3  UNL     1     -34.186  15.861  -2.329  1.00 20.00    -0.011 C 
HETATM    4  N8  UNL     1     -35.453  17.635   0.379  1.00 20.00    -0.192 NA
ENDROOT
BRANCH   3   5
HETATM    5  C7  UNL     1     -33.300  15.371  -3.410  1.00 20.00     0.009 C 
HETATM    6  C5  UNL     1     -33.853  14.182  -4.235  1.00 20.00     0.008 C 
HETATM    7  C4  UNL     1     -34.376  15.202  -5.266  1.00 20.00     0.001 C 
HETATM    8  C6  UNL     1     -33.334  16.196  -4.721  1.00 20.00     0.008 C 
ENDBRANCH   3   5
TORSDOF 1
ENDMDL
