MODEL 1
REMARK VINA RESULT:      -4.5      0.000      0.000
REMARK  3 active torsions:
REMARK  status: ('A' for Active; 'I' for Inactive)
REMARK    1  A    between atoms: C3_3  and  C7_7 
REMARK    2  A    between atoms: C6_6  and  C7_7 
REMARK    3  A    between atoms: C7_7  and  O8_8 
ROOT
HETATM    1  C7  UNL     1     -33.306   5.788   4.523  1.00 20.00     0.126 C 
ENDROOT
BRANCH   1   2
HETATM    2  C3  UNL     1     -34.664   5.207   4.806  1.00 20.00    -0.018 A 
HETATM    3  C1  UNL     1     -35.099   5.091   6.248  1.00 20.00     0.012 A 
HETATM    4  C2  UNL     1     -34.728   3.855   5.479  1.00 20.00     0.012 A 
HETATM    5  C4  UNL     1     -35.711   5.533   3.778  1.00 20.00     0.018 C 
ENDBRANCH   1   2
BRANCH   1   6
HETATM    6  C6  UNL     1     -33.142   6.168   3.043  1.00 20.00     0.028 C 
HETATM    7  C5  UNL     1     -32.186   7.335   2.832  1.00 20.00     0.007 C 
ENDBRANCH   1   6
BRANCH   1   8
HETATM    8  O8  UNL     1     -33.115   6.965   5.315  1.00 20.00    -0.395 OA
HETATM    9  H22 UNL     1     -32.651   7.600   4.751  1.00 20.00     0.210 HD
ENDBRANCH   1   8
TORSDOF 3
ENDMDL
MODEL 2
REMARK VINA RESULT:      -4.2      1.747      3.137
REMARK  3 active torsions:
REMARK  status: ('A' for Active; 'I' for Inactive)
REMARK    1  A    between atoms: C3_3  and  C7_7 
REMARK    2  A    between atoms: C6_6  and  C7_7 
REMARK    3  A    between atoms: C7_7  and  O8_8 
ROOT
HETATM    1  C7  UNL     1     -34.394   4.711   5.120  1.00 20.00     0.126 C 
ENDROOT
BRANCH   1   2
HETATM    2  C3  UNL     1     -34.574   5.499   3.852  1.00 20.00    -0.018 A 
HETATM    3  C1  UNL     1     -33.726   5.126   2.658  1.00 20.00     0.012 A 
HETATM    4  C2  UNL     1     -33.441   6.395   3.409  1.00 20.00     0.012 A 
HETATM    5  C4  UNL     1     -35.982   5.963   3.599  1.00 20.00     0.018 C 
ENDBRANCH   1   2
BRANCH   1   6
HETATM    6  C6  UNL     1     -34.772   5.531   6.363  1.00 20.00     0.028 C 
HETATM    7  C5  UNL     1     -33.852   6.724   6.589  1.00 20.00     0.007 C 
ENDBRANCH   1   6
BRANCH   1   8
HETATM    8  O8  UNL     1     -35.221   3.544   5.079  1.00 20.00    -0.395 OA
HETATM    9  H22 UNL     1     -35.162   3.200   4.176  1.00 20.00     0.210 HD
ENDBRANCH   1   8
TORSDOF 3
ENDMDL
MODEL 3
REMARK VINA RESULT:      -4.2      1.546      1.920
REMARK  3 active torsions:
REMARK  status: ('A' for Active; 'I' for Inactive)
REMARK    1  A    between atoms: C3_3  and  C7_7 
REMARK    2  A    between atoms: C6_6  and  C7_7 
REMARK    3  A    between atoms: C7_7  and  O8_8 
ROOT
HETATM    1  C7  UNL     1     -34.153   6.165   4.089  1.00 20.00     0.126 C 
ENDROOT
BRANCH   1   2
HETATM    2  C3  UNL     1     -34.206   5.787   5.544  1.00 20.00    -0.018 A 
HETATM    3  C1  UNL     1     -33.909   4.353   5.915  1.00 20.00     0.012 A 
HETATM    4  C2  UNL     1     -35.318   4.869   5.996  1.00 20.00     0.012 A 
HETATM    5  C4  UNL     1     -33.755   6.867   6.487  1.00 20.00     0.018 C 
ENDBRANCH   1   2
BRANCH   1   6
HETATM    6  C6  UNL     1     -32.726   6.081   3.526  1.00 20.00     0.028 C 
HETATM    7  C5  UNL     1     -32.297   7.353   2.806  1.00 20.00     0.007 C 
ENDBRANCH   1   6
BRANCH   1   8
HETATM    8  O8  UNL     1     -34.989   5.281   3.335  1.00 20.00    -0.395 OA
HETATM    9  H22 UNL     1     -35.896   5.596   3.455  1.00 20.00     0.210 HD
ENDBRANCH   1   8
TORSDOF 3
ENDMDL
MODEL 4
REMARK VINA RESULT:      -4.1      0.956      3.598
REMARK  3 active torsions:
REMARK  status: ('A' for Active; 'I' for Inactive)
REMARK    1  A    between atoms: C3_3  and  C7_7 
REMARK    2  A    between atoms: C6_6  and  C7_7 
REMARK    3  A    between atoms: C7_7  and  O8_8 
ROOT
HETATM    1  C7  UNL     1     -33.941   6.593   4.065  1.00 20.00     0.126 C 
ENDROOT
BRANCH   1   2
HETATM    2  C3  UNL     1     -32.643   6.595   3.305  1.00 20.00    -0.018 A 
HETATM    3  C1  UNL     1     -31.561   7.549   3.752  1.00 20.00     0.012 A 
HETATM    4  C2  UNL     1     -32.310   7.815   2.478  1.00 20.00     0.012 A 
HETATM    5  C4  UNL     1     -32.224   5.250   2.779  1.00 20.00     0.018 C 
ENDBRANCH   1   2
BRANCH   1   6
HETATM    6  C6  UNL     1     -34.818   5.386   3.699  1.00 20.00     0.028 C 
HETATM    7  C5  UNL     1     -35.178   4.527   4.905  1.00 20.00     0.007 C 
ENDBRANCH   1   6
BRANCH   1   8
HETATM    8  O8  UNL     1     -33.671   6.547   5.470  1.00 20.00    -0.395 OA
HETATM    9  H22 UNL     1     -34.263   7.192   5.882  1.00 20.00     0.210 HD
ENDBRANCH   1   8
TORSDOF 3
ENDMDL
MODEL 5
REMARK VINA RESULT:      -3.8     12.418     13.527
REMARK  3 active torsions:
REMARK  status: ('A' for Active; 'I' for Inactive)
REMARK    1  A    between atoms: C3_3  and  C7_7 
REMARK    2  A    between atoms: C6_6  and  C7_7 
REMARK    3  A    between atoms: C7_7  and  O8_8 
ROOT
HETATM    1  C7  UNL     1     -33.917  15.702  -4.503  1.00 20.00     0.126 C 
ENDROOT
BRANCH   1   2
HETATM    2  C3  UNL     1     -34.565  14.717  -5.438  1.00 20.00    -0.018 A 
HETATM    3  C1  UNL     1     -34.427  14.955  -6.924  1.00 20.00     0.012 A 
HETATM    4  C2  UNL     1     -35.749  15.187  -6.251  1.00 20.00     0.012 A 
HETATM    5  C4  UNL     1     -34.564  13.296  -4.948  1.00 20.00     0.018 C 
ENDBRANCH   1   2
BRANCH   1   6
HETATM    6  C6  UNL     1     -33.899  15.189  -3.055  1.00 20.00     0.028 C 
HETATM    7  C5  UNL     1     -34.481  16.190  -2.065  1.00 20.00     0.007 C 
ENDBRANCH   1   6
BRANCH   1   8
HETATM    8  O8  UNL     1     -32.567  15.936  -4.917  1.00 20.00    -0.395 OA
HETATM    9  H22 UNL     1     -32.610  16.200  -5.847  1.00 20.00     0.210 HD
ENDBRANCH   1   8
TORSDOF 3
ENDMDL
MODEL 6
REMARK VINA RESULT:      -3.8     11.750     12.604
REMARK  3 active torsions:
REMARK  status: ('A' for Active; 'I' for Inactive)
REMARK    1  A    between atoms: C3_3  and  C7_7 
REMARK    2  A    between atoms: C6_6  and  C7_7 
REMARK    3  A    between atoms: C7_7  and  O8_8 
ROOT
HETATM    1  C7  UNL     1     -34.733  15.431  -2.401  1.00 20.00     0.126 C 
ENDROOT
BRANCH   1   2
HETATM    2  C3  UNL     1     -34.032  15.057  -3.678  1.00 20.00    -0.018 A 
HETATM    3  C1  UNL     1     -34.680  14.019  -4.565  1.00 20.00     0.012 A 
HETATM    4  C2  UNL     1     -33.446  13.668  -3.784  1.00 20.00     0.012 A 
HETATM    5  C4  UNL     1     -33.293  16.186  -4.340  1.00 20.00     0.018 C 
ENDBRANCH   1   2
BRANCH   1   6
HETATM    6  C6  UNL     1     -34.114  16.679  -1.752  1.00 20.00     0.028 C 
HETATM    7  C5  UNL     1     -34.681  16.971  -0.369  1.00 20.00     0.007 C 
ENDBRANCH   1   6
BRANCH   1   8
HETATM    8  O8  UNL     1     -36.112  15.698  -2.673  1.00 20.00    -0.395 OA
HETATM    9  H22 UNL     1     -36.130  16.245  -3.471  1.00 20.00     0.210 HD
ENDBRANCH   1   8
TORSDOF 3
ENDMDL
MODEL 7
REMARK VINA RESULT:      -3.7      1.525      3.582
REMARK  3 active torsions:
REMARK  status: ('A' for Active; 'I' for Inactive)
REMARK    1  A    between atoms: C3_3  and  C7_7 
REMARK    2  A    between atoms: C6_6  and  C7_7 
REMARK    3  A    between atoms: C7_7  and  O8_8 
ROOT
HETATM    1  C7  UNL     1     -34.590   5.292   3.932  1.00 20.00     0.126 C 
ENDROOT
BRANCH   1   2
HETATM    2  C3  UNL     1     -33.471   6.288   4.070  1.00 20.00    -0.018 A 
HETATM    3  C1  UNL     1     -33.101   7.111   2.857  1.00 20.00     0.012 A 
HETATM    4  C2  UNL     1     -32.185   6.015   3.324  1.00 20.00     0.012 A 
HETATM    5  C4  UNL     1     -33.378   6.942   5.420  1.00 20.00     0.018 C 
ENDBRANCH   1   2
BRANCH   1   6
HETATM    6  C6  UNL     1     -35.209   4.935   5.292  1.00 20.00     0.028 C 
HETATM    7  C5  UNL     1     -34.584   3.697   5.922  1.00 20.00     0.007 C 
ENDBRANCH   1   6
BRANCH   1   8
HETATM    8  O8  UNL     1     -35.616   5.838   3.097  1.00 20.00    -0.395 OA
HETATM    9  H22 UNL     1     -36.041   6.538   3.613  1.00 20.00     0.210 HD
ENDBRANCH   1   8
TORSDOF 3
ENDMDL
MODEL 8
REMARK VINA RESULT:      -3.7     11.977     13.470
REMARK  3 active torsions:
REMARK  status: ('A' for Active; 'I' for Inactive)
REMARK    1  A    between atoms: C3_3  and  C7_7 
REMARK    2  A    between atoms: C6_6  and  C7_7 
REMARK    3  A    between atoms: C7_7  and  O8_8 
ROOT
HETATM    1  C7  UNL     1     -34.326  13.928  -4.841  1.00 20.00     0.126 C 
ENDROOT
BRANCH   1   2
HETATM    2  C3  UNL     1     -35.112  14.753  -5.824  1.00 20.00    -0.018 A 
HETATM    3  C1  UNL     1     -35.081  14.344  -7.278  1.00 20.00     0.012 A 
HETATM    4  C2  UNL     1     -34.342  15.574  -6.833  1.00 20.00     0.012 A 
HETATM    5  C4  UNL     1     -36.391  15.323  -5.279  1.00 20.00     0.018 C 
ENDBRANCH   1   2
BRANCH   1   6
HETATM    6  C6  UNL     1     -34.418  14.493  -3.416  1.00 20.00     0.028 C 
HETATM    7  C5  UNL     1     -33.431  15.626  -3.162  1.00 20.00     0.007 C 
ENDBRANCH   1   6
BRANCH   1   8
HETATM    8  O8  UNL     1     -34.831  12.589  -4.830  1.00 20.00    -0.395 OA
HETATM    9  H22 UNL     1     -35.511  12.549  -5.518  1.00 20.00     0.210 HD
ENDBRANCH   1   8
TORSDOF 3
ENDMDL
MODEL 9
REMARK VINA RESULT:      -3.6      1.542      2.759
REMARK  3 active torsions:
REMARK  status: ('A' for Active; 'I' for Inactive)
REMARK    1  A    between atoms: C3_3  and  C7_7 
REMARK    2  A    between atoms: C6_6  and  C7_7 
REMARK    3  A    between atoms: C7_7  and  O8_8 
ROOT
HETATM    1  C7  UNL     1     -33.994   6.530   4.933  1.00 20.00     0.126 C 
ENDROOT
BRANCH   1   2
HETATM    2  C3  UNL     1     -34.733   5.384   4.298  1.00 20.00    -0.018 A 
HETATM    3  C1  UNL     1     -34.520   5.133   2.824  1.00 20.00     0.012 A 
HETATM    4  C2  UNL     1     -35.822   5.710   3.302  1.00 20.00     0.012 A 
HETATM    5  C4  UNL     1     -34.930   4.194   5.195  1.00 20.00     0.018 C 
ENDBRANCH   1   2
BRANCH   1   6
HETATM    6  C6  UNL     1     -33.884   6.369   6.457  1.00 20.00     0.028 C 
HETATM    7  C5  UNL     1     -33.372   7.624   7.151  1.00 20.00     0.007 C 
ENDBRANCH   1   6
BRANCH   1   8
HETATM    8  O8  UNL     1     -32.672   6.605   4.390  1.00 20.00    -0.395 OA
HETATM    9  H22 UNL     1     -32.660   7.379   3.808  1.00 20.00     0.210 HD
ENDBRANCH   1   8
TORSDOF 3
ENDMDL
