MODEL 1
REMARK VINA RESULT:      -5.1      0.000      0.000
REMARK  2 active torsions:
REMARK  status: ('A' for Active; 'I' for Inactive)
REMARK    1  A    between atoms: C7_7  and  C9_9 
REMARK    2  A    between atoms: C9_9  and  O11_11 
ROOT
HETATM    1  C1  UNL     1     -35.291   4.091   6.275  1.00 20.00     0.010 A 
HETATM    2  C2  UNL     1     -34.195   6.465   6.055  1.00 20.00     0.012 C 
HETATM    3  C3  UNL     1     -34.986   5.387   4.015  1.00 20.00     0.012 C 
HETATM    4  C5  UNL     1     -34.077   4.977   6.233  1.00 20.00    -0.010 A 
HETATM    5  C6  UNL     1     -34.562   4.315   4.980  1.00 20.00    -0.010 A 
HETATM    6  C7  UNL     1     -34.292   6.666   4.530  1.00 20.00     0.021 C 
ENDROOT
BRANCH   6   7
HETATM    7  C9  UNL     1     -32.931   6.845   3.907  1.00 20.00     0.065 A 
HETATM    8  C4  UNL     1     -32.427   5.821   2.935  1.00 20.00     0.045 A 
HETATM    9  C8  UNL     1     -32.826   7.190   2.450  1.00 20.00     0.019 A 
HETATM   10  C10 UNL     1     -31.789   8.141   1.956  1.00 20.00     0.013 C 
BRANCH   7  11
HETATM   11  O11 UNL     1     -31.970   7.406   4.809  1.00 20.00    -0.389 OA
HETATM   12  H27 UNL     1     -32.451   7.607   5.624  1.00 20.00     0.210 HD
ENDBRANCH   7  11
ENDBRANCH   6   7
TORSDOF 2
ENDMDL
MODEL 2
REMARK VINA RESULT:      -4.8     12.036     13.176
REMARK  2 active torsions:
REMARK  status: ('A' for Active; 'I' for Inactive)
REMARK    1  A    between atoms: C7_7  and  C9_9 
REMARK    2  A    between atoms: C9_9  and  O11_11 
ROOT
HETATM    1  C1  UNL     1     -34.577  16.967  -0.713  1.00 20.00     0.010 A 
HETATM    2  C2  UNL     1     -33.822  17.663  -3.127  1.00 20.00     0.012 C 
HETATM    3  C3  UNL     1     -35.723  16.149  -2.926  1.00 20.00     0.012 C 
HETATM    4  C5  UNL     1     -33.639  16.842  -1.881  1.00 20.00    -0.010 A 
HETATM    5  C6  UNL     1     -34.807  15.912  -1.759  1.00 20.00    -0.010 A 
HETATM    6  C7  UNL     1     -34.842  16.870  -3.968  1.00 20.00     0.021 C 
ENDROOT
BRANCH   6   7
HETATM    7  C9  UNL     1     -34.159  15.890  -4.888  1.00 20.00     0.065 A 
HETATM    8  C4  UNL     1     -34.518  14.436  -4.809  1.00 20.00     0.045 A 
HETATM    9  C8  UNL     1     -34.941  15.255  -6.001  1.00 20.00     0.019 A 
HETATM   10  C10 UNL     1     -34.323  15.010  -7.335  1.00 20.00     0.013 C 
BRANCH   7  11
HETATM   11  O11 UNL     1     -32.781  16.202  -5.119  1.00 20.00    -0.389 OA
HETATM   12  H27 UNL     1     -32.270  15.532  -4.643  1.00 20.00     0.210 HD
ENDBRANCH   7  11
ENDBRANCH   6   7
TORSDOF 2
ENDMDL
MODEL 3
REMARK VINA RESULT:      -4.6     12.142     13.210
REMARK  2 active torsions:
REMARK  status: ('A' for Active; 'I' for Inactive)
REMARK    1  A    between atoms: C7_7  and  C9_9 
REMARK    2  A    between atoms: C9_9  and  O11_11 
ROOT
HETATM    1  C1  UNL     1     -34.609  16.321  -1.393  1.00 20.00     0.010 A 
HETATM    2  C2  UNL     1     -35.645  14.915  -3.351  1.00 20.00     0.012 C 
HETATM    3  C3  UNL     1     -33.227  15.233  -3.339  1.00 20.00     0.012 C 
HETATM    4  C5  UNL     1     -35.348  16.237  -2.700  1.00 20.00    -0.010 A 
HETATM    5  C6  UNL     1     -33.863  16.432  -2.692  1.00 20.00    -0.010 A 
HETATM    6  C7  UNL     1     -34.367  14.580  -4.146  1.00 20.00     0.021 C 
ENDROOT
BRANCH   6   7
HETATM    7  C9  UNL     1     -34.431  15.123  -5.552  1.00 20.00     0.065 A 
HETATM    8  C4  UNL     1     -35.121  14.324  -6.617  1.00 20.00     0.045 A 
HETATM    9  C8  UNL     1     -35.746  15.594  -6.101  1.00 20.00     0.019 A 
HETATM   10  C10 UNL     1     -35.829  16.797  -6.977  1.00 20.00     0.013 C 
BRANCH   7  11
HETATM   11  O11 UNL     1     -33.243  15.823  -5.939  1.00 20.00    -0.389 OA
HETATM   12  H27 UNL     1     -32.882  15.341  -6.697  1.00 20.00     0.210 HD
ENDBRANCH   7  11
ENDBRANCH   6   7
TORSDOF 2
ENDMDL
MODEL 4
REMARK VINA RESULT:      -4.6     12.146     13.470
REMARK  2 active torsions:
REMARK  status: ('A' for Active; 'I' for Inactive)
REMARK    1  A    between atoms: C7_7  and  C9_9 
REMARK    2  A    between atoms: C9_9  and  O11_11 
ROOT
HETATM    1  C1  UNL     1     -34.393  14.822  -6.888  1.00 20.00     0.010 A 
HETATM    2  C2  UNL     1     -33.208  16.501  -5.258  1.00 20.00     0.012 C 
HETATM    3  C3  UNL     1     -34.236  14.513  -4.288  1.00 20.00     0.012 C 
HETATM    4  C5  UNL     1     -34.379  16.111  -6.116  1.00 20.00    -0.010 A 
HETATM    5  C6  UNL     1     -35.010  14.890  -5.520  1.00 20.00    -0.010 A 
HETATM    6  C7  UNL     1     -33.462  15.793  -3.912  1.00 20.00     0.021 C 
ENDROOT
BRANCH   6   7
HETATM    7  C9  UNL     1     -34.256  16.663  -2.970  1.00 20.00     0.065 A 
HETATM    8  C4  UNL     1     -35.658  16.269  -2.612  1.00 20.00     0.045 A 
HETATM    9  C8  UNL     1     -34.559  16.167  -1.587  1.00 20.00     0.019 A 
HETATM   10  C10 UNL     1     -34.541  17.090  -0.416  1.00 20.00     0.013 C 
BRANCH   7  11
HETATM   11  O11 UNL     1     -34.006  18.061  -3.151  1.00 20.00    -0.389 OA
HETATM   12  H27 UNL     1     -34.715  18.390  -3.723  1.00 20.00     0.210 HD
ENDBRANCH   7  11
ENDBRANCH   6   7
TORSDOF 2
ENDMDL
MODEL 5
REMARK VINA RESULT:      -4.6     11.610     13.076
REMARK  2 active torsions:
REMARK  status: ('A' for Active; 'I' for Inactive)
REMARK    1  A    between atoms: C7_7  and  C9_9 
REMARK    2  A    between atoms: C9_9  and  O11_11 
ROOT
HETATM    1  C1  UNL     1     -36.134  18.289  -2.355  1.00 20.00     0.010 A 
HETATM    2  C2  UNL     1     -35.040  15.919  -2.097  1.00 20.00     0.012 C 
HETATM    3  C3  UNL     1     -33.701  17.680  -3.122  1.00 20.00     0.012 C 
HETATM    4  C5  UNL     1     -35.970  16.864  -2.805  1.00 20.00    -0.010 A 
HETATM    5  C6  UNL     1     -35.147  17.946  -3.435  1.00 20.00    -0.010 A 
HETATM    6  C7  UNL     1     -33.659  16.190  -2.726  1.00 20.00     0.021 C 
ENDROOT
BRANCH   6   7
HETATM    7  C9  UNL     1     -33.413  15.306  -3.923  1.00 20.00     0.065 A 
HETATM    8  C4  UNL     1     -33.273  13.826  -3.726  1.00 20.00     0.045 A 
HETATM    9  C8  UNL     1     -34.501  14.387  -4.396  1.00 20.00     0.019 A 
HETATM   10  C10 UNL     1     -34.732  14.152  -5.850  1.00 20.00     0.013 C 
BRANCH   7  11
HETATM   11  O11 UNL     1     -32.560  15.910  -4.902  1.00 20.00    -0.389 OA
HETATM   12  H27 UNL     1     -32.333  15.209  -5.530  1.00 20.00     0.210 HD
ENDBRANCH   7  11
ENDBRANCH   6   7
TORSDOF 2
ENDMDL
MODEL 6
REMARK VINA RESULT:      -4.6     11.930     13.099
REMARK  2 active torsions:
REMARK  status: ('A' for Active; 'I' for Inactive)
REMARK    1  A    between atoms: C7_7  and  C9_9 
REMARK    2  A    between atoms: C9_9  and  O11_11 
ROOT
HETATM    1  C1  UNL     1     -34.417  14.721  -6.309  1.00 20.00     0.010 A 
HETATM    2  C2  UNL     1     -33.391  15.555  -4.044  1.00 20.00     0.012 C 
HETATM    3  C3  UNL     1     -35.501  14.335  -3.952  1.00 20.00     0.012 C 
HETATM    4  C5  UNL     1     -34.142  15.818  -5.319  1.00 20.00    -0.010 A 
HETATM    5  C6  UNL     1     -35.438  15.068  -5.262  1.00 20.00    -0.010 A 
HETATM    6  C7  UNL     1     -34.465  15.049  -3.060  1.00 20.00     0.021 C 
ENDROOT
BRANCH   6   7
HETATM    7  C9  UNL     1     -35.089  16.185  -2.289  1.00 20.00     0.065 A 
HETATM    8  C4  UNL     1     -34.531  16.555  -0.946  1.00 20.00     0.045 A 
HETATM    9  C8  UNL     1     -34.330  17.470  -2.127  1.00 20.00     0.019 A 
HETATM   10  C10 UNL     1     -35.027  18.787  -2.178  1.00 20.00     0.013 C 
BRANCH   7  11
HETATM   11  O11 UNL     1     -36.512  16.250  -2.435  1.00 20.00    -0.389 OA
HETATM   12  H27 UNL     1     -36.758  15.504  -3.001  1.00 20.00     0.210 HD
ENDBRANCH   7  11
ENDBRANCH   6   7
TORSDOF 2
ENDMDL
MODEL 7
REMARK VINA RESULT:      -4.5     11.845     13.572
REMARK  2 active torsions:
REMARK  status: ('A' for Active; 'I' for Inactive)
REMARK    1  A    between atoms: C7_7  and  C9_9 
REMARK    2  A    between atoms: C9_9  and  O11_11 
ROOT
HETATM    1  C1  UNL     1     -35.229  14.792  -7.606  1.00 20.00     0.010 A 
HETATM    2  C2  UNL     1     -36.469  15.953  -5.607  1.00 20.00     0.012 C 
HETATM    3  C3  UNL     1     -34.031  16.014  -5.619  1.00 20.00     0.012 C 
HETATM    4  C5  UNL     1     -35.971  14.716  -6.301  1.00 20.00    -0.010 A 
HETATM    5  C6  UNL     1     -34.474  14.754  -6.308  1.00 20.00    -0.010 A 
HETATM    6  C7  UNL     1     -35.259  16.455  -4.795  1.00 20.00     0.021 C 
ENDROOT
BRANCH   6   7
HETATM    7  C9  UNL     1     -35.237  15.862  -3.409  1.00 20.00     0.065 A 
HETATM    8  C4  UNL     1     -34.074  15.013  -2.991  1.00 20.00     0.045 A 
HETATM    9  C8  UNL     1     -34.260  16.386  -2.398  1.00 20.00     0.019 A 
HETATM   10  C10 UNL     1     -34.639  16.535  -0.964  1.00 20.00     0.013 C 
BRANCH   7  11
HETATM   11  O11 UNL     1     -36.531  15.451  -2.953  1.00 20.00    -0.389 OA
HETATM   12  H27 UNL     1     -36.412  15.152  -2.040  1.00 20.00     0.210 HD
ENDBRANCH   7  11
ENDBRANCH   6   7
TORSDOF 2
ENDMDL
MODEL 8
REMARK VINA RESULT:      -4.5     11.648     12.942
REMARK  2 active torsions:
REMARK  status: ('A' for Active; 'I' for Inactive)
REMARK    1  A    between atoms: C7_7  and  C9_9 
REMARK    2  A    between atoms: C9_9  and  O11_11 
ROOT
HETATM    1  C1  UNL     1     -33.592  17.619  -0.909  1.00 20.00     0.010 A 
HETATM    2  C2  UNL     1     -34.082  17.119  -3.437  1.00 20.00     0.012 C 
HETATM    3  C3  UNL     1     -35.986  17.263  -1.920  1.00 20.00     0.012 C 
HETATM    4  C5  UNL     1     -33.632  16.671  -2.074  1.00 20.00    -0.010 A 
HETATM    5  C6  UNL     1     -34.802  16.760  -1.143  1.00 20.00    -0.010 A 
HETATM    6  C7  UNL     1     -35.619  17.002  -3.395  1.00 20.00     0.021 C 
ENDROOT
BRANCH   6   7
HETATM    7  C9  UNL     1     -36.083  15.641  -3.848  1.00 20.00     0.065 A 
HETATM    8  C4  UNL     1     -36.266  15.378  -5.313  1.00 20.00     0.045 A 
HETATM    9  C8  UNL     1     -35.125  14.737  -4.567  1.00 20.00     0.019 A 
HETATM   10  C10 UNL     1     -35.123  13.266  -4.323  1.00 20.00     0.013 C 
BRANCH   7  11
HETATM   11  O11 UNL     1     -37.041  15.050  -2.963  1.00 20.00    -0.389 OA
HETATM   12  H27 UNL     1     -36.533  14.515  -2.336  1.00 20.00     0.210 HD
ENDBRANCH   7  11
ENDBRANCH   6   7
TORSDOF 2
ENDMDL
MODEL 9
REMARK VINA RESULT:      -4.3     12.368     13.677
REMARK  2 active torsions:
REMARK  status: ('A' for Active; 'I' for Inactive)
REMARK    1  A    between atoms: C7_7  and  C9_9 
REMARK    2  A    between atoms: C9_9  and  O11_11 
ROOT
HETATM    1  C1  UNL     1     -34.466  16.346  -1.525  1.00 20.00     0.010 A 
HETATM    2  C2  UNL     1     -33.921  14.923  -3.661  1.00 20.00     0.012 C 
HETATM    3  C3  UNL     1     -33.681  17.345  -3.820  1.00 20.00     0.012 C 
HETATM    4  C5  UNL     1     -34.911  15.557  -2.724  1.00 20.00    -0.010 A 
HETATM    5  C6  UNL     1     -34.763  17.044  -2.822  1.00 20.00    -0.010 A 
HETATM    6  C7  UNL     1     -33.545  16.049  -4.645  1.00 20.00     0.021 C 
ENDROOT
BRANCH   6   7
HETATM    7  C9  UNL     1     -34.455  16.061  -5.847  1.00 20.00     0.065 A 
HETATM    8  C4  UNL     1     -34.242  15.056  -6.940  1.00 20.00     0.045 A 
HETATM    9  C8  UNL     1     -35.443  14.946  -6.035  1.00 20.00     0.019 A 
HETATM   10  C10 UNL     1     -36.809  15.209  -6.570  1.00 20.00     0.013 C 
BRANCH   7  11
HETATM   11  O11 UNL     1     -34.837  17.381  -6.251  1.00 20.00    -0.389 OA
HETATM   12  H27 UNL     1     -34.161  17.976  -5.897  1.00 20.00     0.210 HD
ENDBRANCH   7  11
ENDBRANCH   6   7
TORSDOF 2
ENDMDL
