MODEL 1
REMARK VINA RESULT:      -5.0      0.000      0.000
REMARK  1 active torsions:
REMARK  status: ('A' for Active; 'I' for Inactive)
REMARK    1  A    between atoms: C8_8  and  C9_9 
ROOT
HETATM    1  C1  UNL     1     -34.660  14.552  -5.924  1.00 20.00     0.074 C 
HETATM    2  C2  UNL     1     -34.455  15.864  -5.781  1.00 20.00     0.139 C 
HETATM    3  C3  UNL     1     -34.628  13.712  -4.707  1.00 20.00     0.153 C 
HETATM    4  C4  UNL     1     -34.486  14.435  -3.393  1.00 20.00     0.116 C 
HETATM    5  C9  UNL     1     -33.608  15.666  -3.600  1.00 20.00     0.139 C 
HETATM    6  O10 UNL     1     -34.784  12.497  -4.781  1.00 20.00    -0.293 OA
HETATM    7  O11 UNL     1     -34.125  16.525  -4.626  1.00 20.00    -0.357 OA
ENDROOT
BRANCH   5   8
HETATM    8  C8  UNL     1     -33.539  16.469  -2.318  1.00 20.00     0.015 C 
HETATM    9  C6  UNL     1     -34.751  16.354  -1.359  1.00 20.00     0.007 C 
HETATM   10  C5  UNL     1     -34.549  17.851  -1.042  1.00 20.00     0.001 C 
HETATM   11  C7  UNL     1     -33.876  17.979  -2.425  1.00 20.00     0.007 C 
ENDBRANCH   5   8
TORSDOF 1
ENDMDL
MODEL 2
REMARK VINA RESULT:      -4.8      1.260      1.779
REMARK  1 active torsions:
REMARK  status: ('A' for Active; 'I' for Inactive)
REMARK    1  A    between atoms: C8_8  and  C9_9 
ROOT
HETATM    1  C1  UNL     1     -33.694  15.149  -4.807  1.00 20.00     0.074 C 
HETATM    2  C2  UNL     1     -33.483  16.468  -4.778  1.00 20.00     0.139 C 
HETATM    3  C3  UNL     1     -34.268  14.516  -3.600  1.00 20.00     0.153 C 
HETATM    4  C4  UNL     1     -34.679  15.441  -2.484  1.00 20.00     0.116 C 
HETATM    5  C9  UNL     1     -33.718  16.625  -2.447  1.00 20.00     0.139 C 
HETATM    6  O10 UNL     1     -34.459  13.304  -3.560  1.00 20.00    -0.293 OA
HETATM    7  O11 UNL     1     -33.659  17.307  -3.708  1.00 20.00    -0.357 OA
ENDROOT
BRANCH   5   8
HETATM    8  C8  UNL     1     -34.174  17.624  -1.403  1.00 20.00     0.015 C 
HETATM    9  C6  UNL     1     -33.076  18.219  -0.484  1.00 20.00     0.007 C 
HETATM   10  C5  UNL     1     -34.112  18.178   0.658  1.00 20.00     0.001 C 
HETATM   11  C7  UNL     1     -34.814  17.042  -0.117  1.00 20.00     0.007 C 
ENDBRANCH   5   8
TORSDOF 1
ENDMDL
MODEL 3
REMARK VINA RESULT:      -4.6      1.237      1.929
REMARK  1 active torsions:
REMARK  status: ('A' for Active; 'I' for Inactive)
REMARK    1  A    between atoms: C8_8  and  C9_9 
ROOT
HETATM    1  C1  UNL     1     -34.783  13.930  -5.550  1.00 20.00     0.074 C 
HETATM    2  C2  UNL     1     -34.850  13.572  -4.264  1.00 20.00     0.139 C 
HETATM    3  C3  UNL     1     -34.186  15.244  -5.869  1.00 20.00     0.153 C 
HETATM    4  C4  UNL     1     -33.591  16.013  -4.719  1.00 20.00     0.116 C 
HETATM    5  C9  UNL     1     -34.415  15.737  -3.464  1.00 20.00     0.139 C 
HETATM    6  O10 UNL     1     -34.122  15.637  -7.031  1.00 20.00    -0.293 OA
HETATM    7  O11 UNL     1     -34.501  14.333  -3.179  1.00 20.00    -0.357 OA
ENDROOT
BRANCH   5   8
HETATM    8  C8  UNL     1     -33.774  16.412  -2.269  1.00 20.00     0.015 C 
HETATM    9  C6  UNL     1     -34.633  16.510  -0.983  1.00 20.00     0.007 C 
HETATM   10  C5  UNL     1     -33.995  17.895  -0.750  1.00 20.00     0.001 C 
HETATM   11  C7  UNL     1     -33.758  17.962  -2.274  1.00 20.00     0.007 C 
ENDBRANCH   5   8
TORSDOF 1
ENDMDL
MODEL 4
REMARK VINA RESULT:      -4.5      1.755      1.769
REMARK  1 active torsions:
REMARK  status: ('A' for Active; 'I' for Inactive)
REMARK    1  A    between atoms: C8_8  and  C9_9 
ROOT
HETATM    1  C1  UNL     1     -36.637  15.094  -5.447  1.00 20.00     0.074 C 
HETATM    2  C2  UNL     1     -35.506  15.779  -5.640  1.00 20.00     0.139 C 
HETATM    3  C3  UNL     1     -37.045  14.816  -4.054  1.00 20.00     0.153 C 
HETATM    4  C4  UNL     1     -36.207  15.439  -2.968  1.00 20.00     0.116 C 
HETATM    5  C9  UNL     1     -34.755  15.489  -3.434  1.00 20.00     0.139 C 
HETATM    6  O10 UNL     1     -38.061  14.169  -3.816  1.00 20.00    -0.293 OA
HETATM    7  O11 UNL     1     -34.617  16.187  -4.680  1.00 20.00    -0.357 OA
ENDROOT
BRANCH   5   8
HETATM    8  C8  UNL     1     -33.909  16.210  -2.405  1.00 20.00     0.015 C 
HETATM    9  C6  UNL     1     -34.580  16.509  -1.040  1.00 20.00     0.007 C 
HETATM   10  C5  UNL     1     -33.805  17.843  -1.035  1.00 20.00     0.001 C 
HETATM   11  C7  UNL     1     -33.767  17.745  -2.575  1.00 20.00     0.007 C 
ENDBRANCH   5   8
TORSDOF 1
ENDMDL
MODEL 5
REMARK VINA RESULT:      -4.5      2.033      3.594
REMARK  1 active torsions:
REMARK  status: ('A' for Active; 'I' for Inactive)
REMARK    1  A    between atoms: C8_8  and  C9_9 
ROOT
HETATM    1  C1  UNL     1     -33.370  14.046  -3.728  1.00 20.00     0.074 C 
HETATM    2  C2  UNL     1     -32.897  15.293  -3.823  1.00 20.00     0.139 C 
HETATM    3  C3  UNL     1     -34.473  13.657  -4.633  1.00 20.00     0.153 C 
HETATM    4  C4  UNL     1     -34.884  14.669  -5.671  1.00 20.00     0.116 C 
HETATM    5  C9  UNL     1     -34.718  16.069  -5.086  1.00 20.00     0.139 C 
HETATM    6  O10 UNL     1     -34.965  12.534  -4.573  1.00 20.00    -0.293 OA
HETATM    7  O11 UNL     1     -33.382  16.299  -4.617  1.00 20.00    -0.357 OA
ENDROOT
BRANCH   5   8
HETATM    8  C8  UNL     1     -35.021  17.108  -6.145  1.00 20.00     0.015 C 
HETATM    9  C6  UNL     1     -34.784  16.689  -7.618  1.00 20.00     0.007 C 
HETATM   10  C5  UNL     1     -34.298  18.130  -7.874  1.00 20.00     0.001 C 
HETATM   11  C7  UNL     1     -33.945  18.201  -6.373  1.00 20.00     0.007 C 
ENDBRANCH   5   8
TORSDOF 1
ENDMDL
MODEL 6
REMARK VINA RESULT:      -4.4     12.092     14.228
REMARK  1 active torsions:
REMARK  status: ('A' for Active; 'I' for Inactive)
REMARK    1  A    between atoms: C8_8  and  C9_9 
ROOT
HETATM    1  C1  UNL     1     -41.681   6.895  -1.738  1.00 20.00     0.074 C 
HETATM    2  C2  UNL     1     -42.402   6.498  -2.792  1.00 20.00     0.139 C 
HETATM    3  C3  UNL     1     -41.034   5.851  -0.915  1.00 20.00     0.153 C 
HETATM    4  C4  UNL     1     -41.144   4.433  -1.412  1.00 20.00     0.116 C 
HETATM    5  C9  UNL     1     -42.495   4.257  -2.099  1.00 20.00     0.139 C 
HETATM    6  O10 UNL     1     -40.381   6.155   0.080  1.00 20.00    -0.293 OA
HETATM    7  O11 UNL     1     -42.687   5.208  -3.156  1.00 20.00    -0.357 OA
ENDROOT
BRANCH   5   8
HETATM    8  C8  UNL     1     -42.588   2.871  -2.703  1.00 20.00     0.015 C 
HETATM    9  C6  UNL     1     -41.311   2.327  -3.394  1.00 20.00     0.007 C 
HETATM   10  C5  UNL     1     -42.241   1.673  -4.436  1.00 20.00     0.001 C 
HETATM   11  C7  UNL     1     -43.279   2.761  -4.087  1.00 20.00     0.007 C 
ENDBRANCH   5   8
TORSDOF 1
ENDMDL
MODEL 7
REMARK VINA RESULT:      -4.3     11.429     12.687
REMARK  1 active torsions:
REMARK  status: ('A' for Active; 'I' for Inactive)
REMARK    1  A    between atoms: C8_8  and  C9_9 
ROOT
HETATM    1  C1  UNL     1     -34.752   5.364   6.381  1.00 20.00     0.074 C 
HETATM    2  C2  UNL     1     -33.951   6.434   6.358  1.00 20.00     0.139 C 
HETATM    3  C3  UNL     1     -34.842   4.545   5.154  1.00 20.00     0.153 C 
HETATM    4  C4  UNL     1     -33.924   4.923   4.021  1.00 20.00     0.116 C 
HETATM    5  C9  UNL     1     -33.741   6.438   4.019  1.00 20.00     0.139 C 
HETATM    6  O10 UNL     1     -35.581   3.565   5.108  1.00 20.00    -0.293 OA
HETATM    7  O11 UNL     1     -33.257   6.919   5.281  1.00 20.00    -0.357 OA
ENDROOT
BRANCH   5   8
HETATM    8  C8  UNL     1     -32.736   6.834   2.957  1.00 20.00     0.015 C 
HETATM    9  C6  UNL     1     -31.483   7.608   3.440  1.00 20.00     0.007 C 
HETATM   10  C5  UNL     1     -31.572   8.421   2.132  1.00 20.00     0.001 C 
HETATM   11  C7  UNL     1     -33.079   8.087   2.111  1.00 20.00     0.007 C 
ENDBRANCH   5   8
TORSDOF 1
ENDMDL
MODEL 8
REMARK VINA RESULT:      -4.3      1.988      4.367
REMARK  1 active torsions:
REMARK  status: ('A' for Active; 'I' for Inactive)
REMARK    1  A    between atoms: C8_8  and  C9_9 
ROOT
HETATM    1  C1  UNL     1     -33.989  18.483  -1.243  1.00 20.00     0.074 C 
HETATM    2  C2  UNL     1     -33.658  18.509  -2.538  1.00 20.00     0.139 C 
HETATM    3  C3  UNL     1     -34.586  17.240  -0.710  1.00 20.00     0.153 C 
HETATM    4  C4  UNL     1     -34.654  16.066  -1.651  1.00 20.00     0.116 C 
HETATM    5  C9  UNL     1     -34.892  16.583  -3.067  1.00 20.00     0.139 C 
HETATM    6  O10 UNL     1     -34.934  17.167   0.465  1.00 20.00    -0.293 OA
HETATM    7  O11 UNL     1     -33.890  17.529  -3.467  1.00 20.00    -0.357 OA
ENDROOT
BRANCH   5   8
HETATM    8  C8  UNL     1     -34.856  15.430  -4.049  1.00 20.00     0.015 C 
HETATM    9  C6  UNL     1     -36.048  14.439  -4.001  1.00 20.00     0.007 C 
HETATM   10  C5  UNL     1     -35.031  13.317  -4.298  1.00 20.00     0.001 C 
HETATM   11  C7  UNL     1     -33.952  14.227  -3.674  1.00 20.00     0.007 C 
ENDBRANCH   5   8
TORSDOF 1
ENDMDL
MODEL 9
REMARK VINA RESULT:      -4.2     11.905     14.087
REMARK  1 active torsions:
REMARK  status: ('A' for Active; 'I' for Inactive)
REMARK    1  A    between atoms: C8_8  and  C9_9 
ROOT
HETATM    1  C1  UNL     1     -41.098   6.871  -1.021  1.00 20.00     0.074 C 
HETATM    2  C2  UNL     1     -40.830   5.688  -0.460  1.00 20.00     0.139 C 
HETATM    3  C3  UNL     1     -41.963   6.885  -2.219  1.00 20.00     0.153 C 
HETATM    4  C4  UNL     1     -42.569   5.568  -2.630  1.00 20.00     0.116 C 
HETATM    5  C9  UNL     1     -41.580   4.450  -2.308  1.00 20.00     0.139 C 
HETATM    6  O10 UNL     1     -42.222   7.939  -2.793  1.00 20.00    -0.293 OA
HETATM    7  O11 UNL     1     -41.201   4.453  -0.925  1.00 20.00    -0.357 OA
ENDROOT
BRANCH   5   8
HETATM    8  C8  UNL     1     -42.208   3.105  -2.612  1.00 20.00     0.015 C 
HETATM    9  C6  UNL     1     -41.395   2.148  -3.520  1.00 20.00     0.007 C 
HETATM   10  C5  UNL     1     -42.740   1.708  -4.135  1.00 20.00     0.001 C 
HETATM   11  C7  UNL     1     -43.302   3.082  -3.711  1.00 20.00     0.007 C 
ENDBRANCH   5   8
TORSDOF 1
ENDMDL
