MODEL 1
REMARK VINA RESULT:      -4.0      0.000      0.000
REMARK  2 active torsions:
REMARK  status: ('A' for Active; 'I' for Inactive)
REMARK    1  A    between atoms: C1_1  and  C3_3 
REMARK       I    between atoms: C3_3  and  N7_7 
REMARK    2  A    between atoms: N7_7  and  O9_9 
ROOT
HETATM    1  C3  UNL     1     -35.080  15.072  -3.005  1.00 20.00     0.266 C 
HETATM    2  C5  UNL     1     -32.885  13.977  -3.464  1.00 20.00     0.189 C 
HETATM    3  N7  UNL     1     -34.334  14.044  -3.533  1.00 20.00    -0.228 N 
HETATM    4  O8  UNL     1     -36.310  15.117  -3.069  1.00 20.00    -0.266 OA
ENDROOT
BRANCH   1   5
HETATM    5  C1  UNL     1     -34.317  16.166  -2.334  1.00 20.00     0.072 C 
HETATM    6  C2  UNL     1     -34.633  16.544  -1.087  1.00 20.00    -0.025 C 
HETATM    7  C4  UNL     1     -33.916  17.629  -0.350  1.00 20.00     0.036 C 
ENDBRANCH   1   5
BRANCH   3   8
HETATM    8  O9  UNL     1     -34.887  12.937  -4.202  1.00 20.00    -0.281 OA
HETATM    9  C6  UNL     1     -34.867  13.186  -5.605  1.00 20.00     0.238 C 
ENDBRANCH   3   8
TORSDOF 2
ENDMDL
MODEL 2
REMARK VINA RESULT:      -3.9      1.784      2.087
REMARK  2 active torsions:
REMARK  status: ('A' for Active; 'I' for Inactive)
REMARK    1  A    between atoms: C1_1  and  C3_3 
REMARK       I    between atoms: C3_3  and  N7_7 
REMARK    2  A    between atoms: N7_7  and  O9_9 
ROOT
HETATM    1  C3  UNL     1     -34.194  14.514  -3.863  1.00 20.00     0.266 C 
HETATM    2  C5  UNL     1     -34.185  16.353  -5.550  1.00 20.00     0.189 C 
HETATM    3  N7  UNL     1     -34.357  14.966  -5.151  1.00 20.00    -0.228 N 
HETATM    4  O8  UNL     1     -34.343  13.335  -3.537  1.00 20.00    -0.266 OA
ENDROOT
BRANCH   1   5
HETATM    5  C1  UNL     1     -33.822  15.539  -2.844  1.00 20.00     0.072 C 
HETATM    6  C2  UNL     1     -34.715  15.935  -1.926  1.00 20.00    -0.025 C 
HETATM    7  C4  UNL     1     -34.418  16.954  -0.874  1.00 20.00     0.036 C 
ENDBRANCH   1   5
BRANCH   3   8
HETATM    8  O9  UNL     1     -34.711  14.141  -6.234  1.00 20.00    -0.281 OA
HETATM    9  C6  UNL     1     -34.666  14.908  -7.435  1.00 20.00     0.238 C 
ENDBRANCH   3   8
TORSDOF 2
ENDMDL
MODEL 3
REMARK VINA RESULT:      -3.9      2.165      2.373
REMARK  2 active torsions:
REMARK  status: ('A' for Active; 'I' for Inactive)
REMARK    1  A    between atoms: C1_1  and  C3_3 
REMARK       I    between atoms: C3_3  and  N7_7 
REMARK    2  A    between atoms: N7_7  and  O9_9 
ROOT
HETATM    1  C3  UNL     1     -33.651  15.729  -4.472  1.00 20.00     0.266 C 
HETATM    2  C5  UNL     1     -35.153  13.757  -4.766  1.00 20.00     0.189 C 
HETATM    3  N7  UNL     1     -34.280  14.803  -5.271  1.00 20.00    -0.228 N 
HETATM    4  O8  UNL     1     -32.913  16.611  -4.913  1.00 20.00    -0.266 OA
ENDROOT
BRANCH   1   5
HETATM    5  C1  UNL     1     -33.902  15.616  -3.005  1.00 20.00     0.072 C 
HETATM    6  C2  UNL     1     -34.232  16.701  -2.290  1.00 20.00    -0.025 C 
HETATM    7  C4  UNL     1     -34.500  16.668  -0.820  1.00 20.00     0.036 C 
ENDBRANCH   1   5
BRANCH   3   8
HETATM    8  O9  UNL     1     -34.153  14.758  -6.671  1.00 20.00    -0.281 OA
HETATM    9  C6  UNL     1     -35.407  14.389  -7.239  1.00 20.00     0.238 C 
ENDBRANCH   3   8
TORSDOF 2
ENDMDL
MODEL 4
REMARK VINA RESULT:      -3.7     11.000     11.706
REMARK  2 active torsions:
REMARK  status: ('A' for Active; 'I' for Inactive)
REMARK    1  A    between atoms: C1_1  and  C3_3 
REMARK       I    between atoms: C3_3  and  N7_7 
REMARK    2  A    between atoms: N7_7  and  O9_9 
ROOT
HETATM    1  C3  UNL     1     -33.814   5.923   3.666  1.00 20.00     0.266 C 
HETATM    2  C5  UNL     1     -33.730   6.663   6.048  1.00 20.00     0.189 C 
HETATM    3  N7  UNL     1     -34.278   5.873   4.959  1.00 20.00    -0.228 N 
HETATM    4  O8  UNL     1     -34.289   5.248   2.751  1.00 20.00    -0.266 OA
ENDROOT
BRANCH   1   5
HETATM    5  C1  UNL     1     -32.674   6.852   3.408  1.00 20.00     0.072 C 
HETATM    6  C2  UNL     1     -32.665   7.623   2.311  1.00 20.00    -0.025 C 
HETATM    7  C4  UNL     1     -31.563   8.577   1.984  1.00 20.00     0.036 C 
ENDBRANCH   1   5
BRANCH   3   8
HETATM    8  O9  UNL     1     -35.340   5.052   5.381  1.00 20.00    -0.281 OA
HETATM    9  C6  UNL     1     -34.806   3.842   5.913  1.00 20.00     0.238 C 
ENDBRANCH   3   8
TORSDOF 2
ENDMDL
MODEL 5
REMARK VINA RESULT:      -3.7     10.686     11.409
REMARK  2 active torsions:
REMARK  status: ('A' for Active; 'I' for Inactive)
REMARK    1  A    between atoms: C1_1  and  C3_3 
REMARK       I    between atoms: C3_3  and  N7_7 
REMARK    2  A    between atoms: N7_7  and  O9_9 
ROOT
HETATM    1  C3  UNL     1     -32.915   6.771   4.178  1.00 20.00     0.266 C 
HETATM    2  C5  UNL     1     -34.755   5.302   3.347  1.00 20.00     0.189 C 
HETATM    3  N7  UNL     1     -33.996   5.950   4.403  1.00 20.00    -0.228 N 
HETATM    4  O8  UNL     1     -32.280   7.314   5.083  1.00 20.00    -0.266 OA
ENDROOT
BRANCH   1   5
HETATM    5  C1  UNL     1     -32.536   6.987   2.751  1.00 20.00     0.072 C 
HETATM    6  C2  UNL     1     -32.167   8.204   2.327  1.00 20.00    -0.025 C 
HETATM    7  C4  UNL     1     -31.772   8.499   0.916  1.00 20.00     0.036 C 
ENDBRANCH   1   5
BRANCH   3   8
HETATM    8  O9  UNL     1     -34.494   5.641   5.682  1.00 20.00    -0.281 OA
HETATM    9  C6  UNL     1     -34.870   4.266   5.713  1.00 20.00     0.238 C 
ENDBRANCH   3   8
TORSDOF 2
ENDMDL
MODEL 6
REMARK VINA RESULT:      -3.7     10.574     11.253
REMARK  2 active torsions:
REMARK  status: ('A' for Active; 'I' for Inactive)
REMARK    1  A    between atoms: C1_1  and  C3_3 
REMARK       I    between atoms: C3_3  and  N7_7 
REMARK    2  A    between atoms: N7_7  and  O9_9 
ROOT
HETATM    1  C3  UNL     1     -33.386   6.109   3.260  1.00 20.00     0.266 C 
HETATM    2  C5  UNL     1     -31.659   7.700   4.107  1.00 20.00     0.189 C 
HETATM    3  N7  UNL     1     -32.396   7.040   3.044  1.00 20.00    -0.228 N 
HETATM    4  O8  UNL     1     -34.003   5.556   2.348  1.00 20.00    -0.266 OA
ENDROOT
BRANCH   1   5
HETATM    5  C1  UNL     1     -33.693   5.790   4.685  1.00 20.00     0.072 C 
HETATM    6  C2  UNL     1     -34.713   4.975   4.990  1.00 20.00    -0.025 C 
HETATM    7  C4  UNL     1     -35.081   4.607   6.391  1.00 20.00     0.036 C 
ENDBRANCH   1   5
BRANCH   3   8
HETATM    8  O9  UNL     1     -31.981   7.463   1.768  1.00 20.00    -0.281 OA
HETATM    9  C6  UNL     1     -32.203   8.866   1.650  1.00 20.00     0.238 C 
ENDBRANCH   3   8
TORSDOF 2
ENDMDL
MODEL 7
REMARK VINA RESULT:      -3.6     11.573     13.306
REMARK  2 active torsions:
REMARK  status: ('A' for Active; 'I' for Inactive)
REMARK    1  A    between atoms: C1_1  and  C3_3 
REMARK       I    between atoms: C3_3  and  N7_7 
REMARK    2  A    between atoms: N7_7  and  O9_9 
ROOT
HETATM    1  C3  UNL     1     -41.347   4.451  -1.884  1.00 20.00     0.266 C 
HETATM    2  C5  UNL     1     -42.870   6.003  -3.108  1.00 20.00     0.189 C 
HETATM    3  N7  UNL     1     -41.744   5.720  -2.235  1.00 20.00    -0.228 N 
HETATM    4  O8  UNL     1     -40.390   4.224  -1.142  1.00 20.00    -0.266 OA
ENDROOT
BRANCH   1   5
HETATM    5  C1  UNL     1     -42.143   3.326  -2.458  1.00 20.00     0.072 C 
HETATM    6  C2  UNL     1     -41.555   2.416  -3.247  1.00 20.00    -0.025 C 
HETATM    7  C4  UNL     1     -42.283   1.263  -3.857  1.00 20.00     0.036 C 
ENDBRANCH   1   5
BRANCH   3   8
HETATM    8  O9  UNL     1     -41.106   6.893  -1.791  1.00 20.00    -0.281 OA
HETATM    9  C6  UNL     1     -42.044   7.682  -1.063  1.00 20.00     0.238 C 
ENDBRANCH   3   8
TORSDOF 2
ENDMDL
MODEL 8
REMARK VINA RESULT:      -3.4      2.466      4.756
REMARK  2 active torsions:
REMARK  status: ('A' for Active; 'I' for Inactive)
REMARK    1  A    between atoms: C1_1  and  C3_3 
REMARK       I    between atoms: C3_3  and  N7_7 
REMARK    2  A    between atoms: N7_7  and  O9_9 
ROOT
HETATM    1  C3  UNL     1     -33.704  15.870  -4.586  1.00 20.00     0.266 C 
HETATM    2  C5  UNL     1     -35.601  15.488  -3.010  1.00 20.00     0.189 C 
HETATM    3  N7  UNL     1     -34.310  16.052  -3.365  1.00 20.00    -0.228 N 
HETATM    4  O8  UNL     1     -32.608  16.353  -4.875  1.00 20.00    -0.266 OA
ENDROOT
BRANCH   1   5
HETATM    5  C1  UNL     1     -34.451  15.042  -5.578  1.00 20.00     0.072 C 
HETATM    6  C2  UNL     1     -34.500  15.412  -6.866  1.00 20.00    -0.025 C 
HETATM    7  C4  UNL     1     -35.225  14.636  -7.918  1.00 20.00     0.036 C 
ENDBRANCH   1   5
BRANCH   3   8
HETATM    8  O9  UNL     1     -33.752  16.805  -2.316  1.00 20.00    -0.281 OA
HETATM    9  C6  UNL     1     -34.560  16.648  -1.152  1.00 20.00     0.238 C 
ENDBRANCH   3   8
TORSDOF 2
ENDMDL
MODEL 9
REMARK VINA RESULT:      -3.4      4.084      6.224
REMARK  2 active torsions:
REMARK  status: ('A' for Active; 'I' for Inactive)
REMARK    1  A    between atoms: C1_1  and  C3_3 
REMARK       I    between atoms: C3_3  and  N7_7 
REMARK    2  A    between atoms: N7_7  and  O9_9 
ROOT
HETATM    1  C3  UNL     1     -34.349  17.866   0.635  1.00 20.00     0.266 C 
HETATM    2  C5  UNL     1     -32.075  18.892   0.712  1.00 20.00     0.189 C 
HETATM    3  N7  UNL     1     -33.369  18.574   1.291  1.00 20.00    -0.228 N 
HETATM    4  O8  UNL     1     -35.443  17.604   1.138  1.00 20.00    -0.266 OA
ENDROOT
BRANCH   1   5
HETATM    5  C1  UNL     1     -34.023  17.412  -0.749  1.00 20.00     0.072 C 
HETATM    6  C2  UNL     1     -34.643  16.345  -1.273  1.00 20.00    -0.025 C 
HETATM    7  C4  UNL     1     -34.373  15.831  -2.650  1.00 20.00     0.036 C 
ENDBRANCH   1   5
BRANCH   3   8
HETATM    8  O9  UNL     1     -33.503  19.074   2.599  1.00 20.00    -0.281 OA
HETATM    9  C6  UNL     1     -32.384  18.651   3.374  1.00 20.00     0.238 C 
ENDBRANCH   3   8
TORSDOF 2
ENDMDL
