MODEL 1
REMARK VINA RESULT:      -4.4      0.000      0.000
REMARK  2 active torsions:
REMARK  status: ('A' for Active; 'I' for Inactive)
REMARK    1  A    between atoms: C6_6  and  C8_8 
REMARK    2  A    between atoms: C7_7  and  C9_9 
ROOT
HETATM    1  C4  UNL     1     -33.690  18.434  -2.153  1.00 20.00     0.034 C 
HETATM    2  C5  UNL     1     -34.700  18.451  -3.283  1.00 20.00     0.168 C 
HETATM    3  C7  UNL     1     -33.656  16.970  -1.751  1.00 20.00     0.031 C 
HETATM    4  C8  UNL     1     -33.802  16.307  -3.121  1.00 20.00     0.130 C 
HETATM    5  O10 UNL     1     -34.666  17.155  -3.897  1.00 20.00    -0.385 OA
ENDROOT
BRANCH   4   6
HETATM    6  C6  UNL     1     -34.361  14.897  -3.093  1.00 20.00     0.015 C 
HETATM    7  C2  UNL     1     -33.717  13.874  -4.065  1.00 20.00     0.007 C 
HETATM    8  C1  UNL     1     -35.127  13.278  -4.255  1.00 20.00     0.001 C 
HETATM    9  C3  UNL     1     -35.687  14.661  -3.860  1.00 20.00     0.007 C 
ENDBRANCH   4   6
BRANCH   3  10
HETATM   10  C9  UNL     1     -34.774  16.655  -0.754  1.00 20.00     0.121 C 
HETATM   11 CL11 UNL     1     -34.624  17.679   0.688  1.00 20.00    -0.130 Cl
ENDBRANCH   3  10
TORSDOF 2
ENDMDL
MODEL 2
REMARK VINA RESULT:      -4.3      2.496      4.281
REMARK  2 active torsions:
REMARK  status: ('A' for Active; 'I' for Inactive)
REMARK    1  A    between atoms: C6_6  and  C8_8 
REMARK    2  A    between atoms: C7_7  and  C9_9 
ROOT
HETATM    1  C4  UNL     1     -36.426  15.056  -4.555  1.00 20.00     0.034 C 
HETATM    2  C5  UNL     1     -35.941  16.427  -4.984  1.00 20.00     0.168 C 
HETATM    3  C7  UNL     1     -35.623  14.792  -3.294  1.00 20.00     0.031 C 
HETATM    4  C8  UNL     1     -35.590  16.197  -2.692  1.00 20.00     0.130 C 
HETATM    5  O10 UNL     1     -35.523  17.115  -3.798  1.00 20.00    -0.385 OA
ENDROOT
BRANCH   4   6
HETATM    6  C6  UNL     1     -34.438  16.459  -1.741  1.00 20.00     0.015 C 
HETATM    7  C2  UNL     1     -34.808  16.961  -0.321  1.00 20.00     0.007 C 
HETATM    8  C1  UNL     1     -33.547  17.848  -0.386  1.00 20.00     0.001 C 
HETATM    9  C3  UNL     1     -33.678  17.798  -1.922  1.00 20.00     0.007 C 
ENDBRANCH   4   6
BRANCH   3  10
HETATM   10  C9  UNL     1     -34.255  14.199  -3.636  1.00 20.00     0.121 C 
HETATM   11 CL11 UNL     1     -34.400  13.041  -4.973  1.00 20.00    -0.130 Cl
ENDBRANCH   3  10
TORSDOF 2
ENDMDL
MODEL 3
REMARK VINA RESULT:      -4.2      2.486      4.167
REMARK  2 active torsions:
REMARK  status: ('A' for Active; 'I' for Inactive)
REMARK    1  A    between atoms: C6_6  and  C8_8 
REMARK    2  A    between atoms: C7_7  and  C9_9 
ROOT
HETATM    1  C4  UNL     1     -34.903  15.812  -5.373  1.00 20.00     0.034 C 
HETATM    2  C5  UNL     1     -33.610  16.593  -5.508  1.00 20.00     0.168 C 
HETATM    3  C7  UNL     1     -35.005  15.582  -3.876  1.00 20.00     0.031 C 
HETATM    4  C8  UNL     1     -34.448  16.908  -3.357  1.00 20.00     0.130 C 
HETATM    5  O10 UNL     1     -33.424  17.313  -4.282  1.00 20.00    -0.385 OA
ENDROOT
BRANCH   4   6
HETATM    6  C6  UNL     1     -33.876  16.855  -1.953  1.00 20.00     0.015 C 
HETATM    7  C2  UNL     1     -34.896  16.727  -0.791  1.00 20.00     0.007 C 
HETATM    8  C1  UNL     1     -33.971  17.656   0.024  1.00 20.00     0.001 C 
HETATM    9  C3  UNL     1     -33.459  18.209  -1.322  1.00 20.00     0.007 C 
ENDBRANCH   4   6
BRANCH   3  10
HETATM   10  C9  UNL     1     -34.213  14.338  -3.464  1.00 20.00     0.121 C 
HETATM   11 CL11 UNL     1     -34.316  13.094  -4.725  1.00 20.00    -0.130 Cl
ENDBRANCH   3  10
TORSDOF 2
ENDMDL
MODEL 4
REMARK VINA RESULT:      -4.2     12.398     14.067
REMARK  2 active torsions:
REMARK  status: ('A' for Active; 'I' for Inactive)
REMARK    1  A    between atoms: C6_6  and  C8_8 
REMARK    2  A    between atoms: C7_7  and  C9_9 
ROOT
HETATM    1  C4  UNL     1     -41.049   6.037  -0.046  1.00 20.00     0.034 C 
HETATM    2  C5  UNL     1     -41.460   6.671  -1.361  1.00 20.00     0.168 C 
HETATM    3  C7  UNL     1     -41.564   4.615  -0.181  1.00 20.00     0.031 C 
HETATM    4  C8  UNL     1     -41.295   4.367  -1.666  1.00 20.00     0.130 C 
HETATM    5  O10 UNL     1     -41.510   5.622  -2.337  1.00 20.00    -0.385 OA
ENDROOT
BRANCH   4   6
HETATM    6  C6  UNL     1     -42.159   3.294  -2.302  1.00 20.00     0.015 C 
HETATM    7  C2  UNL     1     -41.474   2.384  -3.355  1.00 20.00     0.007 C 
HETATM    8  C1  UNL     1     -42.808   2.404  -4.130  1.00 20.00     0.001 C 
HETATM    9  C3  UNL     1     -43.108   3.750  -3.439  1.00 20.00     0.007 C 
ENDBRANCH   4   6
BRANCH   3  10
HETATM   10  C9  UNL     1     -43.034   4.528   0.237  1.00 20.00     0.121 C 
HETATM   11 CL11 UNL     1     -43.417   5.798   1.416  1.00 20.00    -0.130 Cl
ENDBRANCH   3  10
TORSDOF 2
ENDMDL
MODEL 5
REMARK VINA RESULT:      -4.2      2.732      4.453
REMARK  2 active torsions:
REMARK  status: ('A' for Active; 'I' for Inactive)
REMARK    1  A    between atoms: C6_6  and  C8_8 
REMARK    2  A    between atoms: C7_7  and  C9_9 
ROOT
HETATM    1  C4  UNL     1     -34.448  13.715  -4.769  1.00 20.00     0.034 C 
HETATM    2  C5  UNL     1     -35.891  14.008  -4.408  1.00 20.00     0.168 C 
HETATM    3  C7  UNL     1     -33.704  14.901  -4.181  1.00 20.00     0.031 C 
HETATM    4  C8  UNL     1     -34.506  15.117  -2.897  1.00 20.00     0.130 C 
HETATM    5  O10 UNL     1     -35.873  14.794  -3.208  1.00 20.00    -0.385 OA
ENDROOT
BRANCH   4   6
HETATM    6  C6  UNL     1     -34.430  16.520  -2.325  1.00 20.00     0.015 C 
HETATM    7  C2  UNL     1     -34.555  16.649  -0.784  1.00 20.00     0.007 C 
HETATM    8  C1  UNL     1     -35.346  17.951  -1.032  1.00 20.00     0.001 C 
HETATM    9  C3  UNL     1     -35.719  17.377  -2.415  1.00 20.00     0.007 C 
ENDBRANCH   4   6
BRANCH   3  10
HETATM   10  C9  UNL     1     -33.706  16.080  -5.156  1.00 20.00     0.121 C 
HETATM   11 CL11 UNL     1     -33.988  15.512  -6.814  1.00 20.00    -0.130 Cl
ENDBRANCH   3  10
TORSDOF 2
ENDMDL
MODEL 6
REMARK VINA RESULT:      -4.0      2.709      3.097
REMARK  2 active torsions:
REMARK  status: ('A' for Active; 'I' for Inactive)
REMARK    1  A    between atoms: C6_6  and  C8_8 
REMARK    2  A    between atoms: C7_7  and  C9_9 
ROOT
HETATM    1  C4  UNL     1     -34.584  16.103  -1.888  1.00 20.00     0.034 C 
HETATM    2  C5  UNL     1     -33.895  17.256  -2.593  1.00 20.00     0.168 C 
HETATM    3  C7  UNL     1     -35.354  15.432  -3.012  1.00 20.00     0.031 C 
HETATM    4  C8  UNL     1     -34.360  15.596  -4.161  1.00 20.00     0.130 C 
HETATM    5  O10 UNL     1     -33.703  16.860  -3.957  1.00 20.00    -0.385 OA
ENDROOT
BRANCH   4   6
HETATM    6  C6  UNL     1     -34.973  15.557  -5.548  1.00 20.00     0.015 C 
HETATM    7  C2  UNL     1     -35.136  14.158  -6.197  1.00 20.00     0.007 C 
HETATM    8  C1  UNL     1     -34.781  14.823  -7.544  1.00 20.00     0.001 C 
HETATM    9  C3  UNL     1     -34.033  15.902  -6.732  1.00 20.00     0.007 C 
ENDBRANCH   4   6
BRANCH   3  10
HETATM   10  C9  UNL     1     -36.710  16.111  -3.222  1.00 20.00     0.121 C 
HETATM   11 CL11 UNL     1     -37.946  14.908  -3.639  1.00 20.00    -0.130 Cl
ENDBRANCH   3  10
TORSDOF 2
ENDMDL
MODEL 7
REMARK VINA RESULT:      -3.9      3.140      4.406
REMARK  2 active torsions:
REMARK  status: ('A' for Active; 'I' for Inactive)
REMARK    1  A    between atoms: C6_6  and  C8_8 
REMARK    2  A    between atoms: C7_7  and  C9_9 
ROOT
HETATM    1  C4  UNL     1     -34.343  15.077  -7.311  1.00 20.00     0.034 C 
HETATM    2  C5  UNL     1     -35.607  14.461  -6.743  1.00 20.00     0.168 C 
HETATM    3  C7  UNL     1     -33.954  16.091  -6.250  1.00 20.00     0.031 C 
HETATM    4  C8  UNL     1     -34.346  15.327  -4.985  1.00 20.00     0.130 C 
HETATM    5  O10 UNL     1     -35.518  14.561  -5.315  1.00 20.00    -0.385 OA
ENDROOT
BRANCH   4   6
HETATM    6  C6  UNL     1     -34.628  16.196  -3.774  1.00 20.00     0.015 C 
HETATM    7  C2  UNL     1     -33.543  16.217  -2.665  1.00 20.00     0.007 C 
HETATM    8  C1  UNL     1     -34.697  16.286  -1.642  1.00 20.00     0.001 C 
HETATM    9  C3  UNL     1     -35.586  15.610  -2.706  1.00 20.00     0.007 C 
ENDBRANCH   4   6
BRANCH   3  10
HETATM   10  C9  UNL     1     -34.693  17.413  -6.467  1.00 20.00     0.121 C 
HETATM   11 CL11 UNL     1     -33.594  18.784  -6.218  1.00 20.00    -0.130 Cl
ENDBRANCH   3  10
TORSDOF 2
ENDMDL
MODEL 8
REMARK VINA RESULT:      -3.9      2.261      3.853
REMARK  2 active torsions:
REMARK  status: ('A' for Active; 'I' for Inactive)
REMARK    1  A    between atoms: C6_6  and  C8_8 
REMARK    2  A    between atoms: C7_7  and  C9_9 
ROOT
HETATM    1  C4  UNL     1     -33.981  13.693  -4.297  1.00 20.00     0.034 C 
HETATM    2  C5  UNL     1     -34.517  14.153  -5.639  1.00 20.00     0.168 C 
HETATM    3  C7  UNL     1     -34.876  14.418  -3.308  1.00 20.00     0.031 C 
HETATM    4  C8  UNL     1     -36.211  14.356  -4.051  1.00 20.00     0.130 C 
HETATM    5  O10 UNL     1     -35.905  14.462  -5.453  1.00 20.00    -0.385 OA
ENDROOT
BRANCH   4   6
HETATM    6  C6  UNL     1     -37.210  15.430  -3.664  1.00 20.00     0.015 C 
HETATM    7  C2  UNL     1     -38.703  15.011  -3.630  1.00 20.00     0.007 C 
HETATM    8  C1  UNL     1     -39.032  16.415  -4.179  1.00 20.00     0.001 C 
HETATM    9  C3  UNL     1     -37.607  16.440  -4.771  1.00 20.00     0.007 C 
ENDBRANCH   4   6
BRANCH   3  10
HETATM   10  C9  UNL     1     -34.350  15.828  -3.033  1.00 20.00     0.121 C 
HETATM   11 CL11 UNL     1     -34.608  16.263  -1.332  1.00 20.00    -0.130 Cl
ENDBRANCH   3  10
TORSDOF 2
ENDMDL
MODEL 9
REMARK VINA RESULT:      -3.9      1.695      1.979
REMARK  2 active torsions:
REMARK  status: ('A' for Active; 'I' for Inactive)
REMARK    1  A    between atoms: C6_6  and  C8_8 
REMARK    2  A    between atoms: C7_7  and  C9_9 
ROOT
HETATM    1  C4  UNL     1     -33.509  18.667  -4.585  1.00 20.00     0.034 C 
HETATM    2  C5  UNL     1     -34.511  18.538  -5.716  1.00 20.00     0.168 C 
HETATM    3  C7  UNL     1     -33.666  17.353  -3.842  1.00 20.00     0.031 C 
HETATM    4  C8  UNL     1     -33.901  16.401  -5.015  1.00 20.00     0.130 C 
HETATM    5  O10 UNL     1     -34.649  17.140  -5.998  1.00 20.00    -0.385 OA
ENDROOT
BRANCH   4   6
HETATM    6  C6  UNL     1     -34.641  15.124  -4.665  1.00 20.00     0.015 C 
HETATM    7  C2  UNL     1     -33.798  13.982  -4.039  1.00 20.00     0.007 C 
HETATM    8  C1  UNL     1     -34.672  12.997  -4.842  1.00 20.00     0.001 C 
HETATM    9  C3  UNL     1     -34.935  14.149  -5.834  1.00 20.00     0.007 C 
ENDBRANCH   4   6
BRANCH   3  10
HETATM   10  C9  UNL     1     -34.813  17.436  -2.832  1.00 20.00     0.121 C 
HETATM   11 CL11 UNL     1     -34.422  16.502  -1.374  1.00 20.00    -0.130 Cl
ENDBRANCH   3  10
TORSDOF 2
ENDMDL
