MODEL 1
REMARK VINA RESULT:      -4.7      0.000      0.000
REMARK  3 active torsions:
REMARK  status: ('A' for Active; 'I' for Inactive)
REMARK    1  A    between atoms: C1_1  and  C7_7 
REMARK    2  A    between atoms: C2_2  and  C3_3 
REMARK    3  A    between atoms: C3_3  and  C10_10 
ROOT
HETATM    1  C1  UNL     1     -35.424  16.259  -1.935  1.00 20.00    -0.012 C 
HETATM    2  C3  UNL     1     -35.146  15.527  -3.030  1.00 20.00    -0.020 C 
ENDROOT
BRANCH   2   3
HETATM    3  C2  UNL     1     -36.339  15.223  -3.872  1.00 20.00     0.265 C 
HETATM    4  O11 UNL     1     -37.262  14.502  -3.514  1.00 20.00    -0.302 OA
ENDBRANCH   2   3
BRANCH   2   5
HETATM    5  C10 UNL     1     -33.777  15.020  -3.443  1.00 20.00     0.013 C 
HETATM    6  C8  UNL     1     -33.080  15.970  -4.421  1.00 20.00     0.015 C 
HETATM    7  C9  UNL     1     -33.831  13.595  -3.999  1.00 20.00     0.015 C 
ENDBRANCH   2   5
BRANCH   1   8
HETATM    8  C7  UNL     1     -34.386  16.666  -0.972  1.00 20.00     0.009 C 
HETATM    9  C5  UNL     1     -33.675  18.009  -1.279  1.00 20.00     0.008 C 
HETATM   10  C4  UNL     1     -33.672  18.269   0.242  1.00 20.00     0.001 C 
HETATM   11  C6  UNL     1     -34.899  17.338   0.326  1.00 20.00     0.008 C 
ENDBRANCH   1   8
TORSDOF 3
ENDMDL
MODEL 2
REMARK VINA RESULT:      -4.5      1.534      2.438
REMARK  3 active torsions:
REMARK  status: ('A' for Active; 'I' for Inactive)
REMARK    1  A    between atoms: C1_1  and  C7_7 
REMARK    2  A    between atoms: C2_2  and  C3_3 
REMARK    3  A    between atoms: C3_3  and  C10_10 
ROOT
HETATM    1  C1  UNL     1     -34.415  15.169  -2.704  1.00 20.00    -0.012 C 
HETATM    2  C3  UNL     1     -34.537  14.867  -4.010  1.00 20.00    -0.020 C 
ENDROOT
BRANCH   2   3
HETATM    3  C2  UNL     1     -34.138  13.469  -4.346  1.00 20.00     0.265 C 
HETATM    4  O11 UNL     1     -34.933  12.576  -4.610  1.00 20.00    -0.302 OA
ENDBRANCH   2   3
BRANCH   2   5
HETATM    5  C10 UNL     1     -35.025  15.799  -5.102  1.00 20.00     0.013 C 
HETATM    6  C8  UNL     1     -36.532  15.669  -5.342  1.00 20.00     0.015 C 
HETATM    7  C9  UNL     1     -34.241  15.628  -6.404  1.00 20.00     0.015 C 
ENDBRANCH   2   5
BRANCH   1   8
HETATM    8  C7  UNL     1     -34.757  16.497  -2.165  1.00 20.00     0.009 C 
HETATM    9  C5  UNL     1     -34.705  16.629  -0.621  1.00 20.00     0.008 C 
HETATM   10  C4  UNL     1     -34.136  18.047  -0.837  1.00 20.00     0.001 C 
HETATM   11  C6  UNL     1     -33.620  17.550  -2.203  1.00 20.00     0.008 C 
ENDBRANCH   1   8
TORSDOF 3
ENDMDL
MODEL 3
REMARK VINA RESULT:      -4.4      1.737      2.377
REMARK  3 active torsions:
REMARK  status: ('A' for Active; 'I' for Inactive)
REMARK    1  A    between atoms: C1_1  and  C7_7 
REMARK    2  A    between atoms: C2_2  and  C3_3 
REMARK    3  A    between atoms: C3_3  and  C10_10 
ROOT
HETATM    1  C1  UNL     1     -33.682  17.010  -2.504  1.00 20.00    -0.012 C 
HETATM    2  C3  UNL     1     -33.787  16.042  -3.433  1.00 20.00    -0.020 C 
ENDROOT
BRANCH   2   3
HETATM    3  C2  UNL     1     -33.172  16.396  -4.746  1.00 20.00     0.265 C 
HETATM    4  O11 UNL     1     -33.559  17.315  -5.456  1.00 20.00    -0.302 OA
ENDBRANCH   2   3
BRANCH   2   5
HETATM    5  C10 UNL     1     -34.451  14.691  -3.247  1.00 20.00     0.013 C 
HETATM    6  C8  UNL     1     -33.645  13.557  -3.886  1.00 20.00     0.015 C 
HETATM    7  C9  UNL     1     -35.900  14.684  -3.740  1.00 20.00     0.015 C 
ENDBRANCH   2   5
BRANCH   1   8
HETATM    8  C7  UNL     1     -34.225  16.859  -1.142  1.00 20.00     0.009 C 
HETATM    9  C5  UNL     1     -33.682  17.858  -0.089  1.00 20.00     0.008 C 
HETATM   10  C4  UNL     1     -35.107  17.893   0.503  1.00 20.00     0.001 C 
HETATM   11  C6  UNL     1     -35.616  17.497  -0.899  1.00 20.00     0.008 C 
ENDBRANCH   1   8
TORSDOF 3
ENDMDL
MODEL 4
REMARK VINA RESULT:      -4.2      1.586      4.307
REMARK  3 active torsions:
REMARK  status: ('A' for Active; 'I' for Inactive)
REMARK    1  A    between atoms: C1_1  and  C7_7 
REMARK    2  A    between atoms: C2_2  and  C3_3 
REMARK    3  A    between atoms: C3_3  and  C10_10 
ROOT
HETATM    1  C1  UNL     1     -35.426  16.294  -2.676  1.00 20.00    -0.012 C 
HETATM    2  C3  UNL     1     -35.376  17.196  -1.678  1.00 20.00    -0.020 C 
ENDROOT
BRANCH   2   3
HETATM    3  C2  UNL     1     -36.333  18.328  -1.838  1.00 20.00     0.265 C 
HETATM    4  O11 UNL     1     -37.550  18.210  -1.763  1.00 20.00    -0.302 OA
ENDBRANCH   2   3
BRANCH   2   5
HETATM    5  C10 UNL     1     -34.463  17.140  -0.467  1.00 20.00     0.013 C 
HETATM    6  C8  UNL     1     -35.208  17.454   0.833  1.00 20.00     0.015 C 
HETATM    7  C9  UNL     1     -33.231  18.033  -0.629  1.00 20.00     0.015 C 
ENDBRANCH   2   5
BRANCH   1   8
HETATM    8  C7  UNL     1     -34.561  15.102  -2.707  1.00 20.00     0.009 C 
HETATM    9  C5  UNL     1     -34.948  14.019  -3.748  1.00 20.00     0.008 C 
HETATM   10  C4  UNL     1     -33.437  13.802  -3.972  1.00 20.00     0.001 C 
HETATM   11  C6  UNL     1     -33.234  15.254  -3.493  1.00 20.00     0.008 C 
ENDBRANCH   1   8
TORSDOF 3
ENDMDL
MODEL 5
REMARK VINA RESULT:      -4.1     12.956     15.015
REMARK  3 active torsions:
REMARK  status: ('A' for Active; 'I' for Inactive)
REMARK    1  A    between atoms: C1_1  and  C7_7 
REMARK    2  A    between atoms: C2_2  and  C3_3 
REMARK    3  A    between atoms: C3_3  and  C10_10 
ROOT
HETATM    1  C1  UNL     1     -42.542   3.780  -3.111  1.00 20.00    -0.012 C 
HETATM    2  C3  UNL     1     -42.351   4.783  -2.233  1.00 20.00    -0.020 C 
ENDROOT
BRANCH   2   3
HETATM    3  C2  UNL     1     -42.997   6.067  -2.633  1.00 20.00     0.265 C 
HETATM    4  O11 UNL     1     -43.196   6.398  -3.795  1.00 20.00    -0.302 OA
ENDBRANCH   2   3
BRANCH   2   5
HETATM    5  C10 UNL     1     -41.568   4.699  -0.937  1.00 20.00     0.013 C 
HETATM    6  C8  UNL     1     -42.461   4.345   0.256  1.00 20.00     0.015 C 
HETATM    7  C9  UNL     1     -40.760   5.970  -0.665  1.00 20.00     0.015 C 
ENDBRANCH   2   5
BRANCH   1   8
HETATM    8  C7  UNL     1     -41.987   2.432  -2.903  1.00 20.00     0.009 C 
HETATM    9  C5  UNL     1     -43.007   1.267  -2.979  1.00 20.00     0.008 C 
HETATM   10  C4  UNL     1     -41.904   0.446  -3.680  1.00 20.00     0.001 C 
HETATM   11  C6  UNL     1     -41.299   1.790  -4.135  1.00 20.00     0.008 C 
ENDBRANCH   1   8
TORSDOF 3
ENDMDL
MODEL 6
REMARK VINA RESULT:      -4.0      1.967      4.316
REMARK  3 active torsions:
REMARK  status: ('A' for Active; 'I' for Inactive)
REMARK    1  A    between atoms: C1_1  and  C7_7 
REMARK    2  A    between atoms: C2_2  and  C3_3 
REMARK    3  A    between atoms: C3_3  and  C10_10 
ROOT
HETATM    1  C1  UNL     1     -36.656  14.473  -3.966  1.00 20.00    -0.012 C 
HETATM    2  C3  UNL     1     -35.369  14.761  -3.701  1.00 20.00    -0.020 C 
ENDROOT
BRANCH   2   3
HETATM    3  C2  UNL     1     -34.436  13.619  -3.924  1.00 20.00     0.265 C 
HETATM    4  O11 UNL     1     -34.736  12.601  -4.534  1.00 20.00    -0.302 OA
ENDBRANCH   2   3
BRANCH   2   5
HETATM    5  C10 UNL     1     -34.832  16.095  -3.218  1.00 20.00     0.013 C 
HETATM    6  C8  UNL     1     -33.517  16.473  -3.906  1.00 20.00     0.015 C 
HETATM    7  C9  UNL     1     -34.693  16.146  -1.694  1.00 20.00     0.015 C 
ENDBRANCH   2   5
BRANCH   1   8
HETATM    8  C7  UNL     1     -37.736  15.463  -3.809  1.00 20.00     0.009 C 
HETATM    9  C5  UNL     1     -38.058  16.310  -5.067  1.00 20.00     0.008 C 
HETATM   10  C4  UNL     1     -39.543  16.215  -4.659  1.00 20.00     0.001 C 
HETATM   11  C6  UNL     1     -39.179  14.909  -3.923  1.00 20.00     0.008 C 
ENDBRANCH   1   8
TORSDOF 3
ENDMDL
MODEL 7
REMARK VINA RESULT:      -3.9      1.515      1.761
REMARK  3 active torsions:
REMARK  status: ('A' for Active; 'I' for Inactive)
REMARK    1  A    between atoms: C1_1  and  C7_7 
REMARK    2  A    between atoms: C2_2  and  C3_3 
REMARK    3  A    between atoms: C3_3  and  C10_10 
ROOT
HETATM    1  C1  UNL     1     -35.597  16.399  -3.533  1.00 20.00    -0.012 C 
HETATM    2  C3  UNL     1     -35.603  15.685  -4.675  1.00 20.00    -0.020 C 
ENDROOT
BRANCH   2   3
HETATM    3  C2  UNL     1     -36.900  15.736  -5.411  1.00 20.00     0.265 C 
HETATM    4  O11 UNL     1     -37.843  14.988  -5.186  1.00 20.00    -0.302 OA
ENDBRANCH   2   3
BRANCH   2   5
HETATM    5  C10 UNL     1     -34.446  14.879  -5.232  1.00 20.00     0.013 C 
HETATM    6  C8  UNL     1     -34.403  14.909  -6.762  1.00 20.00     0.015 C 
HETATM    7  C9  UNL     1     -34.436  13.441  -4.707  1.00 20.00     0.015 C 
ENDBRANCH   2   5
BRANCH   1   8
HETATM    8  C7  UNL     1     -34.414  16.479  -2.659  1.00 20.00     0.009 C 
HETATM    9  C5  UNL     1     -33.824  17.898  -2.456  1.00 20.00     0.008 C 
HETATM   10  C4  UNL     1     -33.549  17.493  -0.992  1.00 20.00     0.001 C 
HETATM   11  C6  UNL     1     -34.703  16.480  -1.136  1.00 20.00     0.008 C 
ENDBRANCH   1   8
TORSDOF 3
ENDMDL
MODEL 8
REMARK VINA RESULT:      -3.9      3.235      4.169
REMARK  3 active torsions:
REMARK  status: ('A' for Active; 'I' for Inactive)
REMARK    1  A    between atoms: C1_1  and  C7_7 
REMARK    2  A    between atoms: C2_2  and  C3_3 
REMARK    3  A    between atoms: C3_3  and  C10_10 
ROOT
HETATM    1  C1  UNL     1     -36.283  14.311  -4.237  1.00 20.00    -0.012 C 
HETATM    2  C3  UNL     1     -35.120  14.398  -4.911  1.00 20.00    -0.020 C 
ENDROOT
BRANCH   2   3
HETATM    3  C2  UNL     1     -34.184  13.267  -4.647  1.00 20.00     0.265 C 
HETATM    4  O11 UNL     1     -33.469  13.189  -3.656  1.00 20.00    -0.302 OA
ENDBRANCH   2   3
BRANCH   2   5
HETATM    5  C10 UNL     1     -34.721  15.506  -5.866  1.00 20.00     0.013 C 
HETATM    6  C8  UNL     1     -34.459  14.983  -7.281  1.00 20.00     0.015 C 
HETATM    7  C9  UNL     1     -33.532  16.318  -5.348  1.00 20.00     0.015 C 
ENDBRANCH   2   5
BRANCH   1   8
HETATM    8  C7  UNL     1     -37.343  15.327  -4.358  1.00 20.00     0.009 C 
HETATM    9  C5  UNL     1     -38.693  14.972  -3.682  1.00 20.00     0.008 C 
HETATM   10  C4  UNL     1     -38.797  16.459  -3.282  1.00 20.00     0.001 C 
HETATM   11  C6  UNL     1     -37.257  16.509  -3.359  1.00 20.00     0.008 C 
ENDBRANCH   1   8
TORSDOF 3
ENDMDL
MODEL 9
REMARK VINA RESULT:      -3.8     11.069     12.100
REMARK  3 active torsions:
REMARK  status: ('A' for Active; 'I' for Inactive)
REMARK    1  A    between atoms: C1_1  and  C7_7 
REMARK    2  A    between atoms: C2_2  and  C3_3 
REMARK    3  A    between atoms: C3_3  and  C10_10 
ROOT
HETATM    1  C1  UNL     1     -32.937   6.997   4.559  1.00 20.00    -0.012 C 
HETATM    2  C3  UNL     1     -33.881   6.163   5.034  1.00 20.00    -0.020 C 
ENDROOT
BRANCH   2   3
HETATM    3  C2  UNL     1     -34.158   6.331   6.490  1.00 20.00     0.265 C 
HETATM    4  O11 UNL     1     -33.925   7.357   7.116  1.00 20.00    -0.302 OA
ENDBRANCH   2   3
BRANCH   2   5
HETATM    5  C10 UNL     1     -34.641   5.123   4.233  1.00 20.00     0.013 C 
HETATM    6  C8  UNL     1     -35.865   5.715   3.529  1.00 20.00     0.015 C 
HETATM    7  C9  UNL     1     -35.024   3.906   5.079  1.00 20.00     0.015 C 
ENDBRANCH   2   5
BRANCH   1   8
HETATM    8  C7  UNL     1     -32.517   6.992   3.147  1.00 20.00     0.009 C 
HETATM    9  C5  UNL     1     -33.225   8.025   2.232  1.00 20.00     0.008 C 
HETATM   10  C4  UNL     1     -31.868   8.213   1.521  1.00 20.00     0.001 C 
HETATM   11  C6  UNL     1     -31.203   7.751   2.834  1.00 20.00     0.008 C 
ENDBRANCH   1   8
TORSDOF 3
ENDMDL
