MODEL 1
REMARK VINA RESULT:      -4.9      0.000      0.000
REMARK  3 active torsions:
REMARK  status: ('A' for Active; 'I' for Inactive)
REMARK    1  A    between atoms: C5_5  and  C8_8 
REMARK    2  A    between atoms: C7_7  and  C8_8 
REMARK    3  A    between atoms: C8_8  and  O9_9 
ROOT
HETATM    1  C1  UNL     1     -31.759   8.153   2.409  1.00 20.00     0.012 C 
HETATM    2  C2  UNL     1     -32.426   7.185   2.654  1.00 20.00    -0.115 C 
HETATM    3  C7  UNL     1     -33.244   5.998   2.949  1.00 20.00     0.125 C 
ENDROOT
BRANCH   3   4
HETATM    4  C8  UNL     1     -33.339   5.722   4.459  1.00 20.00     0.137 C 
BRANCH   4   5
HETATM    5  C5  UNL     1     -34.689   5.186   4.845  1.00 20.00    -0.017 A 
HETATM    6  C3  UNL     1     -35.042   5.148   6.314  1.00 20.00     0.012 A 
HETATM    7  C4  UNL     1     -34.743   3.870   5.586  1.00 20.00     0.012 A 
HETATM    8  C6  UNL     1     -35.788   5.489   3.864  1.00 20.00     0.018 C 
ENDBRANCH   4   5
BRANCH   4   9
HETATM    9  O9  UNL     1     -33.103   6.955   5.151  1.00 20.00    -0.394 OA
HETATM   10  H21 UNL     1     -33.972   7.269   5.441  1.00 20.00     0.210 HD
ENDBRANCH   4   9
ENDBRANCH   3   4
TORSDOF 3
ENDMDL
MODEL 2
REMARK VINA RESULT:      -4.8      1.431      1.781
REMARK  3 active torsions:
REMARK  status: ('A' for Active; 'I' for Inactive)
REMARK    1  A    between atoms: C5_5  and  C8_8 
REMARK    2  A    between atoms: C7_7  and  C8_8 
REMARK    3  A    between atoms: C8_8  and  O9_9 
ROOT
HETATM    1  C1  UNL     1     -32.092   8.405   1.785  1.00 20.00     0.012 C 
HETATM    2  C2  UNL     1     -32.260   7.579   2.640  1.00 20.00    -0.115 C 
HETATM    3  C7  UNL     1     -32.462   6.566   3.689  1.00 20.00     0.125 C 
ENDROOT
BRANCH   3   4
HETATM    4  C8  UNL     1     -33.949   6.231   3.889  1.00 20.00     0.137 C 
BRANCH   4   5
HETATM    5  C5  UNL     1     -34.221   5.696   5.267  1.00 20.00    -0.017 A 
HETATM    6  C3  UNL     1     -34.056   4.212   5.497  1.00 20.00     0.012 A 
HETATM    7  C4  UNL     1     -35.432   4.812   5.458  1.00 20.00     0.012 A 
HETATM    8  C6  UNL     1     -33.846   6.628   6.386  1.00 20.00     0.018 C 
ENDBRANCH   4   5
BRANCH   4   9
HETATM    9  O9  UNL     1     -34.317   5.243   2.917  1.00 20.00    -0.394 OA
HETATM   10  H21 UNL     1     -34.954   5.672   2.328  1.00 20.00     0.210 HD
ENDBRANCH   4   9
ENDBRANCH   3   4
TORSDOF 3
ENDMDL
MODEL 3
REMARK VINA RESULT:      -4.7      1.885      3.429
REMARK  3 active torsions:
REMARK  status: ('A' for Active; 'I' for Inactive)
REMARK    1  A    between atoms: C5_5  and  C8_8 
REMARK    2  A    between atoms: C7_7  and  C8_8 
REMARK    3  A    between atoms: C8_8  and  O9_9 
ROOT
HETATM    1  C1  UNL     1     -33.329   7.446   6.915  1.00 20.00     0.012 C 
HETATM    2  C2  UNL     1     -34.041   6.519   6.639  1.00 20.00    -0.115 C 
HETATM    3  C7  UNL     1     -34.916   5.384   6.304  1.00 20.00     0.125 C 
ENDROOT
BRANCH   3   4
HETATM    4  C8  UNL     1     -34.436   4.634   5.051  1.00 20.00     0.137 C 
BRANCH   4   5
HETATM    5  C5  UNL     1     -34.599   5.463   3.807  1.00 20.00    -0.017 A 
HETATM    6  C3  UNL     1     -33.755   5.109   2.604  1.00 20.00     0.012 A 
HETATM    7  C4  UNL     1     -33.449   6.351   3.391  1.00 20.00     0.012 A 
HETATM    8  C6  UNL     1     -35.997   5.960   3.564  1.00 20.00     0.018 C 
ENDBRANCH   4   5
BRANCH   4   9
HETATM    9  O9  UNL     1     -35.211   3.436   4.926  1.00 20.00    -0.394 OA
HETATM   10  H21 UNL     1     -34.666   2.816   4.419  1.00 20.00     0.210 HD
ENDBRANCH   4   9
ENDBRANCH   3   4
TORSDOF 3
ENDMDL
MODEL 4
REMARK VINA RESULT:      -4.7      0.940      4.031
REMARK  3 active torsions:
REMARK  status: ('A' for Active; 'I' for Inactive)
REMARK    1  A    between atoms: C5_5  and  C8_8 
REMARK    2  A    between atoms: C7_7  and  C8_8 
REMARK    3  A    between atoms: C8_8  and  O9_9 
ROOT
HETATM    1  C1  UNL     1     -35.180   4.084   5.963  1.00 20.00     0.012 C 
HETATM    2  C2  UNL     1     -34.975   4.718   4.964  1.00 20.00    -0.115 C 
HETATM    3  C7  UNL     1     -34.728   5.491   3.737  1.00 20.00     0.125 C 
ENDROOT
BRANCH   3   4
HETATM    4  C8  UNL     1     -33.858   6.732   4.001  1.00 20.00     0.137 C 
BRANCH   4   5
HETATM    5  C5  UNL     1     -32.580   6.698   3.212  1.00 20.00    -0.017 A 
HETATM    6  C3  UNL     1     -31.454   7.606   3.648  1.00 20.00     0.012 A 
HETATM    7  C4  UNL     1     -32.220   7.916   2.393  1.00 20.00     0.012 A 
HETATM    8  C6  UNL     1     -32.221   5.346   2.660  1.00 20.00     0.018 C 
ENDBRANCH   4   5
BRANCH   4   9
HETATM    9  O9  UNL     1     -33.550   6.769   5.400  1.00 20.00    -0.394 OA
HETATM   10  H21 UNL     1     -34.149   7.423   5.789  1.00 20.00     0.210 HD
ENDBRANCH   4   9
ENDBRANCH   3   4
TORSDOF 3
ENDMDL
MODEL 5
REMARK VINA RESULT:      -4.4     12.121     13.199
REMARK  3 active torsions:
REMARK  status: ('A' for Active; 'I' for Inactive)
REMARK    1  A    between atoms: C5_5  and  C8_8 
REMARK    2  A    between atoms: C7_7  and  C8_8 
REMARK    3  A    between atoms: C8_8  and  O9_9 
ROOT
HETATM    1  C1  UNL     1     -34.787  16.754  -1.241  1.00 20.00     0.012 C 
HETATM    2  C2  UNL     1     -34.342  16.016  -2.077  1.00 20.00    -0.115 C 
HETATM    3  C7  UNL     1     -33.796  15.108  -3.098  1.00 20.00     0.125 C 
ENDROOT
BRANCH   3   4
HETATM    4  C8  UNL     1     -33.911  15.695  -4.514  1.00 20.00     0.137 C 
BRANCH   4   5
HETATM    5  C5  UNL     1     -34.583  14.741  -5.462  1.00 20.00    -0.017 A 
HETATM    6  C3  UNL     1     -34.431  14.991  -6.945  1.00 20.00     0.012 A 
HETATM    7  C4  UNL     1     -35.749  15.254  -6.276  1.00 20.00     0.012 A 
HETATM    8  C6  UNL     1     -34.626  13.314  -4.989  1.00 20.00     0.018 C 
ENDBRANCH   4   5
BRANCH   4   9
HETATM    9  O9  UNL     1     -32.589  15.979  -4.987  1.00 20.00    -0.394 OA
HETATM   10  H21 UNL     1     -32.605  16.898  -5.291  1.00 20.00     0.210 HD
ENDBRANCH   4   9
ENDBRANCH   3   4
TORSDOF 3
ENDMDL
MODEL 6
REMARK VINA RESULT:      -4.3     11.458     12.386
REMARK  3 active torsions:
REMARK  status: ('A' for Active; 'I' for Inactive)
REMARK    1  A    between atoms: C5_5  and  C8_8 
REMARK    2  A    between atoms: C7_7  and  C8_8 
REMARK    3  A    between atoms: C8_8  and  O9_9 
ROOT
HETATM    1  C1  UNL     1     -35.060  17.388   0.599  1.00 20.00     0.012 C 
HETATM    2  C2  UNL     1     -34.590  17.088  -0.465  1.00 20.00    -0.115 C 
HETATM    3  C7  UNL     1     -34.011  16.723  -1.768  1.00 20.00     0.125 C 
ENDROOT
BRANCH   3   4
HETATM    4  C8  UNL     1     -34.678  15.475  -2.368  1.00 20.00     0.137 C 
BRANCH   4   5
HETATM    5  C5  UNL     1     -34.048  15.077  -3.674  1.00 20.00    -0.017 A 
HETATM    6  C3  UNL     1     -34.742  14.021  -4.502  1.00 20.00     0.012 A 
HETATM    7  C4  UNL     1     -33.465  13.687  -3.785  1.00 20.00     0.012 A 
HETATM    8  C6  UNL     1     -33.350  16.195  -4.398  1.00 20.00     0.018 C 
ENDBRANCH   4   5
BRANCH   4   9
HETATM    9  O9  UNL     1     -36.064  15.770  -2.581  1.00 20.00    -0.394 OA
HETATM   10  H21 UNL     1     -36.442  14.986  -3.004  1.00 20.00     0.210 HD
ENDBRANCH   4   9
ENDBRANCH   3   4
TORSDOF 3
ENDMDL
MODEL 7
REMARK VINA RESULT:      -4.1      8.703     10.339
REMARK  3 active torsions:
REMARK  status: ('A' for Active; 'I' for Inactive)
REMARK    1  A    between atoms: C5_5  and  C8_8 
REMARK    2  A    between atoms: C7_7  and  C8_8 
REMARK    3  A    between atoms: C8_8  and  O9_9 
ROOT
HETATM    1  C1  UNL     1     -41.311   1.610  -3.799  1.00 20.00     0.012 C 
HETATM    2  C2  UNL     1     -41.721   2.630  -3.316  1.00 20.00    -0.115 C 
HETATM    3  C7  UNL     1     -42.226   3.880  -2.726  1.00 20.00     0.125 C 
ENDROOT
BRANCH   3   4
HETATM    4  C8  UNL     1     -41.505   4.233  -1.415  1.00 20.00     0.137 C 
BRANCH   4   5
HETATM    5  C5  UNL     1     -41.593   5.702  -1.106  1.00 20.00    -0.017 A 
HETATM    6  C3  UNL     1     -40.714   6.248  -0.006  1.00 20.00     0.012 A 
HETATM    7  C4  UNL     1     -42.192   6.112   0.219  1.00 20.00     0.012 A 
HETATM    8  C6  UNL     1     -41.855   6.578  -2.300  1.00 20.00     0.018 C 
ENDBRANCH   4   5
BRANCH   4   9
HETATM    9  O9  UNL     1     -40.128   3.860  -1.551  1.00 20.00    -0.394 OA
HETATM   10  H21 UNL     1     -39.677   4.209  -0.768  1.00 20.00     0.210 HD
ENDBRANCH   4   9
ENDBRANCH   3   4
TORSDOF 3
ENDMDL
MODEL 8
REMARK VINA RESULT:      -3.9     11.679     13.170
REMARK  3 active torsions:
REMARK  status: ('A' for Active; 'I' for Inactive)
REMARK    1  A    between atoms: C5_5  and  C8_8 
REMARK    2  A    between atoms: C7_7  and  C8_8 
REMARK    3  A    between atoms: C8_8  and  O9_9 
ROOT
HETATM    1  C1  UNL     1     -33.840  16.940  -1.687  1.00 20.00     0.012 C 
HETATM    2  C2  UNL     1     -34.211  15.969  -2.288  1.00 20.00    -0.115 C 
HETATM    3  C7  UNL     1     -34.669  14.777  -3.021  1.00 20.00     0.125 C 
ENDROOT
BRANCH   3   4
HETATM    4  C8  UNL     1     -33.958  14.624  -4.376  1.00 20.00     0.137 C 
BRANCH   4   5
HETATM    5  C5  UNL     1     -34.790  15.160  -5.508  1.00 20.00    -0.017 A 
HETATM    6  C3  UNL     1     -34.310  14.911  -6.919  1.00 20.00     0.012 A 
HETATM    7  C4  UNL     1     -34.220  16.291  -6.332  1.00 20.00     0.012 A 
HETATM    8  C6  UNL     1     -36.272  15.149  -5.256  1.00 20.00     0.018 C 
ENDBRANCH   4   5
BRANCH   4   9
HETATM    9  O9  UNL     1     -33.709  13.229  -4.591  1.00 20.00    -0.394 OA
HETATM   10  H21 UNL     1     -33.240  12.916  -3.804  1.00 20.00     0.210 HD
ENDBRANCH   4   9
ENDBRANCH   3   4
TORSDOF 3
ENDMDL
MODEL 9
REMARK VINA RESULT:      -3.9     12.173     12.928
REMARK  3 active torsions:
REMARK  status: ('A' for Active; 'I' for Inactive)
REMARK    1  A    between atoms: C5_5  and  C8_8 
REMARK    2  A    between atoms: C7_7  and  C8_8 
REMARK    3  A    between atoms: C8_8  and  O9_9 
ROOT
HETATM    1  C1  UNL     1     -34.734  14.782  -6.928  1.00 20.00     0.012 C 
HETATM    2  C2  UNL     1     -34.450  14.422  -5.819  1.00 20.00    -0.115 C 
HETATM    3  C7  UNL     1     -34.104  13.976  -4.460  1.00 20.00     0.125 C 
ENDROOT
BRANCH   3   4
HETATM    4  C8  UNL     1     -33.336  15.053  -3.676  1.00 20.00     0.137 C 
BRANCH   4   5
HETATM    5  C5  UNL     1     -34.266  16.007  -2.978  1.00 20.00    -0.017 A 
HETATM    6  C3  UNL     1     -33.973  17.485  -3.084  1.00 20.00     0.012 A 
HETATM    7  C4  UNL     1     -33.736  16.769  -1.786  1.00 20.00     0.012 A 
HETATM    8  C6  UNL     1     -35.706  15.573  -2.955  1.00 20.00     0.018 C 
ENDBRANCH   4   5
BRANCH   4   9
HETATM    9  O9  UNL     1     -32.520  15.780  -4.602  1.00 20.00    -0.394 OA
HETATM   10  H21 UNL     1     -33.014  15.802  -5.435  1.00 20.00     0.210 HD
ENDBRANCH   4   9
ENDBRANCH   3   4
TORSDOF 3
ENDMDL
