MODEL 1
REMARK VINA RESULT:      -4.4      0.000      0.000
REMARK  5 active torsions:
REMARK  status: ('A' for Active; 'I' for Inactive)
REMARK    1  A    between atoms: C3_3  and  C9_9 
REMARK    2  A    between atoms: C7_7  and  C10_10 
REMARK    3  A    between atoms: C8_8  and  C10_10 
REMARK    4  A    between atoms: C9_9  and  C10_10 
REMARK    5  A    between atoms: C9_9  and  O11_11 
ROOT
HETATM    1  C9  UNL     1     -33.402  16.428  -4.188  1.00 20.00     0.130 C 
ENDROOT
BRANCH   1   2
HETATM    2  C3  UNL     1     -33.989  17.077  -5.438  1.00 20.00    -0.018 A 
HETATM    3  C1  UNL     1     -33.564  18.489  -5.768  1.00 20.00     0.012 A 
HETATM    4  C2  UNL     1     -34.950  18.228  -5.253  1.00 20.00     0.012 A 
HETATM    5  C4  UNL     1     -34.233  16.129  -6.579  1.00 20.00     0.018 C 
ENDBRANCH   1   2
BRANCH   1   6
HETATM    6  C10 UNL     1     -34.415  15.564  -3.394  1.00 20.00     0.014 C 
BRANCH   6   7
HETATM    7  C7  UNL     1     -34.587  16.015  -1.927  1.00 20.00     0.002 C 
HETATM    8  C5  UNL     1     -33.764  17.232  -1.527  1.00 20.00     0.005 C 
ENDBRANCH   6   7
BRANCH   6   9
HETATM    9  C8  UNL     1     -34.045  14.065  -3.528  1.00 20.00     0.002 C 
HETATM   10  C6  UNL     1     -35.032  13.249  -4.353  1.00 20.00     0.005 C 
ENDBRANCH   6   9
ENDBRANCH   1   6
BRANCH   1  11
HETATM   11  O11 UNL     1     -32.318  15.593  -4.604  1.00 20.00    -0.394 OA
HETATM   12  H31 UNL     1     -32.189  14.944  -3.896  1.00 20.00     0.210 HD
ENDBRANCH   1  11
TORSDOF 5
ENDMDL
MODEL 2
REMARK VINA RESULT:      -4.2      1.540      2.950
REMARK  5 active torsions:
REMARK  status: ('A' for Active; 'I' for Inactive)
REMARK    1  A    between atoms: C3_3  and  C9_9 
REMARK    2  A    between atoms: C7_7  and  C10_10 
REMARK    3  A    between atoms: C8_8  and  C10_10 
REMARK    4  A    between atoms: C9_9  and  C10_10 
REMARK    5  A    between atoms: C9_9  and  O11_11 
ROOT
HETATM    1  C9  UNL     1     -34.215  15.851  -4.681  1.00 20.00     0.130 C 
ENDROOT
BRANCH   1   2
HETATM    2  C3  UNL     1     -34.630  14.724  -5.621  1.00 20.00    -0.018 A 
HETATM    3  C1  UNL     1     -34.342  14.890  -7.095  1.00 20.00     0.012 A 
HETATM    4  C2  UNL     1     -35.754  14.993  -6.594  1.00 20.00     0.012 A 
HETATM    5  C4  UNL     1     -34.521  13.345  -5.032  1.00 20.00     0.018 C 
ENDBRANCH   1   2
BRANCH   1   6
HETATM    6  C10 UNL     1     -34.717  15.672  -3.225  1.00 20.00     0.014 C 
BRANCH   6   7
HETATM    7  C7  UNL     1     -36.217  16.000  -3.050  1.00 20.00     0.002 C 
HETATM    8  C5  UNL     1     -36.696  17.239  -3.793  1.00 20.00     0.005 C 
ENDBRANCH   6   7
BRANCH   6   9
HETATM    9  C8  UNL     1     -33.807  16.465  -2.253  1.00 20.00     0.002 C 
HETATM   10  C6  UNL     1     -34.432  16.733  -0.890  1.00 20.00     0.005 C 
ENDBRANCH   6   9
ENDBRANCH   1   6
BRANCH   1  11
HETATM   11  O11 UNL     1     -32.785  15.897  -4.666  1.00 20.00    -0.394 OA
HETATM   12  H31 UNL     1     -32.484  15.085  -5.100  1.00 20.00     0.210 HD
ENDBRANCH   1  11
TORSDOF 5
ENDMDL
MODEL 3
REMARK VINA RESULT:      -4.1      1.280      3.487
REMARK  5 active torsions:
REMARK  status: ('A' for Active; 'I' for Inactive)
REMARK    1  A    between atoms: C3_3  and  C9_9 
REMARK    2  A    between atoms: C7_7  and  C10_10 
REMARK    3  A    between atoms: C8_8  and  C10_10 
REMARK    4  A    between atoms: C9_9  and  C10_10 
REMARK    5  A    between atoms: C9_9  and  O11_11 
ROOT
HETATM    1  C9  UNL     1     -33.787  15.629  -4.194  1.00 20.00     0.130 C 
ENDROOT
BRANCH   1   2
HETATM    2  C3  UNL     1     -34.893  14.621  -4.491  1.00 20.00    -0.018 A 
HETATM    3  C1  UNL     1     -34.488  13.204  -4.825  1.00 20.00     0.012 A 
HETATM    4  C2  UNL     1     -35.018  14.104  -5.905  1.00 20.00     0.012 A 
HETATM    5  C4  UNL     1     -36.155  14.825  -3.699  1.00 20.00     0.018 C 
ENDBRANCH   1   2
BRANCH   1   6
HETATM    6  C10 UNL     1     -34.256  16.850  -3.362  1.00 20.00     0.014 C 
BRANCH   6   7
HETATM    7  C7  UNL     1     -34.018  18.202  -4.071  1.00 20.00     0.002 C 
HETATM    8  C5  UNL     1     -33.604  18.098  -5.532  1.00 20.00     0.005 C 
ENDBRANCH   6   7
BRANCH   6   9
HETATM    9  C8  UNL     1     -33.633  16.791  -1.944  1.00 20.00     0.002 C 
HETATM   10  C6  UNL     1     -34.651  16.651  -0.820  1.00 20.00     0.005 C 
ENDBRANCH   6   9
ENDBRANCH   1   6
BRANCH   1  11
HETATM   11  O11 UNL     1     -32.765  14.945  -3.462  1.00 20.00    -0.394 OA
HETATM   12  H31 UNL     1     -32.805  14.019  -3.742  1.00 20.00     0.210 HD
ENDBRANCH   1  11
TORSDOF 5
ENDMDL
MODEL 4
REMARK VINA RESULT:      -4.0      1.920      3.438
REMARK  5 active torsions:
REMARK  status: ('A' for Active; 'I' for Inactive)
REMARK    1  A    between atoms: C3_3  and  C9_9 
REMARK    2  A    between atoms: C7_7  and  C10_10 
REMARK    3  A    between atoms: C8_8  and  C10_10 
REMARK    4  A    between atoms: C9_9  and  C10_10 
REMARK    5  A    between atoms: C9_9  and  O11_11 
ROOT
HETATM    1  C9  UNL     1     -35.387  16.136  -3.104  1.00 20.00     0.130 C 
ENDROOT
BRANCH   1   2
HETATM    2  C3  UNL     1     -35.341  17.145  -1.961  1.00 20.00    -0.018 A 
HETATM    3  C1  UNL     1     -36.554  18.019  -1.740  1.00 20.00     0.012 A 
HETATM    4  C2  UNL     1     -35.300  18.613  -2.315  1.00 20.00     0.012 A 
HETATM    5  C4  UNL     1     -34.571  16.688  -0.753  1.00 20.00     0.018 C 
ENDBRANCH   1   2
BRANCH   1   6
HETATM    6  C10 UNL     1     -34.131  15.232  -3.196  1.00 20.00     0.014 C 
BRANCH   6   7
HETATM    7  C7  UNL     1     -33.053  15.778  -4.158  1.00 20.00     0.002 C 
HETATM    8  C5  UNL     1     -33.521  16.894  -5.082  1.00 20.00     0.005 C 
ENDBRANCH   6   7
BRANCH   6   9
HETATM    9  C8  UNL     1     -34.552  13.777  -3.521  1.00 20.00     0.002 C 
HETATM   10  C6  UNL     1     -34.511  13.431  -5.004  1.00 20.00     0.005 C 
ENDBRANCH   6   9
ENDBRANCH   1   6
BRANCH   1  11
HETATM   11  O11 UNL     1     -36.533  15.303  -2.899  1.00 20.00    -0.394 OA
HETATM   12  H31 UNL     1     -36.220  14.390  -2.969  1.00 20.00     0.210 HD
ENDBRANCH   1  11
TORSDOF 5
ENDMDL
MODEL 5
REMARK VINA RESULT:      -4.0      1.416      3.276
REMARK  5 active torsions:
REMARK  status: ('A' for Active; 'I' for Inactive)
REMARK    1  A    between atoms: C3_3  and  C9_9 
REMARK    2  A    between atoms: C7_7  and  C10_10 
REMARK    3  A    between atoms: C8_8  and  C10_10 
REMARK    4  A    between atoms: C9_9  and  C10_10 
REMARK    5  A    between atoms: C9_9  and  O11_11 
ROOT
HETATM    1  C9  UNL     1     -33.743  16.093  -4.146  1.00 20.00     0.130 C 
ENDROOT
BRANCH   1   2
HETATM    2  C3  UNL     1     -34.565  16.803  -3.075  1.00 20.00    -0.018 A 
HETATM    3  C1  UNL     1     -33.822  17.509  -1.964  1.00 20.00     0.012 A 
HETATM    4  C2  UNL     1     -34.554  16.229  -1.677  1.00 20.00     0.012 A 
HETATM    5  C4  UNL     1     -35.841  17.423  -3.573  1.00 20.00     0.018 C 
ENDBRANCH   1   2
BRANCH   1   6
HETATM    6  C10 UNL     1     -34.593  15.271  -5.148  1.00 20.00     0.014 C 
BRANCH   6   7
HETATM    7  C7  UNL     1     -34.570  13.752  -4.869  1.00 20.00     0.002 C 
HETATM    8  C5  UNL     1     -33.527  13.299  -3.857  1.00 20.00     0.005 C 
ENDBRANCH   6   7
BRANCH   6   9
HETATM    9  C8  UNL     1     -34.183  15.626  -6.600  1.00 20.00     0.002 C 
HETATM   10  C6  UNL     1     -34.895  14.806  -7.669  1.00 20.00     0.005 C 
ENDBRANCH   6   9
ENDBRANCH   1   6
BRANCH   1  11
HETATM   11  O11 UNL     1     -33.023  17.094  -4.872  1.00 20.00    -0.394 OA
HETATM   12  H31 UNL     1     -33.455  17.164  -5.737  1.00 20.00     0.210 HD
ENDBRANCH   1  11
TORSDOF 5
ENDMDL
MODEL 6
REMARK VINA RESULT:      -4.0      1.481      3.097
REMARK  5 active torsions:
REMARK  status: ('A' for Active; 'I' for Inactive)
REMARK    1  A    between atoms: C3_3  and  C9_9 
REMARK    2  A    between atoms: C7_7  and  C10_10 
REMARK    3  A    between atoms: C8_8  and  C10_10 
REMARK    4  A    between atoms: C9_9  and  C10_10 
REMARK    5  A    between atoms: C9_9  and  O11_11 
ROOT
HETATM    1  C9  UNL     1     -35.262  15.979  -4.581  1.00 20.00     0.130 C 
ENDROOT
BRANCH   1   2
HETATM    2  C3  UNL     1     -34.513  16.632  -5.739  1.00 20.00    -0.018 A 
HETATM    3  C1  UNL     1     -35.285  16.932  -7.002  1.00 20.00     0.012 A 
HETATM    4  C2  UNL     1     -34.286  15.812  -6.987  1.00 20.00     0.012 A 
HETATM    5  C4  UNL     1     -33.437  17.598  -5.323  1.00 20.00     0.018 C 
ENDBRANCH   1   2
BRANCH   1   6
HETATM    6  C10 UNL     1     -34.341  15.488  -3.434  1.00 20.00     0.014 C 
BRANCH   6   7
HETATM    7  C7  UNL     1     -34.107  13.961  -3.447  1.00 20.00     0.002 C 
HETATM    8  C5  UNL     1     -34.994  13.183  -4.410  1.00 20.00     0.005 C 
ENDBRANCH   6   7
BRANCH   6   9
HETATM    9  C8  UNL     1     -34.873  16.007  -2.074  1.00 20.00     0.002 C 
HETATM   10  C6  UNL     1     -33.928  16.963  -1.358  1.00 20.00     0.005 C 
ENDBRANCH   6   9
ENDBRANCH   1   6
BRANCH   1  11
HETATM   11  O11 UNL     1     -36.170  16.950  -4.052  1.00 20.00    -0.394 OA
HETATM   12  H31 UNL     1     -36.954  16.459  -3.767  1.00 20.00     0.210 HD
ENDBRANCH   1  11
TORSDOF 5
ENDMDL
MODEL 7
REMARK VINA RESULT:      -4.0      2.219      3.604
REMARK  5 active torsions:
REMARK  status: ('A' for Active; 'I' for Inactive)
REMARK    1  A    between atoms: C3_3  and  C9_9 
REMARK    2  A    between atoms: C7_7  and  C10_10 
REMARK    3  A    between atoms: C8_8  and  C10_10 
REMARK    4  A    between atoms: C9_9  and  C10_10 
REMARK    5  A    between atoms: C9_9  and  O11_11 
ROOT
HETATM    1  C9  UNL     1     -35.778  15.333  -3.657  1.00 20.00     0.130 C 
ENDROOT
BRANCH   1   2
HETATM    2  C3  UNL     1     -36.223  15.921  -4.992  1.00 20.00    -0.018 A 
HETATM    3  C1  UNL     1     -37.534  15.444  -5.574  1.00 20.00     0.012 A 
HETATM    4  C2  UNL     1     -36.238  15.010  -6.197  1.00 20.00     0.012 A 
HETATM    5  C4  UNL     1     -35.841  17.361  -5.201  1.00 20.00     0.018 C 
ENDBRANCH   1   2
BRANCH   1   6
HETATM    6  C10 UNL     1     -34.485  15.973  -3.088  1.00 20.00     0.014 C 
BRANCH   6   7
HETATM    7  C7  UNL     1     -33.204  15.187  -3.447  1.00 20.00     0.002 C 
HETATM    8  C5  UNL     1     -33.427  13.726  -3.813  1.00 20.00     0.005 C 
ENDBRANCH   6   7
BRANCH   6   9
HETATM    9  C8  UNL     1     -34.643  16.212  -1.565  1.00 20.00     0.002 C 
HETATM   10  C6  UNL     1     -33.845  17.395  -1.033  1.00 20.00     0.005 C 
ENDBRANCH   6   9
ENDBRANCH   1   6
BRANCH   1  11
HETATM   11  O11 UNL     1     -36.838  15.539  -2.719  1.00 20.00    -0.394 OA
HETATM   12  H31 UNL     1     -36.822  14.778  -2.121  1.00 20.00     0.210 HD
ENDBRANCH   1  11
TORSDOF 5
ENDMDL
MODEL 8
REMARK VINA RESULT:      -4.0      1.115      4.262
REMARK  5 active torsions:
REMARK  status: ('A' for Active; 'I' for Inactive)
REMARK    1  A    between atoms: C3_3  and  C9_9 
REMARK    2  A    between atoms: C7_7  and  C10_10 
REMARK    3  A    between atoms: C8_8  and  C10_10 
REMARK    4  A    between atoms: C9_9  and  C10_10 
REMARK    5  A    between atoms: C9_9  and  O11_11 
ROOT
HETATM    1  C9  UNL     1     -33.846  15.661  -5.097  1.00 20.00     0.130 C 
ENDROOT
BRANCH   1   2
HETATM    2  C3  UNL     1     -34.236  14.788  -3.909  1.00 20.00    -0.018 A 
HETATM    3  C1  UNL     1     -33.495  13.487  -3.713  1.00 20.00     0.012 A 
HETATM    4  C2  UNL     1     -34.918  13.471  -4.192  1.00 20.00     0.012 A 
HETATM    5  C4  UNL     1     -34.657  15.552  -2.683  1.00 20.00     0.018 C 
ENDBRANCH   1   2
BRANCH   1   6
HETATM    6  C10 UNL     1     -34.602  17.013  -5.159  1.00 20.00     0.014 C 
BRANCH   6   7
HETATM    7  C7  UNL     1     -35.638  17.083  -6.303  1.00 20.00     0.002 C 
HETATM    8  C5  UNL     1     -35.495  16.005  -7.368  1.00 20.00     0.005 C 
ENDBRANCH   6   7
BRANCH   6   9
HETATM    9  C8  UNL     1     -33.585  18.183  -5.191  1.00 20.00     0.002 C 
HETATM   10  C6  UNL     1     -33.656  19.105  -3.981  1.00 20.00     0.005 C 
ENDBRANCH   6   9
ENDBRANCH   1   6
BRANCH   1  11
HETATM   11  O11 UNL     1     -32.444  15.928  -4.995  1.00 20.00    -0.394 OA
HETATM   12  H31 UNL     1     -32.324  16.853  -5.255  1.00 20.00     0.210 HD
ENDBRANCH   1  11
TORSDOF 5
ENDMDL
MODEL 9
REMARK VINA RESULT:      -4.0      1.937      3.679
REMARK  5 active torsions:
REMARK  status: ('A' for Active; 'I' for Inactive)
REMARK    1  A    between atoms: C3_3  and  C9_9 
REMARK    2  A    between atoms: C7_7  and  C10_10 
REMARK    3  A    between atoms: C8_8  and  C10_10 
REMARK    4  A    between atoms: C9_9  and  C10_10 
REMARK    5  A    between atoms: C9_9  and  O11_11 
ROOT
HETATM    1  C9  UNL     1     -34.934  15.443  -2.585  1.00 20.00     0.130 C 
ENDROOT
BRANCH   1   2
HETATM    2  C3  UNL     1     -34.097  15.013  -3.786  1.00 20.00    -0.018 A 
HETATM    3  C1  UNL     1     -34.549  13.799  -4.565  1.00 20.00     0.012 A 
HETATM    4  C2  UNL     1     -33.333  13.713  -3.687  1.00 20.00     0.012 A 
HETATM    5  C4  UNL     1     -33.467  16.146  -4.548  1.00 20.00     0.018 C 
ENDBRANCH   1   2
BRANCH   1   6
HETATM    6  C10 UNL     1     -34.742  16.929  -2.185  1.00 20.00     0.014 C 
BRANCH   6   7
HETATM    7  C7  UNL     1     -34.054  17.110  -0.814  1.00 20.00     0.002 C 
HETATM    8  C5  UNL     1     -34.999  17.360   0.352  1.00 20.00     0.005 C 
ENDBRANCH   6   7
BRANCH   6   9
HETATM    9  C8  UNL     1     -36.094  17.680  -2.288  1.00 20.00     0.002 C 
HETATM   10  C6  UNL     1     -36.131  18.755  -3.366  1.00 20.00     0.005 C 
ENDBRANCH   6   9
ENDBRANCH   1   6
BRANCH   1  11
HETATM   11  O11 UNL     1     -36.309  15.236  -2.921  1.00 20.00    -0.394 OA
HETATM   12  H31 UNL     1     -36.801  15.962  -2.509  1.00 20.00     0.210 HD
ENDBRANCH   1  11
TORSDOF 5
ENDMDL
