MODEL 1
REMARK VINA RESULT:      -5.0      0.000      0.000
REMARK  6 active torsions:
REMARK  status: ('A' for Active; 'I' for Inactive)
REMARK    1  A    between atoms: C1_1  and  C6_6 
REMARK    2  A    between atoms: C1_1  and  C7_7 
REMARK    3  A    between atoms: C6_6  and  C8_8 
REMARK    4  A    between atoms: C7_7  and  C10_10 
REMARK    5  A    between atoms: C8_8  and  C9_9 
REMARK    6  A    between atoms: C9_9  and  C11_11 
ROOT
HETATM    1  C1  UNL     1     -33.676   5.658   3.101  1.00 20.00     0.127 C 
HETATM    2  O12 UNL     1     -34.034   5.087   2.071  1.00 20.00    -0.298 OA
ENDROOT
BRANCH   1   3
HETATM    3  C6  UNL     1     -32.250   6.149   3.300  1.00 20.00     0.078 C 
BRANCH   3   4
HETATM    4  C8  UNL     1     -32.091   7.635   2.984  1.00 20.00     0.008 C 
BRANCH   4   5
HETATM    5  C9  UNL     1     -31.741   7.854   1.510  1.00 20.00     0.004 C 
BRANCH   5   6
HETATM    6  C11 UNL     1     -32.075   9.269   1.003  1.00 20.00    -0.023 C 
HETATM    7  C4  UNL     1     -32.901   9.177  -0.283  1.00 20.00     0.009 C 
HETATM    8  C5  UNL     1     -32.829  10.099   2.042  1.00 20.00     0.009 C 
ENDBRANCH   5   6
ENDBRANCH   4   5
ENDBRANCH   3   4
ENDBRANCH   1   3
BRANCH   1   9
HETATM    9  C7  UNL     1     -34.640   5.961   4.241  1.00 20.00     0.082 C 
BRANCH   9  10
HETATM   10  C10 UNL     1     -34.148   5.479   5.614  1.00 20.00    -0.016 C 
HETATM   11  C2  UNL     1     -35.102   4.421   6.171  1.00 20.00     0.010 C 
HETATM   12  C3  UNL     1     -34.030   6.640   6.604  1.00 20.00     0.010 C 
ENDBRANCH   9  10
ENDBRANCH   1   9
TORSDOF 6
ENDMDL
MODEL 2
REMARK VINA RESULT:      -4.9      1.338      5.512
REMARK  6 active torsions:
REMARK  status: ('A' for Active; 'I' for Inactive)
REMARK    1  A    between atoms: C1_1  and  C6_6 
REMARK    2  A    between atoms: C1_1  and  C7_7 
REMARK    3  A    between atoms: C6_6  and  C8_8 
REMARK    4  A    between atoms: C7_7  and  C10_10 
REMARK    5  A    between atoms: C8_8  and  C9_9 
REMARK    6  A    between atoms: C9_9  and  C11_11 
ROOT
HETATM    1  C1  UNL     1     -32.105   7.145   3.125  1.00 20.00     0.127 C 
HETATM    2  O12 UNL     1     -31.235   7.645   3.837  1.00 20.00    -0.298 OA
ENDROOT
BRANCH   1   3
HETATM    3  C6  UNL     1     -32.479   5.674   3.216  1.00 20.00     0.078 C 
BRANCH   3   4
HETATM    4  C8  UNL     1     -33.936   5.413   2.836  1.00 20.00     0.008 C 
BRANCH   4   5
HETATM    5  C9  UNL     1     -34.870   5.653   4.025  1.00 20.00     0.004 C 
BRANCH   5   6
HETATM    6  C11 UNL     1     -34.270   5.216   5.375  1.00 20.00    -0.023 C 
HETATM    7  C4  UNL     1     -34.146   6.426   6.304  1.00 20.00     0.009 C 
HETATM    8  C5  UNL     1     -35.098   4.125   6.056  1.00 20.00     0.009 C 
ENDBRANCH   5   6
ENDBRANCH   4   5
ENDBRANCH   3   4
ENDBRANCH   1   3
BRANCH   1   9
HETATM    9  C7  UNL     1     -32.910   7.966   2.126  1.00 20.00     0.082 C 
BRANCH   9  10
HETATM   10  C10 UNL     1     -32.066   8.963   1.318  1.00 20.00    -0.016 C 
HETATM   11  C2  UNL     1     -32.441  10.397   1.699  1.00 20.00     0.010 C 
HETATM   12  C3  UNL     1     -32.255   8.763  -0.187  1.00 20.00     0.010 C 
ENDBRANCH   9  10
ENDBRANCH   1   9
TORSDOF 6
ENDMDL
MODEL 3
REMARK VINA RESULT:      -4.9      1.400      5.552
REMARK  6 active torsions:
REMARK  status: ('A' for Active; 'I' for Inactive)
REMARK    1  A    between atoms: C1_1  and  C6_6 
REMARK    2  A    between atoms: C1_1  and  C7_7 
REMARK    3  A    between atoms: C6_6  and  C8_8 
REMARK    4  A    between atoms: C7_7  and  C10_10 
REMARK    5  A    between atoms: C8_8  and  C9_9 
REMARK    6  A    between atoms: C9_9  and  C11_11 
ROOT
HETATM    1  C1  UNL     1     -31.844   7.327   3.072  1.00 20.00     0.127 C 
HETATM    2  O12 UNL     1     -31.289   7.669   4.115  1.00 20.00    -0.298 OA
ENDROOT
BRANCH   1   3
HETATM    3  C6  UNL     1     -32.874   6.208   3.032  1.00 20.00     0.078 C 
BRANCH   3   4
HETATM    4  C8  UNL     1     -34.173   6.580   3.746  1.00 20.00     0.008 C 
BRANCH   4   5
HETATM    5  C9  UNL     1     -34.991   5.333   4.093  1.00 20.00     0.004 C 
BRANCH   5   6
HETATM    6  C11 UNL     1     -35.076   5.056   5.606  1.00 20.00    -0.023 C 
HETATM    7  C4  UNL     1     -34.544   3.653   5.906  1.00 20.00     0.009 C 
HETATM    8  C5  UNL     1     -34.307   6.087   6.433  1.00 20.00     0.009 C 
ENDBRANCH   5   6
ENDBRANCH   4   5
ENDBRANCH   3   4
ENDBRANCH   1   3
BRANCH   1   9
HETATM    9  C7  UNL     1     -31.580   8.023   1.743  1.00 20.00     0.082 C 
BRANCH   9  10
HETATM   10  C10 UNL     1     -32.727   8.935   1.282  1.00 20.00    -0.016 C 
HETATM   11  C2  UNL     1     -32.656   9.142  -0.232  1.00 20.00     0.010 C 
HETATM   12  C3  UNL     1     -32.681  10.291   1.990  1.00 20.00     0.010 C 
ENDBRANCH   9  10
ENDBRANCH   1   9
TORSDOF 6
ENDMDL
MODEL 4
REMARK VINA RESULT:      -4.7     10.439     12.143
REMARK  6 active torsions:
REMARK  status: ('A' for Active; 'I' for Inactive)
REMARK    1  A    between atoms: C1_1  and  C6_6 
REMARK    2  A    between atoms: C1_1  and  C7_7 
REMARK    3  A    between atoms: C6_6  and  C8_8 
REMARK    4  A    between atoms: C7_7  and  C10_10 
REMARK    5  A    between atoms: C8_8  and  C9_9 
REMARK    6  A    between atoms: C9_9  and  C11_11 
ROOT
HETATM    1  C1  UNL     1     -34.642  13.862  -4.488  1.00 20.00     0.127 C 
HETATM    2  O12 UNL     1     -34.924  12.665  -4.457  1.00 20.00    -0.298 OA
ENDROOT
BRANCH   1   3
HETATM    3  C6  UNL     1     -33.530  14.454  -3.635  1.00 20.00     0.078 C 
BRANCH   3   4
HETATM    4  C8  UNL     1     -33.790  15.912  -3.259  1.00 20.00     0.008 C 
BRANCH   4   5
HETATM    5  C9  UNL     1     -34.583  16.015  -1.954  1.00 20.00     0.004 C 
BRANCH   5   6
HETATM    6  C11 UNL     1     -34.000  17.037  -0.960  1.00 20.00    -0.023 C 
HETATM    7  C4  UNL     1     -33.636  18.327  -1.698  1.00 20.00     0.009 C 
HETATM    8  C5  UNL     1     -34.962  17.352   0.186  1.00 20.00     0.009 C 
ENDBRANCH   5   6
ENDBRANCH   4   5
ENDBRANCH   3   4
ENDBRANCH   1   3
BRANCH   1   9
HETATM    9  C7  UNL     1     -35.351  14.842  -5.414  1.00 20.00     0.082 C 
BRANCH   9  10
HETATM   10  C10 UNL     1     -34.668  15.009  -6.780  1.00 20.00    -0.016 C 
HETATM   11  C2  UNL     1     -34.297  16.476  -7.005  1.00 20.00     0.010 C 
HETATM   12  C3  UNL     1     -35.570  14.525  -7.918  1.00 20.00     0.010 C 
ENDBRANCH   9  10
ENDBRANCH   1   9
TORSDOF 6
ENDMDL
MODEL 5
REMARK VINA RESULT:      -4.7      0.896      1.720
REMARK  6 active torsions:
REMARK  status: ('A' for Active; 'I' for Inactive)
REMARK    1  A    between atoms: C1_1  and  C6_6 
REMARK    2  A    between atoms: C1_1  and  C7_7 
REMARK    3  A    between atoms: C6_6  and  C8_8 
REMARK    4  A    between atoms: C7_7  and  C10_10 
REMARK    5  A    between atoms: C8_8  and  C9_9 
REMARK    6  A    between atoms: C9_9  and  C11_11 
ROOT
HETATM    1  C1  UNL     1     -34.378   5.609   3.405  1.00 20.00     0.127 C 
HETATM    2  O12 UNL     1     -34.174   4.964   2.377  1.00 20.00    -0.298 OA
ENDROOT
BRANCH   1   3
HETATM    3  C6  UNL     1     -33.488   6.769   3.822  1.00 20.00     0.078 C 
BRANCH   3   4
HETATM    4  C8  UNL     1     -32.060   6.635   3.292  1.00 20.00     0.008 C 
BRANCH   4   5
HETATM    5  C9  UNL     1     -31.525   7.981   2.798  1.00 20.00     0.004 C 
BRANCH   5   6
HETATM    6  C11 UNL     1     -32.349   8.585   1.646  1.00 20.00    -0.023 C 
HETATM    7  C4  UNL     1     -32.702  10.039   1.967  1.00 20.00     0.009 C 
HETATM    8  C5  UNL     1     -31.617   8.517   0.305  1.00 20.00     0.009 C 
ENDBRANCH   5   6
ENDBRANCH   4   5
ENDBRANCH   3   4
ENDBRANCH   1   3
BRANCH   1   9
HETATM    9  C7  UNL     1     -35.563   5.329   4.320  1.00 20.00     0.082 C 
BRANCH   9  10
HETATM   10  C10 UNL     1     -35.165   4.793   5.704  1.00 20.00    -0.016 C 
HETATM   11  C2  UNL     1     -34.458   5.887   6.506  1.00 20.00     0.010 C 
HETATM   12  C3  UNL     1     -34.255   3.568   5.587  1.00 20.00     0.010 C 
ENDBRANCH   9  10
ENDBRANCH   1   9
TORSDOF 6
ENDMDL
MODEL 6
REMARK VINA RESULT:      -4.7     10.150     11.907
REMARK  6 active torsions:
REMARK  status: ('A' for Active; 'I' for Inactive)
REMARK    1  A    between atoms: C1_1  and  C6_6 
REMARK    2  A    between atoms: C1_1  and  C7_7 
REMARK    3  A    between atoms: C6_6  and  C8_8 
REMARK    4  A    between atoms: C7_7  and  C10_10 
REMARK    5  A    between atoms: C8_8  and  C9_9 
REMARK    6  A    between atoms: C9_9  and  C11_11 
ROOT
HETATM    1  C1  UNL     1     -34.403  13.523  -4.729  1.00 20.00     0.127 C 
HETATM    2  O12 UNL     1     -35.129  12.540  -4.584  1.00 20.00    -0.298 OA
ENDROOT
BRANCH   1   3
HETATM    3  C6  UNL     1     -33.302  13.870  -3.739  1.00 20.00     0.078 C 
BRANCH   3   4
HETATM    4  C8  UNL     1     -33.247  15.364  -3.421  1.00 20.00     0.008 C 
BRANCH   4   5
HETATM    5  C9  UNL     1     -34.375  15.770  -2.469  1.00 20.00     0.004 C 
BRANCH   5   6
HETATM    6  C11 UNL     1     -34.043  17.009  -1.616  1.00 20.00    -0.023 C 
HETATM    7  C4  UNL     1     -34.447  18.279  -2.369  1.00 20.00     0.009 C 
HETATM    8  C5  UNL     1     -34.729  16.979  -0.250  1.00 20.00     0.009 C 
ENDBRANCH   5   6
ENDBRANCH   4   5
ENDBRANCH   3   4
ENDBRANCH   1   3
BRANCH   1   9
HETATM    9  C7  UNL     1     -34.516  14.447  -5.935  1.00 20.00     0.082 C 
BRANCH   9  10
HETATM   10  C10 UNL     1     -35.924  15.025  -6.144  1.00 20.00    -0.016 C 
HETATM   11  C2  UNL     1     -36.363  14.822  -7.595  1.00 20.00     0.010 C 
HETATM   12  C3  UNL     1     -35.975  16.514  -5.793  1.00 20.00     0.010 C 
ENDBRANCH   9  10
ENDBRANCH   1   9
TORSDOF 6
ENDMDL
MODEL 7
REMARK VINA RESULT:      -4.6     10.663     11.856
REMARK  6 active torsions:
REMARK  status: ('A' for Active; 'I' for Inactive)
REMARK    1  A    between atoms: C1_1  and  C6_6 
REMARK    2  A    between atoms: C1_1  and  C7_7 
REMARK    3  A    between atoms: C6_6  and  C8_8 
REMARK    4  A    between atoms: C7_7  and  C10_10 
REMARK    5  A    between atoms: C8_8  and  C9_9 
REMARK    6  A    between atoms: C9_9  and  C11_11 
ROOT
HETATM    1  C1  UNL     1     -33.285  15.839  -3.855  1.00 20.00     0.127 C 
HETATM    2  O12 UNL     1     -32.769  16.235  -4.899  1.00 20.00    -0.298 OA
ENDROOT
BRANCH   1   3
HETATM    3  C6  UNL     1     -33.611  14.372  -3.619  1.00 20.00     0.078 C 
BRANCH   3   4
HETATM    4  C8  UNL     1     -34.289  13.719  -4.822  1.00 20.00     0.008 C 
BRANCH   4   5
HETATM    5  C9  UNL     1     -35.719  14.235  -4.999  1.00 20.00     0.004 C 
BRANCH   5   6
HETATM    6  C11 UNL     1     -35.962  14.919  -6.358  1.00 20.00    -0.023 C 
HETATM    7  C4  UNL     1     -36.198  16.416  -6.149  1.00 20.00     0.009 C 
HETATM    8  C5  UNL     1     -34.802  14.710  -7.332  1.00 20.00     0.009 C 
ENDBRANCH   5   6
ENDBRANCH   4   5
ENDBRANCH   3   4
ENDBRANCH   1   3
BRANCH   1   9
HETATM    9  C7  UNL     1     -33.598  16.776  -2.696  1.00 20.00     0.082 C 
BRANCH   9  10
HETATM   10  C10 UNL     1     -34.840  16.370  -1.888  1.00 20.00    -0.016 C 
HETATM   11  C2  UNL     1     -36.095  16.982  -2.513  1.00 20.00     0.010 C 
HETATM   12  C3  UNL     1     -34.724  16.810  -0.427  1.00 20.00     0.010 C 
ENDBRANCH   9  10
ENDBRANCH   1   9
TORSDOF 6
ENDMDL
MODEL 8
REMARK VINA RESULT:      -4.5     10.469     12.219
REMARK  6 active torsions:
REMARK  status: ('A' for Active; 'I' for Inactive)
REMARK    1  A    between atoms: C1_1  and  C6_6 
REMARK    2  A    between atoms: C1_1  and  C7_7 
REMARK    3  A    between atoms: C6_6  and  C8_8 
REMARK    4  A    between atoms: C7_7  and  C10_10 
REMARK    5  A    between atoms: C8_8  and  C9_9 
REMARK    6  A    between atoms: C9_9  and  C11_11 
ROOT
HETATM    1  C1  UNL     1     -35.024  13.703  -5.032  1.00 20.00     0.127 C 
HETATM    2  O12 UNL     1     -34.777  12.517  -4.817  1.00 20.00    -0.298 OA
ENDROOT
BRANCH   1   3
HETATM    3  C6  UNL     1     -34.992  14.296  -6.433  1.00 20.00     0.078 C 
BRANCH   3   4
HETATM    4  C8  UNL     1     -35.571  15.709  -6.486  1.00 20.00     0.008 C 
BRANCH   4   5
HETATM    5  C9  UNL     1     -34.485  16.740  -6.806  1.00 20.00     0.004 C 
BRANCH   5   6
HETATM    6  C11 UNL     1     -34.697  18.094  -6.102  1.00 20.00    -0.023 C 
HETATM    7  C4  UNL     1     -35.986  18.053  -5.278  1.00 20.00     0.009 C 
HETATM    8  C5  UNL     1     -33.521  18.474  -5.202  1.00 20.00     0.009 C 
ENDBRANCH   5   6
ENDBRANCH   4   5
ENDBRANCH   3   4
ENDBRANCH   1   3
BRANCH   1   9
HETATM    9  C7  UNL     1     -35.427  14.665  -3.922  1.00 20.00     0.082 C 
BRANCH   9  10
HETATM   10  C10 UNL     1     -34.297  14.973  -2.928  1.00 20.00    -0.016 C 
HETATM   11  C2  UNL     1     -34.662  16.194  -2.082  1.00 20.00     0.010 C 
HETATM   12  C3  UNL     1     -32.971  15.224  -3.650  1.00 20.00     0.010 C 
ENDBRANCH   9  10
ENDBRANCH   1   9
TORSDOF 6
ENDMDL
MODEL 9
REMARK VINA RESULT:      -4.4     10.198     11.964
REMARK  6 active torsions:
REMARK  status: ('A' for Active; 'I' for Inactive)
REMARK    1  A    between atoms: C1_1  and  C6_6 
REMARK    2  A    between atoms: C1_1  and  C7_7 
REMARK    3  A    between atoms: C6_6  and  C8_8 
REMARK    4  A    between atoms: C7_7  and  C10_10 
REMARK    5  A    between atoms: C8_8  and  C9_9 
REMARK    6  A    between atoms: C9_9  and  C11_11 
ROOT
HETATM    1  C1  UNL     1     -33.601  13.923  -3.760  1.00 20.00     0.127 C 
HETATM    2  O12 UNL     1     -32.828  12.971  -3.655  1.00 20.00    -0.298 OA
ENDROOT
BRANCH   1   3
HETATM    3  C6  UNL     1     -35.049  13.747  -4.190  1.00 20.00     0.078 C 
BRANCH   3   4
HETATM    4  C8  UNL     1     -35.238  13.909  -5.698  1.00 20.00     0.008 C 
BRANCH   4   5
HETATM    5  C9  UNL     1     -36.295  14.971  -6.013  1.00 20.00     0.004 C 
BRANCH   5   6
HETATM    6  C11 UNL     1     -35.783  16.093  -6.935  1.00 20.00    -0.023 C 
HETATM    7  C4  UNL     1     -36.366  17.436  -6.491  1.00 20.00     0.009 C 
HETATM    8  C5  UNL     1     -34.256  16.177  -6.960  1.00 20.00     0.009 C 
ENDBRANCH   5   6
ENDBRANCH   4   5
ENDBRANCH   3   4
ENDBRANCH   1   3
BRANCH   1   9
HETATM    9  C7  UNL     1     -33.185  15.350  -3.424  1.00 20.00     0.082 C 
BRANCH   9  10
HETATM   10  C10 UNL     1     -34.355  16.256  -3.012  1.00 20.00    -0.016 C 
HETATM   11  C2  UNL     1     -34.129  17.674  -3.538  1.00 20.00     0.010 C 
HETATM   12  C3  UNL     1     -34.524  16.291  -1.491  1.00 20.00     0.010 C 
ENDBRANCH   9  10
ENDBRANCH   1   9
TORSDOF 6
ENDMDL
