MODEL 1
REMARK VINA RESULT:      -5.5      0.000      0.000
REMARK  4 active torsions:
REMARK  status: ('A' for Active; 'I' for Inactive)
REMARK    1  A    between atoms: C2_2  and  C8_8 
REMARK    2  A    between atoms: C3_3  and  C8_8 
REMARK    3  A    between atoms: C3_3  and  C9_9 
REMARK    4  A    between atoms: C6_6  and  C9_9 
ROOT
HETATM    1  C1  UNL     1     -32.156   8.693   1.694  1.00 20.00    -0.111 C 
HETATM    2  C2  UNL     1     -32.133   7.714   2.389  1.00 20.00    -0.100 C 
HETATM    3  C7  UNL     1     -32.183   9.887   0.849  1.00 20.00     0.112 C 
ENDROOT
BRANCH   2   4
HETATM    4  C8  UNL     1     -32.110   6.515   3.234  1.00 20.00     0.172 C 
BRANCH   4   5
HETATM    5  C3  UNL     1     -33.492   5.931   3.456  1.00 20.00     0.138 C 
HETATM    6  O10 UNL     1     -34.094   5.306   2.583  1.00 20.00    -0.297 OA
BRANCH   5   7
HETATM    7  C9  UNL     1     -34.087   6.167   4.832  1.00 20.00     0.083 C 
BRANCH   7   8
HETATM    8  C6  UNL     1     -35.119   5.156   5.226  1.00 20.00    -0.007 A 
HETATM    9  C4  UNL     1     -34.720   3.732   5.495  1.00 20.00     0.005 A 
HETATM   10  C5  UNL     1     -35.154   4.618   6.630  1.00 20.00     0.005 A 
ENDBRANCH   7   8
ENDBRANCH   5   7
ENDBRANCH   4   5
ENDBRANCH   2   4
TORSDOF 4
ENDMDL
MODEL 2
REMARK VINA RESULT:      -5.3      1.223      1.244
REMARK  4 active torsions:
REMARK  status: ('A' for Active; 'I' for Inactive)
REMARK    1  A    between atoms: C2_2  and  C8_8 
REMARK    2  A    between atoms: C3_3  and  C8_8 
REMARK    3  A    between atoms: C3_3  and  C9_9 
REMARK    4  A    between atoms: C6_6  and  C9_9 
ROOT
HETATM    1  C1  UNL     1     -32.233   8.426   1.859  1.00 20.00    -0.111 C 
HETATM    2  C2  UNL     1     -32.301   7.447   2.552  1.00 20.00    -0.100 C 
HETATM    3  C7  UNL     1     -32.148   9.618   1.015  1.00 20.00     0.112 C 
ENDROOT
BRANCH   2   4
HETATM    4  C8  UNL     1     -32.391   6.253   3.398  1.00 20.00     0.172 C 
BRANCH   4   5
HETATM    5  C3  UNL     1     -33.525   6.334   4.403  1.00 20.00     0.138 C 
HETATM    6  O10 UNL     1     -33.385   6.828   5.521  1.00 20.00    -0.297 OA
BRANCH   5   7
HETATM    7  C9  UNL     1     -34.853   5.763   3.936  1.00 20.00     0.083 C 
BRANCH   7   8
HETATM    8  C6  UNL     1     -35.324   4.592   4.741  1.00 20.00    -0.007 A 
HETATM    9  C4  UNL     1     -34.330   3.681   5.406  1.00 20.00     0.005 A 
HETATM   10  C5  UNL     1     -35.183   4.598   6.238  1.00 20.00     0.005 A 
ENDBRANCH   7   8
ENDBRANCH   5   7
ENDBRANCH   4   5
ENDBRANCH   2   4
TORSDOF 4
ENDMDL
MODEL 3
REMARK VINA RESULT:      -4.7      1.823      2.295
REMARK  4 active torsions:
REMARK  status: ('A' for Active; 'I' for Inactive)
REMARK    1  A    between atoms: C2_2  and  C8_8 
REMARK    2  A    between atoms: C3_3  and  C8_8 
REMARK    3  A    between atoms: C3_3  and  C9_9 
REMARK    4  A    between atoms: C6_6  and  C9_9 
ROOT
HETATM    1  C1  UNL     1     -32.206   6.914   3.430  1.00 20.00    -0.111 C 
HETATM    2  C2  UNL     1     -33.064   6.145   3.090  1.00 20.00    -0.100 C 
HETATM    3  C7  UNL     1     -31.160   7.849   3.843  1.00 20.00     0.112 C 
ENDROOT
BRANCH   2   4
HETATM    4  C8  UNL     1     -34.116   5.209   2.679  1.00 20.00     0.172 C 
BRANCH   4   5
HETATM    5  C3  UNL     1     -35.288   5.189   3.643  1.00 20.00     0.138 C 
HETATM    6  O10 UNL     1     -36.222   5.987   3.566  1.00 20.00    -0.297 OA
BRANCH   5   7
HETATM    7  C9  UNL     1     -35.233   4.114   4.714  1.00 20.00     0.083 C 
BRANCH   7   8
HETATM    8  C6  UNL     1     -35.036   4.650   6.098  1.00 20.00    -0.007 A 
HETATM    9  C4  UNL     1     -33.654   4.747   6.683  1.00 20.00     0.005 A 
HETATM   10  C5  UNL     1     -34.400   5.997   6.304  1.00 20.00     0.005 A 
ENDBRANCH   7   8
ENDBRANCH   5   7
ENDBRANCH   4   5
ENDBRANCH   2   4
TORSDOF 4
ENDMDL
MODEL 4
REMARK VINA RESULT:      -4.6     11.119     12.457
REMARK  4 active torsions:
REMARK  status: ('A' for Active; 'I' for Inactive)
REMARK    1  A    between atoms: C2_2  and  C8_8 
REMARK    2  A    between atoms: C3_3  and  C8_8 
REMARK    3  A    between atoms: C3_3  and  C9_9 
REMARK    4  A    between atoms: C6_6  and  C9_9 
ROOT
HETATM    1  C1  UNL     1     -34.272  16.391  -1.660  1.00 20.00    -0.111 C 
HETATM    2  C2  UNL     1     -33.857  15.954  -2.699  1.00 20.00    -0.100 C 
HETATM    3  C7  UNL     1     -34.776  16.922  -0.394  1.00 20.00     0.112 C 
ENDROOT
BRANCH   2   4
HETATM    4  C8  UNL     1     -33.356  15.423  -3.971  1.00 20.00     0.172 C 
BRANCH   4   5
HETATM    5  C3  UNL     1     -33.702  13.959  -4.169  1.00 20.00     0.138 C 
HETATM    6  O10 UNL     1     -33.153  13.057  -3.537  1.00 20.00    -0.297 OA
BRANCH   5   7
HETATM    7  C9  UNL     1     -34.777  13.677  -5.204  1.00 20.00     0.083 C 
BRANCH   7   8
HETATM    8  C6  UNL     1     -35.107  14.855  -6.068  1.00 20.00    -0.007 A 
HETATM    9  C4  UNL     1     -34.526  14.966  -7.451  1.00 20.00     0.005 A 
HETATM   10  C5  UNL     1     -35.993  14.685  -7.271  1.00 20.00     0.005 A 
ENDBRANCH   7   8
ENDBRANCH   5   7
ENDBRANCH   4   5
ENDBRANCH   2   4
TORSDOF 4
ENDMDL
MODEL 5
REMARK VINA RESULT:      -4.5      0.986      5.526
REMARK  4 active torsions:
REMARK  status: ('A' for Active; 'I' for Inactive)
REMARK    1  A    between atoms: C2_2  and  C8_8 
REMARK    2  A    between atoms: C3_3  and  C8_8 
REMARK    3  A    between atoms: C3_3  and  C9_9 
REMARK    4  A    between atoms: C6_6  and  C9_9 
ROOT
HETATM    1  C1  UNL     1     -34.783   5.072   5.441  1.00 20.00    -0.111 C 
HETATM    2  C2  UNL     1     -34.419   5.778   4.540  1.00 20.00    -0.100 C 
HETATM    3  C7  UNL     1     -35.225   4.215   6.540  1.00 20.00     0.112 C 
ENDROOT
BRANCH   2   4
HETATM    4  C8  UNL     1     -33.978   6.635   3.434  1.00 20.00     0.172 C 
BRANCH   4   5
HETATM    5  C3  UNL     1     -32.484   6.540   3.183  1.00 20.00     0.138 C 
HETATM    6  O10 UNL     1     -31.851   5.497   3.341  1.00 20.00    -0.297 OA
BRANCH   5   7
HETATM    7  C9  UNL     1     -31.818   7.824   2.719  1.00 20.00     0.083 C 
BRANCH   7   8
HETATM    8  C6  UNL     1     -32.575   8.544   1.647  1.00 20.00    -0.007 A 
HETATM    9  C4  UNL     1     -32.445  10.035   1.499  1.00 20.00     0.005 A 
HETATM   10  C5  UNL     1     -31.847   9.121   0.465  1.00 20.00     0.005 A 
ENDBRANCH   7   8
ENDBRANCH   5   7
ENDBRANCH   4   5
ENDBRANCH   2   4
TORSDOF 4
ENDMDL
MODEL 6
REMARK VINA RESULT:      -4.4     11.196     12.001
REMARK  4 active torsions:
REMARK  status: ('A' for Active; 'I' for Inactive)
REMARK    1  A    between atoms: C2_2  and  C8_8 
REMARK    2  A    between atoms: C3_3  and  C8_8 
REMARK    3  A    between atoms: C3_3  and  C9_9 
REMARK    4  A    between atoms: C6_6  and  C9_9 
ROOT
HETATM    1  C1  UNL     1     -34.325  16.063  -1.980  1.00 20.00    -0.111 C 
HETATM    2  C2  UNL     1     -33.929  15.294  -2.813  1.00 20.00    -0.100 C 
HETATM    3  C7  UNL     1     -34.807  16.999  -0.965  1.00 20.00     0.112 C 
ENDROOT
BRANCH   2   4
HETATM    4  C8  UNL     1     -33.446  14.359  -3.835  1.00 20.00     0.172 C 
BRANCH   4   5
HETATM    5  C3  UNL     1     -34.566  13.805  -4.696  1.00 20.00     0.138 C 
HETATM    6  O10 UNL     1     -34.886  12.617  -4.682  1.00 20.00    -0.297 OA
BRANCH   5   7
HETATM    7  C9  UNL     1     -35.271  14.819  -5.580  1.00 20.00     0.083 C 
BRANCH   7   8
HETATM    8  C6  UNL     1     -36.728  14.977  -5.274  1.00 20.00    -0.007 A 
HETATM    9  C4  UNL     1     -37.238  14.755  -3.877  1.00 20.00     0.005 A 
HETATM   10  C5  UNL     1     -37.207  16.143  -4.455  1.00 20.00     0.005 A 
ENDBRANCH   7   8
ENDBRANCH   5   7
ENDBRANCH   4   5
ENDBRANCH   2   4
TORSDOF 4
ENDMDL
MODEL 7
REMARK VINA RESULT:      -4.3     11.021     12.434
REMARK  4 active torsions:
REMARK  status: ('A' for Active; 'I' for Inactive)
REMARK    1  A    between atoms: C2_2  and  C8_8 
REMARK    2  A    between atoms: C3_3  and  C8_8 
REMARK    3  A    between atoms: C3_3  and  C9_9 
REMARK    4  A    between atoms: C6_6  and  C9_9 
ROOT
HETATM    1  C1  UNL     1     -34.253  16.833  -6.398  1.00 20.00    -0.111 C 
HETATM    2  C2  UNL     1     -34.488  15.658  -6.315  1.00 20.00    -0.100 C 
HETATM    3  C7  UNL     1     -33.968  18.264  -6.499  1.00 20.00     0.112 C 
ENDROOT
BRANCH   2   4
HETATM    4  C8  UNL     1     -34.769  14.222  -6.215  1.00 20.00     0.172 C 
BRANCH   4   5
HETATM    5  C3  UNL     1     -34.516  13.673  -4.823  1.00 20.00     0.138 C 
HETATM    6  O10 UNL     1     -35.080  12.667  -4.395  1.00 20.00    -0.297 OA
BRANCH   5   7
HETATM    7  C9  UNL     1     -33.515  14.451  -3.987  1.00 20.00     0.083 C 
BRANCH   7   8
HETATM    8  C6  UNL     1     -34.089  15.014  -2.725  1.00 20.00    -0.007 A 
HETATM    9  C4  UNL     1     -34.026  16.493  -2.457  1.00 20.00     0.005 A 
HETATM   10  C5  UNL     1     -35.345  15.840  -2.768  1.00 20.00     0.005 A 
ENDBRANCH   7   8
ENDBRANCH   5   7
ENDBRANCH   4   5
ENDBRANCH   2   4
TORSDOF 4
ENDMDL
MODEL 8
REMARK VINA RESULT:      -4.3     10.999     11.959
REMARK  4 active torsions:
REMARK  status: ('A' for Active; 'I' for Inactive)
REMARK    1  A    between atoms: C2_2  and  C8_8 
REMARK    2  A    between atoms: C3_3  and  C8_8 
REMARK    3  A    between atoms: C3_3  and  C9_9 
REMARK    4  A    between atoms: C6_6  and  C9_9 
ROOT
HETATM    1  C1  UNL     1     -37.354  14.940  -3.829  1.00 20.00    -0.111 C 
HETATM    2  C2  UNL     1     -36.417  14.236  -4.092  1.00 20.00    -0.100 C 
HETATM    3  C7  UNL     1     -38.497  15.794  -3.508  1.00 20.00     0.112 C 
ENDROOT
BRANCH   2   4
HETATM    4  C8  UNL     1     -35.269  13.383  -4.418  1.00 20.00     0.172 C 
BRANCH   4   5
HETATM    5  C3  UNL     1     -33.952  13.969  -3.944  1.00 20.00     0.138 C 
HETATM    6  O10 UNL     1     -33.013  13.268  -3.568  1.00 20.00    -0.297 OA
BRANCH   5   7
HETATM    7  C9  UNL     1     -33.868  15.485  -3.965  1.00 20.00     0.083 C 
BRANCH   7   8
HETATM    8  C6  UNL     1     -33.565  16.091  -2.630  1.00 20.00    -0.007 A 
HETATM    9  C4  UNL     1     -34.106  17.448  -2.274  1.00 20.00     0.005 A 
HETATM   10  C5  UNL     1     -34.647  16.221  -1.595  1.00 20.00     0.005 A 
ENDBRANCH   7   8
ENDBRANCH   5   7
ENDBRANCH   4   5
ENDBRANCH   2   4
TORSDOF 4
ENDMDL
MODEL 9
REMARK VINA RESULT:      -4.2     11.508     12.535
REMARK  4 active torsions:
REMARK  status: ('A' for Active; 'I' for Inactive)
REMARK    1  A    between atoms: C2_2  and  C8_8 
REMARK    2  A    between atoms: C3_3  and  C8_8 
REMARK    3  A    between atoms: C3_3  and  C9_9 
REMARK    4  A    between atoms: C6_6  and  C9_9 
ROOT
HETATM    1  C1  UNL     1     -34.722  16.736  -0.667  1.00 20.00    -0.111 C 
HETATM    2  C2  UNL     1     -34.502  16.149  -1.691  1.00 20.00    -0.100 C 
HETATM    3  C7  UNL     1     -34.988  17.451   0.582  1.00 20.00     0.112 C 
ENDROOT
BRANCH   2   4
HETATM    4  C8  UNL     1     -34.241  15.434  -2.945  1.00 20.00     0.172 C 
BRANCH   4   5
HETATM    5  C3  UNL     1     -35.509  14.914  -3.596  1.00 20.00     0.138 C 
HETATM    6  O10 UNL     1     -36.631  15.272  -3.239  1.00 20.00    -0.297 OA
BRANCH   5   7
HETATM    7  C9  UNL     1     -35.303  13.919  -4.723  1.00 20.00     0.083 C 
BRANCH   7   8
HETATM    8  C6  UNL     1     -34.569  14.482  -5.900  1.00 20.00    -0.007 A 
HETATM    9  C4  UNL     1     -35.186  14.436  -7.271  1.00 20.00     0.005 A 
HETATM   10  C5  UNL     1     -35.045  15.750  -6.552  1.00 20.00     0.005 A 
ENDBRANCH   7   8
ENDBRANCH   5   7
ENDBRANCH   4   5
ENDBRANCH   2   4
TORSDOF 4
ENDMDL
