MODEL 1
REMARK VINA RESULT:      -4.1      0.000      0.000
REMARK  5 active torsions:
REMARK  status: ('A' for Active; 'I' for Inactive)
REMARK    1  A    between atoms: C1_1  and  C7_7 
REMARK    2  A    between atoms: C1_1  and  C9_9 
REMARK    3  A    between atoms: C4_4  and  C9_9 
REMARK    4  A    between atoms: C8_8  and  C9_9 
REMARK    5  A    between atoms: C8_8  and  O11_11 
ROOT
HETATM    1  C9  UNL     1     -35.738  14.941  -3.386  1.00 20.00     0.083 C 
ENDROOT
BRANCH   1   2
HETATM    2  C1  UNL     1     -35.591  16.267  -2.634  1.00 20.00     0.133 C 
HETATM    3  O10 UNL     1     -36.403  17.182  -2.771  1.00 20.00    -0.297 OA
BRANCH   2   4
HETATM    4  C7  UNL     1     -34.372  16.408  -1.733  1.00 20.00     0.074 C 
HETATM    5  C5  UNL     1     -34.726  16.955  -0.361  1.00 20.00     0.013 C 
ENDBRANCH   2   4
ENDBRANCH   1   2
BRANCH   1   6
HETATM    6  C4  UNL     1     -34.511  14.628  -4.206  1.00 20.00    -0.001 A 
HETATM    7  C2  UNL     1     -33.592  13.509  -3.798  1.00 20.00     0.006 A 
HETATM    8  C3  UNL     1     -34.450  13.368  -5.025  1.00 20.00     0.006 A 
ENDBRANCH   1   6
BRANCH   1   9
HETATM    9  C8  UNL     1     -36.984  14.978  -4.275  1.00 20.00     0.179 C 
BRANCH   9  10
HETATM   10  O11 UNL     1     -38.044  14.274  -3.639  1.00 20.00    -0.395 OA
HETATM   11  C6  UNL     1     -39.266  14.994  -3.717  1.00 20.00     0.201 C 
ENDBRANCH   9  10
ENDBRANCH   1   9
TORSDOF 5
ENDMDL
MODEL 2
REMARK VINA RESULT:      -4.1      1.764      3.686
REMARK  5 active torsions:
REMARK  status: ('A' for Active; 'I' for Inactive)
REMARK    1  A    between atoms: C1_1  and  C7_7 
REMARK    2  A    between atoms: C1_1  and  C9_9 
REMARK    3  A    between atoms: C4_4  and  C9_9 
REMARK    4  A    between atoms: C8_8  and  C9_9 
REMARK    5  A    between atoms: C8_8  and  O11_11 
ROOT
HETATM    1  C9  UNL     1     -35.451  15.051  -4.032  1.00 20.00     0.083 C 
ENDROOT
BRANCH   1   2
HETATM    2  C1  UNL     1     -35.140  13.817  -4.885  1.00 20.00     0.133 C 
HETATM    3  O10 UNL     1     -35.020  12.698  -4.384  1.00 20.00    -0.297 OA
BRANCH   2   4
HETATM    4  C7  UNL     1     -34.955  14.050  -6.377  1.00 20.00     0.074 C 
HETATM    5  C5  UNL     1     -34.338  15.403  -6.681  1.00 20.00     0.013 C 
ENDBRANCH   2   4
ENDBRANCH   1   2
BRANCH   1   6
HETATM    6  C4  UNL     1     -34.522  15.157  -2.849  1.00 20.00    -0.001 A 
HETATM    7  C2  UNL     1     -33.627  16.356  -2.693  1.00 20.00     0.006 A 
HETATM    8  C3  UNL     1     -34.791  16.161  -1.762  1.00 20.00     0.006 A 
ENDBRANCH   1   6
BRANCH   1   9
HETATM    9  C8  UNL     1     -36.910  15.013  -3.568  1.00 20.00     0.179 C 
BRANCH   9  10
HETATM   10  O11 UNL     1     -37.719  15.748  -4.480  1.00 20.00    -0.395 OA
HETATM   11  C6  UNL     1     -37.179  17.038  -4.729  1.00 20.00     0.201 C 
ENDBRANCH   9  10
ENDBRANCH   1   9
TORSDOF 5
ENDMDL
MODEL 3
REMARK VINA RESULT:      -4.1      2.048      4.339
REMARK  5 active torsions:
REMARK  status: ('A' for Active; 'I' for Inactive)
REMARK    1  A    between atoms: C1_1  and  C7_7 
REMARK    2  A    between atoms: C1_1  and  C9_9 
REMARK    3  A    between atoms: C4_4  and  C9_9 
REMARK    4  A    between atoms: C8_8  and  C9_9 
REMARK    5  A    between atoms: C8_8  and  O11_11 
ROOT
HETATM    1  C9  UNL     1     -34.092  15.098  -2.962  1.00 20.00     0.083 C 
ENDROOT
BRANCH   1   2
HETATM    2  C1  UNL     1     -35.132  14.202  -3.641  1.00 20.00     0.133 C 
HETATM    3  O10 UNL     1     -34.834  13.098  -4.100  1.00 20.00    -0.297 OA
BRANCH   2   4
HETATM    4  C7  UNL     1     -36.544  14.758  -3.749  1.00 20.00     0.074 C 
HETATM    5  C5  UNL     1     -36.933  15.079  -5.182  1.00 20.00     0.013 C 
ENDBRANCH   2   4
ENDBRANCH   1   2
BRANCH   1   6
HETATM    6  C4  UNL     1     -34.731  16.309  -2.328  1.00 20.00    -0.001 A 
HETATM    7  C2  UNL     1     -34.654  16.516  -0.841  1.00 20.00     0.006 A 
HETATM    8  C3  UNL     1     -33.875  17.409  -1.766  1.00 20.00     0.006 A 
ENDBRANCH   1   6
BRANCH   1   9
HETATM    9  C8  UNL     1     -33.024  15.521  -3.974  1.00 20.00     0.179 C 
BRANCH   9  10
HETATM   10  O11 UNL     1     -33.645  15.873  -5.204  1.00 20.00    -0.395 OA
HETATM   11  C6  UNL     1     -33.491  17.257  -5.486  1.00 20.00     0.201 C 
ENDBRANCH   9  10
ENDBRANCH   1   9
TORSDOF 5
ENDMDL
MODEL 4
REMARK VINA RESULT:      -4.0      1.548      3.542
REMARK  5 active torsions:
REMARK  status: ('A' for Active; 'I' for Inactive)
REMARK    1  A    between atoms: C1_1  and  C7_7 
REMARK    2  A    between atoms: C1_1  and  C9_9 
REMARK    3  A    between atoms: C4_4  and  C9_9 
REMARK    4  A    between atoms: C8_8  and  C9_9 
REMARK    5  A    between atoms: C8_8  and  O11_11 
ROOT
HETATM    1  C9  UNL     1     -34.661  16.892  -3.031  1.00 20.00     0.083 C 
ENDROOT
BRANCH   1   2
HETATM    2  C1  UNL     1     -33.934  16.112  -4.129  1.00 20.00     0.133 C 
HETATM    3  O10 UNL     1     -34.177  16.295  -5.323  1.00 20.00    -0.297 OA
BRANCH   2   4
HETATM    4  C7  UNL     1     -32.918  15.076  -3.671  1.00 20.00     0.074 C 
HETATM    5  C5  UNL     1     -33.421  13.654  -3.843  1.00 20.00     0.013 C 
ENDBRANCH   2   4
ENDBRANCH   1   2
BRANCH   1   6
HETATM    6  C4  UNL     1     -34.108  16.574  -1.664  1.00 20.00    -0.001 A 
HETATM    7  C2  UNL     1     -33.555  17.671  -0.796  1.00 20.00     0.006 A 
HETATM    8  C3  UNL     1     -34.851  17.002  -0.429  1.00 20.00     0.006 A 
ENDBRANCH   1   6
BRANCH   1   9
HETATM    9  C8  UNL     1     -36.163  16.598  -3.086  1.00 20.00     0.179 C 
BRANCH   9  10
HETATM   10  O11 UNL     1     -36.373  15.191  -3.061  1.00 20.00    -0.395 OA
HETATM   11  C6  UNL     1     -37.443  14.810  -3.915  1.00 20.00     0.201 C 
ENDBRANCH   9  10
ENDBRANCH   1   9
TORSDOF 5
ENDMDL
MODEL 5
REMARK VINA RESULT:      -4.0      1.933      2.647
REMARK  5 active torsions:
REMARK  status: ('A' for Active; 'I' for Inactive)
REMARK    1  A    between atoms: C1_1  and  C7_7 
REMARK    2  A    between atoms: C1_1  and  C9_9 
REMARK    3  A    between atoms: C4_4  and  C9_9 
REMARK    4  A    between atoms: C8_8  and  C9_9 
REMARK    5  A    between atoms: C8_8  and  O11_11 
ROOT
HETATM    1  C9  UNL     1     -35.694  14.266  -4.658  1.00 20.00     0.083 C 
ENDROOT
BRANCH   1   2
HETATM    2  C1  UNL     1     -34.378  14.134  -3.887  1.00 20.00     0.133 C 
HETATM    3  O10 UNL     1     -34.059  13.085  -3.327  1.00 20.00    -0.297 OA
BRANCH   2   4
HETATM    4  C7  UNL     1     -33.500  15.375  -3.819  1.00 20.00     0.074 C 
HETATM    5  C5  UNL     1     -33.712  16.167  -2.541  1.00 20.00     0.013 C 
ENDBRANCH   2   4
ENDBRANCH   1   2
BRANCH   1   6
HETATM    6  C4  UNL     1     -35.521  15.079  -5.918  1.00 20.00    -0.001 A 
HETATM    7  C2  UNL     1     -35.386  14.393  -7.249  1.00 20.00     0.006 A 
HETATM    8  C3  UNL     1     -36.636  15.163  -6.923  1.00 20.00     0.006 A 
ENDBRANCH   1   6
BRANCH   1   9
HETATM    9  C8  UNL     1     -36.768  14.888  -3.760  1.00 20.00     0.179 C 
BRANCH   9  10
HETATM   10  O11 UNL     1     -37.939  14.081  -3.790  1.00 20.00    -0.395 OA
HETATM   11  C6  UNL     1     -39.101  14.860  -4.032  1.00 20.00     0.201 C 
ENDBRANCH   9  10
ENDBRANCH   1   9
TORSDOF 5
ENDMDL
MODEL 6
REMARK VINA RESULT:      -4.0      2.749      4.522
REMARK  5 active torsions:
REMARK  status: ('A' for Active; 'I' for Inactive)
REMARK    1  A    between atoms: C1_1  and  C7_7 
REMARK    2  A    between atoms: C1_1  and  C9_9 
REMARK    3  A    between atoms: C4_4  and  C9_9 
REMARK    4  A    between atoms: C8_8  and  C9_9 
REMARK    5  A    between atoms: C8_8  and  O11_11 
ROOT
HETATM    1  C9  UNL     1     -33.770  16.291  -2.917  1.00 20.00     0.083 C 
ENDROOT
BRANCH   1   2
HETATM    2  C1  UNL     1     -33.380  14.882  -3.375  1.00 20.00     0.133 C 
HETATM    3  O10 UNL     1     -32.207  14.573  -3.588  1.00 20.00    -0.297 OA
BRANCH   2   4
HETATM    4  C7  UNL     1     -34.517  13.895  -3.586  1.00 20.00     0.074 C 
HETATM    5  C5  UNL     1     -34.549  13.339  -4.999  1.00 20.00     0.013 C 
ENDBRANCH   2   4
ENDBRANCH   1   2
BRANCH   1   6
HETATM    6  C4  UNL     1     -34.747  16.250  -1.768  1.00 20.00    -0.001 A 
HETATM    7  C2  UNL     1     -34.442  16.977  -0.487  1.00 20.00     0.006 A 
HETATM    8  C3  UNL     1     -35.529  17.479  -1.396  1.00 20.00     0.006 A 
ENDBRANCH   1   6
BRANCH   1   9
HETATM    9  C8  UNL     1     -34.353  17.082  -4.091  1.00 20.00     0.179 C 
BRANCH   9  10
HETATM   10  O11 UNL     1     -33.474  16.994  -5.207  1.00 20.00    -0.395 OA
HETATM   11  C6  UNL     1     -34.192  16.842  -6.423  1.00 20.00     0.201 C 
ENDBRANCH   9  10
ENDBRANCH   1   9
TORSDOF 5
ENDMDL
MODEL 7
REMARK VINA RESULT:      -4.0      2.508      3.089
REMARK  5 active torsions:
REMARK  status: ('A' for Active; 'I' for Inactive)
REMARK    1  A    between atoms: C1_1  and  C7_7 
REMARK    2  A    between atoms: C1_1  and  C9_9 
REMARK    3  A    between atoms: C4_4  and  C9_9 
REMARK    4  A    between atoms: C8_8  and  C9_9 
REMARK    5  A    between atoms: C8_8  and  O11_11 
ROOT
HETATM    1  C9  UNL     1     -34.322  16.073  -3.701  1.00 20.00     0.083 C 
ENDROOT
BRANCH   1   2
HETATM    2  C1  UNL     1     -34.150  16.970  -2.472  1.00 20.00     0.133 C 
HETATM    3  O10 UNL     1     -33.605  18.073  -2.546  1.00 20.00    -0.297 OA
BRANCH   2   4
HETATM    4  C7  UNL     1     -34.659  16.419  -1.149  1.00 20.00     0.074 C 
HETATM    5  C5  UNL     1     -34.568  17.435  -0.023  1.00 20.00     0.013 C 
ENDBRANCH   2   4
ENDBRANCH   1   2
BRANCH   1   6
HETATM    6  C4  UNL     1     -34.427  14.618  -3.316  1.00 20.00    -0.001 A 
HETATM    7  C2  UNL     1     -35.378  13.708  -4.043  1.00 20.00     0.006 A 
HETATM    8  C3  UNL     1     -33.895  13.553  -4.234  1.00 20.00     0.006 A 
ENDBRANCH   1   6
BRANCH   1   9
HETATM    9  C8  UNL     1     -33.159  16.290  -4.674  1.00 20.00     0.179 C 
BRANCH   9  10
HETATM   10  O11 UNL     1     -33.603  17.067  -5.780  1.00 20.00    -0.395 OA
HETATM   11  C6  UNL     1     -34.263  16.265  -6.748  1.00 20.00     0.201 C 
ENDBRANCH   9  10
ENDBRANCH   1   9
TORSDOF 5
ENDMDL
MODEL 8
REMARK VINA RESULT:      -4.0      2.003      3.944
REMARK  5 active torsions:
REMARK  status: ('A' for Active; 'I' for Inactive)
REMARK    1  A    between atoms: C1_1  and  C7_7 
REMARK    2  A    between atoms: C1_1  and  C9_9 
REMARK    3  A    between atoms: C4_4  and  C9_9 
REMARK    4  A    between atoms: C8_8  and  C9_9 
REMARK    5  A    between atoms: C8_8  and  O11_11 
ROOT
HETATM    1  C9  UNL     1     -34.392  16.865  -3.115  1.00 20.00     0.083 C 
ENDROOT
BRANCH   1   2
HETATM    2  C1  UNL     1     -33.539  16.137  -4.158  1.00 20.00     0.133 C 
HETATM    3  O10 UNL     1     -32.728  15.267  -3.838  1.00 20.00    -0.297 OA
BRANCH   2   4
HETATM    4  C7  UNL     1     -33.722  16.564  -5.607  1.00 20.00     0.074 C 
HETATM    5  C5  UNL     1     -34.231  15.434  -6.485  1.00 20.00     0.013 C 
ENDBRANCH   2   4
ENDBRANCH   1   2
BRANCH   1   6
HETATM    6  C4  UNL     1     -33.903  16.597  -1.713  1.00 20.00    -0.001 A 
HETATM    7  C2  UNL     1     -33.513  17.739  -0.815  1.00 20.00     0.006 A 
HETATM    8  C3  UNL     1     -34.762  16.953  -0.532  1.00 20.00     0.006 A 
ENDBRANCH   1   6
BRANCH   1   9
HETATM    9  C8  UNL     1     -35.860  16.456  -3.260  1.00 20.00     0.179 C 
BRANCH   9  10
HETATM   10  O11 UNL     1     -35.964  15.037  -3.238  1.00 20.00    -0.395 OA
HETATM   11  C6  UNL     1     -37.042  14.583  -4.044  1.00 20.00     0.201 C 
ENDBRANCH   9  10
ENDBRANCH   1   9
TORSDOF 5
ENDMDL
MODEL 9
REMARK VINA RESULT:      -4.0      1.669      4.023
REMARK  5 active torsions:
REMARK  status: ('A' for Active; 'I' for Inactive)
REMARK    1  A    between atoms: C1_1  and  C7_7 
REMARK    2  A    between atoms: C1_1  and  C9_9 
REMARK    3  A    between atoms: C4_4  and  C9_9 
REMARK    4  A    between atoms: C8_8  and  C9_9 
REMARK    5  A    between atoms: C8_8  and  O11_11 
ROOT
HETATM    1  C9  UNL     1     -35.304  15.766  -3.692  1.00 20.00     0.083 C 
ENDROOT
BRANCH   1   2
HETATM    2  C1  UNL     1     -35.924  14.386  -3.931  1.00 20.00     0.133 C 
HETATM    3  O10 UNL     1     -37.133  14.188  -3.797  1.00 20.00    -0.297 OA
BRANCH   2   4
HETATM    4  C7  UNL     1     -34.969  13.265  -4.312  1.00 20.00     0.074 C 
HETATM    5  C5  UNL     1     -33.541  13.548  -3.877  1.00 20.00     0.013 C 
ENDBRANCH   2   4
ENDBRANCH   1   2
BRANCH   1   6
HETATM    6  C4  UNL     1     -35.647  16.299  -2.323  1.00 20.00    -0.001 A 
HETATM    7  C2  UNL     1     -34.581  16.425  -1.269  1.00 20.00     0.006 A 
HETATM    8  C3  UNL     1     -35.165  17.659  -1.899  1.00 20.00     0.006 A 
ENDBRANCH   1   6
BRANCH   1   9
HETATM    9  C8  UNL     1     -35.760  16.742  -4.780  1.00 20.00     0.179 C 
BRANCH   9  10
HETATM   10  O11 UNL     1     -34.768  16.820  -5.796  1.00 20.00    -0.395 OA
HETATM   11  C6  UNL     1     -33.477  17.044  -5.247  1.00 20.00     0.201 C 
ENDBRANCH   9  10
ENDBRANCH   1   9
TORSDOF 5
ENDMDL
