MODEL 1
REMARK VINA RESULT:      -5.1      0.000      0.000
REMARK  3 active torsions:
REMARK  status: ('A' for Active; 'I' for Inactive)
REMARK    1  A    between atoms: C3_3  and  C7_7 
REMARK    2  A    between atoms: C3_3  and  C8_8 
REMARK    3  A    between atoms: C6_6  and  C8_8 
ROOT
HETATM    1  C1  UNL     1     -33.477   7.355   6.734  1.00 20.00     0.012 C 
HETATM    2  C2  UNL     1     -34.087   6.338   6.548  1.00 20.00    -0.110 C 
HETATM    3  C7  UNL     1     -34.833   5.094   6.328  1.00 20.00     0.171 C 
ENDROOT
BRANCH   3   4
HETATM    4  C3  UNL     1     -34.927   4.722   4.860  1.00 20.00     0.138 C 
HETATM    5  O9  UNL     1     -35.052   3.558   4.479  1.00 20.00    -0.297 OA
BRANCH   4   6
HETATM    6  C8  UNL     1     -34.855   5.884   3.885  1.00 20.00     0.083 C 
BRANCH   6   7
HETATM    7  C6  UNL     1     -33.682   5.824   2.959  1.00 20.00    -0.007 A 
HETATM    8  C4  UNL     1     -32.809   7.033   2.762  1.00 20.00     0.005 A 
HETATM    9  C5  UNL     1     -32.283   5.839   3.510  1.00 20.00     0.005 A 
ENDBRANCH   6   7
ENDBRANCH   4   6
ENDBRANCH   3   4
TORSDOF 3
ENDMDL
MODEL 2
REMARK VINA RESULT:      -5.1      1.657      4.058
REMARK  3 active torsions:
REMARK  status: ('A' for Active; 'I' for Inactive)
REMARK    1  A    between atoms: C3_3  and  C7_7 
REMARK    2  A    between atoms: C3_3  and  C8_8 
REMARK    3  A    between atoms: C6_6  and  C8_8 
ROOT
HETATM    1  C1  UNL     1     -32.168   8.817   1.207  1.00 20.00     0.012 C 
HETATM    2  C2  UNL     1     -32.053   8.104   2.166  1.00 20.00    -0.110 C 
HETATM    3  C7  UNL     1     -31.904   7.236   3.339  1.00 20.00     0.171 C 
ENDROOT
BRANCH   3   4
HETATM    4  C3  UNL     1     -33.085   6.301   3.527  1.00 20.00     0.138 C 
HETATM    5  O9  UNL     1     -33.572   5.656   2.599  1.00 20.00    -0.297 OA
BRANCH   4   6
HETATM    6  C8  UNL     1     -33.632   6.215   4.941  1.00 20.00     0.083 C 
BRANCH   6   7
HETATM    7  C6  UNL     1     -34.842   5.345   5.069  1.00 20.00    -0.007 A 
HETATM    8  C4  UNL     1     -34.695   3.882   5.381  1.00 20.00     0.005 A 
HETATM    9  C5  UNL     1     -35.257   4.818   6.414  1.00 20.00     0.005 A 
ENDBRANCH   6   7
ENDBRANCH   4   6
ENDBRANCH   3   4
TORSDOF 3
ENDMDL
MODEL 3
REMARK VINA RESULT:      -4.7      1.841      2.869
REMARK  3 active torsions:
REMARK  status: ('A' for Active; 'I' for Inactive)
REMARK    1  A    between atoms: C3_3  and  C7_7 
REMARK    2  A    between atoms: C3_3  and  C8_8 
REMARK    3  A    between atoms: C6_6  and  C8_8 
ROOT
HETATM    1  C1  UNL     1     -35.025   4.341   5.904  1.00 20.00     0.012 C 
HETATM    2  C2  UNL     1     -34.434   5.297   5.483  1.00 20.00    -0.110 C 
HETATM    3  C7  UNL     1     -33.711   6.469   4.975  1.00 20.00     0.171 C 
ENDROOT
BRANCH   3   4
HETATM    4  C3  UNL     1     -33.306   6.319   3.520  1.00 20.00     0.138 C 
HETATM    5  O9  UNL     1     -33.825   5.493   2.770  1.00 20.00    -0.297 OA
BRANCH   4   6
HETATM    6  C8  UNL     1     -32.210   7.258   3.047  1.00 20.00     0.083 C 
BRANCH   6   7
HETATM    7  C6  UNL     1     -32.569   8.036   1.821  1.00 20.00    -0.007 A 
HETATM    8  C4  UNL     1     -32.490   9.538   1.826  1.00 20.00     0.005 A 
HETATM    9  C5  UNL     1     -31.500   8.736   1.029  1.00 20.00     0.005 A 
ENDBRANCH   6   7
ENDBRANCH   4   6
ENDBRANCH   3   4
TORSDOF 3
ENDMDL
MODEL 4
REMARK VINA RESULT:      -4.7      1.108      1.519
REMARK  3 active torsions:
REMARK  status: ('A' for Active; 'I' for Inactive)
REMARK    1  A    between atoms: C3_3  and  C7_7 
REMARK    2  A    between atoms: C3_3  and  C8_8 
REMARK    3  A    between atoms: C6_6  and  C8_8 
ROOT
HETATM    1  C1  UNL     1     -33.833   6.986   6.883  1.00 20.00     0.012 C 
HETATM    2  C2  UNL     1     -34.233   6.103   6.175  1.00 20.00    -0.110 C 
HETATM    3  C7  UNL     1     -34.722   5.019   5.315  1.00 20.00     0.171 C 
ENDROOT
BRANCH   3   4
HETATM    4  C3  UNL     1     -34.877   5.447   3.867  1.00 20.00     0.138 C 
HETATM    5  O9  UNL     1     -35.977   5.603   3.338  1.00 20.00    -0.297 OA
BRANCH   4   6
HETATM    6  C8  UNL     1     -33.580   5.671   3.109  1.00 20.00     0.083 C 
BRANCH   6   7
HETATM    7  C6  UNL     1     -33.040   7.060   3.233  1.00 20.00    -0.007 A 
HETATM    8  C4  UNL     1     -31.590   7.284   3.564  1.00 20.00     0.005 A 
HETATM    9  C5  UNL     1     -32.106   7.605   2.189  1.00 20.00     0.005 A 
ENDBRANCH   6   7
ENDBRANCH   4   6
ENDBRANCH   3   4
TORSDOF 3
ENDMDL
MODEL 5
REMARK VINA RESULT:      -4.6      1.811      3.966
REMARK  3 active torsions:
REMARK  status: ('A' for Active; 'I' for Inactive)
REMARK    1  A    between atoms: C3_3  and  C7_7 
REMARK    2  A    between atoms: C3_3  and  C8_8 
REMARK    3  A    between atoms: C6_6  and  C8_8 
ROOT
HETATM    1  C1  UNL     1     -32.105   8.843   1.606  1.00 20.00     0.012 C 
HETATM    2  C2  UNL     1     -32.092   7.811   2.219  1.00 20.00    -0.110 C 
HETATM    3  C7  UNL     1     -32.071   6.547   2.964  1.00 20.00     0.171 C 
ENDROOT
BRANCH   3   4
HETATM    4  C3  UNL     1     -33.182   6.458   3.994  1.00 20.00     0.138 C 
HETATM    5  O9  UNL     1     -33.146   7.069   5.061  1.00 20.00    -0.297 OA
BRANCH   4   6
HETATM    6  C8  UNL     1     -34.348   5.559   3.620  1.00 20.00     0.083 C 
BRANCH   6   7
HETATM    7  C6  UNL     1     -35.202   5.162   4.782  1.00 20.00    -0.007 A 
HETATM    8  C4  UNL     1     -35.110   3.774   5.351  1.00 20.00     0.005 A 
HETATM    9  C5  UNL     1     -34.583   4.943   6.135  1.00 20.00     0.005 A 
ENDBRANCH   6   7
ENDBRANCH   4   6
ENDBRANCH   3   4
TORSDOF 3
ENDMDL
MODEL 6
REMARK VINA RESULT:      -4.5      1.267      3.363
REMARK  3 active torsions:
REMARK  status: ('A' for Active; 'I' for Inactive)
REMARK    1  A    between atoms: C3_3  and  C7_7 
REMARK    2  A    between atoms: C3_3  and  C8_8 
REMARK    3  A    between atoms: C6_6  and  C8_8 
ROOT
HETATM    1  C1  UNL     1     -32.128   7.111   3.407  1.00 20.00     0.012 C 
HETATM    2  C2  UNL     1     -32.931   6.285   3.072  1.00 20.00    -0.110 C 
HETATM    3  C7  UNL     1     -33.910   5.273   2.657  1.00 20.00     0.171 C 
ENDROOT
BRANCH   3   4
HETATM    4  C3  UNL     1     -35.131   5.238   3.558  1.00 20.00     0.138 C 
HETATM    5  O9  UNL     1     -36.069   6.024   3.432  1.00 20.00    -0.297 OA
BRANCH   4   6
HETATM    6  C8  UNL     1     -35.119   4.164   4.633  1.00 20.00     0.083 C 
BRANCH   6   7
HETATM    7  C6  UNL     1     -35.058   4.705   6.026  1.00 20.00    -0.007 A 
HETATM    8  C4  UNL     1     -33.763   4.689   6.791  1.00 20.00     0.005 A 
HETATM    9  C5  UNL     1     -34.334   5.993   6.307  1.00 20.00     0.005 A 
ENDBRANCH   6   7
ENDBRANCH   4   6
ENDBRANCH   3   4
TORSDOF 3
ENDMDL
MODEL 7
REMARK VINA RESULT:      -4.4      1.876      2.718
REMARK  3 active torsions:
REMARK  status: ('A' for Active; 'I' for Inactive)
REMARK    1  A    between atoms: C3_3  and  C7_7 
REMARK    2  A    between atoms: C3_3  and  C8_8 
REMARK    3  A    between atoms: C6_6  and  C8_8 
ROOT
HETATM    1  C1  UNL     1     -34.954   3.573   4.828  1.00 20.00     0.012 C 
HETATM    2  C2  UNL     1     -34.839   4.455   5.634  1.00 20.00    -0.110 C 
HETATM    3  C7  UNL     1     -34.704   5.531   6.623  1.00 20.00     0.171 C 
ENDROOT
BRANCH   3   4
HETATM    4  C3  UNL     1     -33.826   6.668   6.133  1.00 20.00     0.138 C 
HETATM    5  O9  UNL     1     -33.143   7.352   6.894  1.00 20.00    -0.297 OA
BRANCH   4   6
HETATM    6  C8  UNL     1     -33.847   6.910   4.633  1.00 20.00     0.083 C 
BRANCH   6   7
HETATM    7  C6  UNL     1     -32.508   6.779   3.982  1.00 20.00    -0.007 A 
HETATM    8  C4  UNL     1     -32.340   5.921   2.758  1.00 20.00     0.005 A 
HETATM    9  C5  UNL     1     -32.251   7.417   2.645  1.00 20.00     0.005 A 
ENDBRANCH   6   7
ENDBRANCH   4   6
ENDBRANCH   3   4
TORSDOF 3
ENDMDL
MODEL 8
REMARK VINA RESULT:      -4.2     11.857     13.063
REMARK  3 active torsions:
REMARK  status: ('A' for Active; 'I' for Inactive)
REMARK    1  A    between atoms: C3_3  and  C7_7 
REMARK    2  A    between atoms: C3_3  and  C8_8 
REMARK    3  A    between atoms: C6_6  and  C8_8 
ROOT
HETATM    1  C1  UNL     1     -34.653  14.970  -7.100  1.00 20.00     0.012 C 
HETATM    2  C2  UNL     1     -34.720  14.334  -6.084  1.00 20.00    -0.110 C 
HETATM    3  C7  UNL     1     -34.808  13.556  -4.843  1.00 20.00     0.171 C 
ENDROOT
BRANCH   3   4
HETATM    4  C3  UNL     1     -33.643  13.815  -3.907  1.00 20.00     0.138 C 
HETATM    5  O9  UNL     1     -32.817  12.948  -3.621  1.00 20.00    -0.297 OA
BRANCH   4   6
HETATM    6  C8  UNL     1     -33.561  15.222  -3.339  1.00 20.00     0.083 C 
BRANCH   6   7
HETATM    7  C6  UNL     1     -34.698  15.576  -2.435  1.00 20.00    -0.007 A 
HETATM    8  C4  UNL     1     -34.493  16.540  -1.300  1.00 20.00     0.005 A 
HETATM    9  C5  UNL     1     -35.312  16.947  -2.493  1.00 20.00     0.005 A 
ENDBRANCH   6   7
ENDBRANCH   4   6
ENDBRANCH   3   4
TORSDOF 3
ENDMDL
MODEL 9
REMARK VINA RESULT:      -4.1     12.228     13.128
REMARK  3 active torsions:
REMARK  status: ('A' for Active; 'I' for Inactive)
REMARK    1  A    between atoms: C3_3  and  C7_7 
REMARK    2  A    between atoms: C3_3  and  C8_8 
REMARK    3  A    between atoms: C6_6  and  C8_8 
ROOT
HETATM    1  C1  UNL     1     -34.447  14.983  -6.751  1.00 20.00     0.012 C 
HETATM    2  C2  UNL     1     -34.847  14.430  -5.763  1.00 20.00    -0.110 C 
HETATM    3  C7  UNL     1     -35.331  13.749  -4.557  1.00 20.00     0.171 C 
ENDROOT
BRANCH   3   4
HETATM    4  C3  UNL     1     -36.413  14.533  -3.838  1.00 20.00     0.138 C 
HETATM    5  O9  UNL     1     -37.579  14.145  -3.773  1.00 20.00    -0.297 OA
BRANCH   4   6
HETATM    6  C8  UNL     1     -35.962  15.837  -3.202  1.00 20.00     0.083 C 
BRANCH   6   7
HETATM    7  C6  UNL     1     -34.771  15.694  -2.310  1.00 20.00    -0.007 A 
HETATM    8  C4  UNL     1     -33.759  16.802  -2.211  1.00 20.00     0.005 A 
HETATM    9  C5  UNL     1     -34.667  16.507  -1.050  1.00 20.00     0.005 A 
ENDBRANCH   6   7
ENDBRANCH   4   6
ENDBRANCH   3   4
TORSDOF 3
ENDMDL
