MODEL 1
REMARK VINA RESULT:      -5.4      0.000      0.000
REMARK  5 active torsions:
REMARK  status: ('A' for Active; 'I' for Inactive)
REMARK    1  A    between atoms: C2_2  and  C8_8 
REMARK    2  A    between atoms: C2_2  and  C9_9 
REMARK    3  A    between atoms: C3_3  and  C8_8 
REMARK    4  A    between atoms: C3_3  and  C10_10 
REMARK    5  A    between atoms: C6_6  and  C10_10 
ROOT
HETATM    1  C3  UNL     1     -32.620   6.429   3.484  1.00 20.00     0.131 C 
HETATM    2  O11 UNL     1     -32.013   5.369   3.337  1.00 20.00    -0.298 OA
ENDROOT
BRANCH   1   3
HETATM    3  C8  UNL     1     -34.014   6.497   4.097  1.00 20.00     0.111 C 
BRANCH   3   4
HETATM    4  C2  UNL     1     -33.995   6.187   5.571  1.00 20.00    -0.083 C 
HETATM    5  C1  UNL     1     -33.571   7.095   6.466  1.00 20.00     0.014 C 
BRANCH   4   6
HETATM    6  C9  UNL     1     -34.463   4.819   6.009  1.00 20.00     0.029 C 
HETATM    7  C7  UNL     1     -35.192   4.066   4.903  1.00 20.00     0.010 C 
ENDBRANCH   4   6
ENDBRANCH   3   4
ENDBRANCH   1   3
BRANCH   1   8
HETATM    8  C10 UNL     1     -32.008   7.765   3.104  1.00 20.00     0.083 C 
BRANCH   8   9
HETATM    9  C6  UNL     1     -32.566   8.349   1.845  1.00 20.00    -0.008 A 
HETATM   10  C4  UNL     1     -32.428   9.819   1.564  1.00 20.00     0.005 A 
HETATM   11  C5  UNL     1     -31.644   8.822   0.755  1.00 20.00     0.005 A 
ENDBRANCH   8   9
ENDBRANCH   1   8
TORSDOF 5
ENDMDL
MODEL 2
REMARK VINA RESULT:      -5.2      0.473      1.668
REMARK  5 active torsions:
REMARK  status: ('A' for Active; 'I' for Inactive)
REMARK    1  A    between atoms: C2_2  and  C8_8 
REMARK    2  A    between atoms: C2_2  and  C9_9 
REMARK    3  A    between atoms: C3_3  and  C8_8 
REMARK    4  A    between atoms: C3_3  and  C10_10 
REMARK    5  A    between atoms: C6_6  and  C10_10 
ROOT
HETATM    1  C3  UNL     1     -32.654   6.427   3.417  1.00 20.00     0.131 C 
HETATM    2  O11 UNL     1     -32.089   5.334   3.398  1.00 20.00    -0.298 OA
ENDROOT
BRANCH   1   3
HETATM    3  C8  UNL     1     -34.086   6.600   3.912  1.00 20.00     0.111 C 
BRANCH   3   4
HETATM    4  C2  UNL     1     -34.479   5.518   4.884  1.00 20.00    -0.083 C 
HETATM    5  C1  UNL     1     -35.138   4.423   4.473  1.00 20.00     0.014 C 
BRANCH   4   6
HETATM    6  C9  UNL     1     -34.110   5.710   6.337  1.00 20.00     0.029 C 
HETATM    7  C7  UNL     1     -33.707   7.143   6.657  1.00 20.00     0.010 C 
ENDBRANCH   4   6
ENDBRANCH   3   4
ENDBRANCH   1   3
BRANCH   1   8
HETATM    8  C10 UNL     1     -31.953   7.703   2.989  1.00 20.00     0.083 C 
BRANCH   8   9
HETATM    9  C6  UNL     1     -32.585   8.372   1.810  1.00 20.00    -0.008 A 
HETATM   10  C4  UNL     1     -32.417   9.851   1.595  1.00 20.00     0.005 A 
HETATM   11  C5  UNL     1     -31.733   8.876   0.678  1.00 20.00     0.005 A 
ENDBRANCH   8   9
ENDBRANCH   1   8
TORSDOF 5
ENDMDL
MODEL 3
REMARK VINA RESULT:      -4.9      1.243      4.990
REMARK  5 active torsions:
REMARK  status: ('A' for Active; 'I' for Inactive)
REMARK    1  A    between atoms: C2_2  and  C8_8 
REMARK    2  A    between atoms: C2_2  and  C9_9 
REMARK    3  A    between atoms: C3_3  and  C8_8 
REMARK    4  A    between atoms: C3_3  and  C10_10 
REMARK    5  A    between atoms: C6_6  and  C10_10 
ROOT
HETATM    1  C3  UNL     1     -33.622   5.757   3.179  1.00 20.00     0.131 C 
HETATM    2  O11 UNL     1     -34.330   5.237   2.318  1.00 20.00    -0.298 OA
ENDROOT
BRANCH   1   3
HETATM    3  C8  UNL     1     -32.145   6.063   2.951  1.00 20.00     0.111 C 
BRANCH   3   4
HETATM    4  C2  UNL     1     -31.840   7.527   3.135  1.00 20.00    -0.083 C 
HETATM    5  C1  UNL     1     -31.053   7.950   4.139  1.00 20.00     0.014 C 
BRANCH   4   6
HETATM    6  C9  UNL     1     -32.451   8.502   2.157  1.00 20.00     0.029 C 
HETATM    7  C7  UNL     1     -31.661   8.606   0.860  1.00 20.00     0.010 C 
ENDBRANCH   4   6
ENDBRANCH   3   4
ENDBRANCH   1   3
BRANCH   1   8
HETATM    8  C10 UNL     1     -34.174   6.178   4.529  1.00 20.00     0.083 C 
BRANCH   8   9
HETATM    9  C6  UNL     1     -35.151   5.207   5.112  1.00 20.00    -0.008 A 
HETATM   10  C4  UNL     1     -34.724   3.801   5.432  1.00 20.00     0.005 A 
HETATM   11  C5  UNL     1     -35.020   4.769   6.544  1.00 20.00     0.005 A 
ENDBRANCH   8   9
ENDBRANCH   1   8
TORSDOF 5
ENDMDL
MODEL 4
REMARK VINA RESULT:      -4.7      1.314      2.344
REMARK  5 active torsions:
REMARK  status: ('A' for Active; 'I' for Inactive)
REMARK    1  A    between atoms: C2_2  and  C8_8 
REMARK    2  A    between atoms: C2_2  and  C9_9 
REMARK    3  A    between atoms: C3_3  and  C8_8 
REMARK    4  A    between atoms: C3_3  and  C10_10 
REMARK    5  A    between atoms: C6_6  and  C10_10 
ROOT
HETATM    1  C3  UNL     1     -34.105   5.452   2.911  1.00 20.00     0.131 C 
HETATM    2  O11 UNL     1     -34.451   4.767   1.950  1.00 20.00    -0.298 OA
ENDROOT
BRANCH   1   3
HETATM    3  C8  UNL     1     -35.062   5.826   4.038  1.00 20.00     0.111 C 
BRANCH   3   4
HETATM    4  C2  UNL     1     -34.826   4.995   5.273  1.00 20.00    -0.083 C 
HETATM    5  C1  UNL     1     -34.793   3.654   5.210  1.00 20.00     0.014 C 
BRANCH   4   6
HETATM    6  C9  UNL     1     -34.634   5.722   6.584  1.00 20.00     0.029 C 
HETATM    7  C7  UNL     1     -33.686   6.907   6.464  1.00 20.00     0.010 C 
ENDBRANCH   4   6
ENDBRANCH   3   4
ENDBRANCH   1   3
BRANCH   1   8
HETATM    8  C10 UNL     1     -32.679   5.947   3.075  1.00 20.00     0.083 C 
BRANCH   8   9
HETATM    9  C6  UNL     1     -32.560   7.436   3.134  1.00 20.00    -0.008 A 
HETATM   10  C4  UNL     1     -31.224   8.081   3.382  1.00 20.00     0.005 A 
HETATM   11  C5  UNL     1     -31.870   8.186   2.028  1.00 20.00     0.005 A 
ENDBRANCH   8   9
ENDBRANCH   1   8
TORSDOF 5
ENDMDL
MODEL 5
REMARK VINA RESULT:      -4.6     10.627     12.739
REMARK  5 active torsions:
REMARK  status: ('A' for Active; 'I' for Inactive)
REMARK    1  A    between atoms: C2_2  and  C8_8 
REMARK    2  A    between atoms: C2_2  and  C9_9 
REMARK    3  A    between atoms: C3_3  and  C8_8 
REMARK    4  A    between atoms: C3_3  and  C10_10 
REMARK    5  A    between atoms: C6_6  and  C10_10 
ROOT
HETATM    1  C3  UNL     1     -34.957  13.699  -4.474  1.00 20.00     0.131 C 
HETATM    2  O11 UNL     1     -34.819  12.510  -4.759  1.00 20.00    -0.298 OA
ENDROOT
BRANCH   1   3
HETATM    3  C8  UNL     1     -35.824  14.644  -5.299  1.00 20.00     0.111 C 
BRANCH   3   4
HETATM    4  C2  UNL     1     -35.186  14.982  -6.621  1.00 20.00    -0.083 C 
HETATM    5  C1  UNL     1     -35.647  14.456  -7.768  1.00 20.00     0.014 C 
BRANCH   4   6
HETATM    6  C9  UNL     1     -34.009  15.928  -6.613  1.00 20.00     0.029 C 
HETATM    7  C7  UNL     1     -34.415  17.368  -6.329  1.00 20.00     0.010 C 
ENDBRANCH   4   6
ENDBRANCH   3   4
ENDBRANCH   1   3
BRANCH   1   8
HETATM    8  C10 UNL     1     -34.307  14.314  -3.248  1.00 20.00     0.083 C 
BRANCH   8   9
HETATM    9  C6  UNL     1     -34.809  15.685  -2.922  1.00 20.00    -0.008 A 
HETATM   10  C4  UNL     1     -34.655  16.239  -1.533  1.00 20.00     0.005 A 
HETATM   11  C5  UNL     1     -33.840  16.805  -2.663  1.00 20.00     0.005 A 
ENDBRANCH   8   9
ENDBRANCH   1   8
TORSDOF 5
ENDMDL
MODEL 6
REMARK VINA RESULT:      -4.6     10.577     11.762
REMARK  5 active torsions:
REMARK  status: ('A' for Active; 'I' for Inactive)
REMARK    1  A    between atoms: C2_2  and  C8_8 
REMARK    2  A    between atoms: C2_2  and  C9_9 
REMARK    3  A    between atoms: C3_3  and  C8_8 
REMARK    4  A    between atoms: C3_3  and  C10_10 
REMARK    5  A    between atoms: C6_6  and  C10_10 
ROOT
HETATM    1  C3  UNL     1     -33.867  13.904  -3.727  1.00 20.00     0.131 C 
HETATM    2  O11 UNL     1     -32.933  13.104  -3.749  1.00 20.00    -0.298 OA
ENDROOT
BRANCH   1   3
HETATM    3  C8  UNL     1     -35.263  13.549  -4.229  1.00 20.00     0.111 C 
BRANCH   3   4
HETATM    4  C2  UNL     1     -35.673  14.405  -5.399  1.00 20.00    -0.083 C 
HETATM    5  C1  UNL     1     -34.940  14.439  -6.524  1.00 20.00     0.014 C 
BRANCH   4   6
HETATM    6  C9  UNL     1     -36.935  15.225  -5.263  1.00 20.00     0.029 C 
HETATM    7  C7  UNL     1     -37.813  14.765  -4.107  1.00 20.00     0.010 C 
ENDBRANCH   4   6
ENDBRANCH   3   4
ENDBRANCH   1   3
BRANCH   1   8
HETATM    8  C10 UNL     1     -33.715  15.303  -3.157  1.00 20.00     0.083 C 
BRANCH   8   9
HETATM    9  C6  UNL     1     -34.782  15.674  -2.177  1.00 20.00    -0.008 A 
HETATM   10  C4  UNL     1     -34.485  16.635  -1.059  1.00 20.00     0.005 A 
HETATM   11  C5  UNL     1     -35.379  17.054  -2.193  1.00 20.00     0.005 A 
ENDBRANCH   8   9
ENDBRANCH   1   8
TORSDOF 5
ENDMDL
MODEL 7
REMARK VINA RESULT:      -4.6     10.838     12.122
REMARK  5 active torsions:
REMARK  status: ('A' for Active; 'I' for Inactive)
REMARK    1  A    between atoms: C2_2  and  C8_8 
REMARK    2  A    between atoms: C2_2  and  C9_9 
REMARK    3  A    between atoms: C3_3  and  C8_8 
REMARK    4  A    between atoms: C3_3  and  C10_10 
REMARK    5  A    between atoms: C6_6  and  C10_10 
ROOT
HETATM    1  C3  UNL     1     -34.058  14.080  -4.033  1.00 20.00     0.131 C 
HETATM    2  O11 UNL     1     -34.041  13.016  -3.414  1.00 20.00    -0.298 OA
ENDROOT
BRANCH   1   3
HETATM    3  C8  UNL     1     -33.134  15.243  -3.686  1.00 20.00     0.111 C 
BRANCH   3   4
HETATM    4  C2  UNL     1     -33.882  16.382  -3.045  1.00 20.00    -0.083 C 
HETATM    5  C1  UNL     1     -33.780  17.634  -3.520  1.00 20.00     0.014 C 
BRANCH   4   6
HETATM    6  C9  UNL     1     -34.748  16.069  -1.846  1.00 20.00     0.029 C 
HETATM    7  C7  UNL     1     -34.442  16.963  -0.652  1.00 20.00     0.010 C 
ENDBRANCH   4   6
ENDBRANCH   3   4
ENDBRANCH   1   3
BRANCH   1   8
HETATM    8  C10 UNL     1     -34.971  14.305  -5.224  1.00 20.00     0.083 C 
BRANCH   8   9
HETATM    9  C6  UNL     1     -34.280  14.892  -6.413  1.00 20.00    -0.008 A 
HETATM   10  C4  UNL     1     -34.951  14.890  -7.758  1.00 20.00     0.005 A 
HETATM   11  C5  UNL     1     -34.767  16.183  -7.012  1.00 20.00     0.005 A 
ENDBRANCH   8   9
ENDBRANCH   1   8
TORSDOF 5
ENDMDL
MODEL 8
REMARK VINA RESULT:      -4.6     10.842     12.161
REMARK  5 active torsions:
REMARK  status: ('A' for Active; 'I' for Inactive)
REMARK    1  A    between atoms: C2_2  and  C8_8 
REMARK    2  A    between atoms: C2_2  and  C9_9 
REMARK    3  A    between atoms: C3_3  and  C8_8 
REMARK    4  A    between atoms: C3_3  and  C10_10 
REMARK    5  A    between atoms: C6_6  and  C10_10 
ROOT
HETATM    1  C3  UNL     1     -36.342  14.409  -4.169  1.00 20.00     0.131 C 
HETATM    2  O11 UNL     1     -37.400  14.228  -3.568  1.00 20.00    -0.298 OA
ENDROOT
BRANCH   1   3
HETATM    3  C8  UNL     1     -34.998  13.940  -3.623  1.00 20.00     0.111 C 
BRANCH   3   4
HETATM    4  C2  UNL     1     -34.169  15.087  -3.108  1.00 20.00    -0.083 C 
HETATM    5  C1  UNL     1     -32.916  15.289  -3.549  1.00 20.00     0.014 C 
BRANCH   4   6
HETATM    6  C9  UNL     1     -34.792  15.999  -2.078  1.00 20.00     0.029 C 
HETATM    7  C7  UNL     1     -33.804  17.012  -1.516  1.00 20.00     0.010 C 
ENDBRANCH   4   6
ENDBRANCH   3   4
ENDBRANCH   1   3
BRANCH   1   8
HETATM    8  C10 UNL     1     -36.294  15.080  -5.530  1.00 20.00     0.083 C 
BRANCH   8   9
HETATM    9  C6  UNL     1     -35.233  14.538  -6.433  1.00 20.00    -0.008 A 
HETATM   10  C4  UNL     1     -35.312  14.762  -7.918  1.00 20.00     0.005 A 
HETATM   11  C5  UNL     1     -34.262  15.469  -7.106  1.00 20.00     0.005 A 
ENDBRANCH   8   9
ENDBRANCH   1   8
TORSDOF 5
ENDMDL
MODEL 9
REMARK VINA RESULT:      -4.5     11.204     12.645
REMARK  5 active torsions:
REMARK  status: ('A' for Active; 'I' for Inactive)
REMARK    1  A    between atoms: C2_2  and  C8_8 
REMARK    2  A    between atoms: C2_2  and  C9_9 
REMARK    3  A    between atoms: C3_3  and  C8_8 
REMARK    4  A    between atoms: C3_3  and  C10_10 
REMARK    5  A    between atoms: C6_6  and  C10_10 
ROOT
HETATM    1  C3  UNL     1     -36.207  14.530  -3.817  1.00 20.00     0.131 C 
HETATM    2  O11 UNL     1     -37.324  14.014  -3.822  1.00 20.00    -0.298 OA
ENDROOT
BRANCH   1   3
HETATM    3  C8  UNL     1     -35.040  13.965  -4.620  1.00 20.00     0.111 C 
BRANCH   3   4
HETATM    4  C2  UNL     1     -34.838  14.706  -5.916  1.00 20.00    -0.083 C 
HETATM    5  C1  UNL     1     -35.546  14.390  -7.013  1.00 20.00     0.014 C 
BRANCH   4   6
HETATM    6  C9  UNL     1     -33.810  15.813  -5.940  1.00 20.00     0.029 C 
HETATM    7  C7  UNL     1     -34.403  17.156  -6.344  1.00 20.00     0.010 C 
ENDBRANCH   4   6
ENDBRANCH   3   4
ENDBRANCH   1   3
BRANCH   1   8
HETATM    8  C10 UNL     1     -35.911  15.802  -3.043  1.00 20.00     0.083 C 
BRANCH   8   9
HETATM    9  C6  UNL     1     -34.619  15.763  -2.291  1.00 20.00    -0.008 A 
HETATM   10  C4  UNL     1     -33.668  16.926  -2.355  1.00 20.00     0.005 A 
HETATM   11  C5  UNL     1     -34.418  16.637  -1.084  1.00 20.00     0.005 A 
ENDBRANCH   8   9
ENDBRANCH   1   8
TORSDOF 5
ENDMDL
