MODEL 1
REMARK VINA RESULT:      -4.5      0.000      0.000
REMARK  2 active torsions:
REMARK  status: ('A' for Active; 'I' for Inactive)
REMARK    1  A    between atoms: C6_6  and  C8_8 
REMARK    2  A    between atoms: C7_7  and  C9_9 
ROOT
HETATM    1  C4  UNL     1     -33.517  16.002  -5.423  1.00 20.00     0.034 C 
HETATM    2  C5  UNL     1     -33.708  17.489  -5.227  1.00 20.00     0.168 C 
HETATM    3  C7  UNL     1     -33.274  15.537  -4.002  1.00 20.00     0.031 C 
HETATM    4  C8  UNL     1     -34.242  16.423  -3.220  1.00 20.00     0.130 C 
HETATM    5  O10 UNL     1     -34.363  17.651  -3.962  1.00 20.00    -0.385 OA
ENDROOT
BRANCH   4   6
HETATM    6  C6  UNL     1     -33.722  16.740  -1.827  1.00 20.00     0.015 C 
HETATM    7  C2  UNL     1     -34.755  16.691  -0.672  1.00 20.00     0.007 C 
HETATM    8  C1  UNL     1     -34.013  17.895  -0.055  1.00 20.00     0.001 C 
HETATM    9  C3  UNL     1     -33.537  18.240  -1.481  1.00 20.00     0.007 C 
ENDBRANCH   4   6
BRANCH   3  10
HETATM   10  C9  UNL     1     -33.504  14.049  -3.800  1.00 20.00     0.121 C 
HETATM   11 CL11 UNL     1     -35.196  13.634  -4.141  1.00 20.00    -0.130 Cl
ENDBRANCH   3  10
TORSDOF 2
ENDMDL
MODEL 2
REMARK VINA RESULT:      -4.5      1.962      3.673
REMARK  2 active torsions:
REMARK  status: ('A' for Active; 'I' for Inactive)
REMARK    1  A    between atoms: C6_6  and  C8_8 
REMARK    2  A    between atoms: C7_7  and  C9_9 
ROOT
HETATM    1  C4  UNL     1     -33.665  18.365  -3.918  1.00 20.00     0.034 C 
HETATM    2  C5  UNL     1     -33.670  17.659  -5.255  1.00 20.00     0.168 C 
HETATM    3  C7  UNL     1     -34.047  17.239  -2.979  1.00 20.00     0.031 C 
HETATM    4  C8  UNL     1     -33.300  16.059  -3.597  1.00 20.00     0.130 C 
HETATM    5  O10 UNL     1     -33.216  16.322  -5.010  1.00 20.00    -0.385 OA
ENDROOT
BRANCH   4   6
HETATM    6  C6  UNL     1     -34.037  14.747  -3.385  1.00 20.00     0.015 C 
HETATM    7  C2  UNL     1     -34.042  13.753  -4.575  1.00 20.00     0.007 C 
HETATM    8  C1  UNL     1     -35.486  13.390  -4.169  1.00 20.00     0.001 C 
HETATM    9  C3  UNL     1     -35.581  14.788  -3.525  1.00 20.00     0.007 C 
ENDBRANCH   4   6
BRANCH   3  10
HETATM   10  C9  UNL     1     -33.681  17.506  -1.529  1.00 20.00     0.121 C 
HETATM   11 CL11 UNL     1     -34.791  16.644  -0.444  1.00 20.00    -0.130 Cl
ENDBRANCH   3  10
TORSDOF 2
ENDMDL
MODEL 3
REMARK VINA RESULT:      -4.3      1.788      1.843
REMARK  2 active torsions:
REMARK  status: ('A' for Active; 'I' for Inactive)
REMARK    1  A    between atoms: C6_6  and  C8_8 
REMARK    2  A    between atoms: C7_7  and  C9_9 
ROOT
HETATM    1  C4  UNL     1     -36.249  15.531  -5.022  1.00 20.00     0.034 C 
HETATM    2  C5  UNL     1     -36.638  16.900  -4.511  1.00 20.00     0.168 C 
HETATM    3  C7  UNL     1     -35.080  15.190  -4.122  1.00 20.00     0.031 C 
HETATM    4  C8  UNL     1     -35.543  15.769  -2.787  1.00 20.00     0.130 C 
HETATM    5  O10 UNL     1     -36.391  16.891  -3.098  1.00 20.00    -0.385 OA
ENDROOT
BRANCH   4   6
HETATM    6  C6  UNL     1     -34.376  16.257  -1.944  1.00 20.00     0.015 C 
HETATM    7  C2  UNL     1     -34.713  16.764  -0.517  1.00 20.00     0.007 C 
HETATM    8  C1  UNL     1     -33.620  17.834  -0.719  1.00 20.00     0.001 C 
HETATM    9  C3  UNL     1     -33.859  17.689  -2.236  1.00 20.00     0.007 C 
ENDBRANCH   4   6
BRANCH   3  10
HETATM   10  C9  UNL     1     -34.764  13.705  -4.070  1.00 20.00     0.121 C 
HETATM   11 CL11 UNL     1     -33.057  13.452  -3.654  1.00 20.00    -0.130 Cl
ENDBRANCH   3  10
TORSDOF 2
ENDMDL
MODEL 4
REMARK VINA RESULT:      -4.3      2.993      4.081
REMARK  2 active torsions:
REMARK  status: ('A' for Active; 'I' for Inactive)
REMARK    1  A    between atoms: C6_6  and  C8_8 
REMARK    2  A    between atoms: C7_7  and  C9_9 
ROOT
HETATM    1  C4  UNL     1     -37.718  15.160  -5.690  1.00 20.00     0.034 C 
HETATM    2  C5  UNL     1     -38.188  15.149  -4.252  1.00 20.00     0.168 C 
HETATM    3  C7  UNL     1     -36.219  15.016  -5.520  1.00 20.00     0.031 C 
HETATM    4  C8  UNL     1     -36.136  14.040  -4.349  1.00 20.00     0.130 C 
HETATM    5  O10 UNL     1     -37.309  14.264  -3.545  1.00 20.00    -0.385 OA
ENDROOT
BRANCH   4   6
HETATM    6  C6  UNL     1     -34.902  14.283  -3.494  1.00 20.00     0.015 C 
HETATM    7  C2  UNL     1     -34.239  15.680  -3.613  1.00 20.00     0.007 C 
HETATM    8  C1  UNL     1     -32.880  14.965  -3.468  1.00 20.00     0.001 C 
HETATM    9  C3  UNL     1     -33.566  13.701  -4.022  1.00 20.00     0.007 C 
ENDBRANCH   4   6
BRANCH   3  10
HETATM   10  C9  UNL     1     -35.509  14.534  -6.774  1.00 20.00     0.121 C 
HETATM   11 CL11 UNL     1     -34.179  15.633  -7.191  1.00 20.00    -0.130 Cl
ENDBRANCH   3  10
TORSDOF 2
ENDMDL
MODEL 5
REMARK VINA RESULT:      -4.3      2.259      2.838
REMARK  2 active torsions:
REMARK  status: ('A' for Active; 'I' for Inactive)
REMARK    1  A    between atoms: C6_6  and  C8_8 
REMARK    2  A    between atoms: C7_7  and  C9_9 
ROOT
HETATM    1  C4  UNL     1     -34.411  14.330  -5.727  1.00 20.00     0.034 C 
HETATM    2  C5  UNL     1     -34.971  13.259  -4.818  1.00 20.00     0.168 C 
HETATM    3  C7  UNL     1     -34.342  15.518  -4.789  1.00 20.00     0.031 C 
HETATM    4  C8  UNL     1     -33.909  14.853  -3.484  1.00 20.00     0.130 C 
HETATM    5  O10 UNL     1     -34.436  13.513  -3.512  1.00 20.00    -0.385 OA
ENDROOT
BRANCH   4   6
HETATM    6  C6  UNL     1     -34.467  15.573  -2.267  1.00 20.00     0.015 C 
HETATM    7  C2  UNL     1     -35.724  16.452  -2.496  1.00 20.00     0.007 C 
HETATM    8  C1  UNL     1     -35.130  17.439  -1.470  1.00 20.00     0.001 C 
HETATM    9  C3  UNL     1     -33.742  16.875  -1.838  1.00 20.00     0.007 C 
ENDBRANCH   4   6
BRANCH   3  10
HETATM   10  C9  UNL     1     -33.401  16.613  -5.261  1.00 20.00     0.121 C 
HETATM   11 CL11 UNL     1     -34.236  18.179  -5.282  1.00 20.00    -0.130 Cl
ENDBRANCH   3  10
TORSDOF 2
ENDMDL
MODEL 6
REMARK VINA RESULT:      -4.3      1.989      2.707
REMARK  2 active torsions:
REMARK  status: ('A' for Active; 'I' for Inactive)
REMARK    1  A    between atoms: C6_6  and  C8_8 
REMARK    2  A    between atoms: C7_7  and  C9_9 
ROOT
HETATM    1  C4  UNL     1     -34.832  13.412  -4.339  1.00 20.00     0.034 C 
HETATM    2  C5  UNL     1     -33.467  13.727  -3.769  1.00 20.00     0.168 C 
HETATM    3  C7  UNL     1     -35.658  14.563  -3.802  1.00 20.00     0.031 C 
HETATM    4  C8  UNL     1     -34.670  15.723  -3.905  1.00 20.00     0.130 C 
HETATM    5  O10 UNL     1     -33.355  15.156  -3.749  1.00 20.00    -0.385 OA
ENDROOT
BRANCH   4   6
HETATM    6  C6  UNL     1     -34.891  16.755  -2.811  1.00 20.00     0.015 C 
HETATM    7  C2  UNL     1     -33.730  17.749  -2.549  1.00 20.00     0.007 C 
HETATM    8  C1  UNL     1     -34.092  17.662  -1.052  1.00 20.00     0.001 C 
HETATM    9  C3  UNL     1     -34.692  16.273  -1.351  1.00 20.00     0.007 C 
ENDBRANCH   4   6
BRANCH   3  10
HETATM   10  C9  UNL     1     -36.953  14.790  -4.563  1.00 20.00     0.121 C 
HETATM   11 CL11 UNL     1     -38.285  15.110  -3.434  1.00 20.00    -0.130 Cl
ENDBRANCH   3  10
TORSDOF 2
ENDMDL
MODEL 7
REMARK VINA RESULT:      -4.2      1.559      4.006
REMARK  2 active torsions:
REMARK  status: ('A' for Active; 'I' for Inactive)
REMARK    1  A    between atoms: C6_6  and  C8_8 
REMARK    2  A    between atoms: C7_7  and  C9_9 
ROOT
HETATM    1  C4  UNL     1     -33.736  16.380  -2.649  1.00 20.00     0.034 C 
HETATM    2  C5  UNL     1     -33.809  17.806  -3.148  1.00 20.00     0.168 C 
HETATM    3  C7  UNL     1     -34.173  15.607  -3.876  1.00 20.00     0.031 C 
HETATM    4  C8  UNL     1     -33.513  16.409  -4.995  1.00 20.00     0.130 C 
HETATM    5  O10 UNL     1     -33.437  17.771  -4.532  1.00 20.00    -0.385 OA
ENDROOT
BRANCH   4   6
HETATM    6  C6  UNL     1     -34.328  16.373  -6.277  1.00 20.00     0.015 C 
HETATM    7  C2  UNL     1     -35.848  16.102  -6.127  1.00 20.00     0.007 C 
HETATM    8  C1  UNL     1     -35.756  15.283  -7.431  1.00 20.00     0.001 C 
HETATM    9  C3  UNL     1     -34.266  15.061  -7.102  1.00 20.00     0.007 C 
ENDBRANCH   4   6
BRANCH   3  10
HETATM   10  C9  UNL     1     -33.767  14.143  -3.849  1.00 20.00     0.121 C 
HETATM   11 CL11 UNL     1     -35.157  13.109  -4.239  1.00 20.00    -0.130 Cl
ENDBRANCH   3  10
TORSDOF 2
ENDMDL
MODEL 8
REMARK VINA RESULT:      -4.2      1.698      2.349
REMARK  2 active torsions:
REMARK  status: ('A' for Active; 'I' for Inactive)
REMARK    1  A    between atoms: C6_6  and  C8_8 
REMARK    2  A    between atoms: C7_7  and  C9_9 
ROOT
HETATM    1  C4  UNL     1     -34.408  15.136  -6.990  1.00 20.00     0.034 C 
HETATM    2  C5  UNL     1     -34.772  16.587  -7.210  1.00 20.00     0.168 C 
HETATM    3  C7  UNL     1     -34.307  15.074  -5.480  1.00 20.00     0.031 C 
HETATM    4  C8  UNL     1     -35.453  15.991  -5.059  1.00 20.00     0.130 C 
HETATM    5  O10 UNL     1     -35.600  16.971  -6.105  1.00 20.00    -0.385 OA
ENDROOT
BRANCH   4   6
HETATM    6  C6  UNL     1     -35.155  16.710  -3.753  1.00 20.00     0.015 C 
HETATM    7  C2  UNL     1     -33.660  16.891  -3.385  1.00 20.00     0.007 C 
HETATM    8  C1  UNL     1     -34.069  16.656  -1.916  1.00 20.00     0.001 C 
HETATM    9  C3  UNL     1     -35.283  15.872  -2.455  1.00 20.00     0.007 C 
ENDBRANCH   4   6
BRANCH   3  10
HETATM   10  C9  UNL     1     -34.411  13.666  -4.920  1.00 20.00     0.121 C 
HETATM   11 CL11 UNL     1     -33.127  13.378  -3.729  1.00 20.00    -0.130 Cl
ENDBRANCH   3  10
TORSDOF 2
ENDMDL
MODEL 9
REMARK VINA RESULT:      -4.1      2.005      3.990
REMARK  2 active torsions:
REMARK  status: ('A' for Active; 'I' for Inactive)
REMARK    1  A    between atoms: C6_6  and  C8_8 
REMARK    2  A    between atoms: C7_7  and  C9_9 
ROOT
HETATM    1  C4  UNL     1     -33.903  18.270  -2.098  1.00 20.00     0.034 C 
HETATM    2  C5  UNL     1     -33.783  17.430  -0.846  1.00 20.00     0.168 C 
HETATM    3  C7  UNL     1     -34.080  17.206  -3.162  1.00 20.00     0.031 C 
HETATM    4  C8  UNL     1     -34.961  16.192  -2.436  1.00 20.00     0.130 C 
HETATM    5  O10 UNL     1     -34.636  16.294  -1.037  1.00 20.00    -0.385 OA
ENDROOT
BRANCH   4   6
HETATM    6  C6  UNL     1     -34.689  14.770  -2.900  1.00 20.00     0.015 C 
HETATM    7  C2  UNL     1     -33.410  14.548  -3.749  1.00 20.00     0.007 C 
HETATM    8  C1  UNL     1     -34.218  13.514  -4.561  1.00 20.00     0.001 C 
HETATM    9  C3  UNL     1     -35.489  14.277  -4.134  1.00 20.00     0.007 C 
ENDBRANCH   4   6
BRANCH   3  10
HETATM   10  C9  UNL     1     -34.685  17.731  -4.453  1.00 20.00     0.121 C 
HETATM   11 CL11 UNL     1     -33.553  17.504  -5.802  1.00 20.00    -0.130 Cl
ENDBRANCH   3  10
TORSDOF 2
ENDMDL
