MODEL 1
REMARK VINA RESULT:      -4.8      0.000      0.000
REMARK  3 active torsions:
REMARK  status: ('A' for Active; 'I' for Inactive)
REMARK    1  A    between atoms: C5_5  and  C8_8 
REMARK    2  A    between atoms: C6_6  and  C8_8 
REMARK    3  A    between atoms: C8_8  and  O9_9 
ROOT
HETATM    1  C8  UNL     1     -33.470   5.979   5.039  1.00 20.00     0.130 C 
ENDROOT
BRANCH   1   2
HETATM    2  C5  UNL     1     -33.211   6.670   3.701  1.00 20.00     0.015 A 
HETATM    3  C1  UNL     1     -31.912   7.385   3.457  1.00 20.00     0.007 A 
HETATM    4  C2  UNL     1     -32.210   6.101   2.736  1.00 20.00     0.007 A 
ENDBRANCH   1   2
BRANCH   1   5
HETATM    5  C6  UNL     1     -34.723   5.146   5.023  1.00 20.00    -0.018 A 
HETATM    6  C3  UNL     1     -35.308   4.724   6.350  1.00 20.00     0.012 A 
HETATM    7  C4  UNL     1     -34.624   3.709   5.479  1.00 20.00     0.012 A 
HETATM    8  C7  UNL     1     -35.673   5.467   3.902  1.00 20.00     0.018 C 
ENDBRANCH   1   5
BRANCH   1   9
HETATM    9  O9  UNL     1     -33.565   6.978   6.056  1.00 20.00    -0.394 OA
HETATM   10  H23 UNL     1     -32.713   6.975   6.519  1.00 20.00     0.210 HD
ENDBRANCH   1   9
TORSDOF 3
ENDMDL
MODEL 2
REMARK VINA RESULT:      -4.3      1.475      2.005
REMARK  3 active torsions:
REMARK  status: ('A' for Active; 'I' for Inactive)
REMARK    1  A    between atoms: C5_5  and  C8_8 
REMARK    2  A    between atoms: C6_6  and  C8_8 
REMARK    3  A    between atoms: C8_8  and  O9_9 
ROOT
HETATM    1  C8  UNL     1     -34.123   6.184   4.250  1.00 20.00     0.130 C 
ENDROOT
BRANCH   1   2
HETATM    2  C5  UNL     1     -32.687   6.504   3.839  1.00 20.00     0.015 A 
HETATM    3  C1  UNL     1     -32.152   6.025   2.519  1.00 20.00     0.007 A 
HETATM    4  C2  UNL     1     -32.417   7.488   2.736  1.00 20.00     0.007 A 
ENDBRANCH   1   2
BRANCH   1   5
HETATM    5  C6  UNL     1     -34.235   5.792   5.698  1.00 20.00    -0.018 A 
HETATM    6  C3  UNL     1     -33.969   4.351   6.064  1.00 20.00     0.012 A 
HETATM    7  C4  UNL     1     -35.373   4.884   6.101  1.00 20.00     0.012 A 
HETATM    8  C7  UNL     1     -33.804   6.858   6.668  1.00 20.00     0.018 C 
ENDBRANCH   1   5
BRANCH   1   9
HETATM    9  O9  UNL     1     -34.607   5.123   3.422  1.00 20.00    -0.394 OA
HETATM   10  H23 UNL     1     -35.128   4.545   4.000  1.00 20.00     0.210 HD
ENDBRANCH   1   9
TORSDOF 3
ENDMDL
MODEL 3
REMARK VINA RESULT:      -4.2     12.455     13.545
REMARK  3 active torsions:
REMARK  status: ('A' for Active; 'I' for Inactive)
REMARK    1  A    between atoms: C5_5  and  C8_8 
REMARK    2  A    between atoms: C6_6  and  C8_8 
REMARK    3  A    between atoms: C8_8  and  O9_9 
ROOT
HETATM    1  C8  UNL     1     -33.930  15.801  -4.572  1.00 20.00     0.130 C 
ENDROOT
BRANCH   1   2
HETATM    2  C5  UNL     1     -33.995  15.513  -3.074  1.00 20.00     0.015 A 
HETATM    3  C1  UNL     1     -33.749  16.613  -2.079  1.00 20.00     0.007 A 
HETATM    4  C2  UNL     1     -35.131  16.049  -2.248  1.00 20.00     0.007 A 
ENDBRANCH   1   2
BRANCH   1   5
HETATM    5  C6  UNL     1     -34.542  14.702  -5.397  1.00 20.00    -0.018 A 
HETATM    6  C3  UNL     1     -34.480  14.827  -6.901  1.00 20.00     0.012 A 
HETATM    7  C4  UNL     1     -35.789  15.021  -6.189  1.00 20.00     0.012 A 
HETATM    8  C7  UNL     1     -34.420  13.328  -4.797  1.00 20.00     0.018 C 
ENDBRANCH   1   5
BRANCH   1   9
HETATM    9  O9  UNL     1     -32.561  15.980  -4.942  1.00 20.00    -0.394 OA
HETATM   10  H23 UNL     1     -32.569  16.384  -5.823  1.00 20.00     0.210 HD
ENDBRANCH   1   9
TORSDOF 3
ENDMDL
MODEL 4
REMARK VINA RESULT:      -4.0      0.776      3.761
REMARK  3 active torsions:
REMARK  status: ('A' for Active; 'I' for Inactive)
REMARK    1  A    between atoms: C5_5  and  C8_8 
REMARK    2  A    between atoms: C6_6  and  C8_8 
REMARK    3  A    between atoms: C8_8  and  O9_9 
ROOT
HETATM    1  C8  UNL     1     -33.619   6.531   4.515  1.00 20.00     0.130 C 
ENDROOT
BRANCH   1   2
HETATM    2  C5  UNL     1     -34.135   5.106   4.706  1.00 20.00     0.015 A 
HETATM    3  C1  UNL     1     -34.973   4.758   5.904  1.00 20.00     0.007 A 
HETATM    4  C2  UNL     1     -35.598   4.801   4.538  1.00 20.00     0.007 A 
ENDBRANCH   1   2
BRANCH   1   5
HETATM    5  C6  UNL     1     -32.524   6.613   3.488  1.00 20.00    -0.018 A 
HETATM    6  C3  UNL     1     -31.436   7.642   3.694  1.00 20.00     0.012 A 
HETATM    7  C4  UNL     1     -32.462   7.846   2.615  1.00 20.00     0.012 A 
HETATM    8  C7  UNL     1     -32.141   5.295   2.874  1.00 20.00     0.018 C 
ENDBRANCH   1   5
BRANCH   1   9
HETATM    9  O9  UNL     1     -33.142   7.014   5.773  1.00 20.00    -0.394 OA
HETATM   10  H23 UNL     1     -33.924   7.305   6.266  1.00 20.00     0.210 HD
ENDBRANCH   1   9
TORSDOF 3
ENDMDL
MODEL 5
REMARK VINA RESULT:      -4.0      9.101     10.708
REMARK  3 active torsions:
REMARK  status: ('A' for Active; 'I' for Inactive)
REMARK    1  A    between atoms: C5_5  and  C8_8 
REMARK    2  A    between atoms: C6_6  and  C8_8 
REMARK    3  A    between atoms: C8_8  and  O9_9 
ROOT
HETATM    1  C8  UNL     1     -41.548   4.249  -1.504  1.00 20.00     0.130 C 
ENDROOT
BRANCH   1   2
HETATM    2  C5  UNL     1     -42.081   3.614  -2.786  1.00 20.00     0.015 A 
HETATM    3  C1  UNL     1     -41.495   2.325  -3.293  1.00 20.00     0.007 A 
HETATM    4  C2  UNL     1     -42.886   2.346  -2.725  1.00 20.00     0.007 A 
ENDBRANCH   1   2
BRANCH   1   5
HETATM    5  C6  UNL     1     -41.816   5.728  -1.440  1.00 20.00    -0.018 A 
HETATM    6  C3  UNL     1     -40.932   6.570  -0.550  1.00 20.00     0.012 A 
HETATM    7  C4  UNL     1     -42.353   6.295  -0.146  1.00 20.00     0.012 A 
HETATM    8  C7  UNL     1     -42.299   6.332  -2.730  1.00 20.00     0.018 C 
ENDBRANCH   1   5
BRANCH   1   9
HETATM    9  O9  UNL     1     -40.141   4.008  -1.426  1.00 20.00    -0.394 OA
HETATM   10  H23 UNL     1     -39.767   4.744  -0.920  1.00 20.00     0.210 HD
ENDBRANCH   1   9
TORSDOF 3
ENDMDL
MODEL 6
REMARK VINA RESULT:      -3.9     11.762     12.757
REMARK  3 active torsions:
REMARK  status: ('A' for Active; 'I' for Inactive)
REMARK    1  A    between atoms: C5_5  and  C8_8 
REMARK    2  A    between atoms: C6_6  and  C8_8 
REMARK    3  A    between atoms: C8_8  and  O9_9 
ROOT
HETATM    1  C8  UNL     1     -34.850  15.368  -2.483  1.00 20.00     0.130 C 
ENDROOT
BRANCH   1   2
HETATM    2  C5  UNL     1     -34.444  16.699  -1.853  1.00 20.00     0.015 A 
HETATM    3  C1  UNL     1     -35.494  17.650  -1.349  1.00 20.00     0.007 A 
HETATM    4  C2  UNL     1     -34.613  16.920  -0.375  1.00 20.00     0.007 A 
ENDBRANCH   1   2
BRANCH   1   5
HETATM    5  C6  UNL     1     -34.020  15.026  -3.690  1.00 20.00    -0.018 A 
HETATM    6  C3  UNL     1     -34.519  13.933  -4.606  1.00 20.00     0.012 A 
HETATM    7  C4  UNL     1     -33.333  13.680  -3.719  1.00 20.00     0.012 A 
HETATM    8  C7  UNL     1     -33.307  16.196  -4.310  1.00 20.00     0.018 C 
ENDBRANCH   1   5
BRANCH   1   9
HETATM    9  O9  UNL     1     -36.230  15.440  -2.848  1.00 20.00    -0.394 OA
HETATM   10  H23 UNL     1     -36.253  15.778  -3.756  1.00 20.00     0.210 HD
ENDBRANCH   1   9
TORSDOF 3
ENDMDL
MODEL 7
REMARK VINA RESULT:      -3.8     12.280     13.766
REMARK  3 active torsions:
REMARK  status: ('A' for Active; 'I' for Inactive)
REMARK    1  A    between atoms: C5_5  and  C8_8 
REMARK    2  A    between atoms: C6_6  and  C8_8 
REMARK    3  A    between atoms: C8_8  and  O9_9 
ROOT
HETATM    1  C8  UNL     1     -33.826  15.907  -4.850  1.00 20.00     0.130 C 
ENDROOT
BRANCH   1   2
HETATM    2  C5  UNL     1     -34.247  17.358  -4.628  1.00 20.00     0.015 A 
HETATM    3  C1  UNL     1     -33.574  18.467  -5.388  1.00 20.00     0.007 A 
HETATM    4  C2  UNL     1     -34.998  18.101  -5.698  1.00 20.00     0.007 A 
ENDBRANCH   1   2
BRANCH   1   5
HETATM    5  C6  UNL     1     -34.288  14.998  -3.744  1.00 20.00    -0.018 A 
HETATM    6  C3  UNL     1     -33.695  13.611  -3.673  1.00 20.00     0.012 A 
HETATM    7  C4  UNL     1     -35.118  13.792  -4.118  1.00 20.00     0.012 A 
HETATM    8  C7  UNL     1     -34.604  15.698  -2.450  1.00 20.00     0.018 C 
ENDBRANCH   1   5
BRANCH   1   9
HETATM    9  O9  UNL     1     -32.402  15.857  -4.955  1.00 20.00    -0.394 OA
HETATM   10  H23 UNL     1     -32.161  14.918  -4.939  1.00 20.00     0.210 HD
ENDBRANCH   1   9
TORSDOF 3
ENDMDL
MODEL 8
REMARK VINA RESULT:      -3.8      8.994     10.564
REMARK  3 active torsions:
REMARK  status: ('A' for Active; 'I' for Inactive)
REMARK    1  A    between atoms: C5_5  and  C8_8 
REMARK    2  A    between atoms: C6_6  and  C8_8 
REMARK    3  A    between atoms: C8_8  and  O9_9 
ROOT
HETATM    1  C8  UNL     1     -41.375   4.572  -1.910  1.00 20.00     0.130 C 
ENDROOT
BRANCH   1   2
HETATM    2  C5  UNL     1     -41.765   5.679  -0.932  1.00 20.00     0.015 A 
HETATM    3  C1  UNL     1     -40.728   6.300  -0.039  1.00 20.00     0.007 A 
HETATM    4  C2  UNL     1     -41.316   7.094  -1.171  1.00 20.00     0.007 A 
ENDBRANCH   1   2
BRANCH   1   5
HETATM    5  C6  UNL     1     -42.493   3.594  -2.147  1.00 20.00    -0.018 A 
HETATM    6  C3  UNL     1     -42.214   2.401  -3.031  1.00 20.00     0.012 A 
HETATM    7  C4  UNL     1     -43.084   3.517  -3.536  1.00 20.00     0.012 A 
HETATM    8  C7  UNL     1     -43.417   3.405  -0.976  1.00 20.00     0.018 C 
ENDBRANCH   1   5
BRANCH   1   9
HETATM    9  O9  UNL     1     -40.234   3.887  -1.390  1.00 20.00    -0.394 OA
HETATM   10  H23 UNL     1     -40.506   2.965  -1.263  1.00 20.00     0.210 HD
ENDBRANCH   1   9
TORSDOF 3
ENDMDL
MODEL 9
REMARK VINA RESULT:      -3.8     11.856     13.348
REMARK  3 active torsions:
REMARK  status: ('A' for Active; 'I' for Inactive)
REMARK    1  A    between atoms: C5_5  and  C8_8 
REMARK    2  A    between atoms: C6_6  and  C8_8 
REMARK    3  A    between atoms: C8_8  and  O9_9 
ROOT
HETATM    1  C8  UNL     1     -35.318  14.945  -4.714  1.00 20.00     0.130 C 
ENDROOT
BRANCH   1   2
HETATM    2  C5  UNL     1     -34.846  14.290  -6.011  1.00 20.00     0.015 A 
HETATM    3  C1  UNL     1     -35.648  14.446  -7.273  1.00 20.00     0.007 A 
HETATM    4  C2  UNL     1     -34.320  15.136  -7.138  1.00 20.00     0.007 A 
ENDBRANCH   1   2
BRANCH   1   5
HETATM    5  C6  UNL     1     -34.232  15.012  -3.675  1.00 20.00    -0.018 A 
HETATM    6  C3  UNL     1     -34.554  15.674  -2.356  1.00 20.00     0.012 A 
HETATM    7  C4  UNL     1     -33.655  16.368  -3.340  1.00 20.00     0.012 A 
HETATM    8  C7  UNL     1     -33.304  13.828  -3.663  1.00 20.00     0.018 C 
ENDBRANCH   1   5
BRANCH   1   9
HETATM    9  O9  UNL     1     -36.428  14.202  -4.207  1.00 20.00    -0.394 OA
HETATM   10  H23 UNL     1     -37.018  14.847  -3.788  1.00 20.00     0.210 HD
ENDBRANCH   1   9
TORSDOF 3
ENDMDL
