MODEL 1
REMARK VINA RESULT:      -4.0      0.000      0.000
REMARK  4 active torsions:
REMARK  status: ('A' for Active; 'I' for Inactive)
REMARK    1  A    between atoms: C5_5  and  C6_6 
REMARK    2  A    between atoms: C5_5  and  C8_8 
REMARK    3  A    between atoms: C6_6  and  C7_7 
REMARK    4  A    between atoms: C6_6  and  N9_9 
ROOT
HETATM    1  C6  UNL     1     -33.447  15.519  -3.876  1.00 20.00     0.285 C 
ENDROOT
BRANCH   1   2
HETATM    2  C5  UNL     1     -34.802  16.178  -3.535  1.00 20.00     0.049 C 
BRANCH   2   3
HETATM    3  C8  UNL     1     -34.841  17.226  -2.383  1.00 20.00    -0.049 C 
HETATM    4  C1  UNL     1     -36.213  17.916  -2.306  1.00 20.00     0.014 C 
HETATM    5  C2  UNL     1     -34.603  16.473  -1.057  1.00 20.00     0.014 C 
HETATM    6  C3  UNL     1     -33.746  18.296  -2.520  1.00 20.00     0.014 C 
ENDBRANCH   2   3
ENDBRANCH   1   2
BRANCH   1   7
HETATM    7  C7  UNL     1     -33.594  14.000  -3.965  1.00 20.00     0.386 C 
HETATM    8  F10 UNL     1     -32.492  13.385  -3.471  1.00 20.00    -0.212 F 
HETATM    9  F11 UNL     1     -34.642  13.595  -3.204  1.00 20.00    -0.212 F 
ENDBRANCH   1   7
BRANCH   1  10
HETATM   10  N9  UNL     1     -32.913  16.008  -5.145  1.00 20.00     0.089 N 
HETATM   11  C4  UNL     1     -33.991  16.406  -6.039  1.00 20.00     0.307 C 
HETATM   12  H28 UNL     1     -32.366  15.268  -5.581  1.00 20.00     0.316 HD
ENDBRANCH   1  10
TORSDOF 4
ENDMDL
MODEL 2
REMARK VINA RESULT:      -4.0      1.240      1.801
REMARK  4 active torsions:
REMARK  status: ('A' for Active; 'I' for Inactive)
REMARK    1  A    between atoms: C5_5  and  C6_6 
REMARK    2  A    between atoms: C5_5  and  C8_8 
REMARK    3  A    between atoms: C6_6  and  C7_7 
REMARK    4  A    between atoms: C6_6  and  N9_9 
ROOT
HETATM    1  C6  UNL     1     -34.007  14.982  -4.860  1.00 20.00     0.285 C 
ENDROOT
BRANCH   1   2
HETATM    2  C5  UNL     1     -35.252  15.660  -4.245  1.00 20.00     0.049 C 
BRANCH   2   3
HETATM    3  C8  UNL     1     -35.033  16.752  -3.155  1.00 20.00    -0.049 C 
HETATM    4  C1  UNL     1     -34.661  16.120  -1.804  1.00 20.00     0.014 C 
HETATM    5  C2  UNL     1     -33.858  17.642  -3.613  1.00 20.00     0.014 C 
HETATM    6  C3  UNL     1     -36.263  17.654  -2.968  1.00 20.00     0.014 C 
ENDBRANCH   2   3
ENDBRANCH   1   2
BRANCH   1   7
HETATM    7  C7  UNL     1     -33.901  13.529  -4.400  1.00 20.00     0.386 C 
HETATM    8  F10 UNL     1     -32.803  13.354  -3.625  1.00 20.00    -0.212 F 
HETATM    9  F11 UNL     1     -34.975  13.212  -3.632  1.00 20.00    -0.212 F 
ENDBRANCH   1   7
BRANCH   1  10
HETATM   10  N9  UNL     1     -34.047  15.004  -6.320  1.00 20.00     0.089 N 
HETATM   11  C4  UNL     1     -35.281  14.406  -6.811  1.00 20.00     0.307 C 
HETATM   12  H28 UNL     1     -33.251  14.483  -6.681  1.00 20.00     0.316 HD
ENDBRANCH   1  10
TORSDOF 4
ENDMDL
MODEL 3
REMARK VINA RESULT:      -4.0      1.100      1.697
REMARK  4 active torsions:
REMARK  status: ('A' for Active; 'I' for Inactive)
REMARK    1  A    between atoms: C5_5  and  C6_6 
REMARK    2  A    between atoms: C5_5  and  C8_8 
REMARK    3  A    between atoms: C6_6  and  C7_7 
REMARK    4  A    between atoms: C6_6  and  N9_9 
ROOT
HETATM    1  C6  UNL     1     -33.937  15.074  -4.727  1.00 20.00     0.285 C 
ENDROOT
BRANCH   1   2
HETATM    2  C5  UNL     1     -35.182  15.755  -4.118  1.00 20.00     0.049 C 
BRANCH   2   3
HETATM    3  C8  UNL     1     -34.968  16.822  -3.003  1.00 20.00    -0.049 C 
HETATM    4  C1  UNL     1     -33.847  17.803  -3.381  1.00 20.00     0.014 C 
HETATM    5  C2  UNL     1     -36.281  17.619  -2.859  1.00 20.00     0.014 C 
HETATM    6  C3  UNL     1     -34.647  16.191  -1.638  1.00 20.00     0.014 C 
ENDBRANCH   2   3
ENDBRANCH   1   2
BRANCH   1   7
HETATM    7  C7  UNL     1     -33.864  13.606  -4.308  1.00 20.00     0.386 C 
HETATM    8  F10 UNL     1     -32.734  13.369  -3.599  1.00 20.00    -0.212 F 
HETATM    9  F11 UNL     1     -34.907  13.312  -3.490  1.00 20.00    -0.212 F 
ENDBRANCH   1   7
BRANCH   1  10
HETATM   10  N9  UNL     1     -33.946  15.139  -6.187  1.00 20.00     0.089 N 
HETATM   11  C4  UNL     1     -35.109  14.451  -6.727  1.00 20.00     0.307 C 
HETATM   12  H28 UNL     1     -33.098  14.702  -6.543  1.00 20.00     0.316 HD
ENDBRANCH   1  10
TORSDOF 4
ENDMDL
MODEL 4
REMARK VINA RESULT:      -4.0     11.665     12.851
REMARK  4 active torsions:
REMARK  status: ('A' for Active; 'I' for Inactive)
REMARK    1  A    between atoms: C5_5  and  C6_6 
REMARK    2  A    between atoms: C5_5  and  C8_8 
REMARK    3  A    between atoms: C6_6  and  C7_7 
REMARK    4  A    between atoms: C6_6  and  N9_9 
ROOT
HETATM    1  C6  UNL     1     -33.971   5.582   4.872  1.00 20.00     0.285 C 
ENDROOT
BRANCH   1   2
HETATM    2  C5  UNL     1     -33.739   6.901   4.102  1.00 20.00     0.049 C 
BRANCH   2   3
HETATM    3  C8  UNL     1     -32.394   7.080   3.336  1.00 20.00    -0.049 C 
HETATM    4  C1  UNL     1     -31.296   7.629   4.262  1.00 20.00     0.014 C 
HETATM    5  C2  UNL     1     -31.952   5.688   2.834  1.00 20.00     0.014 C 
HETATM    6  C3  UNL     1     -32.529   8.000   2.112  1.00 20.00     0.014 C 
ENDBRANCH   2   3
ENDBRANCH   1   2
BRANCH   1   7
HETATM    7  C7  UNL     1     -34.107   5.849   6.371  1.00 20.00     0.386 C 
HETATM    8  F10 UNL     1     -34.123   7.181   6.618  1.00 20.00    -0.212 F 
HETATM    9  F11 UNL     1     -35.290   5.355   6.818  1.00 20.00    -0.212 F 
ENDBRANCH   1   7
BRANCH   1  10
HETATM   10  N9  UNL     1     -35.175   4.894   4.413  1.00 20.00     0.089 N 
HETATM   11  C4  UNL     1     -35.909   5.717   3.462  1.00 20.00     0.307 C 
HETATM   12  H28 UNL     1     -35.768   4.693   5.215  1.00 20.00     0.316 HD
ENDBRANCH   1  10
TORSDOF 4
ENDMDL
MODEL 5
REMARK VINA RESULT:      -4.0      1.552      3.634
REMARK  4 active torsions:
REMARK  status: ('A' for Active; 'I' for Inactive)
REMARK    1  A    between atoms: C5_5  and  C6_6 
REMARK    2  A    between atoms: C5_5  and  C8_8 
REMARK    3  A    between atoms: C6_6  and  C7_7 
REMARK    4  A    between atoms: C6_6  and  N9_9 
ROOT
HETATM    1  C6  UNL     1     -34.268  15.140  -3.992  1.00 20.00     0.285 C 
ENDROOT
BRANCH   1   2
HETATM    2  C5  UNL     1     -33.732  15.639  -5.353  1.00 20.00     0.049 C 
BRANCH   2   3
HETATM    3  C8  UNL     1     -34.762  15.954  -6.479  1.00 20.00    -0.049 C 
HETATM    4  C1  UNL     1     -34.716  14.889  -7.587  1.00 20.00     0.014 C 
HETATM    5  C2  UNL     1     -36.169  15.934  -5.845  1.00 20.00     0.014 C 
HETATM    6  C3  UNL     1     -34.546  17.342  -7.104  1.00 20.00     0.014 C 
ENDBRANCH   2   3
ENDBRANCH   1   2
BRANCH   1   7
HETATM    7  C7  UNL     1     -33.995  13.646  -3.820  1.00 20.00     0.386 C 
HETATM    8  F10 UNL     1     -34.333  12.967  -4.942  1.00 20.00    -0.212 F 
HETATM    9  F11 UNL     1     -32.666  13.442  -3.626  1.00 20.00    -0.212 F 
ENDBRANCH   1   7
BRANCH   1  10
HETATM   10  N9  UNL     1     -33.654  15.855  -2.876  1.00 20.00     0.089 N 
HETATM   11  C4  UNL     1     -34.648  16.181  -1.863  1.00 20.00     0.307 C 
HETATM   12  H28 UNL     1     -33.231  16.712  -3.224  1.00 20.00     0.316 HD
ENDBRANCH   1  10
TORSDOF 4
ENDMDL
MODEL 6
REMARK VINA RESULT:      -4.0      1.517      3.692
REMARK  4 active torsions:
REMARK  status: ('A' for Active; 'I' for Inactive)
REMARK    1  A    between atoms: C5_5  and  C6_6 
REMARK    2  A    between atoms: C5_5  and  C8_8 
REMARK    3  A    between atoms: C6_6  and  C7_7 
REMARK    4  A    between atoms: C6_6  and  N9_9 
ROOT
HETATM    1  C6  UNL     1     -34.301  15.253  -3.861  1.00 20.00     0.285 C 
ENDROOT
BRANCH   1   2
HETATM    2  C5  UNL     1     -33.754  15.717  -5.230  1.00 20.00     0.049 C 
BRANCH   2   3
HETATM    3  C8  UNL     1     -34.775  16.003  -6.371  1.00 20.00    -0.049 C 
HETATM    4  C1  UNL     1     -34.499  17.361  -7.036  1.00 20.00     0.014 C 
HETATM    5  C2  UNL     1     -34.607  14.899  -7.437  1.00 20.00     0.014 C 
HETATM    6  C3  UNL     1     -36.232  15.968  -5.883  1.00 20.00     0.014 C 
ENDBRANCH   2   3
ENDBRANCH   1   2
BRANCH   1   7
HETATM    7  C7  UNL     1     -34.049  13.759  -3.657  1.00 20.00     0.386 C 
HETATM    8  F10 UNL     1     -34.601  13.042  -4.666  1.00 20.00    -0.212 F 
HETATM    9  F11 UNL     1     -32.715  13.511  -3.686  1.00 20.00    -0.212 F 
ENDBRANCH   1   7
BRANCH   1  10
HETATM   10  N9  UNL     1     -33.680  15.982  -2.757  1.00 20.00     0.089 N 
HETATM   11  C4  UNL     1     -34.648  16.246  -1.703  1.00 20.00     0.307 C 
HETATM   12  H28 UNL     1     -33.312  16.864  -3.108  1.00 20.00     0.316 HD
ENDBRANCH   1  10
TORSDOF 4
ENDMDL
MODEL 7
REMARK VINA RESULT:      -4.0      2.253      3.028
REMARK  4 active torsions:
REMARK  status: ('A' for Active; 'I' for Inactive)
REMARK    1  A    between atoms: C5_5  and  C6_6 
REMARK    2  A    between atoms: C5_5  and  C8_8 
REMARK    3  A    between atoms: C6_6  and  C7_7 
REMARK    4  A    between atoms: C6_6  and  N9_9 
ROOT
HETATM    1  C6  UNL     1     -35.176  16.302  -2.688  1.00 20.00     0.285 C 
ENDROOT
BRANCH   1   2
HETATM    2  C5  UNL     1     -34.680  16.313  -1.225  1.00 20.00     0.049 C 
BRANCH   2   3
HETATM    3  C8  UNL     1     -34.585  17.683  -0.490  1.00 20.00    -0.049 C 
HETATM    4  C1  UNL     1     -33.140  18.206  -0.476  1.00 20.00     0.014 C 
HETATM    5  C2  UNL     1     -35.458  18.692  -1.266  1.00 20.00     0.014 C 
HETATM    6  C3  UNL     1     -35.112  17.616   0.953  1.00 20.00     0.014 C 
ENDBRANCH   2   3
ENDBRANCH   1   2
BRANCH   1   7
HETATM    7  C7  UNL     1     -34.038  15.940  -3.642  1.00 20.00     0.386 C 
HETATM    8  F10 UNL     1     -33.553  17.052  -4.247  1.00 20.00    -0.212 F 
HETATM    9  F11 UNL     1     -33.010  15.396  -2.943  1.00 20.00    -0.212 F 
ENDBRANCH   1   7
BRANCH   1  10
HETATM   10  N9  UNL     1     -36.264  15.345  -2.882  1.00 20.00     0.089 N 
HETATM   11  C4  UNL     1     -36.012  14.506  -4.044  1.00 20.00     0.307 C 
HETATM   12  H28 UNL     1     -37.134  15.856  -3.015  1.00 20.00     0.316 HD
ENDBRANCH   1  10
TORSDOF 4
ENDMDL
MODEL 8
REMARK VINA RESULT:      -3.9      2.502      3.136
REMARK  4 active torsions:
REMARK  status: ('A' for Active; 'I' for Inactive)
REMARK    1  A    between atoms: C5_5  and  C6_6 
REMARK    2  A    between atoms: C5_5  and  C8_8 
REMARK    3  A    between atoms: C6_6  and  C7_7 
REMARK    4  A    between atoms: C6_6  and  N9_9 
ROOT
HETATM    1  C6  UNL     1     -35.785  15.251  -5.270  1.00 20.00     0.285 C 
ENDROOT
BRANCH   1   2
HETATM    2  C5  UNL     1     -35.182  15.072  -3.859  1.00 20.00     0.049 C 
BRANCH   2   3
HETATM    3  C8  UNL     1     -33.887  15.862  -3.506  1.00 20.00    -0.049 C 
HETATM    4  C1  UNL     1     -33.955  16.432  -2.080  1.00 20.00     0.014 C 
HETATM    5  C2  UNL     1     -32.702  14.874  -3.576  1.00 20.00     0.014 C 
HETATM    6  C3  UNL     1     -33.605  17.005  -4.494  1.00 20.00     0.014 C 
ENDBRANCH   2   3
ENDBRANCH   1   2
BRANCH   1   7
HETATM    7  C7  UNL     1     -35.241  14.191  -6.228  1.00 20.00     0.386 C 
HETATM    8  F10 UNL     1     -34.122  14.639  -6.848  1.00 20.00    -0.212 F 
HETATM    9  F11 UNL     1     -34.883  13.083  -5.530  1.00 20.00    -0.212 F 
ENDBRANCH   1   7
BRANCH   1  10
HETATM   10  N9  UNL     1     -37.243  15.153  -5.251  1.00 20.00     0.089 N 
HETATM   11  C4  UNL     1     -37.717  14.782  -3.926  1.00 20.00     0.307 C 
HETATM   12  H28 UNL     1     -37.536  14.449  -5.925  1.00 20.00     0.316 HD
ENDBRANCH   1  10
TORSDOF 4
ENDMDL
MODEL 9
REMARK VINA RESULT:      -3.9      1.921      3.644
REMARK  4 active torsions:
REMARK  status: ('A' for Active; 'I' for Inactive)
REMARK    1  A    between atoms: C5_5  and  C6_6 
REMARK    2  A    between atoms: C5_5  and  C8_8 
REMARK    3  A    between atoms: C6_6  and  C7_7 
REMARK    4  A    between atoms: C6_6  and  N9_9 
ROOT
HETATM    1  C6  UNL     1     -34.224  16.659  -4.136  1.00 20.00     0.285 C 
ENDROOT
BRANCH   1   2
HETATM    2  C5  UNL     1     -33.959  15.702  -5.318  1.00 20.00     0.049 C 
BRANCH   2   3
HETATM    3  C8  UNL     1     -35.054  14.654  -5.677  1.00 20.00    -0.049 C 
HETATM    4  C1  UNL     1     -34.768  13.300  -5.008  1.00 20.00     0.014 C 
HETATM    5  C2  UNL     1     -36.402  15.183  -5.142  1.00 20.00     0.014 C 
HETATM    6  C3  UNL     1     -35.198  14.446  -7.194  1.00 20.00     0.014 C 
ENDBRANCH   2   3
ENDBRANCH   1   2
BRANCH   1   7
HETATM    7  C7  UNL     1     -33.620  16.105  -2.846  1.00 20.00     0.386 C 
HETATM    8  F10 UNL     1     -34.570  15.489  -2.102  1.00 20.00    -0.212 F 
HETATM    9  F11 UNL     1     -32.687  15.164  -3.144  1.00 20.00    -0.212 F 
ENDBRANCH   1   7
BRANCH   1  10
HETATM   10  N9  UNL     1     -33.660  17.985  -4.378  1.00 20.00     0.089 N 
HETATM   11  C4  UNL     1     -33.650  18.289  -5.802  1.00 20.00     0.307 C 
HETATM   12  H28 UNL     1     -32.708  18.011  -4.019  1.00 20.00     0.316 HD
ENDBRANCH   1  10
TORSDOF 4
ENDMDL
