MODEL 1
REMARK VINA RESULT:      -4.8      0.000      0.000
REMARK  2 active torsions:
REMARK  status: ('A' for Active; 'I' for Inactive)
REMARK    1  A    between atoms: C5_5  and  C8_8 
REMARK    2  A    between atoms: C5_5  and  O9_9 
ROOT
HETATM    1  C1  UNL     1     -33.715  16.319  -2.487  1.00 20.00     0.004 C 
HETATM    2  C2  UNL     1     -35.194  15.924  -2.485  1.00 20.00     0.012 C 
HETATM    3  C3  UNL     1     -33.129  15.824  -3.811  1.00 20.00     0.044 C 
HETATM    4  C4  UNL     1     -35.529  15.551  -3.941  1.00 20.00    -0.011 C 
HETATM    5  C5  UNL     1     -34.197  14.909  -4.427  1.00 20.00     0.123 C 
HETATM    6  C6  UNL     1     -35.888  16.824  -4.740  1.00 20.00     0.018 C 
HETATM    7  C7  UNL     1     -36.738  14.607  -4.004  1.00 20.00     0.018 C 
ENDROOT
BRANCH   5   8
HETATM    8  C8  UNL     1     -33.974  13.459  -3.979  1.00 20.00     0.388 C 
HETATM    9  F10 UNL     1     -32.678  13.307  -3.631  1.00 20.00    -0.211 F 
HETATM   10  F11 UNL     1     -34.214  12.639  -5.023  1.00 20.00    -0.211 F 
ENDBRANCH   5   8
BRANCH   5  11
HETATM   11  O9  UNL     1     -34.079  14.942  -5.845  1.00 20.00    -0.383 OA
HETATM   12  H25 UNL     1     -33.686  15.799  -6.061  1.00 20.00     0.210 HD
ENDBRANCH   5  11
TORSDOF 2
ENDMDL
MODEL 2
REMARK VINA RESULT:      -4.5      1.547      2.132
REMARK  2 active torsions:
REMARK  status: ('A' for Active; 'I' for Inactive)
REMARK    1  A    between atoms: C5_5  and  C8_8 
REMARK    2  A    between atoms: C5_5  and  O9_9 
ROOT
HETATM    1  C1  UNL     1     -35.531  16.280  -3.266  1.00 20.00     0.004 C 
HETATM    2  C2  UNL     1     -35.713  16.082  -4.773  1.00 20.00     0.012 C 
HETATM    3  C3  UNL     1     -34.088  15.891  -2.942  1.00 20.00     0.044 C 
HETATM    4  C4  UNL     1     -34.292  15.948  -5.351  1.00 20.00    -0.011 C 
HETATM    5  C5  UNL     1     -33.542  15.209  -4.204  1.00 20.00     0.123 C 
HETATM    6  C6  UNL     1     -33.701  17.350  -5.624  1.00 20.00     0.018 C 
HETATM    7  C7  UNL     1     -34.308  15.184  -6.682  1.00 20.00     0.018 C 
ENDROOT
BRANCH   5   8
HETATM    8  C8  UNL     1     -33.789  13.696  -4.137  1.00 20.00     0.388 C 
HETATM    9  F10 UNL     1     -34.750  13.453  -3.220  1.00 20.00    -0.211 F 
HETATM   10  F11 UNL     1     -32.661  13.090  -3.713  1.00 20.00    -0.211 F 
ENDBRANCH   5   8
BRANCH   5  11
HETATM   11  O9  UNL     1     -32.136  15.410  -4.274  1.00 20.00    -0.383 OA
HETATM   12  H25 UNL     1     -31.779  14.647  -4.750  1.00 20.00     0.210 HD
ENDBRANCH   5  11
TORSDOF 2
ENDMDL
MODEL 3
REMARK VINA RESULT:      -4.5      1.975      2.892
REMARK  2 active torsions:
REMARK  status: ('A' for Active; 'I' for Inactive)
REMARK    1  A    between atoms: C5_5  and  C8_8 
REMARK    2  A    between atoms: C5_5  and  O9_9 
ROOT
HETATM    1  C1  UNL     1     -35.337  13.513  -4.082  1.00 20.00     0.004 C 
HETATM    2  C2  UNL     1     -36.031  14.832  -3.734  1.00 20.00     0.012 C 
HETATM    3  C3  UNL     1     -33.957  13.874  -4.634  1.00 20.00     0.044 C 
HETATM    4  C4  UNL     1     -34.921  15.899  -3.732  1.00 20.00    -0.011 C 
HETATM    5  C5  UNL     1     -33.979  15.392  -4.861  1.00 20.00     0.123 C 
HETATM    6  C6  UNL     1     -34.220  15.925  -2.354  1.00 20.00     0.018 C 
HETATM    7  C7  UNL     1     -35.502  17.298  -3.981  1.00 20.00     0.018 C 
ENDROOT
BRANCH   5   8
HETATM    8  C8  UNL     1     -34.447  15.707  -6.287  1.00 20.00     0.388 C 
HETATM    9  F10 UNL     1     -34.078  14.694  -7.100  1.00 20.00    -0.211 F 
HETATM   10  F11 UNL     1     -33.819  16.822  -6.716  1.00 20.00    -0.211 F 
ENDBRANCH   5   8
BRANCH   5  11
HETATM   11  O9  UNL     1     -32.659  15.905  -4.721  1.00 20.00    -0.383 OA
HETATM   12  H25 UNL     1     -32.184  15.645  -5.522  1.00 20.00     0.210 HD
ENDBRANCH   5  11
TORSDOF 2
ENDMDL
MODEL 4
REMARK VINA RESULT:      -4.5      2.545      3.596
REMARK  2 active torsions:
REMARK  status: ('A' for Active; 'I' for Inactive)
REMARK    1  A    between atoms: C5_5  and  C8_8 
REMARK    2  A    between atoms: C5_5  and  O9_9 
ROOT
HETATM    1  C1  UNL     1     -35.658  14.591  -6.020  1.00 20.00     0.004 C 
HETATM    2  C2  UNL     1     -35.838  14.661  -4.502  1.00 20.00     0.012 C 
HETATM    3  C3  UNL     1     -34.295  15.211  -6.331  1.00 20.00     0.044 C 
HETATM    4  C4  UNL     1     -34.442  14.966  -3.929  1.00 20.00    -0.011 C 
HETATM    5  C5  UNL     1     -33.831  15.882  -5.029  1.00 20.00     0.123 C 
HETATM    6  C6  UNL     1     -33.645  13.653  -3.757  1.00 20.00     0.018 C 
HETATM    7  C7  UNL     1     -34.545  15.630  -2.549  1.00 20.00     0.018 C 
ENDROOT
BRANCH   5   8
HETATM    8  C8  UNL     1     -34.300  17.342  -4.992  1.00 20.00     0.388 C 
HETATM    9  F10 UNL     1     -34.578  17.742  -6.251  1.00 20.00    -0.211 F 
HETATM   10  F11 UNL     1     -33.291  18.112  -4.534  1.00 20.00    -0.211 F 
ENDBRANCH   5   8
BRANCH   5  11
HETATM   11  O9  UNL     1     -32.409  15.888  -4.987  1.00 20.00    -0.383 OA
HETATM   12  H25 UNL     1     -32.157  15.185  -4.372  1.00 20.00     0.210 HD
ENDBRANCH   5  11
TORSDOF 2
ENDMDL
MODEL 5
REMARK VINA RESULT:      -4.4     11.617     12.927
REMARK  2 active torsions:
REMARK  status: ('A' for Active; 'I' for Inactive)
REMARK    1  A    between atoms: C5_5  and  C8_8 
REMARK    2  A    between atoms: C5_5  and  O9_9 
ROOT
HETATM    1  C1  UNL     1     -43.155   5.425   0.683  1.00 20.00     0.004 C 
HETATM    2  C2  UNL     1     -43.271   6.389  -0.501  1.00 20.00     0.012 C 
HETATM    3  C3  UNL     1     -41.968   4.507   0.389  1.00 20.00     0.044 C 
HETATM    4  C4  UNL     1     -41.942   6.267  -1.270  1.00 20.00    -0.011 C 
HETATM    5  C5  UNL     1     -41.591   4.763  -1.078  1.00 20.00     0.123 C 
HETATM    6  C6  UNL     1     -40.883   7.198  -0.638  1.00 20.00     0.018 C 
HETATM    7  C7  UNL     1     -42.113   6.687  -2.736  1.00 20.00     0.018 C 
ENDROOT
BRANCH   5   8
HETATM    8  C8  UNL     1     -42.351   3.797  -1.995  1.00 20.00     0.388 C 
HETATM    9  F10 UNL     1     -43.077   2.953  -1.232  1.00 20.00    -0.211 F 
HETATM   10  F11 UNL     1     -41.457   3.056  -2.683  1.00 20.00    -0.211 F 
ENDBRANCH   5   8
BRANCH   5  11
HETATM   11  O9  UNL     1     -40.201   4.516  -1.253  1.00 20.00    -0.383 OA
HETATM   12  H25 UNL     1     -40.070   4.386  -2.203  1.00 20.00     0.210 HD
ENDBRANCH   5  11
TORSDOF 2
ENDMDL
MODEL 6
REMARK VINA RESULT:      -4.3      1.742      2.695
REMARK  2 active torsions:
REMARK  status: ('A' for Active; 'I' for Inactive)
REMARK    1  A    between atoms: C5_5  and  C8_8 
REMARK    2  A    between atoms: C5_5  and  O9_9 
ROOT
HETATM    1  C1  UNL     1     -36.167  16.665  -4.787  1.00 20.00     0.004 C 
HETATM    2  C2  UNL     1     -36.196  15.141  -4.916  1.00 20.00     0.012 C 
HETATM    3  C3  UNL     1     -34.696  17.082  -4.820  1.00 20.00     0.044 C 
HETATM    4  C4  UNL     1     -34.791  14.735  -5.396  1.00 20.00    -0.011 C 
HETATM    5  C5  UNL     1     -33.888  15.783  -4.684  1.00 20.00     0.123 C 
HETATM    6  C6  UNL     1     -34.709  14.846  -6.936  1.00 20.00     0.018 C 
HETATM    7  C7  UNL     1     -34.478  13.280  -5.019  1.00 20.00     0.018 C 
ENDROOT
BRANCH   5   8
HETATM    8  C8  UNL     1     -33.599  15.493  -3.205  1.00 20.00     0.388 C 
HETATM    9  F10 UNL     1     -33.547  16.664  -2.535  1.00 20.00    -0.211 F 
HETATM   10  F11 UNL     1     -32.385  14.912  -3.104  1.00 20.00    -0.211 F 
ENDBRANCH   5   8
BRANCH   5  11
HETATM   11  O9  UNL     1     -32.636  15.940  -5.341  1.00 20.00    -0.383 OA
HETATM   12  H25 UNL     1     -32.743  15.547  -6.219  1.00 20.00     0.210 HD
ENDBRANCH   5  11
TORSDOF 2
ENDMDL
MODEL 7
REMARK VINA RESULT:      -4.3      2.254      3.404
REMARK  2 active torsions:
REMARK  status: ('A' for Active; 'I' for Inactive)
REMARK    1  A    between atoms: C5_5  and  C8_8 
REMARK    2  A    between atoms: C5_5  and  O9_9 
ROOT
HETATM    1  C1  UNL     1     -34.544  13.241  -4.835  1.00 20.00     0.004 C 
HETATM    2  C2  UNL     1     -34.006  13.822  -3.525  1.00 20.00     0.012 C 
HETATM    3  C3  UNL     1     -35.427  14.320  -5.464  1.00 20.00     0.044 C 
HETATM    4  C4  UNL     1     -34.271  15.337  -3.599  1.00 20.00    -0.011 C 
HETATM    5  C5  UNL     1     -35.614  15.395  -4.383  1.00 20.00     0.123 C 
HETATM    6  C6  UNL     1     -33.121  16.034  -4.361  1.00 20.00     0.018 C 
HETATM    7  C7  UNL     1     -34.337  15.954  -2.196  1.00 20.00     0.018 C 
ENDROOT
BRANCH   5   8
HETATM    8  C8  UNL     1     -36.865  15.093  -3.549  1.00 20.00     0.388 C 
HETATM    9  F10 UNL     1     -37.693  14.311  -4.274  1.00 20.00    -0.211 F 
HETATM   10  F11 UNL     1     -37.513  16.251  -3.301  1.00 20.00    -0.211 F 
ENDBRANCH   5   8
BRANCH   5  11
HETATM   11  O9  UNL     1     -35.810  16.658  -5.008  1.00 20.00    -0.383 OA
HETATM   12  H25 UNL     1     -34.962  16.892  -5.410  1.00 20.00     0.210 HD
ENDBRANCH   5  11
TORSDOF 2
ENDMDL
MODEL 8
REMARK VINA RESULT:      -4.3      1.836      2.987
REMARK  2 active torsions:
REMARK  status: ('A' for Active; 'I' for Inactive)
REMARK    1  A    between atoms: C5_5  and  C8_8 
REMARK    2  A    between atoms: C5_5  and  O9_9 
ROOT
HETATM    1  C1  UNL     1     -34.630  13.279  -5.274  1.00 20.00     0.004 C 
HETATM    2  C2  UNL     1     -34.831  14.600  -6.019  1.00 20.00     0.012 C 
HETATM    3  C3  UNL     1     -34.816  13.580  -3.786  1.00 20.00     0.044 C 
HETATM    4  C4  UNL     1     -35.494  15.554  -5.008  1.00 20.00    -0.011 C 
HETATM    5  C5  UNL     1     -34.842  15.111  -3.666  1.00 20.00     0.123 C 
HETATM    6  C6  UNL     1     -37.025  15.340  -5.011  1.00 20.00     0.018 C 
HETATM    7  C7  UNL     1     -35.231  17.020  -5.378  1.00 20.00     0.018 C 
ENDROOT
BRANCH   5   8
HETATM    8  C8  UNL     1     -33.425  15.645  -3.426  1.00 20.00     0.388 C 
HETATM    9  F10 UNL     1     -32.568  14.603  -3.387  1.00 20.00    -0.211 F 
HETATM   10  F11 UNL     1     -33.386  16.248  -2.219  1.00 20.00    -0.211 F 
ENDBRANCH   5   8
BRANCH   5  11
HETATM   11  O9  UNL     1     -35.635  15.479  -2.544  1.00 20.00    -0.383 OA
HETATM   12  H25 UNL     1     -36.278  16.124  -2.870  1.00 20.00     0.210 HD
ENDBRANCH   5  11
TORSDOF 2
ENDMDL
MODEL 9
REMARK VINA RESULT:      -4.2      2.238      3.133
REMARK  2 active torsions:
REMARK  status: ('A' for Active; 'I' for Inactive)
REMARK    1  A    between atoms: C5_5  and  C8_8 
REMARK    2  A    between atoms: C5_5  and  O9_9 
ROOT
HETATM    1  C1  UNL     1     -35.163  13.395  -4.075  1.00 20.00     0.004 C 
HETATM    2  C2  UNL     1     -34.777  13.534  -5.549  1.00 20.00     0.012 C 
HETATM    3  C3  UNL     1     -35.348  14.813  -3.532  1.00 20.00     0.044 C 
HETATM    4  C4  UNL     1     -35.110  14.988  -5.933  1.00 20.00    -0.011 C 
HETATM    5  C5  UNL     1     -34.796  15.753  -4.614  1.00 20.00     0.123 C 
HETATM    6  C6  UNL     1     -36.600  15.099  -6.330  1.00 20.00     0.018 C 
HETATM    7  C7  UNL     1     -34.274  15.446  -7.136  1.00 20.00     0.018 C 
ENDROOT
BRANCH   5   8
HETATM    8  C8  UNL     1     -33.309  16.031  -4.364  1.00 20.00     0.388 C 
HETATM    9  F10 UNL     1     -33.040  15.818  -3.058  1.00 20.00    -0.211 F 
HETATM   10  F11 UNL     1     -33.059  17.332  -4.624  1.00 20.00    -0.211 F 
ENDBRANCH   5   8
BRANCH   5  11
HETATM   11  O9  UNL     1     -35.482  16.998  -4.547  1.00 20.00    -0.383 OA
HETATM   12  H25 UNL     1     -35.868  17.043  -3.661  1.00 20.00     0.210 HD
ENDBRANCH   5  11
TORSDOF 2
ENDMDL
