MODEL 1
REMARK VINA RESULT:      -4.3      0.000      0.000
REMARK  5 active torsions:
REMARK  status: ('A' for Active; 'I' for Inactive)
REMARK    1  A    between atoms: C5_5  and  C7_7 
REMARK    2  A    between atoms: C6_6  and  C8_8 
REMARK    3  A    between atoms: C7_7  and  C9_9 
REMARK    4  A    between atoms: C8_8  and  C9_9 
REMARK    5  A    between atoms: C9_9  and  O10_10 
ROOT
HETATM    1  C1  UNL     1     -34.664  16.685  -0.749  1.00 20.00     0.012 C 
HETATM    2  C2  UNL     1     -34.264  16.287  -1.809  1.00 20.00    -0.117 C 
HETATM    3  C5  UNL     1     -33.773  15.802  -3.108  1.00 20.00     0.096 C 
ENDROOT
BRANCH   3   4
HETATM    4  C7  UNL     1     -34.043  14.303  -3.269  1.00 20.00     0.049 C 
BRANCH   4   5
HETATM    5  C9  UNL     1     -35.182  13.937  -4.245  1.00 20.00     0.055 C 
HETATM    6  C4  UNL     1     -34.791  14.258  -5.693  1.00 20.00     0.045 C 
BRANCH   5   7
HETATM    7  C8  UNL     1     -36.541  14.601  -3.927  1.00 20.00     0.037 C 
BRANCH   7   8
HETATM    8  C6  UNL     1     -37.011  15.637  -4.955  1.00 20.00    -0.002 C 
HETATM    9  C3  UNL     1     -37.070  17.030  -4.346  1.00 20.00     0.005 C 
ENDBRANCH   7   8
ENDBRANCH   5   7
BRANCH   5  10
HETATM   10  O10 UNL     1     -35.355  12.514  -4.195  1.00 20.00    -0.390 OA
HETATM   11  H26 UNL     1     -35.395  12.218  -5.115  1.00 20.00     0.210 HD
ENDBRANCH   5  10
ENDBRANCH   4   5
ENDBRANCH   3   4
TORSDOF 5
ENDMDL
MODEL 2
REMARK VINA RESULT:      -4.3      1.453      2.090
REMARK  5 active torsions:
REMARK  status: ('A' for Active; 'I' for Inactive)
REMARK    1  A    between atoms: C5_5  and  C7_7 
REMARK    2  A    between atoms: C6_6  and  C8_8 
REMARK    3  A    between atoms: C7_7  and  C9_9 
REMARK    4  A    between atoms: C8_8  and  C9_9 
REMARK    5  A    between atoms: C9_9  and  O10_10 
ROOT
HETATM    1  C1  UNL     1     -34.795  17.002  -0.131  1.00 20.00     0.012 C 
HETATM    2  C2  UNL     1     -34.481  16.603  -1.218  1.00 20.00    -0.117 C 
HETATM    3  C5  UNL     1     -34.091  16.116  -2.551  1.00 20.00     0.096 C 
ENDROOT
BRANCH   3   4
HETATM    4  C7  UNL     1     -35.018  14.988  -3.012  1.00 20.00     0.049 C 
BRANCH   4   5
HETATM    5  C9  UNL     1     -34.417  14.025  -4.059  1.00 20.00     0.055 C 
HETATM    6  C4  UNL     1     -33.010  13.573  -3.648  1.00 20.00     0.045 C 
BRANCH   5   7
HETATM    7  C8  UNL     1     -34.371  14.586  -5.499  1.00 20.00     0.037 C 
BRANCH   7   8
HETATM    8  C6  UNL     1     -35.714  14.575  -6.240  1.00 20.00    -0.002 C 
HETATM    9  C3  UNL     1     -35.511  14.483  -7.745  1.00 20.00     0.005 C 
ENDBRANCH   7   8
ENDBRANCH   5   7
BRANCH   5  10
HETATM   10  O10 UNL     1     -35.220  12.837  -4.066  1.00 20.00    -0.390 OA
HETATM   11  H26 UNL     1     -35.797  12.909  -4.840  1.00 20.00     0.210 HD
ENDBRANCH   5  10
ENDBRANCH   4   5
ENDBRANCH   3   4
TORSDOF 5
ENDMDL
MODEL 3
REMARK VINA RESULT:      -4.3      2.063      2.942
REMARK  5 active torsions:
REMARK  status: ('A' for Active; 'I' for Inactive)
REMARK    1  A    between atoms: C5_5  and  C7_7 
REMARK    2  A    between atoms: C6_6  and  C8_8 
REMARK    3  A    between atoms: C7_7  and  C9_9 
REMARK    4  A    between atoms: C8_8  and  C9_9 
REMARK    5  A    between atoms: C9_9  and  O10_10 
ROOT
HETATM    1  C1  UNL     1     -34.784  17.360   0.245  1.00 20.00     0.012 C 
HETATM    2  C2  UNL     1     -34.777  16.751  -0.790  1.00 20.00    -0.117 C 
HETATM    3  C5  UNL     1     -34.773  16.005  -2.058  1.00 20.00     0.096 C 
ENDROOT
BRANCH   3   4
HETATM    4  C7  UNL     1     -33.461  16.223  -2.816  1.00 20.00     0.049 C 
BRANCH   4   5
HETATM    5  C9  UNL     1     -33.601  16.401  -4.344  1.00 20.00     0.055 C 
HETATM    6  C4  UNL     1     -33.600  17.887  -4.727  1.00 20.00     0.045 C 
BRANCH   5   7
HETATM    7  C8  UNL     1     -34.843  15.718  -4.961  1.00 20.00     0.037 C 
BRANCH   7   8
HETATM    8  C6  UNL     1     -34.571  14.363  -5.625  1.00 20.00    -0.002 C 
HETATM    9  C3  UNL     1     -34.833  13.215  -4.660  1.00 20.00     0.005 C 
ENDBRANCH   7   8
ENDBRANCH   5   7
BRANCH   5  10
HETATM   10  O10 UNL     1     -32.431  15.842  -4.955  1.00 20.00    -0.390 OA
HETATM   11  H26 UNL     1     -32.050  16.546  -5.497  1.00 20.00     0.210 HD
ENDBRANCH   5  10
ENDBRANCH   4   5
ENDBRANCH   3   4
TORSDOF 5
ENDMDL
MODEL 4
REMARK VINA RESULT:      -4.2      1.454      3.172
REMARK  5 active torsions:
REMARK  status: ('A' for Active; 'I' for Inactive)
REMARK    1  A    between atoms: C5_5  and  C7_7 
REMARK    2  A    between atoms: C6_6  and  C8_8 
REMARK    3  A    between atoms: C7_7  and  C9_9 
REMARK    4  A    between atoms: C8_8  and  C9_9 
REMARK    5  A    between atoms: C9_9  and  O10_10 
ROOT
HETATM    1  C1  UNL     1     -33.617  17.753  -5.606  1.00 20.00     0.012 C 
HETATM    2  C2  UNL     1     -34.291  16.813  -5.930  1.00 20.00    -0.117 C 
HETATM    3  C5  UNL     1     -35.119  15.665  -6.330  1.00 20.00     0.096 C 
ENDROOT
BRANCH   3   4
HETATM    4  C7  UNL     1     -34.581  14.366  -5.722  1.00 20.00     0.049 C 
BRANCH   4   5
HETATM    5  C9  UNL     1     -35.106  14.030  -4.309  1.00 20.00     0.055 C 
HETATM    6  C4  UNL     1     -36.555  14.500  -4.133  1.00 20.00     0.045 C 
BRANCH   5   7
HETATM    7  C8  UNL     1     -34.246  14.590  -3.153  1.00 20.00     0.037 C 
BRANCH   7   8
HETATM    8  C6  UNL     1     -34.886  15.743  -2.371  1.00 20.00    -0.002 C 
HETATM    9  C3  UNL     1     -33.841  16.765  -1.944  1.00 20.00     0.005 C 
ENDBRANCH   7   8
ENDBRANCH   5   7
BRANCH   5  10
HETATM   10  O10 UNL     1     -35.143  12.601  -4.189  1.00 20.00    -0.390 OA
HETATM   11  H26 UNL     1     -35.566  12.277  -4.997  1.00 20.00     0.210 HD
ENDBRANCH   5  10
ENDBRANCH   4   5
ENDBRANCH   3   4
TORSDOF 5
ENDMDL
MODEL 5
REMARK VINA RESULT:      -4.2     10.408     11.591
REMARK  5 active torsions:
REMARK  status: ('A' for Active; 'I' for Inactive)
REMARK    1  A    between atoms: C5_5  and  C7_7 
REMARK    2  A    between atoms: C6_6  and  C8_8 
REMARK    3  A    between atoms: C7_7  and  C9_9 
REMARK    4  A    between atoms: C8_8  and  C9_9 
REMARK    5  A    between atoms: C9_9  and  O10_10 
ROOT
HETATM    1  C1  UNL     1     -35.152   4.272   6.068  1.00 20.00     0.012 C 
HETATM    2  C2  UNL     1     -34.916   4.831   5.031  1.00 20.00    -0.117 C 
HETATM    3  C5  UNL     1     -34.629   5.512   3.759  1.00 20.00     0.096 C 
ENDROOT
BRANCH   3   4
HETATM    4  C7  UNL     1     -33.790   6.771   3.991  1.00 20.00     0.049 C 
BRANCH   4   5
HETATM    5  C9  UNL     1     -32.458   6.832   3.211  1.00 20.00     0.055 C 
HETATM    6  C4  UNL     1     -31.397   7.617   3.992  1.00 20.00     0.045 C 
BRANCH   5   7
HETATM    7  C8  UNL     1     -32.573   7.414   1.784  1.00 20.00     0.037 C 
BRANCH   7   8
HETATM    8  C6  UNL     1     -31.692   8.639   1.512  1.00 20.00    -0.002 C 
HETATM    9  C3  UNL     1     -32.524   9.911   1.437  1.00 20.00     0.005 C 
ENDBRANCH   7   8
ENDBRANCH   5   7
BRANCH   5  10
HETATM   10  O10 UNL     1     -31.954   5.493   3.110  1.00 20.00    -0.390 OA
HETATM   11  H26 UNL     1     -32.310   5.015   3.873  1.00 20.00     0.210 HD
ENDBRANCH   5  10
ENDBRANCH   4   5
ENDBRANCH   3   4
TORSDOF 5
ENDMDL
MODEL 6
REMARK VINA RESULT:      -4.2     10.908     12.064
REMARK  5 active torsions:
REMARK  status: ('A' for Active; 'I' for Inactive)
REMARK    1  A    between atoms: C5_5  and  C7_7 
REMARK    2  A    between atoms: C6_6  and  C8_8 
REMARK    3  A    between atoms: C7_7  and  C9_9 
REMARK    4  A    between atoms: C8_8  and  C9_9 
REMARK    5  A    between atoms: C9_9  and  O10_10 
ROOT
HETATM    1  C1  UNL     1     -32.170   8.999   1.543  1.00 20.00     0.012 C 
HETATM    2  C2  UNL     1     -32.223   7.986   2.187  1.00 20.00    -0.117 C 
HETATM    3  C5  UNL     1     -32.284   6.745   2.974  1.00 20.00     0.096 C 
ENDROOT
BRANCH   3   4
HETATM    4  C7  UNL     1     -33.547   6.708   3.838  1.00 20.00     0.049 C 
BRANCH   4   5
HETATM    5  C9  UNL     1     -34.482   5.502   3.592  1.00 20.00     0.055 C 
HETATM    6  C4  UNL     1     -35.937   5.958   3.432  1.00 20.00     0.045 C 
BRANCH   5   7
HETATM    7  C8  UNL     1     -34.409   4.401   4.674  1.00 20.00     0.037 C 
BRANCH   7   8
HETATM    8  C6  UNL     1     -35.104   4.747   5.996  1.00 20.00    -0.002 C 
HETATM    9  C3  UNL     1     -34.404   5.900   6.700  1.00 20.00     0.005 C 
ENDBRANCH   7   8
ENDBRANCH   5   7
BRANCH   5  10
HETATM   10  O10 UNL     1     -34.116   4.920   2.333  1.00 20.00    -0.390 OA
HETATM   11  H26 UNL     1     -34.932   4.561   1.958  1.00 20.00     0.210 HD
ENDBRANCH   5  10
ENDBRANCH   4   5
ENDBRANCH   3   4
TORSDOF 5
ENDMDL
MODEL 7
REMARK VINA RESULT:      -4.0      1.765      3.641
REMARK  5 active torsions:
REMARK  status: ('A' for Active; 'I' for Inactive)
REMARK    1  A    between atoms: C5_5  and  C7_7 
REMARK    2  A    between atoms: C6_6  and  C8_8 
REMARK    3  A    between atoms: C7_7  and  C9_9 
REMARK    4  A    between atoms: C8_8  and  C9_9 
REMARK    5  A    between atoms: C9_9  and  O10_10 
ROOT
HETATM    1  C1  UNL     1     -38.018  15.042  -3.703  1.00 20.00     0.012 C 
HETATM    2  C2  UNL     1     -36.999  14.685  -4.229  1.00 20.00    -0.117 C 
HETATM    3  C5  UNL     1     -35.753  14.244  -4.875  1.00 20.00     0.096 C 
ENDROOT
BRANCH   3   4
HETATM    4  C7  UNL     1     -34.798  15.423  -5.081  1.00 20.00     0.049 C 
BRANCH   4   5
HETATM    5  C9  UNL     1     -33.574  15.455  -4.139  1.00 20.00     0.055 C 
HETATM    6  C4  UNL     1     -33.250  14.053  -3.610  1.00 20.00     0.045 C 
BRANCH   5   7
HETATM    7  C8  UNL     1     -33.705  16.431  -2.948  1.00 20.00     0.037 C 
BRANCH   7   8
HETATM    8  C6  UNL     1     -34.714  16.008  -1.873  1.00 20.00    -0.002 C 
HETATM    9  C3  UNL     1     -34.553  16.841  -0.609  1.00 20.00     0.005 C 
ENDBRANCH   7   8
ENDBRANCH   5   7
BRANCH   5  10
HETATM   10  O10 UNL     1     -32.437  15.849  -4.920  1.00 20.00    -0.390 OA
HETATM   11  H26 UNL     1     -32.251  15.107  -5.513  1.00 20.00     0.210 HD
ENDBRANCH   5  10
ENDBRANCH   4   5
ENDBRANCH   3   4
TORSDOF 5
ENDMDL
MODEL 8
REMARK VINA RESULT:      -4.0     10.389     11.627
REMARK  5 active torsions:
REMARK  status: ('A' for Active; 'I' for Inactive)
REMARK    1  A    between atoms: C5_5  and  C7_7 
REMARK    2  A    between atoms: C6_6  and  C8_8 
REMARK    3  A    between atoms: C7_7  and  C9_9 
REMARK    4  A    between atoms: C8_8  and  C9_9 
REMARK    5  A    between atoms: C9_9  and  O10_10 
ROOT
HETATM    1  C1  UNL     1     -32.408   9.445   0.135  1.00 20.00     0.012 C 
HETATM    2  C2  UNL     1     -32.170   8.806   1.124  1.00 20.00    -0.117 C 
HETATM    3  C5  UNL     1     -31.875   8.024   2.334  1.00 20.00     0.096 C 
ENDROOT
BRANCH   3   4
HETATM    4  C7  UNL     1     -33.161   7.685   3.093  1.00 20.00     0.049 C 
BRANCH   4   5
HETATM    5  C9  UNL     1     -33.292   6.215   3.550  1.00 20.00     0.055 C 
HETATM    6  C4  UNL     1     -34.177   5.415   2.587  1.00 20.00     0.045 C 
BRANCH   5   7
HETATM    7  C8  UNL     1     -33.816   6.034   4.993  1.00 20.00     0.037 C 
BRANCH   7   8
HETATM    8  C6  UNL     1     -35.086   5.185   5.117  1.00 20.00    -0.002 C 
HETATM    9  C3  UNL     1     -34.835   3.936   5.950  1.00 20.00     0.005 C 
ENDBRANCH   7   8
ENDBRANCH   5   7
BRANCH   5  10
HETATM   10  O10 UNL     1     -31.990   5.619   3.467  1.00 20.00    -0.390 OA
HETATM   11  H26 UNL     1     -31.960   5.162   2.615  1.00 20.00     0.210 HD
ENDBRANCH   5  10
ENDBRANCH   4   5
ENDBRANCH   3   4
TORSDOF 5
ENDMDL
MODEL 9
REMARK VINA RESULT:      -3.9      1.989      3.999
REMARK  5 active torsions:
REMARK  status: ('A' for Active; 'I' for Inactive)
REMARK    1  A    between atoms: C5_5  and  C7_7 
REMARK    2  A    between atoms: C6_6  and  C8_8 
REMARK    3  A    between atoms: C7_7  and  C9_9 
REMARK    4  A    between atoms: C8_8  and  C9_9 
REMARK    5  A    between atoms: C9_9  and  O10_10 
ROOT
HETATM    1  C1  UNL     1     -37.151  15.393  -7.103  1.00 20.00     0.012 C 
HETATM    2  C2  UNL     1     -35.992  15.136  -6.923  1.00 20.00    -0.117 C 
HETATM    3  C5  UNL     1     -34.572  14.819  -6.706  1.00 20.00     0.096 C 
ENDROOT
BRANCH   3   4
HETATM    4  C7  UNL     1     -34.018  15.588  -5.503  1.00 20.00     0.049 C 
BRANCH   4   5
HETATM    5  C9  UNL     1     -33.801  14.749  -4.225  1.00 20.00     0.055 C 
HETATM    6  C4  UNL     1     -34.128  13.272  -4.474  1.00 20.00     0.045 C 
BRANCH   5   7
HETATM    7  C8  UNL     1     -34.588  15.243  -2.990  1.00 20.00     0.037 C 
BRANCH   7   8
HETATM    8  C6  UNL     1     -33.966  16.442  -2.263  1.00 20.00    -0.002 C 
HETATM    9  C3  UNL     1     -34.584  16.632  -0.886  1.00 20.00     0.005 C 
ENDBRANCH   7   8
ENDBRANCH   5   7
BRANCH   5  10
HETATM   10  O10 UNL     1     -32.402  14.791  -3.911  1.00 20.00    -0.390 OA
HETATM   11  H26 UNL     1     -32.347  14.931  -2.956  1.00 20.00     0.210 HD
ENDBRANCH   5  10
ENDBRANCH   4   5
ENDBRANCH   3   4
TORSDOF 5
ENDMDL
