MODEL 1
REMARK VINA RESULT:      -4.2      0.000      0.000
REMARK  4 active torsions:
REMARK  status: ('A' for Active; 'I' for Inactive)
REMARK    1  A    between atoms: C5_5  and  C8_8 
REMARK    2  A    between atoms: C6_6  and  C8_8 
REMARK    3  A    between atoms: C7_7  and  C8_8 
REMARK    4  A    between atoms: C8_8  and  N9_9 
ROOT
HETATM    1  C8  UNL     1     -34.486  15.047  -4.480  1.00 20.00     0.217 C 
ENDROOT
BRANCH   1   2
HETATM    2  C5  UNL     1     -35.256  15.419  -5.782  1.00 20.00     0.043 C 
HETATM    3  C1  UNL     1     -35.301  14.347  -6.867  1.00 20.00     0.008 C 
ENDBRANCH   1   2
BRANCH   1   4
HETATM    4  C6  UNL     1     -35.281  15.413  -3.177  1.00 20.00     0.021 C 
HETATM    5  C2  UNL     1     -36.460  16.369  -3.404  1.00 20.00     0.012 C 
HETATM    6  C3  UNL     1     -34.398  15.996  -2.059  1.00 20.00     0.012 C 
ENDBRANCH   1   4
BRANCH   1   7
HETATM    7  C7  UNL     1     -34.112  13.553  -4.547  1.00 20.00     0.391 C 
HETATM    8  F10 UNL     1     -32.980  13.320  -3.829  1.00 20.00    -0.212 F 
HETATM    9  F11 UNL     1     -35.078  12.791  -3.975  1.00 20.00    -0.212 F 
ENDBRANCH   1   7
BRANCH   1  10
HETATM   10  N9  UNL     1     -33.207  15.783  -4.465  1.00 20.00     0.094 N 
HETATM   11  C4  UNL     1     -33.306  16.975  -5.286  1.00 20.00     0.307 C 
HETATM   12  H28 UNL     1     -32.485  15.170  -4.827  1.00 20.00     0.316 HD
ENDBRANCH   1  10
TORSDOF 4
ENDMDL
MODEL 2
REMARK VINA RESULT:      -4.2      1.198      2.301
REMARK  4 active torsions:
REMARK  status: ('A' for Active; 'I' for Inactive)
REMARK    1  A    between atoms: C5_5  and  C8_8 
REMARK    2  A    between atoms: C6_6  and  C8_8 
REMARK    3  A    between atoms: C7_7  and  C8_8 
REMARK    4  A    between atoms: C8_8  and  N9_9 
ROOT
HETATM    1  C8  UNL     1     -34.331  15.024  -4.791  1.00 20.00     0.217 C 
ENDROOT
BRANCH   1   2
HETATM    2  C5  UNL     1     -35.846  15.380  -4.840  1.00 20.00     0.043 C 
HETATM    3  C1  UNL     1     -36.747  14.623  -3.870  1.00 20.00     0.008 C 
ENDBRANCH   1   2
BRANCH   1   4
HETATM    4  C6  UNL     1     -33.470  16.118  -4.065  1.00 20.00     0.021 C 
HETATM    5  C2  UNL     1     -33.792  16.287  -2.573  1.00 20.00     0.012 C 
HETATM    6  C3  UNL     1     -33.544  17.504  -4.731  1.00 20.00     0.012 C 
ENDBRANCH   1   4
BRANCH   1   7
HETATM    7  C7  UNL     1     -34.180  13.630  -4.150  1.00 20.00     0.391 C 
HETATM    8  F10 UNL     1     -34.454  12.661  -5.065  1.00 20.00    -0.212 F 
HETATM    9  F11 UNL     1     -32.899  13.419  -3.757  1.00 20.00    -0.212 F 
ENDBRANCH   1   7
BRANCH   1  10
HETATM   10  N9  UNL     1     -33.836  14.888  -6.175  1.00 20.00     0.094 N 
HETATM   11  C4  UNL     1     -34.924  15.073  -7.116  1.00 20.00     0.307 C 
HETATM   12  H28 UNL     1     -33.440  13.961  -6.279  1.00 20.00     0.316 HD
ENDBRANCH   1  10
TORSDOF 4
ENDMDL
MODEL 3
REMARK VINA RESULT:      -4.2      1.194      3.022
REMARK  4 active torsions:
REMARK  status: ('A' for Active; 'I' for Inactive)
REMARK    1  A    between atoms: C5_5  and  C8_8 
REMARK    2  A    between atoms: C6_6  and  C8_8 
REMARK    3  A    between atoms: C7_7  and  C8_8 
REMARK    4  A    between atoms: C8_8  and  N9_9 
ROOT
HETATM    1  C8  UNL     1     -34.555  15.145  -4.208  1.00 20.00     0.217 C 
ENDROOT
BRANCH   1   2
HETATM    2  C5  UNL     1     -33.653  15.711  -3.071  1.00 20.00     0.043 C 
HETATM    3  C1  UNL     1     -34.377  16.229  -1.833  1.00 20.00     0.008 C 
ENDBRANCH   1   2
BRANCH   1   4
HETATM    4  C6  UNL     1     -34.527  16.030  -5.505  1.00 20.00     0.021 C 
HETATM    5  C2  UNL     1     -34.216  15.253  -6.792  1.00 20.00     0.012 C 
HETATM    6  C3  UNL     1     -33.558  17.222  -5.418  1.00 20.00     0.012 C 
ENDBRANCH   1   4
BRANCH   1   7
HETATM    7  C7  UNL     1     -34.141  13.685  -4.477  1.00 20.00     0.391 C 
HETATM    8  F10 UNL     1     -33.025  13.375  -3.763  1.00 20.00    -0.212 F 
HETATM    9  F11 UNL     1     -35.104  12.828  -4.053  1.00 20.00    -0.212 F 
ENDBRANCH   1   7
BRANCH   1  10
HETATM   10  N9  UNL     1     -35.946  15.086  -3.717  1.00 20.00     0.094 N 
HETATM   11  C4  UNL     1     -36.837  15.741  -4.657  1.00 20.00     0.307 C 
HETATM   12  H28 UNL     1     -35.985  15.553  -2.819  1.00 20.00     0.316 HD
ENDBRANCH   1  10
TORSDOF 4
ENDMDL
MODEL 4
REMARK VINA RESULT:      -4.1      1.278      3.284
REMARK  4 active torsions:
REMARK  status: ('A' for Active; 'I' for Inactive)
REMARK    1  A    between atoms: C5_5  and  C8_8 
REMARK    2  A    between atoms: C6_6  and  C8_8 
REMARK    3  A    between atoms: C7_7  and  C8_8 
REMARK    4  A    between atoms: C8_8  and  N9_9 
ROOT
HETATM    1  C8  UNL     1     -34.839  15.223  -4.278  1.00 20.00     0.217 C 
ENDROOT
BRANCH   1   2
HETATM    2  C5  UNL     1     -35.161  16.301  -3.201  1.00 20.00     0.043 C 
HETATM    3  C1  UNL     1     -34.501  16.109  -1.839  1.00 20.00     0.008 C 
ENDBRANCH   1   2
BRANCH   1   4
HETATM    4  C6  UNL     1     -33.831  15.734  -5.368  1.00 20.00     0.021 C 
HETATM    5  C2  UNL     1     -33.520  17.234  -5.287  1.00 20.00     0.012 C 
HETATM    6  C3  UNL     1     -34.266  15.411  -6.809  1.00 20.00     0.012 C 
ENDBRANCH   1   4
BRANCH   1   7
HETATM    7  C7  UNL     1     -34.344  13.952  -3.561  1.00 20.00     0.391 C 
HETATM    8  F10 UNL     1     -35.046  12.868  -3.988  1.00 20.00    -0.212 F 
HETATM    9  F11 UNL     1     -33.047  13.701  -3.871  1.00 20.00    -0.212 F 
ENDBRANCH   1   7
BRANCH   1  10
HETATM   10  N9  UNL     1     -36.097  14.843  -4.951  1.00 20.00     0.094 N 
HETATM   11  C4  UNL     1     -37.232  15.406  -4.246  1.00 20.00     0.307 C 
HETATM   12  H28 UNL     1     -36.158  13.831  -4.958  1.00 20.00     0.316 HD
ENDBRANCH   1  10
TORSDOF 4
ENDMDL
MODEL 5
REMARK VINA RESULT:      -4.0      1.085      2.714
REMARK  4 active torsions:
REMARK  status: ('A' for Active; 'I' for Inactive)
REMARK    1  A    between atoms: C5_5  and  C8_8 
REMARK    2  A    between atoms: C6_6  and  C8_8 
REMARK    3  A    between atoms: C7_7  and  C8_8 
REMARK    4  A    between atoms: C8_8  and  N9_9 
ROOT
HETATM    1  C8  UNL     1     -34.633  15.098  -4.558  1.00 20.00     0.217 C 
ENDROOT
BRANCH   1   2
HETATM    2  C5  UNL     1     -33.410  16.044  -4.375  1.00 20.00     0.043 C 
HETATM    3  C1  UNL     1     -33.385  17.290  -5.255  1.00 20.00     0.008 C 
ENDBRANCH   1   2
BRANCH   1   4
HETATM    4  C6  UNL     1     -35.471  15.428  -5.844  1.00 20.00     0.021 C 
HETATM    5  C2  UNL     1     -36.991  15.413  -5.628  1.00 20.00     0.012 C 
HETATM    6  C3  UNL     1     -35.148  14.515  -7.041  1.00 20.00     0.012 C 
ENDBRANCH   1   4
BRANCH   1   7
HETATM    7  C7  UNL     1     -34.129  13.642  -4.535  1.00 20.00     0.391 C 
HETATM    8  F10 UNL     1     -32.989  13.551  -3.798  1.00 20.00    -0.212 F 
HETATM    9  F11 UNL     1     -35.031  12.832  -3.926  1.00 20.00    -0.212 F 
ENDBRANCH   1   7
BRANCH   1  10
HETATM   10  N9  UNL     1     -35.515  15.238  -3.382  1.00 20.00     0.094 N 
HETATM   11  C4  UNL     1     -34.786  15.835  -2.278  1.00 20.00     0.307 C 
HETATM   12  H28 UNL     1     -35.845  14.316  -3.123  1.00 20.00     0.316 HD
ENDBRANCH   1  10
TORSDOF 4
ENDMDL
MODEL 6
REMARK VINA RESULT:      -4.0      1.909      3.510
REMARK  4 active torsions:
REMARK  status: ('A' for Active; 'I' for Inactive)
REMARK    1  A    between atoms: C5_5  and  C8_8 
REMARK    2  A    between atoms: C6_6  and  C8_8 
REMARK    3  A    between atoms: C7_7  and  C8_8 
REMARK    4  A    between atoms: C8_8  and  N9_9 
ROOT
HETATM    1  C8  UNL     1     -34.722  15.573  -3.686  1.00 20.00     0.217 C 
ENDROOT
BRANCH   1   2
HETATM    2  C5  UNL     1     -33.814  16.307  -2.655  1.00 20.00     0.043 C 
HETATM    3  C1  UNL     1     -34.456  16.639  -1.311  1.00 20.00     0.008 C 
ENDBRANCH   1   2
BRANCH   1   4
HETATM    4  C6  UNL     1     -34.435  14.031  -3.762  1.00 20.00     0.021 C 
HETATM    5  C2  UNL     1     -32.990  13.641  -3.420  1.00 20.00     0.012 C 
HETATM    6  C3  UNL     1     -34.792  13.403  -5.121  1.00 20.00     0.012 C 
ENDBRANCH   1   4
BRANCH   1   7
HETATM    7  C7  UNL     1     -36.193  15.886  -3.349  1.00 20.00     0.391 C 
HETATM    8  F10 UNL     1     -36.773  16.570  -4.372  1.00 20.00    -0.212 F 
HETATM    9  F11 UNL     1     -36.908  14.741  -3.214  1.00 20.00    -0.212 F 
ENDBRANCH   1   7
BRANCH   1  10
HETATM   10  N9  UNL     1     -34.481  16.156  -5.021  1.00 20.00     0.094 N 
HETATM   11  C4  UNL     1     -33.293  16.988  -4.997  1.00 20.00     0.307 C 
HETATM   12  H28 UNL     1     -35.290  16.711  -5.274  1.00 20.00     0.316 HD
ENDBRANCH   1  10
TORSDOF 4
ENDMDL
MODEL 7
REMARK VINA RESULT:      -4.0      2.396      3.324
REMARK  4 active torsions:
REMARK  status: ('A' for Active; 'I' for Inactive)
REMARK    1  A    between atoms: C5_5  and  C8_8 
REMARK    2  A    between atoms: C6_6  and  C8_8 
REMARK    3  A    between atoms: C7_7  and  C8_8 
REMARK    4  A    between atoms: C8_8  and  N9_9 
ROOT
HETATM    1  C8  UNL     1     -34.792  15.836  -3.436  1.00 20.00     0.217 C 
ENDROOT
BRANCH   1   2
HETATM    2  C5  UNL     1     -34.861  17.078  -4.374  1.00 20.00     0.043 C 
HETATM    3  C1  UNL     1     -33.876  17.097  -5.538  1.00 20.00     0.008 C 
ENDBRANCH   1   2
BRANCH   1   4
HETATM    4  C6  UNL     1     -34.263  14.550  -4.166  1.00 20.00     0.021 C 
HETATM    5  C2  UNL     1     -35.285  13.407  -4.249  1.00 20.00     0.012 C 
HETATM    6  C3  UNL     1     -32.963  13.989  -3.562  1.00 20.00     0.012 C 
ENDBRANCH   1   4
BRANCH   1   7
HETATM    7  C7  UNL     1     -33.948  16.206  -2.201  1.00 20.00     0.391 C 
HETATM    8  F10 UNL     1     -33.628  17.528  -2.229  1.00 20.00    -0.212 F 
HETATM    9  F11 UNL     1     -34.659  16.020  -1.060  1.00 20.00    -0.212 F 
ENDBRANCH   1   7
BRANCH   1  10
HETATM   10  N9  UNL     1     -36.149  15.556  -2.928  1.00 20.00     0.094 N 
HETATM   11  C4  UNL     1     -37.062  16.608  -3.333  1.00 20.00     0.307 C 
HETATM   12  H28 UNL     1     -36.104  15.505  -1.917  1.00 20.00     0.316 HD
ENDBRANCH   1  10
TORSDOF 4
ENDMDL
MODEL 8
REMARK VINA RESULT:      -4.0      1.635      3.199
REMARK  4 active torsions:
REMARK  status: ('A' for Active; 'I' for Inactive)
REMARK    1  A    between atoms: C5_5  and  C8_8 
REMARK    2  A    between atoms: C6_6  and  C8_8 
REMARK    3  A    between atoms: C7_7  and  C8_8 
REMARK    4  A    between atoms: C8_8  and  N9_9 
ROOT
HETATM    1  C8  UNL     1     -34.331  15.435  -4.461  1.00 20.00     0.217 C 
ENDROOT
BRANCH   1   2
HETATM    2  C5  UNL     1     -35.606  15.263  -3.583  1.00 20.00     0.043 C 
HETATM    3  C1  UNL     1     -36.627  16.394  -3.651  1.00 20.00     0.008 C 
ENDBRANCH   1   2
BRANCH   1   4
HETATM    4  C6  UNL     1     -34.522  16.484  -5.614  1.00 20.00     0.021 C 
HETATM    5  C2  UNL     1     -34.358  15.906  -7.026  1.00 20.00     0.012 C 
HETATM    6  C3  UNL     1     -33.605  17.713  -5.488  1.00 20.00     0.012 C 
ENDBRANCH   1   4
BRANCH   1   7
HETATM    7  C7  UNL     1     -33.147  15.779  -3.537  1.00 20.00     0.391 C 
HETATM    8  F10 UNL     1     -33.582  15.948  -2.259  1.00 20.00    -0.212 F 
HETATM    9  F11 UNL     1     -32.258  14.755  -3.494  1.00 20.00    -0.212 F 
ENDBRANCH   1   7
BRANCH   1  10
HETATM   10  N9  UNL     1     -34.002  14.131  -5.070  1.00 20.00     0.094 N 
HETATM   11  C4  UNL     1     -34.932  13.116  -4.613  1.00 20.00     0.307 C 
HETATM   12  H28 UNL     1     -33.057  13.885  -4.799  1.00 20.00     0.316 HD
ENDBRANCH   1  10
TORSDOF 4
ENDMDL
MODEL 9
REMARK VINA RESULT:      -4.0      2.273      3.384
REMARK  4 active torsions:
REMARK  status: ('A' for Active; 'I' for Inactive)
REMARK    1  A    between atoms: C5_5  and  C8_8 
REMARK    2  A    between atoms: C6_6  and  C8_8 
REMARK    3  A    between atoms: C7_7  and  C8_8 
REMARK    4  A    between atoms: C8_8  and  N9_9 
ROOT
HETATM    1  C8  UNL     1     -34.610  15.879  -3.639  1.00 20.00     0.217 C 
ENDROOT
BRANCH   1   2
HETATM    2  C5  UNL     1     -33.522  16.457  -4.591  1.00 20.00     0.043 C 
HETATM    3  C1  UNL     1     -33.877  16.498  -6.074  1.00 20.00     0.008 C 
ENDBRANCH   1   2
BRANCH   1   4
HETATM    4  C6  UNL     1     -34.455  14.335  -3.402  1.00 20.00     0.021 C 
HETATM    5  C2  UNL     1     -33.025  13.809  -3.587  1.00 20.00     0.012 C 
HETATM    6  C3  UNL     1     -35.398  13.479  -4.267  1.00 20.00     0.012 C 
ENDBRANCH   1   4
BRANCH   1   7
HETATM    7  C7  UNL     1     -34.586  16.686  -2.326  1.00 20.00     0.391 C 
HETATM    8  F10 UNL     1     -34.626  15.845  -1.258  1.00 20.00    -0.212 F 
HETATM    9  F11 UNL     1     -33.426  17.380  -2.211  1.00 20.00    -0.212 F 
ENDBRANCH   1   7
BRANCH   1  10
HETATM   10  N9  UNL     1     -35.937  16.125  -4.239  1.00 20.00     0.094 N 
HETATM   11  C4  UNL     1     -36.614  17.197  -3.536  1.00 20.00     0.307 C 
HETATM   12  H28 UNL     1     -36.476  15.270  -4.173  1.00 20.00     0.316 HD
ENDBRANCH   1  10
TORSDOF 4
ENDMDL
