MODEL 1
REMARK VINA RESULT:      -3.8      0.000      0.000
REMARK  3 active torsions:
REMARK  status: ('A' for Active; 'I' for Inactive)
REMARK    1  A    between atoms: C3_3  and  N7_7 
REMARK    2  A    between atoms: C4_4  and  C5_5 
REMARK    3  A    between atoms: C4_4  and  N7_7 
ROOT
HETATM    1  C1  UNL     1     -32.233   7.482   2.600  1.00 20.00     0.089 C 
HETATM    2  C3  UNL     1     -32.489   6.403   3.553  1.00 20.00     0.395 C 
HETATM    3  N6  UNL     1     -32.025   8.336   1.843  1.00 20.00    -0.195 NA
ENDROOT
BRANCH   2   4
HETATM    4  N7  UNL     1     -33.880   6.424   4.002  1.00 20.00     0.099 N 
HETATM    5  C2  UNL     1     -34.651   5.383   3.325  1.00 20.00     0.311 C 
BRANCH   4   6
HETATM    6  C4  UNL     1     -33.951   6.252   5.453  1.00 20.00     0.304 C 
BRANCH   6   7
HETATM    7  C5  UNL     1     -34.832   5.082   5.831  1.00 20.00     0.252 C 
HETATM    8  F8  UNL     1     -34.108   4.203   6.576  1.00 20.00    -0.254 F 
ENDBRANCH   6   7
ENDBRANCH   4   6
ENDBRANCH   2   4
TORSDOF 3
ENDMDL
MODEL 2
REMARK VINA RESULT:      -3.6     11.232     11.955
REMARK  3 active torsions:
REMARK  status: ('A' for Active; 'I' for Inactive)
REMARK    1  A    between atoms: C3_3  and  N7_7 
REMARK    2  A    between atoms: C4_4  and  C5_5 
REMARK    3  A    between atoms: C4_4  and  N7_7 
ROOT
HETATM    1  C1  UNL     1     -33.958  13.535  -4.091  1.00 20.00     0.089 C 
HETATM    2  C3  UNL     1     -32.854  14.377  -3.634  1.00 20.00     0.395 C 
HETATM    3  N6  UNL     1     -34.832  12.863  -4.454  1.00 20.00    -0.195 NA
ENDROOT
BRANCH   2   4
HETATM    4  N7  UNL     1     -33.272  15.775  -3.533  1.00 20.00     0.099 N 
HETATM    5  C2  UNL     1     -33.594  16.309  -4.856  1.00 20.00     0.311 C 
BRANCH   4   6
HETATM    6  C4  UNL     1     -34.421  15.900  -2.637  1.00 20.00     0.304 C 
BRANCH   6   7
HETATM    7  C5  UNL     1     -34.100  16.768  -1.440  1.00 20.00     0.252 C 
HETATM    8  F8  UNL     1     -34.778  16.301  -0.358  1.00 20.00    -0.254 F 
ENDBRANCH   6   7
ENDBRANCH   4   6
ENDBRANCH   2   4
TORSDOF 3
ENDMDL
MODEL 3
REMARK VINA RESULT:      -3.5      2.357      4.169
REMARK  3 active torsions:
REMARK  status: ('A' for Active; 'I' for Inactive)
REMARK    1  A    between atoms: C3_3  and  N7_7 
REMARK    2  A    between atoms: C4_4  and  C5_5 
REMARK    3  A    between atoms: C4_4  and  N7_7 
ROOT
HETATM    1  C1  UNL     1     -35.069   4.432   4.719  1.00 20.00     0.089 C 
HETATM    2  C3  UNL     1     -35.079   5.529   3.753  1.00 20.00     0.395 C 
HETATM    3  N6  UNL     1     -35.066   3.559   5.484  1.00 20.00    -0.195 NA
ENDROOT
BRANCH   2   4
HETATM    4  N7  UNL     1     -34.024   6.497   4.054  1.00 20.00     0.099 N 
HETATM    5  C2  UNL     1     -33.766   6.540   5.493  1.00 20.00     0.311 C 
BRANCH   4   6
HETATM    6  C4  UNL     1     -32.801   6.162   3.324  1.00 20.00     0.304 C 
BRANCH   6   7
HETATM    7  C5  UNL     1     -32.113   7.402   2.797  1.00 20.00     0.252 C 
HETATM    8  F8  UNL     1     -31.237   7.856   3.733  1.00 20.00    -0.254 F 
ENDBRANCH   6   7
ENDBRANCH   4   6
ENDBRANCH   2   4
TORSDOF 3
ENDMDL
MODEL 4
REMARK VINA RESULT:      -3.4      1.262      1.340
REMARK  3 active torsions:
REMARK  status: ('A' for Active; 'I' for Inactive)
REMARK    1  A    between atoms: C3_3  and  N7_7 
REMARK    2  A    between atoms: C4_4  and  C5_5 
REMARK    3  A    between atoms: C4_4  and  N7_7 
ROOT
HETATM    1  C1  UNL     1     -32.311   7.433   2.679  1.00 20.00     0.089 C 
HETATM    2  C3  UNL     1     -32.532   6.201   3.433  1.00 20.00     0.395 C 
HETATM    3  N6  UNL     1     -32.131   8.410   2.078  1.00 20.00    -0.195 NA
ENDROOT
BRANCH   2   4
HETATM    4  N7  UNL     1     -33.852   6.205   4.063  1.00 20.00     0.099 N 
HETATM    5  C2  UNL     1     -34.821   5.503   3.222  1.00 20.00     0.311 C 
BRANCH   4   6
HETATM    6  C4  UNL     1     -33.787   5.592   5.389  1.00 20.00     0.304 C 
BRANCH   6   7
HETATM    7  C5  UNL     1     -34.137   6.584   6.477  1.00 20.00     0.252 C 
HETATM    8  F8  UNL     1     -33.007   7.234   6.866  1.00 20.00    -0.254 F 
ENDBRANCH   6   7
ENDBRANCH   4   6
ENDBRANCH   2   4
TORSDOF 3
ENDMDL
MODEL 5
REMARK VINA RESULT:      -3.4     11.323     12.096
REMARK  3 active torsions:
REMARK  status: ('A' for Active; 'I' for Inactive)
REMARK    1  A    between atoms: C3_3  and  N7_7 
REMARK    2  A    between atoms: C4_4  and  C5_5 
REMARK    3  A    between atoms: C4_4  and  N7_7 
ROOT
HETATM    1  C1  UNL     1     -37.064  14.802  -3.863  1.00 20.00     0.089 C 
HETATM    2  C3  UNL     1     -35.774  15.462  -4.057  1.00 20.00     0.395 C 
HETATM    3  N6  UNL     1     -38.090  14.282  -3.713  1.00 20.00    -0.195 NA
ENDROOT
BRANCH   2   4
HETATM    4  N7  UNL     1     -34.739  14.831  -3.239  1.00 20.00     0.099 N 
HETATM    5  C2  UNL     1     -34.179  13.670  -3.931  1.00 20.00     0.311 C 
BRANCH   4   6
HETATM    6  C4  UNL     1     -33.685  15.792  -2.917  1.00 20.00     0.304 C 
BRANCH   6   7
HETATM    7  C5  UNL     1     -34.122  16.755  -1.835  1.00 20.00     0.252 C 
HETATM    8  F8  UNL     1     -34.744  16.058  -0.846  1.00 20.00    -0.254 F 
ENDBRANCH   6   7
ENDBRANCH   4   6
ENDBRANCH   2   4
TORSDOF 3
ENDMDL
MODEL 6
REMARK VINA RESULT:      -3.4     11.605     12.468
REMARK  3 active torsions:
REMARK  status: ('A' for Active; 'I' for Inactive)
REMARK    1  A    between atoms: C3_3  and  N7_7 
REMARK    2  A    between atoms: C4_4  and  C5_5 
REMARK    3  A    between atoms: C4_4  and  N7_7 
ROOT
HETATM    1  C1  UNL     1     -37.213  14.699  -4.161  1.00 20.00     0.089 C 
HETATM    2  C3  UNL     1     -35.948  15.176  -4.715  1.00 20.00     0.395 C 
HETATM    3  N6  UNL     1     -38.218  14.324  -3.718  1.00 20.00    -0.195 NA
ENDROOT
BRANCH   2   4
HETATM    4  N7  UNL     1     -35.346  14.167  -5.586  1.00 20.00     0.099 N 
HETATM    5  C2  UNL     1     -34.575  14.805  -6.651  1.00 20.00     0.311 C 
BRANCH   4   6
HETATM    6  C4  UNL     1     -34.497  13.264  -4.809  1.00 20.00     0.304 C 
BRANCH   6   7
HETATM    7  C5  UNL     1     -33.607  14.025  -3.852  1.00 20.00     0.252 C 
HETATM    8  F8  UNL     1     -32.538  13.249  -3.526  1.00 20.00    -0.254 F 
ENDBRANCH   6   7
ENDBRANCH   4   6
ENDBRANCH   2   4
TORSDOF 3
ENDMDL
MODEL 7
REMARK VINA RESULT:      -3.3     12.102     12.680
REMARK  3 active torsions:
REMARK  status: ('A' for Active; 'I' for Inactive)
REMARK    1  A    between atoms: C3_3  and  N7_7 
REMARK    2  A    between atoms: C4_4  and  C5_5 
REMARK    3  A    between atoms: C4_4  and  N7_7 
ROOT
HETATM    1  C1  UNL     1     -36.995  14.727  -3.765  1.00 20.00     0.089 C 
HETATM    2  C3  UNL     1     -35.640  15.276  -3.775  1.00 20.00     0.395 C 
HETATM    3  N6  UNL     1     -38.072  14.295  -3.758  1.00 20.00    -0.195 NA
ENDROOT
BRANCH   2   4
HETATM    4  N7  UNL     1     -34.644  14.206  -3.731  1.00 20.00     0.099 N 
HETATM    5  C2  UNL     1     -34.807  13.310  -4.875  1.00 20.00     0.311 C 
BRANCH   4   6
HETATM    6  C4  UNL     1     -33.294  14.767  -3.708  1.00 20.00     0.304 C 
BRANCH   6   7
HETATM    7  C5  UNL     1     -33.293  16.229  -4.098  1.00 20.00     0.252 C 
HETATM    8  F8  UNL     1     -32.799  16.351  -5.360  1.00 20.00    -0.254 F 
ENDBRANCH   6   7
ENDBRANCH   4   6
ENDBRANCH   2   4
TORSDOF 3
ENDMDL
MODEL 8
REMARK VINA RESULT:      -3.3     11.908     12.985
REMARK  3 active torsions:
REMARK  status: ('A' for Active; 'I' for Inactive)
REMARK    1  A    between atoms: C3_3  and  N7_7 
REMARK    2  A    between atoms: C4_4  and  C5_5 
REMARK    3  A    between atoms: C4_4  and  N7_7 
ROOT
HETATM    1  C1  UNL     1     -34.774  13.618  -5.169  1.00 20.00     0.089 C 
HETATM    2  C3  UNL     1     -34.569  14.633  -6.201  1.00 20.00     0.395 C 
HETATM    3  N6  UNL     1     -34.936  12.809  -4.354  1.00 20.00    -0.195 NA
ENDROOT
BRANCH   2   4
HETATM    4  N7  UNL     1     -34.503  15.970  -5.611  1.00 20.00     0.099 N 
HETATM    5  C2  UNL     1     -35.746  16.279  -4.906  1.00 20.00     0.311 C 
BRANCH   4   6
HETATM    6  C4  UNL     1     -33.361  16.071  -4.703  1.00 20.00     0.304 C 
BRANCH   6   7
HETATM    7  C5  UNL     1     -33.743  16.746  -3.404  1.00 20.00     0.252 C 
HETATM    8  F8  UNL     1     -33.598  15.858  -2.383  1.00 20.00    -0.254 F 
ENDBRANCH   6   7
ENDBRANCH   4   6
ENDBRANCH   2   4
TORSDOF 3
ENDMDL
MODEL 9
REMARK VINA RESULT:      -3.2     11.370     11.989
REMARK  3 active torsions:
REMARK  status: ('A' for Active; 'I' for Inactive)
REMARK    1  A    between atoms: C3_3  and  N7_7 
REMARK    2  A    between atoms: C4_4  and  C5_5 
REMARK    3  A    between atoms: C4_4  and  N7_7 
ROOT
HETATM    1  C1  UNL     1     -34.739  14.140  -5.811  1.00 20.00     0.089 C 
HETATM    2  C3  UNL     1     -34.910  13.330  -4.605  1.00 20.00     0.395 C 
HETATM    3  N6  UNL     1     -34.606  14.779  -6.770  1.00 20.00    -0.195 NA
ENDROOT
BRANCH   2   4
HETATM    4  N7  UNL     1     -34.345  14.007  -3.439  1.00 20.00     0.099 N 
HETATM    5  C2  UNL     1     -32.959  14.396  -3.697  1.00 20.00     0.311 C 
BRANCH   4   6
HETATM    6  C4  UNL     1     -35.148  15.177  -3.088  1.00 20.00     0.304 C 
BRANCH   6   7
HETATM    7  C5  UNL     1     -34.360  16.162  -2.253  1.00 20.00     0.252 C 
HETATM    8  F8  UNL     1     -34.726  16.031  -0.949  1.00 20.00    -0.254 F 
ENDBRANCH   6   7
ENDBRANCH   4   6
ENDBRANCH   2   4
TORSDOF 3
ENDMDL
