MODEL 1
REMARK VINA RESULT:      -3.9      0.000      0.000
REMARK  1 active torsions:
REMARK  status: ('A' for Active; 'I' for Inactive)
REMARK    1  A    between atoms: C4_4  and  C7_7 
ROOT
HETATM    1  C1  UNL     1     -33.652  16.249  -2.732  1.00 20.00     0.040 C 
HETATM    2  C2  UNL     1     -32.954  15.244  -3.646  1.00 20.00     0.272 C 
HETATM    3  C3  UNL     1     -35.092  15.874  -2.412  1.00 20.00     0.078 C 
HETATM    4  C4  UNL     1     -34.988  14.613  -4.895  1.00 20.00     0.201 C 
HETATM    5  C5  UNL     1     -35.074  13.175  -4.360  1.00 20.00     0.061 C 
HETATM    6  N8  UNL     1     -33.604  15.109  -4.947  1.00 20.00     0.102 N 
HETATM    7  S9  UNL     1     -36.090  15.717  -3.922  1.00 20.00    -0.128 SA
HETATM    8  H24 UNL     1     -33.586  16.014  -5.419  1.00 20.00     0.317 HD
ENDROOT
BRANCH   4   9
HETATM    9  C7  UNL     1     -35.520  14.625  -6.340  1.00 20.00     0.048 C 
HETATM   10  C6  UNL     1     -34.457  15.023  -7.306  1.00 20.00     0.009 C 
ENDBRANCH   4   9
TORSDOF 1
ENDMDL
MODEL 2
REMARK VINA RESULT:      -3.9      1.578      3.582
REMARK  1 active torsions:
REMARK  status: ('A' for Active; 'I' for Inactive)
REMARK    1  A    between atoms: C4_4  and  C7_7 
ROOT
HETATM    1  C1  UNL     1     -35.177  13.367  -4.254  1.00 20.00     0.040 C 
HETATM    2  C2  UNL     1     -33.704  13.748  -4.112  1.00 20.00     0.272 C 
HETATM    3  C3  UNL     1     -36.059  14.527  -4.692  1.00 20.00     0.078 C 
HETATM    4  C4  UNL     1     -34.132  16.074  -3.404  1.00 20.00     0.201 C 
HETATM    5  C5  UNL     1     -33.573  16.739  -4.672  1.00 20.00     0.061 C 
HETATM    6  N8  UNL     1     -33.478  14.789  -3.113  1.00 20.00     0.102 N 
HETATM    7  S9  UNL     1     -35.960  15.917  -3.526  1.00 20.00    -0.128 SA
HETATM    8  H24 UNL     1     -33.794  14.447  -2.204  1.00 20.00     0.317 HD
ENDROOT
BRANCH   4   9
HETATM    9  C7  UNL     1     -33.850  17.000  -2.206  1.00 20.00     0.048 C 
HETATM   10  C6  UNL     1     -34.599  16.560  -0.994  1.00 20.00     0.009 C 
ENDBRANCH   4   9
TORSDOF 1
ENDMDL
MODEL 3
REMARK VINA RESULT:      -3.8      1.883      3.801
REMARK  1 active torsions:
REMARK  status: ('A' for Active; 'I' for Inactive)
REMARK    1  A    between atoms: C4_4  and  C7_7 
ROOT
HETATM    1  C1  UNL     1     -37.287  15.449  -5.216  1.00 20.00     0.040 C 
HETATM    2  C2  UNL     1     -37.213  14.799  -3.836  1.00 20.00     0.272 C 
HETATM    3  C3  UNL     1     -35.982  15.359  -5.995  1.00 20.00     0.078 C 
HETATM    4  C4  UNL     1     -34.831  15.326  -3.457  1.00 20.00     0.201 C 
HETATM    5  C5  UNL     1     -34.328  13.875  -3.518  1.00 20.00     0.061 C 
HETATM    6  N8  UNL     1     -36.215  15.417  -2.967  1.00 20.00     0.102 N 
HETATM    7  S9  UNL     1     -34.613  16.139  -5.092  1.00 20.00    -0.128 SA
HETATM    8  H24 UNL     1     -36.461  16.399  -2.830  1.00 20.00     0.317 HD
ENDROOT
BRANCH   4   9
HETATM    9  C7  UNL     1     -33.952  16.102  -2.460  1.00 20.00     0.048 C 
HETATM   10  C6  UNL     1     -34.709  16.443  -1.221  1.00 20.00     0.009 C 
ENDBRANCH   4   9
TORSDOF 1
ENDMDL
MODEL 4
REMARK VINA RESULT:      -3.8      1.513      3.722
REMARK  1 active torsions:
REMARK  status: ('A' for Active; 'I' for Inactive)
REMARK    1  A    between atoms: C4_4  and  C7_7 
ROOT
HETATM    1  C1  UNL     1     -34.548  14.765  -6.406  1.00 20.00     0.040 C 
HETATM    2  C2  UNL     1     -35.094  16.100  -5.903  1.00 20.00     0.272 C 
HETATM    3  C3  UNL     1     -34.733  13.626  -5.413  1.00 20.00     0.078 C 
HETATM    4  C4  UNL     1     -34.608  15.668  -3.521  1.00 20.00     0.201 C 
HETATM    5  C5  UNL     1     -36.073  15.569  -3.067  1.00 20.00     0.061 C 
HETATM    6  N8  UNL     1     -34.441  16.559  -4.679  1.00 20.00     0.102 N 
HETATM    7  S9  UNL     1     -33.927  13.988  -3.826  1.00 20.00    -0.128 SA
HETATM    8  H24 UNL     1     -33.445  16.687  -4.866  1.00 20.00     0.317 HD
ENDROOT
BRANCH   4   9
HETATM    9  C7  UNL     1     -33.784  16.273  -2.369  1.00 20.00     0.048 C 
HETATM   10  C6  UNL     1     -34.625  16.489  -1.157  1.00 20.00     0.009 C 
ENDBRANCH   4   9
TORSDOF 1
ENDMDL
MODEL 5
REMARK VINA RESULT:      -3.8      1.234      3.630
REMARK  1 active torsions:
REMARK  status: ('A' for Active; 'I' for Inactive)
REMARK    1  A    between atoms: C4_4  and  C7_7 
ROOT
HETATM    1  C1  UNL     1     -35.123  14.067  -6.298  1.00 20.00     0.040 C 
HETATM    2  C2  UNL     1     -34.714  13.312  -5.035  1.00 20.00     0.272 C 
HETATM    3  C3  UNL     1     -34.456  15.429  -6.429  1.00 20.00     0.078 C 
HETATM    4  C4  UNL     1     -34.415  15.330  -3.644  1.00 20.00     0.201 C 
HETATM    5  C5  UNL     1     -32.890  15.210  -3.501  1.00 20.00     0.061 C 
HETATM    6  N8  UNL     1     -35.066  14.022  -3.808  1.00 20.00     0.102 N 
HETATM    7  S9  UNL     1     -34.832  16.494  -5.006  1.00 20.00    -0.128 SA
HETATM    8  H24 UNL     1     -36.080  14.143  -3.777  1.00 20.00     0.317 HD
ENDROOT
BRANCH   4   9
HETATM    9  C7  UNL     1     -34.976  15.950  -2.351  1.00 20.00     0.048 C 
HETATM   10  C6  UNL     1     -33.932  16.730  -1.627  1.00 20.00     0.009 C 
ENDBRANCH   4   9
TORSDOF 1
ENDMDL
MODEL 6
REMARK VINA RESULT:      -3.7      1.833      2.710
REMARK  1 active torsions:
REMARK  status: ('A' for Active; 'I' for Inactive)
REMARK    1  A    between atoms: C4_4  and  C7_7 
ROOT
HETATM    1  C1  UNL     1     -34.801  17.675  -5.786  1.00 20.00     0.040 C 
HETATM    2  C2  UNL     1     -33.394  17.405  -5.256  1.00 20.00     0.272 C 
HETATM    3  C3  UNL     1     -35.899  17.283  -4.808  1.00 20.00     0.078 C 
HETATM    4  C4  UNL     1     -34.023  15.419  -3.930  1.00 20.00     0.201 C 
HETATM    5  C5  UNL     1     -33.783  16.056  -2.552  1.00 20.00     0.061 C 
HETATM    6  N8  UNL     1     -33.155  15.992  -4.969  1.00 20.00     0.102 N 
HETATM    7  S9  UNL     1     -35.805  15.522  -4.371  1.00 20.00    -0.128 SA
HETATM    8  H24 UNL     1     -33.264  15.459  -5.833  1.00 20.00     0.317 HD
ENDROOT
BRANCH   4   9
HETATM    9  C7  UNL     1     -33.680  13.921  -3.837  1.00 20.00     0.048 C 
HETATM   10  C6  UNL     1     -34.568  13.107  -4.716  1.00 20.00     0.009 C 
ENDBRANCH   4   9
TORSDOF 1
ENDMDL
MODEL 7
REMARK VINA RESULT:      -3.7      2.078      3.401
REMARK  1 active torsions:
REMARK  status: ('A' for Active; 'I' for Inactive)
REMARK    1  A    between atoms: C4_4  and  C7_7 
ROOT
HETATM    1  C1  UNL     1     -35.340  13.688  -4.346  1.00 20.00     0.040 C 
HETATM    2  C2  UNL     1     -36.272  14.761  -3.785  1.00 20.00     0.272 C 
HETATM    3  C3  UNL     1     -33.987  13.644  -3.652  1.00 20.00     0.078 C 
HETATM    4  C4  UNL     1     -34.475  16.351  -3.205  1.00 20.00     0.201 C 
HETATM    5  C5  UNL     1     -34.643  16.243  -1.681  1.00 20.00     0.061 C 
HETATM    6  N8  UNL     1     -35.735  16.112  -3.924  1.00 20.00     0.102 N 
HETATM    7  S9  UNL     1     -33.125  15.238  -3.771  1.00 20.00    -0.128 SA
HETATM    8  H24 UNL     1     -35.601  16.312  -4.916  1.00 20.00     0.317 HD
ENDROOT
BRANCH   4   9
HETATM    9  C7  UNL     1     -34.032  17.786  -3.543  1.00 20.00     0.048 C 
HETATM   10  C6  UNL     1     -33.587  17.895  -4.962  1.00 20.00     0.009 C 
ENDBRANCH   4   9
TORSDOF 1
ENDMDL
MODEL 8
REMARK VINA RESULT:      -3.6     11.697     12.990
REMARK  1 active torsions:
REMARK  status: ('A' for Active; 'I' for Inactive)
REMARK    1  A    between atoms: C4_4  and  C7_7 
ROOT
HETATM    1  C1  UNL     1     -41.141   7.131  -0.883  1.00 20.00     0.040 C 
HETATM    2  C2  UNL     1     -40.732   5.825  -0.204  1.00 20.00     0.272 C 
HETATM    3  C3  UNL     1     -42.531   7.079  -1.498  1.00 20.00     0.078 C 
HETATM    4  C4  UNL     1     -41.984   4.358  -1.746  1.00 20.00     0.201 C 
HETATM    5  C5  UNL     1     -43.022   3.882  -0.717  1.00 20.00     0.061 C 
HETATM    6  N8  UNL     1     -40.693   4.691  -1.125  1.00 20.00     0.102 N 
HETATM    7  S9  UNL     1     -42.666   5.753  -2.732  1.00 20.00    -0.128 SA
HETATM    8  H24 UNL     1     -40.006   4.884  -1.855  1.00 20.00     0.317 HD
ENDROOT
BRANCH   4   9
HETATM    9  C7  UNL     1     -41.720   3.209  -2.736  1.00 20.00     0.048 C 
HETATM   10  C6  UNL     1     -42.820   2.203  -2.703  1.00 20.00     0.009 C 
ENDBRANCH   4   9
TORSDOF 1
ENDMDL
MODEL 9
REMARK VINA RESULT:      -3.6      1.552      1.946
REMARK  1 active torsions:
REMARK  status: ('A' for Active; 'I' for Inactive)
REMARK    1  A    between atoms: C4_4  and  C7_7 
ROOT
HETATM    1  C1  UNL     1     -32.989  15.052  -3.431  1.00 20.00     0.040 C 
HETATM    2  C2  UNL     1     -33.920  13.922  -3.867  1.00 20.00     0.272 C 
HETATM    3  C3  UNL     1     -33.500  16.434  -3.811  1.00 20.00     0.078 C 
HETATM    4  C4  UNL     1     -34.734  15.063  -5.900  1.00 20.00     0.201 C 
HETATM    5  C5  UNL     1     -36.176  15.268  -5.409  1.00 20.00     0.061 C 
HETATM    6  N8  UNL     1     -34.110  13.867  -5.315  1.00 20.00     0.102 N 
HETATM    7  S9  UNL     1     -33.744  16.584  -5.604  1.00 20.00    -0.128 SA
HETATM    8  H24 UNL     1     -33.204  13.706  -5.759  1.00 20.00     0.317 HD
ENDROOT
BRANCH   4   9
HETATM    9  C7  UNL     1     -34.767  14.850  -7.424  1.00 20.00     0.048 C 
HETATM   10  C6  UNL     1     -36.163  14.682  -7.918  1.00 20.00     0.009 C 
ENDBRANCH   4   9
TORSDOF 1
ENDMDL
