MODEL 1
REMARK VINA RESULT:      -4.2      0.000      0.000
REMARK  1 active torsions:
REMARK  status: ('A' for Active; 'I' for Inactive)
REMARK    1  A    between atoms: C5_5  and  C6_6 
ROOT
HETATM    1  C3  UNL     1     -35.377  14.570  -7.630  1.00 20.00     0.282 C 
HETATM    2  C4  UNL     1     -36.476  15.483  -7.114  1.00 20.00     0.106 C 
HETATM    3  C6  UNL     1     -34.639  14.709  -5.377  1.00 20.00     0.208 C 
HETATM    4  C8  UNL     1     -34.592  13.268  -4.858  1.00 20.00     0.062 C 
HETATM    5  N9  UNL     1     -34.192  14.756  -6.782  1.00 20.00     0.104 N 
HETATM    6  S10 UNL     1     -36.363  15.321  -5.320  1.00 20.00    -0.126 SA
HETATM    7  H25 UNL     1     -33.561  13.978  -6.954  1.00 20.00     0.318 HD
ENDROOT
BRANCH   3   8
HETATM    8  C5  UNL     1     -33.753  15.611  -4.515  1.00 20.00     0.001 A 
HETATM    9  C1  UNL     1     -33.954  15.579  -3.017  1.00 20.00     0.013 A 
HETATM   10  C2  UNL     1     -32.728  14.952  -3.620  1.00 20.00     0.013 A 
HETATM   11  C7  UNL     1     -33.392  16.926  -5.150  1.00 20.00     0.019 C 
ENDBRANCH   3   8
TORSDOF 1
ENDMDL
MODEL 2
REMARK VINA RESULT:      -4.2      1.570      2.645
REMARK  1 active torsions:
REMARK  status: ('A' for Active; 'I' for Inactive)
REMARK    1  A    between atoms: C5_5  and  C6_6 
ROOT
HETATM    1  C3  UNL     1     -33.594  17.943  -5.712  1.00 20.00     0.282 C 
HETATM    2  C4  UNL     1     -34.904  18.414  -5.102  1.00 20.00     0.106 C 
HETATM    3  C6  UNL     1     -34.416  15.814  -5.053  1.00 20.00     0.208 C 
HETATM    4  C8  UNL     1     -34.473  14.970  -6.330  1.00 20.00     0.062 C 
HETATM    5  N9  UNL     1     -33.218  16.677  -5.069  1.00 20.00     0.104 N 
HETATM    6  S10 UNL     1     -35.885  16.904  -4.976  1.00 20.00    -0.126 SA
HETATM    7  H25 UNL     1     -32.503  16.237  -5.642  1.00 20.00     0.318 HD
ENDROOT
BRANCH   3   8
HETATM    8  C5  UNL     1     -34.393  14.908  -3.820  1.00 20.00     0.001 A 
HETATM    9  C1  UNL     1     -34.841  13.474  -3.986  1.00 20.00     0.013 A 
HETATM   10  C2  UNL     1     -33.384  13.783  -3.786  1.00 20.00     0.013 A 
HETATM   11  C7  UNL     1     -34.717  15.603  -2.526  1.00 20.00     0.019 C 
ENDBRANCH   3   8
TORSDOF 1
ENDMDL
MODEL 3
REMARK VINA RESULT:      -4.1      2.358      3.284
REMARK  1 active torsions:
REMARK  status: ('A' for Active; 'I' for Inactive)
REMARK    1  A    between atoms: C5_5  and  C6_6 
ROOT
HETATM    1  C3  UNL     1     -37.587  16.316  -3.276  1.00 20.00     0.282 C 
HETATM    2  C4  UNL     1     -37.167  17.188  -4.447  1.00 20.00     0.106 C 
HETATM    3  C6  UNL     1     -35.281  15.749  -3.278  1.00 20.00     0.208 C 
HETATM    4  C8  UNL     1     -34.756  16.108  -1.884  1.00 20.00     0.062 C 
HETATM    5  N9  UNL     1     -36.644  15.193  -3.179  1.00 20.00     0.104 N 
HETATM    6  S10 UNL     1     -35.370  17.263  -4.303  1.00 20.00    -0.126 SA
HETATM    7  H25 UNL     1     -36.761  14.767  -2.264  1.00 20.00     0.318 HD
ENDROOT
BRANCH   3   8
HETATM    8  C5  UNL     1     -34.350  14.736  -3.950  1.00 20.00     0.001 A 
HETATM    9  C1  UNL     1     -34.865  13.330  -4.158  1.00 20.00     0.013 A 
HETATM   10  C2  UNL     1     -34.712  14.251  -5.335  1.00 20.00     0.013 A 
HETATM   11  C7  UNL     1     -32.892  14.912  -3.622  1.00 20.00     0.019 C 
ENDBRANCH   3   8
TORSDOF 1
ENDMDL
MODEL 4
REMARK VINA RESULT:      -4.1      1.824      3.605
REMARK  1 active torsions:
REMARK  status: ('A' for Active; 'I' for Inactive)
REMARK    1  A    between atoms: C5_5  and  C6_6 
ROOT
HETATM    1  C3  UNL     1     -33.930  16.754  -2.042  1.00 20.00     0.282 C 
HETATM    2  C4  UNL     1     -35.433  16.951  -2.139  1.00 20.00     0.106 C 
HETATM    3  C6  UNL     1     -34.211  15.940  -4.255  1.00 20.00     0.208 C 
HETATM    4  C8  UNL     1     -33.309  16.805  -5.141  1.00 20.00     0.062 C 
HETATM    5  N9  UNL     1     -33.549  15.675  -2.963  1.00 20.00     0.104 N 
HETATM    6  S10 UNL     1     -35.768  16.839  -3.909  1.00 20.00    -0.126 SA
HETATM    7  H25 UNL     1     -32.542  15.719  -3.094  1.00 20.00     0.318 HD
ENDROOT
BRANCH   3   8
HETATM    8  C5  UNL     1     -34.535  14.619  -4.958  1.00 20.00     0.001 A 
HETATM    9  C1  UNL     1     -33.954  13.349  -4.380  1.00 20.00     0.013 A 
HETATM   10  C2  UNL     1     -35.423  13.631  -4.236  1.00 20.00     0.013 A 
HETATM   11  C7  UNL     1     -34.663  14.720  -6.453  1.00 20.00     0.019 C 
ENDBRANCH   3   8
TORSDOF 1
ENDMDL
MODEL 5
REMARK VINA RESULT:      -4.1      2.133      3.744
REMARK  1 active torsions:
REMARK  status: ('A' for Active; 'I' for Inactive)
REMARK    1  A    between atoms: C5_5  and  C6_6 
ROOT
HETATM    1  C3  UNL     1     -34.021  16.872  -1.921  1.00 20.00     0.282 C 
HETATM    2  C4  UNL     1     -34.164  17.930  -3.002  1.00 20.00     0.106 C 
HETATM    3  C6  UNL     1     -33.827  15.430  -3.798  1.00 20.00     0.208 C 
HETATM    4  C8  UNL     1     -32.476  14.724  -3.651  1.00 20.00     0.062 C 
HETATM    5  N9  UNL     1     -34.464  15.586  -2.476  1.00 20.00     0.104 N 
HETATM    6  S10 UNL     1     -33.567  17.104  -4.492  1.00 20.00    -0.126 SA
HETATM    7  H25 UNL     1     -34.131  14.850  -1.860  1.00 20.00     0.318 HD
ENDROOT
BRANCH   3   8
HETATM    8  C5  UNL     1     -34.743  14.633  -4.730  1.00 20.00     0.001 A 
HETATM    9  C1  UNL     1     -35.117  13.226  -4.321  1.00 20.00     0.013 A 
HETATM   10  C2  UNL     1     -36.143  14.322  -4.252  1.00 20.00     0.013 A 
HETATM   11  C7  UNL     1     -34.543  14.912  -6.194  1.00 20.00     0.019 C 
ENDBRANCH   3   8
TORSDOF 1
ENDMDL
MODEL 6
REMARK VINA RESULT:      -4.1      0.894      1.383
REMARK  1 active torsions:
REMARK  status: ('A' for Active; 'I' for Inactive)
REMARK    1  A    between atoms: C5_5  and  C6_6 
ROOT
HETATM    1  C3  UNL     1     -35.074  14.834  -7.066  1.00 20.00     0.282 C 
HETATM    2  C4  UNL     1     -35.996  15.977  -6.673  1.00 20.00     0.106 C 
HETATM    3  C6  UNL     1     -34.736  14.717  -4.718  1.00 20.00     0.208 C 
HETATM    4  C8  UNL     1     -35.128  13.295  -4.305  1.00 20.00     0.062 C 
HETATM    5  N9  UNL     1     -34.048  14.694  -6.024  1.00 20.00     0.104 N 
HETATM    6  S10 UNL     1     -36.245  15.737  -4.901  1.00 20.00    -0.126 SA
HETATM    7  H25 UNL     1     -33.602  13.789  -6.146  1.00 20.00     0.318 HD
ENDROOT
BRANCH   3   8
HETATM    8  C5  UNL     1     -33.826  15.344  -3.658  1.00 20.00     0.001 A 
HETATM    9  C1  UNL     1     -33.966  16.825  -3.392  1.00 20.00     0.013 A 
HETATM   10  C2  UNL     1     -34.463  15.834  -2.378  1.00 20.00     0.013 A 
HETATM   11  C7  UNL     1     -32.451  14.740  -3.576  1.00 20.00     0.019 C 
ENDBRANCH   3   8
TORSDOF 1
ENDMDL
MODEL 7
REMARK VINA RESULT:      -4.1      0.661      1.363
REMARK  1 active torsions:
REMARK  status: ('A' for Active; 'I' for Inactive)
REMARK    1  A    between atoms: C5_5  and  C6_6 
ROOT
HETATM    1  C3  UNL     1     -35.041  14.601  -7.357  1.00 20.00     0.282 C 
HETATM    2  C4  UNL     1     -36.244  15.488  -7.079  1.00 20.00     0.106 C 
HETATM    3  C6  UNL     1     -34.899  14.590  -4.986  1.00 20.00     0.208 C 
HETATM    4  C8  UNL     1     -34.972  13.119  -4.565  1.00 20.00     0.062 C 
HETATM    5  N9  UNL     1     -34.111  14.723  -6.226  1.00 20.00     0.104 N 
HETATM    6  S10 UNL     1     -36.587  15.210  -5.329  1.00 20.00    -0.126 SA
HETATM    7  H25 UNL     1     -33.450  13.953  -6.282  1.00 20.00     0.318 HD
ENDROOT
BRANCH   3   8
HETATM    8  C5  UNL     1     -34.268  15.429  -3.872  1.00 20.00     0.001 A 
HETATM    9  C1  UNL     1     -32.766  15.376  -3.709  1.00 20.00     0.013 A 
HETATM   10  C2  UNL     1     -33.414  16.610  -4.271  1.00 20.00     0.013 A 
HETATM   11  C7  UNL     1     -35.108  15.554  -2.630  1.00 20.00     0.019 C 
ENDBRANCH   3   8
TORSDOF 1
ENDMDL
MODEL 8
REMARK VINA RESULT:      -4.0      1.496      2.373
REMARK  1 active torsions:
REMARK  status: ('A' for Active; 'I' for Inactive)
REMARK    1  A    between atoms: C5_5  and  C6_6 
ROOT
HETATM    1  C3  UNL     1     -36.308  16.881  -6.238  1.00 20.00     0.282 C 
HETATM    2  C4  UNL     1     -36.355  15.538  -6.949  1.00 20.00     0.106 C 
HETATM    3  C6  UNL     1     -34.569  15.819  -5.018  1.00 20.00     0.208 C 
HETATM    4  C8  UNL     1     -33.326  16.695  -5.206  1.00 20.00     0.062 C 
HETATM    5  N9  UNL     1     -35.770  16.666  -4.888  1.00 20.00     0.104 N 
HETATM    6  S10 UNL     1     -34.794  14.756  -6.491  1.00 20.00    -0.126 SA
HETATM    7  H25 UNL     1     -35.497  17.571  -4.515  1.00 20.00     0.318 HD
ENDROOT
BRANCH   3   8
HETATM    8  C5  UNL     1     -34.413  14.938  -3.777  1.00 20.00     0.001 A 
HETATM    9  C1  UNL     1     -34.815  13.485  -3.885  1.00 20.00     0.013 A 
HETATM   10  C2  UNL     1     -33.360  13.853  -3.805  1.00 20.00     0.013 A 
HETATM   11  C7  UNL     1     -34.664  15.643  -2.472  1.00 20.00     0.019 C 
ENDBRANCH   3   8
TORSDOF 1
ENDMDL
MODEL 9
REMARK VINA RESULT:      -4.0      1.852      3.123
REMARK  1 active torsions:
REMARK  status: ('A' for Active; 'I' for Inactive)
REMARK    1  A    between atoms: C5_5  and  C6_6 
ROOT
HETATM    1  C3  UNL     1     -33.445  13.669  -3.860  1.00 20.00     0.282 C 
HETATM    2  C4  UNL     1     -34.834  13.300  -4.355  1.00 20.00     0.106 C 
HETATM    3  C6  UNL     1     -34.414  15.832  -3.715  1.00 20.00     0.208 C 
HETATM    4  C8  UNL     1     -34.258  16.267  -2.254  1.00 20.00     0.062 C 
HETATM    5  N9  UNL     1     -33.216  15.090  -4.153  1.00 20.00     0.104 N 
HETATM    6  S10 UNL     1     -35.851  14.708  -3.865  1.00 20.00    -0.126 SA
HETATM    7  H25 UNL     1     -32.419  15.396  -3.603  1.00 20.00     0.318 HD
ENDROOT
BRANCH   3   8
HETATM    8  C5  UNL     1     -34.631  17.054  -4.611  1.00 20.00     0.001 A 
HETATM    9  C1  UNL     1     -33.427  17.638  -5.314  1.00 20.00     0.013 A 
HETATM   10  C2  UNL     1     -34.456  16.878  -6.102  1.00 20.00     0.013 A 
HETATM   11  C7  UNL     1     -35.696  18.001  -4.133  1.00 20.00     0.019 C 
ENDBRANCH   3   8
TORSDOF 1
ENDMDL
