MODEL 1
REMARK VINA RESULT:      -4.3      0.000      0.000
REMARK  1 active torsions:
REMARK  status: ('A' for Active; 'I' for Inactive)
REMARK    1  A    between atoms: C3_3  and  C8_8 
ROOT
HETATM    1  C1  UNL     1     -36.271  14.865  -5.691  1.00 20.00     0.111 C 
HETATM    2  C2  UNL     1     -34.953  14.480  -6.355  1.00 20.00     0.227 C 
HETATM    3  C3  UNL     1     -34.112  14.890  -4.165  1.00 20.00     0.205 C 
HETATM    4  C4  UNL     1     -34.915  14.917  -7.815  1.00 20.00     0.043 C 
HETATM    5  C5  UNL     1     -33.431  13.591  -3.722  1.00 20.00     0.062 C 
HETATM    6  N9  UNL     1     -33.865  15.128  -5.600  1.00 20.00     0.108 N 
HETATM    7  S10 UNL     1     -35.918  14.743  -3.925  1.00 20.00    -0.126 SA
HETATM    8  H27 UNL     1     -32.961  14.755  -5.885  1.00 20.00     0.318 HD
ENDROOT
BRANCH   3   9
HETATM    9  C8  UNL     1     -33.586  16.070  -3.342  1.00 20.00     0.026 C 
HETATM   10  C6  UNL     1     -33.695  17.367  -4.138  1.00 20.00     0.013 C 
HETATM   11  C7  UNL     1     -34.344  16.182  -2.023  1.00 20.00     0.013 C 
ENDBRANCH   3   9
TORSDOF 1
ENDMDL
MODEL 2
REMARK VINA RESULT:      -4.2      1.892      4.044
REMARK  1 active torsions:
REMARK  status: ('A' for Active; 'I' for Inactive)
REMARK    1  A    between atoms: C3_3  and  C8_8 
ROOT
HETATM    1  C1  UNL     1     -34.147  17.905  -2.720  1.00 20.00     0.111 C 
HETATM    2  C2  UNL     1     -33.991  16.754  -1.730  1.00 20.00     0.227 C 
HETATM    3  C3  UNL     1     -33.947  15.472  -3.736  1.00 20.00     0.205 C 
HETATM    4  C4  UNL     1     -34.745  17.029  -0.433  1.00 20.00     0.043 C 
HETATM    5  C5  UNL     1     -32.621  14.706  -3.720  1.00 20.00     0.062 C 
HETATM    6  N9  UNL     1     -34.512  15.535  -2.375  1.00 20.00     0.108 N 
HETATM    7  S10 UNL     1     -33.653  17.186  -4.300  1.00 20.00    -0.126 SA
HETATM    8  H27 UNL     1     -34.262  14.710  -1.833  1.00 20.00     0.318 HD
ENDROOT
BRANCH   3   9
HETATM    9  C8  UNL     1     -34.940  14.791  -4.683  1.00 20.00     0.026 C 
HETATM   10  C6  UNL     1     -34.486  14.944  -6.132  1.00 20.00     0.013 C 
HETATM   11  C7  UNL     1     -35.099  13.317  -4.321  1.00 20.00     0.013 C 
ENDBRANCH   3   9
TORSDOF 1
ENDMDL
MODEL 3
REMARK VINA RESULT:      -4.1      1.539      3.924
REMARK  1 active torsions:
REMARK  status: ('A' for Active; 'I' for Inactive)
REMARK    1  A    between atoms: C3_3  and  C8_8 
ROOT
HETATM    1  C1  UNL     1     -33.749  17.280  -3.242  1.00 20.00     0.111 C 
HETATM    2  C2  UNL     1     -34.103  16.254  -2.169  1.00 20.00     0.227 C 
HETATM    3  C3  UNL     1     -34.288  14.826  -4.066  1.00 20.00     0.205 C 
HETATM    4  C4  UNL     1     -34.851  16.898  -1.007  1.00 20.00     0.043 C 
HETATM    5  C5  UNL     1     -33.314  13.669  -3.821  1.00 20.00     0.062 C 
HETATM    6  N9  UNL     1     -34.939  15.216  -2.801  1.00 20.00     0.108 N 
HETATM    7  S10 UNL     1     -33.366  16.275  -4.692  1.00 20.00    -0.126 SA
HETATM    8  H27 UNL     1     -35.046  14.416  -2.179  1.00 20.00     0.318 HD
ENDROOT
BRANCH   3   9
HETATM    9  C8  UNL     1     -35.347  14.417  -5.094  1.00 20.00     0.026 C 
HETATM   10  C6  UNL     1     -36.636  15.203  -4.873  1.00 20.00     0.013 C 
HETATM   11  C7  UNL     1     -34.825  14.626  -6.512  1.00 20.00     0.013 C 
ENDBRANCH   3   9
TORSDOF 1
ENDMDL
MODEL 4
REMARK VINA RESULT:      -4.1      1.553      3.940
REMARK  1 active torsions:
REMARK  status: ('A' for Active; 'I' for Inactive)
REMARK    1  A    between atoms: C3_3  and  C8_8 
ROOT
HETATM    1  C1  UNL     1     -36.129  16.822  -2.871  1.00 20.00     0.111 C 
HETATM    2  C2  UNL     1     -34.687  16.786  -2.370  1.00 20.00     0.227 C 
HETATM    3  C3  UNL     1     -34.327  15.762  -4.490  1.00 20.00     0.205 C 
HETATM    4  C4  UNL     1     -34.627  16.595  -0.859  1.00 20.00     0.043 C 
HETATM    5  C5  UNL     1     -33.289  16.630  -5.209  1.00 20.00     0.062 C 
HETATM    6  N9  UNL     1     -34.004  15.672  -3.054  1.00 20.00     0.108 N 
HETATM    7  S10 UNL     1     -35.978  16.532  -4.646  1.00 20.00    -0.126 SA
HETATM    8  H27 UNL     1     -32.999  15.720  -2.898  1.00 20.00     0.318 HD
ENDROOT
BRANCH   3   9
HETATM    9  C8  UNL     1     -34.362  14.360  -5.107  1.00 20.00     0.026 C 
HETATM   10  C6  UNL     1     -35.103  13.392  -4.188  1.00 20.00     0.013 C 
HETATM   11  C7  UNL     1     -35.013  14.399  -6.486  1.00 20.00     0.013 C 
ENDBRANCH   3   9
TORSDOF 1
ENDMDL
MODEL 5
REMARK VINA RESULT:      -4.1      1.370      1.614
REMARK  1 active torsions:
REMARK  status: ('A' for Active; 'I' for Inactive)
REMARK    1  A    between atoms: C3_3  and  C8_8 
ROOT
HETATM    1  C1  UNL     1     -35.137  14.092  -6.219  1.00 20.00     0.111 C 
HETATM    2  C2  UNL     1     -34.238  15.321  -6.325  1.00 20.00     0.227 C 
HETATM    3  C3  UNL     1     -34.158  15.055  -3.959  1.00 20.00     0.205 C 
HETATM    4  C4  UNL     1     -34.670  16.230  -7.471  1.00 20.00     0.043 C 
HETATM    5  C5  UNL     1     -32.676  14.902  -3.601  1.00 20.00     0.062 C 
HETATM    6  N9  UNL     1     -34.316  16.044  -5.042  1.00 20.00     0.108 N 
HETATM    7  S10 UNL     1     -34.806  13.456  -4.563  1.00 20.00    -0.126 SA
HETATM    8  H27 UNL     1     -33.597  16.764  -4.994  1.00 20.00     0.318 HD
ENDROOT
BRANCH   3   9
HETATM    9  C8  UNL     1     -34.956  15.494  -2.729  1.00 20.00     0.026 C 
HETATM   10  C6  UNL     1     -34.136  16.459  -1.876  1.00 20.00     0.013 C 
HETATM   11  C7  UNL     1     -36.276  16.135  -3.149  1.00 20.00     0.013 C 
ENDBRANCH   3   9
TORSDOF 1
ENDMDL
MODEL 6
REMARK VINA RESULT:      -4.1     12.621     13.369
REMARK  1 active torsions:
REMARK  status: ('A' for Active; 'I' for Inactive)
REMARK    1  A    between atoms: C3_3  and  C8_8 
ROOT
HETATM    1  C1  UNL     1     -43.149   3.798  -3.466  1.00 20.00     0.111 C 
HETATM    2  C2  UNL     1     -42.236   2.837  -2.711  1.00 20.00     0.227 C 
HETATM    3  C3  UNL     1     -41.921   4.749  -1.325  1.00 20.00     0.205 C 
HETATM    4  C4  UNL     1     -41.562   1.849  -3.657  1.00 20.00     0.043 C 
HETATM    5  C5  UNL     1     -42.331   4.320   0.087  1.00 20.00     0.062 C 
HETATM    6  N9  UNL     1     -41.222   3.643  -2.007  1.00 20.00     0.108 N 
HETATM    7  S10 UNL     1     -43.417   5.148  -2.298  1.00 20.00    -0.126 SA
HETATM    8  H27 UNL     1     -40.706   3.068  -1.343  1.00 20.00     0.318 HD
ENDROOT
BRANCH   3   9
HETATM    9  C8  UNL     1     -41.014   5.980  -1.262  1.00 20.00     0.026 C 
HETATM   10  C6  UNL     1     -41.733   7.202  -1.827  1.00 20.00     0.013 C 
HETATM   11  C7  UNL     1     -40.562   6.238   0.173  1.00 20.00     0.013 C 
ENDBRANCH   3   9
TORSDOF 1
ENDMDL
MODEL 7
REMARK VINA RESULT:      -4.0      2.352      3.452
REMARK  1 active torsions:
REMARK  status: ('A' for Active; 'I' for Inactive)
REMARK    1  A    between atoms: C3_3  and  C8_8 
ROOT
HETATM    1  C1  UNL     1     -36.807  16.697  -4.866  1.00 20.00     0.111 C 
HETATM    2  C2  UNL     1     -37.438  16.293  -3.537  1.00 20.00     0.227 C 
HETATM    3  C3  UNL     1     -35.231  15.508  -3.106  1.00 20.00     0.205 C 
HETATM    4  C4  UNL     1     -38.900  15.894  -3.713  1.00 20.00     0.043 C 
HETATM    5  C5  UNL     1     -34.767  16.227  -1.836  1.00 20.00     0.062 C 
HETATM    6  N9  UNL     1     -36.662  15.162  -2.997  1.00 20.00     0.108 N 
HETATM    7  S10 UNL     1     -35.032  16.621  -4.543  1.00 20.00    -0.126 SA
HETATM    8  H27 UNL     1     -36.924  14.977  -2.031  1.00 20.00     0.318 HD
ENDROOT
BRANCH   3   9
HETATM    9  C8  UNL     1     -34.403  14.240  -3.329  1.00 20.00     0.026 C 
HETATM   10  C6  UNL     1     -35.061  13.349  -4.379  1.00 20.00     0.013 C 
HETATM   11  C7  UNL     1     -32.978  14.598  -3.742  1.00 20.00     0.013 C 
ENDBRANCH   3   9
TORSDOF 1
ENDMDL
MODEL 8
REMARK VINA RESULT:      -3.8      1.569      1.968
REMARK  1 active torsions:
REMARK  status: ('A' for Active; 'I' for Inactive)
REMARK    1  A    between atoms: C3_3  and  C8_8 
ROOT
HETATM    1  C1  UNL     1     -35.284  16.650  -6.391  1.00 20.00     0.111 C 
HETATM    2  C2  UNL     1     -35.788  15.213  -6.483  1.00 20.00     0.227 C 
HETATM    3  C3  UNL     1     -35.556  15.330  -4.116  1.00 20.00     0.205 C 
HETATM    4  C4  UNL     1     -35.303  14.533  -7.759  1.00 20.00     0.043 C 
HETATM    5  C5  UNL     1     -36.939  15.010  -3.538  1.00 20.00     0.062 C 
HETATM    6  N9  UNL     1     -35.294  14.488  -5.298  1.00 20.00     0.108 N 
HETATM    7  S10 UNL     1     -35.511  17.078  -4.652  1.00 20.00    -0.126 SA
HETATM    8  H27 UNL     1     -35.753  13.583  -5.216  1.00 20.00     0.318 HD
ENDROOT
BRANCH   3   9
HETATM    9  C8  UNL     1     -34.474  15.097  -3.057  1.00 20.00     0.026 C 
HETATM   10  C6  UNL     1     -33.085  15.194  -3.683  1.00 20.00     0.013 C 
HETATM   11  C7  UNL     1     -34.621  16.095  -1.913  1.00 20.00     0.013 C 
ENDBRANCH   3   9
TORSDOF 1
ENDMDL
MODEL 9
REMARK VINA RESULT:      -3.8      1.354      3.855
REMARK  1 active torsions:
REMARK  status: ('A' for Active; 'I' for Inactive)
REMARK    1  A    between atoms: C3_3  and  C8_8 
ROOT
HETATM    1  C1  UNL     1     -34.107  14.126  -3.285  1.00 20.00     0.111 C 
HETATM    2  C2  UNL     1     -34.796  15.480  -3.136  1.00 20.00     0.227 C 
HETATM    3  C3  UNL     1     -35.220  15.147  -5.456  1.00 20.00     0.205 C 
HETATM    4  C4  UNL     1     -34.091  16.353  -2.103  1.00 20.00     0.043 C 
HETATM    5  C5  UNL     1     -36.742  15.207  -5.621  1.00 20.00     0.062 C 
HETATM    6  N9  UNL     1     -34.779  16.138  -4.456  1.00 20.00     0.108 N 
HETATM    7  S10 UNL     1     -34.739  13.490  -4.852  1.00 20.00    -0.126 SA
HETATM    8  H27 UNL     1     -35.386  16.956  -4.455  1.00 20.00     0.318 HD
ENDROOT
BRANCH   3   9
HETATM    9  C8  UNL     1     -34.531  15.417  -6.797  1.00 20.00     0.026 C 
HETATM   10  C6  UNL     1     -35.221  14.642  -7.917  1.00 20.00     0.013 C 
HETATM   11  C7  UNL     1     -34.523  16.912  -7.103  1.00 20.00     0.013 C 
ENDBRANCH   3   9
TORSDOF 1
ENDMDL
