MODEL 1
REMARK VINA RESULT:      -4.2      0.000      0.000
REMARK  2 active torsions:
REMARK  status: ('A' for Active; 'I' for Inactive)
REMARK    1  A    between atoms: C3_3  and  C7_7 
REMARK    2  A    between atoms: C3_3  and  C8_8 
ROOT
HETATM    1  C1  UNL     1     -35.911  14.883  -3.521  1.00 20.00     0.286 C 
HETATM    2  C2  UNL     1     -34.636  14.049  -3.613  1.00 20.00     0.074 C 
HETATM    3  C3  UNL     1     -34.385  16.548  -2.775  1.00 20.00     0.205 C 
HETATM    4  C4  UNL     1     -34.575  13.204  -4.874  1.00 20.00     0.023 C 
HETATM    5  N9  UNL     1     -35.684  15.914  -2.504  1.00 20.00     0.104 N 
HETATM    6  S10 UNL     1     -33.318  15.292  -3.572  1.00 20.00    -0.122 SA
HETATM    7  H27 UNL     1     -36.438  16.599  -2.518  1.00 20.00     0.318 HD
ENDROOT
BRANCH   3   8
HETATM    8  C7  UNL     1     -34.535  17.753  -3.711  1.00 20.00     0.048 C 
HETATM    9  C5  UNL     1     -33.633  17.643  -4.894  1.00 20.00     0.009 C 
ENDBRANCH   3   8
BRANCH   3  10
HETATM   10  C8  UNL     1     -33.762  16.975  -1.446  1.00 20.00     0.048 C 
HETATM   11  C6  UNL     1     -34.766  16.963  -0.340  1.00 20.00     0.009 C 
ENDBRANCH   3  10
TORSDOF 2
ENDMDL
MODEL 2
REMARK VINA RESULT:      -4.0      2.224      3.268
REMARK  2 active torsions:
REMARK  status: ('A' for Active; 'I' for Inactive)
REMARK    1  A    between atoms: C3_3  and  C7_7 
REMARK    2  A    between atoms: C3_3  and  C8_8 
ROOT
HETATM    1  C1  UNL     1     -33.957  16.000  -6.303  1.00 20.00     0.286 C 
HETATM    2  C2  UNL     1     -35.309  16.624  -5.970  1.00 20.00     0.074 C 
HETATM    3  C3  UNL     1     -33.982  15.485  -3.982  1.00 20.00     0.205 C 
HETATM    4  C4  UNL     1     -36.369  16.329  -7.018  1.00 20.00     0.023 C 
HETATM    5  N9  UNL     1     -33.155  16.015  -5.077  1.00 20.00     0.104 N 
HETATM    6  S10 UNL     1     -35.726  15.889  -4.366  1.00 20.00    -0.122 SA
HETATM    7  H27 UNL     1     -32.308  15.464  -5.199  1.00 20.00     0.318 HD
ENDROOT
BRANCH   3   8
HETATM    8  C7  UNL     1     -33.831  13.965  -3.853  1.00 20.00     0.048 C 
HETATM    9  C5  UNL     1     -35.074  13.254  -4.266  1.00 20.00     0.009 C 
ENDBRANCH   3   8
BRANCH   3  10
HETATM   10  C8  UNL     1     -33.574  16.177  -2.681  1.00 20.00     0.048 C 
HETATM   11  C6  UNL     1     -34.699  16.212  -1.700  1.00 20.00     0.009 C 
ENDBRANCH   3  10
TORSDOF 2
ENDMDL
MODEL 3
REMARK VINA RESULT:      -4.0      1.635      3.989
REMARK  2 active torsions:
REMARK  status: ('A' for Active; 'I' for Inactive)
REMARK    1  A    between atoms: C3_3  and  C7_7 
REMARK    2  A    between atoms: C3_3  and  C8_8 
ROOT
HETATM    1  C1  UNL     1     -36.032  15.840  -3.086  1.00 20.00     0.286 C 
HETATM    2  C2  UNL     1     -34.838  16.657  -2.600  1.00 20.00     0.074 C 
HETATM    3  C3  UNL     1     -34.538  15.302  -4.855  1.00 20.00     0.205 C 
HETATM    4  C4  UNL     1     -34.614  16.541  -1.102  1.00 20.00     0.023 C 
HETATM    5  N9  UNL     1     -35.914  15.716  -4.540  1.00 20.00     0.104 N 
HETATM    6  S10 UNL     1     -33.450  15.971  -3.543  1.00 20.00    -0.122 SA
HETATM    7  H27 UNL     1     -36.591  15.044  -4.897  1.00 20.00     0.318 HD
ENDROOT
BRANCH   3   8
HETATM    8  C7  UNL     1     -34.408  13.775  -4.891  1.00 20.00     0.048 C 
HETATM    9  C5  UNL     1     -33.480  13.279  -3.834  1.00 20.00     0.009 C 
ENDBRANCH   3   8
BRANCH   3  10
HETATM   10  C8  UNL     1     -34.140  15.906  -6.202  1.00 20.00     0.048 C 
HETATM   11  C6  UNL     1     -34.546  15.027  -7.340  1.00 20.00     0.009 C 
ENDBRANCH   3  10
TORSDOF 2
ENDMDL
MODEL 4
REMARK VINA RESULT:      -3.9      1.297      3.472
REMARK  2 active torsions:
REMARK  status: ('A' for Active; 'I' for Inactive)
REMARK    1  A    between atoms: C3_3  and  C7_7 
REMARK    2  A    between atoms: C3_3  and  C8_8 
ROOT
HETATM    1  C1  UNL     1     -35.661  16.898  -5.069  1.00 20.00     0.286 C 
HETATM    2  C2  UNL     1     -34.260  16.904  -5.675  1.00 20.00     0.074 C 
HETATM    3  C3  UNL     1     -34.668  15.322  -3.591  1.00 20.00     0.205 C 
HETATM    4  C4  UNL     1     -33.780  18.300  -6.034  1.00 20.00     0.023 C 
HETATM    5  N9  UNL     1     -35.850  15.598  -4.422  1.00 20.00     0.104 N 
HETATM    6  S10 UNL     1     -33.240  16.155  -4.378  1.00 20.00    -0.122 SA
HETATM    7  H27 UNL     1     -36.701  15.599  -3.862  1.00 20.00     0.318 HD
ENDROOT
BRANCH   3   8
HETATM    8  C7  UNL     1     -34.847  15.860  -2.167  1.00 20.00     0.048 C 
HETATM    9  C5  UNL     1     -33.803  16.869  -1.827  1.00 20.00     0.009 C 
ENDBRANCH   3   8
BRANCH   3  10
HETATM   10  C8  UNL     1     -34.427  13.812  -3.569  1.00 20.00     0.048 C 
HETATM   11  C6  UNL     1     -34.684  13.194  -4.903  1.00 20.00     0.009 C 
ENDBRANCH   3  10
TORSDOF 2
ENDMDL
MODEL 5
REMARK VINA RESULT:      -3.8      2.177      3.997
REMARK  2 active torsions:
REMARK  status: ('A' for Active; 'I' for Inactive)
REMARK    1  A    between atoms: C3_3  and  C7_7 
REMARK    2  A    between atoms: C3_3  and  C8_8 
ROOT
HETATM    1  C1  UNL     1     -33.183  15.344  -3.428  1.00 20.00     0.286 C 
HETATM    2  C2  UNL     1     -34.548  15.412  -2.751  1.00 20.00     0.074 C 
HETATM    3  C3  UNL     1     -34.516  15.325  -5.397  1.00 20.00     0.205 C 
HETATM    4  C4  UNL     1     -34.583  16.394  -1.593  1.00 20.00     0.023 C 
HETATM    5  N9  UNL     1     -33.371  14.690  -4.725  1.00 20.00     0.104 N 
HETATM    6  S10 UNL     1     -35.656  15.917  -4.094  1.00 20.00    -0.122 SA
HETATM    7  H27 UNL     1     -32.526  14.765  -5.289  1.00 20.00     0.318 HD
ENDROOT
BRANCH   3   8
HETATM    8  C7  UNL     1     -34.070  16.512  -6.259  1.00 20.00     0.048 C 
HETATM    9  C5  UNL     1     -34.623  17.799  -5.746  1.00 20.00     0.009 C 
ENDBRANCH   3   8
BRANCH   3  10
HETATM   10  C8  UNL     1     -35.223  14.275  -6.255  1.00 20.00     0.048 C 
HETATM   11  C6  UNL     1     -35.224  14.655  -7.699  1.00 20.00     0.009 C 
ENDBRANCH   3  10
TORSDOF 2
ENDMDL
MODEL 6
REMARK VINA RESULT:      -3.8      2.466      4.258
REMARK  2 active torsions:
REMARK  status: ('A' for Active; 'I' for Inactive)
REMARK    1  A    between atoms: C3_3  and  C7_7 
REMARK    2  A    between atoms: C3_3  and  C8_8 
ROOT
HETATM    1  C1  UNL     1     -33.472  17.202  -5.197  1.00 20.00     0.286 C 
HETATM    2  C2  UNL     1     -34.810  17.377  -4.484  1.00 20.00     0.074 C 
HETATM    3  C3  UNL     1     -34.406  15.085  -5.746  1.00 20.00     0.205 C 
HETATM    4  C4  UNL     1     -35.409  18.759  -4.686  1.00 20.00     0.023 C 
HETATM    5  N9  UNL     1     -33.196  15.765  -5.259  1.00 20.00     0.104 N 
HETATM    6  S10 UNL     1     -35.846  16.081  -5.213  1.00 20.00    -0.122 SA
HETATM    7  H27 UNL     1     -32.400  15.581  -5.867  1.00 20.00     0.318 HD
ENDROOT
BRANCH   3   8
HETATM    8  C7  UNL     1     -34.407  14.971  -7.274  1.00 20.00     0.048 C 
HETATM    9  C5  UNL     1     -35.714  14.466  -7.785  1.00 20.00     0.009 C 
ENDBRANCH   3   8
BRANCH   3  10
HETATM   10  C8  UNL     1     -34.481  13.699  -5.105  1.00 20.00     0.048 C 
HETATM   11  C6  UNL     1     -34.254  13.762  -3.630  1.00 20.00     0.009 C 
ENDBRANCH   3  10
TORSDOF 2
ENDMDL
MODEL 7
REMARK VINA RESULT:      -3.8      1.842      2.609
REMARK  2 active torsions:
REMARK  status: ('A' for Active; 'I' for Inactive)
REMARK    1  A    between atoms: C3_3  and  C7_7 
REMARK    2  A    between atoms: C3_3  and  C8_8 
ROOT
HETATM    1  C1  UNL     1     -34.893  13.552  -5.250  1.00 20.00     0.286 C 
HETATM    2  C2  UNL     1     -34.421  14.674  -6.171  1.00 20.00     0.074 C 
HETATM    3  C3  UNL     1     -34.939  15.314  -3.654  1.00 20.00     0.205 C 
HETATM    4  C4  UNL     1     -35.069  14.622  -7.543  1.00 20.00     0.023 C 
HETATM    5  N9  UNL     1     -34.519  13.923  -3.883  1.00 20.00     0.104 N 
HETATM    6  S10 UNL     1     -34.880  16.177  -5.267  1.00 20.00    -0.122 SA
HETATM    7  H27 UNL     1     -34.953  13.292  -3.212  1.00 20.00     0.318 HD
ENDROOT
BRANCH   3   8
HETATM    8  C7  UNL     1     -36.364  15.383  -3.095  1.00 20.00     0.048 C 
HETATM    9  C5  UNL     1     -37.288  16.082  -4.034  1.00 20.00     0.009 C 
ENDBRANCH   3   8
BRANCH   3  10
HETATM   10  C8  UNL     1     -33.952  15.970  -2.688  1.00 20.00     0.048 C 
HETATM   11  C6  UNL     1     -34.615  16.370  -1.411  1.00 20.00     0.009 C 
ENDBRANCH   3  10
TORSDOF 2
ENDMDL
MODEL 8
REMARK VINA RESULT:      -3.8      1.786      3.172
REMARK  2 active torsions:
REMARK  status: ('A' for Active; 'I' for Inactive)
REMARK    1  A    between atoms: C3_3  and  C7_7 
REMARK    2  A    between atoms: C3_3  and  C8_8 
ROOT
HETATM    1  C1  UNL     1     -35.615  13.846  -4.272  1.00 20.00     0.286 C 
HETATM    2  C2  UNL     1     -36.631  14.901  -4.701  1.00 20.00     0.074 C 
HETATM    3  C3  UNL     1     -34.167  15.730  -4.195  1.00 20.00     0.205 C 
HETATM    4  C4  UNL     1     -37.985  14.719  -4.038  1.00 20.00     0.023 C 
HETATM    5  N9  UNL     1     -34.289  14.337  -4.652  1.00 20.00     0.104 N 
HETATM    6  S10 UNL     1     -35.846  16.460  -4.211  1.00 20.00    -0.122 SA
HETATM    7  H27 UNL     1     -33.562  13.752  -4.244  1.00 20.00     0.318 HD
ENDROOT
BRANCH   3   8
HETATM    8  C7  UNL     1     -33.595  15.806  -2.775  1.00 20.00     0.048 C 
HETATM    9  C5  UNL     1     -34.619  16.271  -1.796  1.00 20.00     0.009 C 
ENDBRANCH   3   8
BRANCH   3  10
HETATM   10  C8  UNL     1     -33.273  16.490  -5.175  1.00 20.00     0.048 C 
HETATM   11  C6  UNL     1     -33.609  17.945  -5.212  1.00 20.00     0.009 C 
ENDBRANCH   3  10
TORSDOF 2
ENDMDL
MODEL 9
REMARK VINA RESULT:      -3.7      1.765      3.416
REMARK  2 active torsions:
REMARK  status: ('A' for Active; 'I' for Inactive)
REMARK    1  A    between atoms: C3_3  and  C7_7 
REMARK    2  A    between atoms: C3_3  and  C8_8 
ROOT
HETATM    1  C1  UNL     1     -37.131  16.589  -3.552  1.00 20.00     0.286 C 
HETATM    2  C2  UNL     1     -36.787  16.541  -5.038  1.00 20.00     0.074 C 
HETATM    3  C3  UNL     1     -34.980  15.597  -3.349  1.00 20.00     0.205 C 
HETATM    4  C4  UNL     1     -37.180  17.809  -5.775  1.00 20.00     0.023 C 
HETATM    5  N9  UNL     1     -36.377  15.519  -2.894  1.00 20.00     0.104 N 
HETATM    6  S10 UNL     1     -34.993  16.287  -5.044  1.00 20.00    -0.122 SA
HETATM    7  H27 UNL     1     -36.440  15.609  -1.882  1.00 20.00     0.318 HD
ENDROOT
BRANCH   3   8
HETATM    8  C7  UNL     1     -34.145  16.504  -2.438  1.00 20.00     0.048 C 
HETATM    9  C5  UNL     1     -34.653  16.490  -1.036  1.00 20.00     0.009 C 
ENDBRANCH   3   8
BRANCH   3  10
HETATM   10  C8  UNL     1     -34.396  14.183  -3.379  1.00 20.00     0.048 C 
HETATM   11  C6  UNL     1     -35.082  13.327  -4.392  1.00 20.00     0.009 C 
ENDBRANCH   3  10
TORSDOF 2
ENDMDL
