MODEL 1
REMARK VINA RESULT:      -4.1      0.000      0.000
REMARK  5 active torsions:
REMARK  status: ('A' for Active; 'I' for Inactive)
REMARK    1  A    between atoms: C3_3  and  C4_4 
REMARK    2  A    between atoms: C3_3  and  N8_8 
REMARK    3  A    between atoms: C5_5  and  C7_7 
REMARK    4  A    between atoms: C6_6  and  C7_7 
REMARK    5  A    between atoms: C7_7  and  N8_8 
ROOT
HETATM    1  C7  UNL     1     -33.820   6.270   4.244  1.00 20.00     0.237 C 
ENDROOT
BRANCH   1   2
HETATM    2  C5  UNL     1     -34.929   5.571   3.450  1.00 20.00     0.150 C 
HETATM    3 CL10 UNL     1     -34.310   4.921   1.906  1.00 20.00    -0.128 Cl
ENDBRANCH   1   2
BRANCH   1   4
HETATM    4  C6  UNL     1     -33.798   5.823   5.729  1.00 20.00     0.011 C 
HETATM    5  C1  UNL     1     -34.944   4.877   6.101  1.00 20.00     0.012 C 
HETATM    6  C2  UNL     1     -33.795   7.029   6.674  1.00 20.00     0.012 C 
ENDBRANCH   1   4
BRANCH   1   7
HETATM    7  N8  UNL     1     -32.533   6.070   3.617  1.00 20.00     0.091 N 
HETATM    8  H25 UNL     1     -31.951   5.469   4.206  1.00 20.00     0.316 HD
BRANCH   7   9
HETATM    9  C3  UNL     1     -31.840   7.339   3.410  1.00 20.00     0.301 C 
BRANCH   9  10
HETATM   10  C4  UNL     1     -32.378   8.076   2.203  1.00 20.00     0.252 C 
HETATM   11  F9  UNL     1     -31.360   8.299   1.330  1.00 20.00    -0.254 F 
ENDBRANCH   9  10
ENDBRANCH   7   9
ENDBRANCH   1   7
TORSDOF 5
ENDMDL
MODEL 2
REMARK VINA RESULT:      -4.1     11.601     12.501
REMARK  5 active torsions:
REMARK  status: ('A' for Active; 'I' for Inactive)
REMARK    1  A    between atoms: C3_3  and  C4_4 
REMARK    2  A    between atoms: C3_3  and  N8_8 
REMARK    3  A    between atoms: C5_5  and  C7_7 
REMARK    4  A    between atoms: C6_6  and  C7_7 
REMARK    5  A    between atoms: C7_7  and  N8_8 
ROOT
HETATM    1  C7  UNL     1     -33.609  15.347  -3.346  1.00 20.00     0.237 C 
ENDROOT
BRANCH   1   2
HETATM    2  C5  UNL     1     -34.248  16.620  -2.780  1.00 20.00     0.150 C 
HETATM    3 CL10 UNL     1     -34.502  16.490  -1.017  1.00 20.00    -0.128 Cl
ENDBRANCH   1   2
BRANCH   1   4
HETATM    4  C6  UNL     1     -34.643  14.204  -3.518  1.00 20.00     0.011 C 
HETATM    5  C1  UNL     1     -34.307  13.241  -4.661  1.00 20.00     0.012 C 
HETATM    6  C2  UNL     1     -36.059  14.759  -3.709  1.00 20.00     0.012 C 
ENDBRANCH   1   4
BRANCH   1   7
HETATM    7  N8  UNL     1     -32.922  15.624  -4.587  1.00 20.00     0.091 N 
HETATM    8  H25 UNL     1     -31.916  15.704  -4.416  1.00 20.00     0.316 HD
BRANCH   7   9
HETATM    9  C3  UNL     1     -33.395  16.868  -5.190  1.00 20.00     0.301 C 
BRANCH   9  10
HETATM   10  C4  UNL     1     -34.218  16.605  -6.432  1.00 20.00     0.252 C 
HETATM   11  F9  UNL     1     -33.767  15.470  -7.030  1.00 20.00    -0.254 F 
ENDBRANCH   9  10
ENDBRANCH   7   9
ENDBRANCH   1   7
TORSDOF 5
ENDMDL
MODEL 3
REMARK VINA RESULT:      -3.9      2.093      2.698
REMARK  5 active torsions:
REMARK  status: ('A' for Active; 'I' for Inactive)
REMARK    1  A    between atoms: C3_3  and  C4_4 
REMARK    2  A    between atoms: C3_3  and  N8_8 
REMARK    3  A    between atoms: C5_5  and  C7_7 
REMARK    4  A    between atoms: C6_6  and  C7_7 
REMARK    5  A    between atoms: C7_7  and  N8_8 
ROOT
HETATM    1  C7  UNL     1     -33.722   5.899   4.992  1.00 20.00     0.237 C 
ENDROOT
BRANCH   1   2
HETATM    2  C5  UNL     1     -34.147   6.408   6.374  1.00 20.00     0.150 C 
HETATM    3 CL10 UNL     1     -33.016   7.647   6.986  1.00 20.00    -0.128 Cl
ENDBRANCH   1   2
BRANCH   1   4
HETATM    4  C6  UNL     1     -34.707   4.839   4.435  1.00 20.00     0.011 C 
HETATM    5  C1  UNL     1     -35.916   5.444   3.713  1.00 20.00     0.012 C 
HETATM    6  C2  UNL     1     -35.187   3.889   5.538  1.00 20.00     0.012 C 
ENDBRANCH   1   4
BRANCH   1   7
HETATM    7  N8  UNL     1     -33.557   6.998   4.067  1.00 20.00     0.091 N 
HETATM    8  H25 UNL     1     -34.427   7.150   3.550  1.00 20.00     0.316 HD
BRANCH   7   9
HETATM    9  C3  UNL     1     -32.484   6.733   3.113  1.00 20.00     0.301 C 
BRANCH   9  10
HETATM   10  C4  UNL     1     -31.809   8.012   2.667  1.00 20.00     0.252 C 
HETATM   11  F9  UNL     1     -31.784   8.049   1.307  1.00 20.00    -0.254 F 
ENDBRANCH   9  10
ENDBRANCH   7   9
ENDBRANCH   1   7
TORSDOF 5
ENDMDL
MODEL 4
REMARK VINA RESULT:      -3.8      1.946      2.466
REMARK  5 active torsions:
REMARK  status: ('A' for Active; 'I' for Inactive)
REMARK    1  A    between atoms: C3_3  and  C4_4 
REMARK    2  A    between atoms: C3_3  and  N8_8 
REMARK    3  A    between atoms: C5_5  and  C7_7 
REMARK    4  A    between atoms: C6_6  and  C7_7 
REMARK    5  A    between atoms: C7_7  and  N8_8 
ROOT
HETATM    1  C7  UNL     1     -33.414   5.906   4.548  1.00 20.00     0.237 C 
ENDROOT
BRANCH   1   2
HETATM    2  C5  UNL     1     -32.999   7.045   5.486  1.00 20.00     0.150 C 
HETATM    3 CL10 UNL     1     -34.018   7.083   6.952  1.00 20.00    -0.128 Cl
ENDBRANCH   1   2
BRANCH   1   4
HETATM    4  C6  UNL     1     -34.842   5.388   4.860  1.00 20.00     0.011 C 
HETATM    5  C1  UNL     1     -34.870   3.955   5.401  1.00 20.00     0.012 C 
HETATM    6  C2  UNL     1     -35.754   5.495   3.633  1.00 20.00     0.012 C 
ENDBRANCH   1   4
BRANCH   1   7
HETATM    7  N8  UNL     1     -33.293   6.308   3.165  1.00 20.00     0.091 N 
HETATM    8  H25 UNL     1     -33.314   5.482   2.561  1.00 20.00     0.316 HD
BRANCH   7   9
HETATM    9  C3  UNL     1     -32.045   7.029   2.929  1.00 20.00     0.301 C 
BRANCH   9  10
HETATM   10  C4  UNL     1     -32.270   8.270   2.092  1.00 20.00     0.252 C 
HETATM   11  F9  UNL     1     -31.379   8.278   1.065  1.00 20.00    -0.254 F 
ENDBRANCH   9  10
ENDBRANCH   7   9
ENDBRANCH   1   7
TORSDOF 5
ENDMDL
MODEL 5
REMARK VINA RESULT:      -3.8     11.397     12.182
REMARK  5 active torsions:
REMARK  status: ('A' for Active; 'I' for Inactive)
REMARK    1  A    between atoms: C3_3  and  C4_4 
REMARK    2  A    between atoms: C3_3  and  N8_8 
REMARK    3  A    between atoms: C5_5  and  C7_7 
REMARK    4  A    between atoms: C6_6  and  C7_7 
REMARK    5  A    between atoms: C7_7  and  N8_8 
ROOT
HETATM    1  C7  UNL     1     -33.485  16.241  -3.444  1.00 20.00     0.237 C 
ENDROOT
BRANCH   1   2
HETATM    2  C5  UNL     1     -33.867  17.312  -4.472  1.00 20.00     0.150 C 
HETATM    3 CL10 UNL     1     -33.958  16.628  -6.119  1.00 20.00    -0.128 Cl
ENDBRANCH   1   2
BRANCH   1   4
HETATM    4  C6  UNL     1     -34.682  15.853  -2.538  1.00 20.00     0.011 C 
HETATM    5  C1  UNL     1     -36.045  16.218  -3.133  1.00 20.00     0.012 C 
HETATM    6  C2  UNL     1     -34.546  16.468  -1.140  1.00 20.00     0.012 C 
ENDBRANCH   1   4
BRANCH   1   7
HETATM    7  N8  UNL     1     -32.922  15.080  -4.096  1.00 20.00     0.091 N 
HETATM    8  H25 UNL     1     -33.042  15.160  -5.109  1.00 20.00     0.316 HD
BRANCH   7   9
HETATM    9  C3  UNL     1     -33.567  13.851  -3.642  1.00 20.00     0.301 C 
BRANCH   9  10
HETATM   10  C4  UNL     1     -34.405  13.227  -4.737  1.00 20.00     0.252 C 
HETATM   11  F9  UNL     1     -35.658  12.997  -4.260  1.00 20.00    -0.254 F 
ENDBRANCH   9  10
ENDBRANCH   7   9
ENDBRANCH   1   7
TORSDOF 5
ENDMDL
MODEL 6
REMARK VINA RESULT:      -3.8     10.965     12.812
REMARK  5 active torsions:
REMARK  status: ('A' for Active; 'I' for Inactive)
REMARK    1  A    between atoms: C3_3  and  C4_4 
REMARK    2  A    between atoms: C3_3  and  N8_8 
REMARK    3  A    between atoms: C5_5  and  C7_7 
REMARK    4  A    between atoms: C6_6  and  C7_7 
REMARK    5  A    between atoms: C7_7  and  N8_8 
ROOT
HETATM    1  C7  UNL     1     -33.580  15.878  -4.045  1.00 20.00     0.237 C 
ENDROOT
BRANCH   1   2
HETATM    2  C5  UNL     1     -33.608  16.768  -2.797  1.00 20.00     0.150 C 
HETATM    3 CL10 UNL     1     -34.770  16.155  -1.588  1.00 20.00    -0.128 Cl
ENDBRANCH   1   2
BRANCH   1   4
HETATM    4  C6  UNL     1     -33.361  16.701  -5.341  1.00 20.00     0.011 C 
HETATM    5  C1  UNL     1     -33.598  18.203  -5.161  1.00 20.00     0.012 C 
HETATM    6  C2  UNL     1     -34.230  16.174  -6.489  1.00 20.00     0.012 C 
ENDBRANCH   1   4
BRANCH   1   7
HETATM    7  N8  UNL     1     -32.588  14.835  -3.911  1.00 20.00     0.091 N 
HETATM    8  H25 UNL     1     -32.045  14.762  -4.776  1.00 20.00     0.316 HD
BRANCH   7   9
HETATM    9  C3  UNL     1     -33.209  13.542  -3.637  1.00 20.00     0.301 C 
BRANCH   9  10
HETATM   10  C4  UNL     1     -34.664  13.526  -4.053  1.00 20.00     0.252 C 
HETATM   11  F9  UNL     1     -34.800  12.744  -5.157  1.00 20.00    -0.254 F 
ENDBRANCH   9  10
ENDBRANCH   7   9
ENDBRANCH   1   7
TORSDOF 5
ENDMDL
MODEL 7
REMARK VINA RESULT:      -3.7     11.473     12.538
REMARK  5 active torsions:
REMARK  status: ('A' for Active; 'I' for Inactive)
REMARK    1  A    between atoms: C3_3  and  C4_4 
REMARK    2  A    between atoms: C3_3  and  N8_8 
REMARK    3  A    between atoms: C5_5  and  C7_7 
REMARK    4  A    between atoms: C6_6  and  C7_7 
REMARK    5  A    between atoms: C7_7  and  N8_8 
ROOT
HETATM    1  C7  UNL     1     -34.314  15.795  -4.932  1.00 20.00     0.237 C 
ENDROOT
BRANCH   1   2
HETATM    2  C5  UNL     1     -33.933  16.074  -6.390  1.00 20.00     0.150 C 
HETATM    3 CL10 UNL     1     -34.572  14.812  -7.480  1.00 20.00    -0.128 Cl
ENDBRANCH   1   2
BRANCH   1   4
HETATM    4  C6  UNL     1     -34.505  14.281  -4.660  1.00 20.00     0.011 C 
HETATM    5  C1  UNL     1     -35.867  13.933  -4.052  1.00 20.00     0.012 C 
HETATM    6  C2  UNL     1     -33.385  13.729  -3.770  1.00 20.00     0.012 C 
ENDBRANCH   1   4
BRANCH   1   7
HETATM    7  N8  UNL     1     -33.345  16.373  -4.028  1.00 20.00     0.091 N 
HETATM    8  H25 UNL     1     -32.908  15.634  -3.470  1.00 20.00     0.316 HD
BRANCH   7   9
HETATM    9  C3  UNL     1     -33.969  17.335  -3.124  1.00 20.00     0.301 C 
BRANCH   9  10
HETATM   10  C4  UNL     1     -33.870  16.887  -1.681  1.00 20.00     0.252 C 
HETATM   11  F9  UNL     1     -34.671  15.803  -1.499  1.00 20.00    -0.254 F 
ENDBRANCH   9  10
ENDBRANCH   7   9
ENDBRANCH   1   7
TORSDOF 5
ENDMDL
MODEL 8
REMARK VINA RESULT:      -3.7     11.553     12.781
REMARK  5 active torsions:
REMARK  status: ('A' for Active; 'I' for Inactive)
REMARK    1  A    between atoms: C3_3  and  C4_4 
REMARK    2  A    between atoms: C3_3  and  N8_8 
REMARK    3  A    between atoms: C5_5  and  C7_7 
REMARK    4  A    between atoms: C6_6  and  C7_7 
REMARK    5  A    between atoms: C7_7  and  N8_8 
ROOT
HETATM    1  C7  UNL     1     -34.566  15.304  -5.694  1.00 20.00     0.237 C 
ENDROOT
BRANCH   1   2
HETATM    2  C5  UNL     1     -34.392  15.087  -7.202  1.00 20.00     0.150 C 
HETATM    3 CL10 UNL     1     -35.834  14.313  -7.917  1.00 20.00    -0.128 Cl
ENDBRANCH   1   2
BRANCH   1   4
HETATM    4  C6  UNL     1     -35.153  14.052  -4.991  1.00 20.00     0.011 C 
HETATM    5  C1  UNL     1     -36.345  14.363  -4.081  1.00 20.00     0.012 C 
HETATM    6  C2  UNL     1     -34.077  13.303  -4.197  1.00 20.00     0.012 C 
ENDBRANCH   1   4
BRANCH   1   7
HETATM    7  N8  UNL     1     -33.319  15.710  -5.086  1.00 20.00     0.091 N 
HETATM    8  H25 UNL     1     -33.104  15.098  -4.294  1.00 20.00     0.316 HD
BRANCH   7   9
HETATM    9  C3  UNL     1     -33.385  17.089  -4.608  1.00 20.00     0.301 C 
BRANCH   9  10
HETATM   10  C4  UNL     1     -33.849  17.156  -3.169  1.00 20.00     0.252 C 
HETATM   11  F9  UNL     1     -33.419  16.045  -2.513  1.00 20.00    -0.254 F 
ENDBRANCH   9  10
ENDBRANCH   7   9
ENDBRANCH   1   7
TORSDOF 5
ENDMDL
MODEL 9
REMARK VINA RESULT:      -3.7     11.373     12.366
REMARK  5 active torsions:
REMARK  status: ('A' for Active; 'I' for Inactive)
REMARK    1  A    between atoms: C3_3  and  C4_4 
REMARK    2  A    between atoms: C3_3  and  N8_8 
REMARK    3  A    between atoms: C5_5  and  C7_7 
REMARK    4  A    between atoms: C6_6  and  C7_7 
REMARK    5  A    between atoms: C7_7  and  N8_8 
ROOT
HETATM    1  C7  UNL     1     -35.206  15.119  -3.564  1.00 20.00     0.237 C 
ENDROOT
BRANCH   1   2
HETATM    2  C5  UNL     1     -34.731  13.675  -3.759  1.00 20.00     0.150 C 
HETATM    3 CL10 UNL     1     -32.953  13.556  -3.653  1.00 20.00    -0.128 Cl
ENDBRANCH   1   2
BRANCH   1   4
HETATM    4  C6  UNL     1     -34.180  15.965  -2.766  1.00 20.00     0.011 C 
HETATM    5  C1  UNL     1     -34.670  16.367  -1.371  1.00 20.00     0.012 C 
HETATM    6  C2  UNL     1     -33.761  17.216  -3.547  1.00 20.00     0.012 C 
ENDBRANCH   1   4
BRANCH   1   7
HETATM    7  N8  UNL     1     -35.517  15.735  -4.835  1.00 20.00     0.091 N 
HETATM    8  H25 UNL     1     -36.410  16.231  -4.770  1.00 20.00     0.316 HD
BRANCH   7   9
HETATM    9  C3  UNL     1     -35.611  14.738  -5.899  1.00 20.00     0.301 C 
BRANCH   9  10
HETATM   10  C4  UNL     1     -34.675  15.059  -7.044  1.00 20.00     0.252 C 
HETATM   11  F9  UNL     1     -33.607  15.749  -6.563  1.00 20.00    -0.254 F 
ENDBRANCH   9  10
ENDBRANCH   7   9
ENDBRANCH   1   7
TORSDOF 5
ENDMDL
