MODEL 1
REMARK VINA RESULT:      -4.7      0.000      0.000
REMARK  1 active torsions:
REMARK  status: ('A' for Active; 'I' for Inactive)
REMARK    1  A    between atoms: C5_5  and  O11_11 
ROOT
HETATM    1  C1  UNL     1     -37.313  14.550  -4.189  1.00 20.00     0.098 C 
HETATM    2  C2  UNL     1     -35.162  13.420  -4.719  1.00 20.00     0.054 C 
HETATM    3  C3  UNL     1     -34.462  13.779  -3.414  1.00 20.00     0.013 C 
HETATM    4  C4  UNL     1     -35.208  15.812  -4.587  1.00 20.00     0.062 C 
HETATM    5  C5  UNL     1     -36.076  14.613  -4.984  1.00 20.00     0.148 C 
HETATM    6  C6  UNL     1     -34.239  15.306  -3.486  1.00 20.00    -0.044 C 
HETATM    7  C7  UNL     1     -34.543  15.961  -2.133  1.00 20.00     0.015 C 
HETATM    8  C8  UNL     1     -32.786  15.618  -3.876  1.00 20.00     0.015 C 
HETATM    9  N10 UNL     1     -38.288  14.501  -3.562  1.00 20.00    -0.194 NA
ENDROOT
BRANCH   5  10
HETATM   10  O11 UNL     1     -36.406  14.692  -6.363  1.00 20.00    -0.370 OA
HETATM   11  C9  UNL     1     -35.260  14.510  -7.183  1.00 20.00     0.204 C 
ENDBRANCH   5  10
TORSDOF 1
ENDMDL
MODEL 2
REMARK VINA RESULT:      -4.5      1.940      3.038
REMARK  1 active torsions:
REMARK  status: ('A' for Active; 'I' for Inactive)
REMARK    1  A    between atoms: C5_5  and  O11_11 
ROOT
HETATM    1  C1  UNL     1     -35.708  15.465  -3.013  1.00 20.00     0.098 C 
HETATM    2  C2  UNL     1     -35.423  13.385  -4.346  1.00 20.00     0.054 C 
HETATM    3  C3  UNL     1     -34.346  13.931  -5.275  1.00 20.00     0.013 C 
HETATM    4  C4  UNL     1     -36.383  15.310  -5.401  1.00 20.00     0.062 C 
HETATM    5  C5  UNL     1     -36.298  14.598  -4.046  1.00 20.00     0.148 C 
HETATM    6  C6  UNL     1     -35.068  14.976  -6.154  1.00 20.00    -0.044 C 
HETATM    7  C7  UNL     1     -34.198  16.226  -6.334  1.00 20.00     0.015 C 
HETATM    8  C8  UNL     1     -35.386  14.387  -7.536  1.00 20.00     0.015 C 
HETATM    9  N10 UNL     1     -35.244  16.148  -2.198  1.00 20.00    -0.194 NA
ENDROOT
BRANCH   5  10
HETATM   10  O11 UNL     1     -37.594  14.189  -3.634  1.00 20.00    -0.370 OA
HETATM   11  C9  UNL     1     -38.610  14.885  -4.343  1.00 20.00     0.204 C 
ENDBRANCH   5  10
TORSDOF 1
ENDMDL
MODEL 3
REMARK VINA RESULT:      -4.5      2.029      2.984
REMARK  1 active torsions:
REMARK  status: ('A' for Active; 'I' for Inactive)
REMARK    1  A    between atoms: C5_5  and  O11_11 
ROOT
HETATM    1  C1  UNL     1     -35.436  13.572  -4.379  1.00 20.00     0.098 C 
HETATM    2  C2  UNL     1     -36.571  15.579  -5.315  1.00 20.00     0.054 C 
HETATM    3  C3  UNL     1     -35.363  16.503  -5.235  1.00 20.00     0.013 C 
HETATM    4  C4  UNL     1     -35.910  15.594  -3.012  1.00 20.00     0.062 C 
HETATM    5  C5  UNL     1     -36.403  14.651  -4.115  1.00 20.00     0.148 C 
HETATM    6  C6  UNL     1     -35.135  16.734  -3.725  1.00 20.00    -0.044 C 
HETATM    7  C7  UNL     1     -33.639  16.684  -3.389  1.00 20.00     0.015 C 
HETATM    8  C8  UNL     1     -35.695  18.100  -3.300  1.00 20.00     0.015 C 
HETATM    9  N10 UNL     1     -34.675  12.722  -4.588  1.00 20.00    -0.194 NA
ENDROOT
BRANCH   5  10
HETATM   10  O11 UNL     1     -37.651  14.084  -3.743  1.00 20.00    -0.370 OA
HETATM   11  C9  UNL     1     -38.673  15.070  -3.686  1.00 20.00     0.204 C 
ENDBRANCH   5  10
TORSDOF 1
ENDMDL
MODEL 4
REMARK VINA RESULT:      -4.4      1.719      2.219
REMARK  1 active torsions:
REMARK  status: ('A' for Active; 'I' for Inactive)
REMARK    1  A    between atoms: C5_5  and  O11_11 
ROOT
HETATM    1  C1  UNL     1     -35.016  13.788  -4.911  1.00 20.00     0.098 C 
HETATM    2  C2  UNL     1     -33.913  15.778  -5.915  1.00 20.00     0.054 C 
HETATM    3  C3  UNL     1     -33.206  16.233  -4.645  1.00 20.00     0.013 C 
HETATM    4  C4  UNL     1     -35.640  16.113  -4.290  1.00 20.00     0.062 C 
HETATM    5  C5  UNL     1     -35.213  15.159  -5.410  1.00 20.00     0.148 C 
HETATM    6  C6  UNL     1     -34.336  16.723  -3.712  1.00 20.00    -0.044 C 
HETATM    7  C7  UNL     1     -34.091  16.253  -2.273  1.00 20.00     0.015 C 
HETATM    8  C8  UNL     1     -34.417  18.257  -3.728  1.00 20.00     0.015 C 
HETATM    9  N10 UNL     1     -34.861  12.707  -4.518  1.00 20.00    -0.194 NA
ENDROOT
BRANCH   5  10
HETATM   10  O11 UNL     1     -36.193  15.150  -6.437  1.00 20.00    -0.370 OA
HETATM   11  C9  UNL     1     -35.693  14.555  -7.627  1.00 20.00     0.204 C 
ENDBRANCH   5  10
TORSDOF 1
ENDMDL
MODEL 5
REMARK VINA RESULT:      -4.3      2.038      2.798
REMARK  1 active torsions:
REMARK  status: ('A' for Active; 'I' for Inactive)
REMARK    1  A    between atoms: C5_5  and  O11_11 
ROOT
HETATM    1  C1  UNL     1     -33.944  13.925  -3.979  1.00 20.00     0.098 C 
HETATM    2  C2  UNL     1     -34.269  16.208  -4.913  1.00 20.00     0.054 C 
HETATM    3  C3  UNL     1     -33.930  16.959  -3.632  1.00 20.00     0.013 C 
HETATM    4  C4  UNL     1     -35.806  15.407  -3.258  1.00 20.00     0.062 C 
HETATM    5  C5  UNL     1     -34.932  14.924  -4.420  1.00 20.00     0.148 C 
HETATM    6  C6  UNL     1     -35.100  16.658  -2.669  1.00 20.00    -0.044 C 
HETATM    7  C7  UNL     1     -34.579  16.386  -1.252  1.00 20.00     0.015 C 
HETATM    8  C8  UNL     1     -36.076  17.843  -2.622  1.00 20.00     0.015 C 
HETATM    9  N10 UNL     1     -33.166  13.138  -3.631  1.00 20.00    -0.194 NA
ENDROOT
BRANCH   5  10
HETATM   10  O11 UNL     1     -35.748  14.362  -5.437  1.00 20.00    -0.370 OA
HETATM   11  C9  UNL     1     -35.123  14.446  -6.711  1.00 20.00     0.204 C 
ENDBRANCH   5  10
TORSDOF 1
ENDMDL
MODEL 6
REMARK VINA RESULT:      -4.3      1.677      2.653
REMARK  1 active torsions:
REMARK  status: ('A' for Active; 'I' for Inactive)
REMARK    1  A    between atoms: C5_5  and  O11_11 
ROOT
HETATM    1  C1  UNL     1     -36.830  14.449  -3.852  1.00 20.00     0.098 C 
HETATM    2  C2  UNL     1     -34.867  15.574  -2.818  1.00 20.00     0.054 C 
HETATM    3  C3  UNL     1     -35.143  16.955  -3.399  1.00 20.00     0.013 C 
HETATM    4  C4  UNL     1     -34.912  15.286  -5.196  1.00 20.00     0.062 C 
HETATM    5  C5  UNL     1     -35.368  14.616  -3.895  1.00 20.00     0.148 C 
HETATM    6  C6  UNL     1     -34.878  16.812  -4.914  1.00 20.00    -0.044 C 
HETATM    7  C7  UNL     1     -35.951  17.551  -5.724  1.00 20.00     0.015 C 
HETATM    8  C8  UNL     1     -33.500  17.385  -5.274  1.00 20.00     0.015 C 
HETATM    9  N10 UNL     1     -37.982  14.318  -3.818  1.00 20.00    -0.194 NA
ENDROOT
BRANCH   5  10
HETATM   10  O11 UNL     1     -34.745  13.346  -3.761  1.00 20.00    -0.370 OA
HETATM   11  C9  UNL     1     -33.328  13.459  -3.768  1.00 20.00     0.204 C 
ENDBRANCH   5  10
TORSDOF 1
ENDMDL
MODEL 7
REMARK VINA RESULT:      -4.2      2.413      3.357
REMARK  1 active torsions:
REMARK  status: ('A' for Active; 'I' for Inactive)
REMARK    1  A    between atoms: C5_5  and  O11_11 
ROOT
HETATM    1  C1  UNL     1     -34.146  15.868  -4.902  1.00 20.00     0.098 C 
HETATM    2  C2  UNL     1     -35.882  15.485  -3.161  1.00 20.00     0.054 C 
HETATM    3  C3  UNL     1     -35.889  16.910  -2.621  1.00 20.00     0.013 C 
HETATM    4  C4  UNL     1     -33.632  15.934  -2.470  1.00 20.00     0.062 C 
HETATM    5  C5  UNL     1     -34.434  15.264  -3.590  1.00 20.00     0.148 C 
HETATM    6  C6  UNL     1     -34.524  17.077  -1.917  1.00 20.00    -0.044 C 
HETATM    7  C7  UNL     1     -33.920  18.453  -2.226  1.00 20.00     0.015 C 
HETATM    8  C8  UNL     1     -34.683  16.934  -0.396  1.00 20.00     0.015 C 
HETATM    9  N10 UNL     1     -33.920  16.344  -5.935  1.00 20.00    -0.194 NA
ENDROOT
BRANCH   5  10
HETATM   10  O11 UNL     1     -34.135  13.876  -3.636  1.00 20.00    -0.370 OA
HETATM   11  C9  UNL     1     -35.001  13.186  -4.526  1.00 20.00     0.204 C 
ENDBRANCH   5  10
TORSDOF 1
ENDMDL
MODEL 8
REMARK VINA RESULT:      -4.2      2.244      3.816
REMARK  1 active torsions:
REMARK  status: ('A' for Active; 'I' for Inactive)
REMARK    1  A    between atoms: C5_5  and  O11_11 
ROOT
HETATM    1  C1  UNL     1     -34.679  13.931  -4.216  1.00 20.00     0.098 C 
HETATM    2  C2  UNL     1     -35.785  16.153  -4.376  1.00 20.00     0.054 C 
HETATM    3  C3  UNL     1     -36.141  16.053  -5.854  1.00 20.00     0.013 C 
HETATM    4  C4  UNL     1     -33.712  15.810  -5.526  1.00 20.00     0.062 C 
HETATM    5  C5  UNL     1     -34.470  15.387  -4.263  1.00 20.00     0.148 C 
HETATM    6  C6  UNL     1     -34.788  16.129  -6.597  1.00 20.00    -0.044 C 
HETATM    7  C7  UNL     1     -34.745  15.117  -7.749  1.00 20.00     0.015 C 
HETATM    8  C8  UNL     1     -34.566  17.539  -7.165  1.00 20.00     0.015 C 
HETATM    9  N10 UNL     1     -34.844  12.783  -4.178  1.00 20.00    -0.194 NA
ENDROOT
BRANCH   5  10
HETATM   10  O11 UNL     1     -33.752  15.798  -3.108  1.00 20.00    -0.370 OA
HETATM   11  C9  UNL     1     -34.627  16.078  -2.025  1.00 20.00     0.204 C 
ENDBRANCH   5  10
TORSDOF 1
ENDMDL
MODEL 9
REMARK VINA RESULT:      -4.2      1.700      2.901
REMARK  1 active torsions:
REMARK  status: ('A' for Active; 'I' for Inactive)
REMARK    1  A    between atoms: C5_5  and  O11_11 
ROOT
HETATM    1  C1  UNL     1     -37.406  15.065  -3.644  1.00 20.00     0.098 C 
HETATM    2  C2  UNL     1     -35.769  16.538  -4.800  1.00 20.00     0.054 C 
HETATM    3  C3  UNL     1     -34.852  15.421  -5.280  1.00 20.00     0.013 C 
HETATM    4  C4  UNL     1     -35.077  15.368  -2.828  1.00 20.00     0.062 C 
HETATM    5  C5  UNL     1     -36.305  16.025  -3.467  1.00 20.00     0.148 C 
HETATM    6  C6  UNL     1     -34.188  14.869  -3.999  1.00 20.00    -0.044 C 
HETATM    7  C7  UNL     1     -34.127  13.337  -4.037  1.00 20.00     0.015 C 
HETATM    8  C8  UNL     1     -32.763  15.422  -3.852  1.00 20.00     0.015 C 
HETATM    9  N10 UNL     1     -38.274  14.308  -3.785  1.00 20.00    -0.194 NA
ENDROOT
BRANCH   5  10
HETATM   10  O11 UNL     1     -36.749  17.106  -2.659  1.00 20.00    -0.370 OA
HETATM   11  C9  UNL     1     -35.655  17.817  -2.095  1.00 20.00     0.204 C 
ENDBRANCH   5  10
TORSDOF 1
ENDMDL
