MODEL 1
REMARK VINA RESULT:      -4.0      0.000      0.000
REMARK  2 active torsions:
REMARK  status: ('A' for Active; 'I' for Inactive)
REMARK    1  A    between atoms: C5_5  and  C6_6 
REMARK    2  A    between atoms: C5_5  and  N7_7 
ROOT
HETATM    1  C1  UNL     1     -35.230   5.294   3.687  1.00 20.00     0.048 C 
HETATM    2  C2  UNL     1     -34.074   5.646   2.760  1.00 20.00     0.273 C 
HETATM    3  C3  UNL     1     -33.397   6.373   4.858  1.00 20.00     0.288 C 
HETATM    4  C4  UNL     1     -34.768   5.748   5.067  1.00 20.00     0.087 C 
HETATM    5  N7  UNL     1     -33.441   6.771   3.449  1.00 20.00     0.091 N 
HETATM    6 BR9  UNL     1     -34.665   4.258   6.308  1.00 20.00    -0.089 Br
ENDROOT
BRANCH   5   7
HETATM    7  C5  UNL     1     -32.121   7.076   2.915  1.00 20.00     0.303 C 
BRANCH   7   8
HETATM    8  C6  UNL     1     -32.125   8.370   2.131  1.00 20.00     0.252 C 
HETATM    9  F8  UNL     1     -31.387   8.204   1.000  1.00 20.00    -0.254 F 
ENDBRANCH   7   8
ENDBRANCH   5   7
TORSDOF 2
ENDMDL
MODEL 2
REMARK VINA RESULT:      -3.7     11.427     12.158
REMARK  2 active torsions:
REMARK  status: ('A' for Active; 'I' for Inactive)
REMARK    1  A    between atoms: C5_5  and  C6_6 
REMARK    2  A    between atoms: C5_5  and  N7_7 
ROOT
HETATM    1  C1  UNL     1     -34.661  13.390  -4.896  1.00 20.00     0.048 C 
HETATM    2  C2  UNL     1     -34.553  14.081  -3.543  1.00 20.00     0.273 C 
HETATM    3  C3  UNL     1     -34.106  15.745  -5.098  1.00 20.00     0.288 C 
HETATM    4  C4  UNL     1     -34.394  14.494  -5.914  1.00 20.00     0.087 C 
HETATM    5  N7  UNL     1     -33.644  15.194  -3.822  1.00 20.00     0.091 N 
HETATM    6 BR9  UNL     1     -35.920  14.768  -7.082  1.00 20.00    -0.089 Br
ENDROOT
BRANCH   5   7
HETATM    7  C5  UNL     1     -33.640  16.185  -2.756  1.00 20.00     0.303 C 
BRANCH   7   8
HETATM    8  C6  UNL     1     -34.939  16.171  -1.979  1.00 20.00     0.252 C 
HETATM    9  F8  UNL     1     -34.658  16.156  -0.648  1.00 20.00    -0.254 F 
ENDBRANCH   7   8
ENDBRANCH   5   7
TORSDOF 2
ENDMDL
MODEL 3
REMARK VINA RESULT:      -3.6     11.755     12.047
REMARK  2 active torsions:
REMARK  status: ('A' for Active; 'I' for Inactive)
REMARK    1  A    between atoms: C5_5  and  C6_6 
REMARK    2  A    between atoms: C5_5  and  N7_7 
ROOT
HETATM    1  C1  UNL     1     -35.640  14.084  -4.291  1.00 20.00     0.048 C 
HETATM    2  C2  UNL     1     -35.590  15.126  -3.181  1.00 20.00     0.273 C 
HETATM    3  C3  UNL     1     -33.618  15.427  -4.367  1.00 20.00     0.288 C 
HETATM    4  C4  UNL     1     -34.355  14.306  -5.083  1.00 20.00     0.087 C 
HETATM    5  N7  UNL     1     -34.153  15.342  -3.007  1.00 20.00     0.091 N 
HETATM    6 BR9  UNL     1     -34.731  14.793  -6.925  1.00 20.00    -0.089 Br
ENDROOT
BRANCH   5   7
HETATM    7  C5  UNL     1     -33.864  16.532  -2.219  1.00 20.00     0.303 C 
BRANCH   7   8
HETATM    8  C6  UNL     1     -34.680  16.567  -0.945  1.00 20.00     0.252 C 
HETATM    9  F8  UNL     1     -34.005  17.284  -0.007  1.00 20.00    -0.254 F 
ENDBRANCH   7   8
ENDBRANCH   5   7
TORSDOF 2
ENDMDL
MODEL 4
REMARK VINA RESULT:      -3.6      3.421      4.384
REMARK  2 active torsions:
REMARK  status: ('A' for Active; 'I' for Inactive)
REMARK    1  A    between atoms: C5_5  and  C6_6 
REMARK    2  A    between atoms: C5_5  and  N7_7 
ROOT
HETATM    1  C1  UNL     1     -33.557   5.694   2.409  1.00 20.00     0.048 C 
HETATM    2  C2  UNL     1     -34.561   5.541   3.545  1.00 20.00     0.273 C 
HETATM    3  C3  UNL     1     -32.792   6.726   4.470  1.00 20.00     0.288 C 
HETATM    4  C4  UNL     1     -32.411   6.497   3.015  1.00 20.00     0.087 C 
HETATM    5  N7  UNL     1     -33.713   5.619   4.736  1.00 20.00     0.091 N 
HETATM    6 BR9  UNL     1     -32.161   8.187   2.092  1.00 20.00    -0.089 Br
ENDROOT
BRANCH   5   7
HETATM    7  C5  UNL     1     -34.486   5.818   5.953  1.00 20.00     0.303 C 
BRANCH   7   8
HETATM    8  C6  UNL     1     -35.194   4.549   6.375  1.00 20.00     0.252 C 
HETATM    9  F8  UNL     1     -34.564   3.482   5.812  1.00 20.00    -0.254 F 
ENDBRANCH   7   8
ENDBRANCH   5   7
TORSDOF 2
ENDMDL
MODEL 5
REMARK VINA RESULT:      -3.5     11.541     12.512
REMARK  2 active torsions:
REMARK  status: ('A' for Active; 'I' for Inactive)
REMARK    1  A    between atoms: C5_5  and  C6_6 
REMARK    2  A    between atoms: C5_5  and  N7_7 
ROOT
HETATM    1  C1  UNL     1     -33.674  16.976  -3.954  1.00 20.00     0.048 C 
HETATM    2  C2  UNL     1     -34.366  16.264  -5.110  1.00 20.00     0.273 C 
HETATM    3  C3  UNL     1     -34.281  14.688  -3.408  1.00 20.00     0.288 C 
HETATM    4  C4  UNL     1     -33.646  15.945  -2.830  1.00 20.00     0.087 C 
HETATM    5  N7  UNL     1     -34.065  14.856  -4.847  1.00 20.00     0.091 N 
HETATM    6 BR9  UNL     1     -34.631  16.563  -1.275  1.00 20.00    -0.089 Br
ENDROOT
BRANCH   5   7
HETATM    7  C5  UNL     1     -34.889  13.957  -5.641  1.00 20.00     0.303 C 
BRANCH   7   8
HETATM    8  C6  UNL     1     -35.388  14.629  -6.902  1.00 20.00     0.252 C 
HETATM    9  F8  UNL     1     -34.426  14.542  -7.861  1.00 20.00    -0.254 F 
ENDBRANCH   7   8
ENDBRANCH   5   7
TORSDOF 2
ENDMDL
MODEL 6
REMARK VINA RESULT:      -3.5     11.656     12.025
REMARK  2 active torsions:
REMARK  status: ('A' for Active; 'I' for Inactive)
REMARK    1  A    between atoms: C5_5  and  C6_6 
REMARK    2  A    between atoms: C5_5  and  N7_7 
ROOT
HETATM    1  C1  UNL     1     -33.732  16.216  -2.537  1.00 20.00     0.048 C 
HETATM    2  C2  UNL     1     -33.332  15.263  -3.656  1.00 20.00     0.273 C 
HETATM    3  C3  UNL     1     -35.632  15.017  -3.461  1.00 20.00     0.288 C 
HETATM    4  C4  UNL     1     -35.246  16.070  -2.432  1.00 20.00     0.087 C 
HETATM    5  N7  UNL     1     -34.391  14.254  -3.613  1.00 20.00     0.091 N 
HETATM    6 BR9  UNL     1     -36.148  17.751  -2.796  1.00 20.00    -0.089 Br
ENDROOT
BRANCH   5   7
HETATM    7  C5  UNL     1     -34.399  13.410  -4.800  1.00 20.00     0.303 C 
BRANCH   7   8
HETATM    8  C6  UNL     1     -35.096  14.088  -5.959  1.00 20.00     0.252 C 
HETATM    9  F8  UNL     1     -34.158  14.557  -6.826  1.00 20.00    -0.254 F 
ENDBRANCH   7   8
ENDBRANCH   5   7
TORSDOF 2
ENDMDL
MODEL 7
REMARK VINA RESULT:      -3.4     11.692     12.325
REMARK  2 active torsions:
REMARK  status: ('A' for Active; 'I' for Inactive)
REMARK    1  A    between atoms: C5_5  and  C6_6 
REMARK    2  A    between atoms: C5_5  and  N7_7 
ROOT
HETATM    1  C1  UNL     1     -34.635  17.166  -0.337  1.00 20.00     0.048 C 
HETATM    2  C2  UNL     1     -34.566  16.212  -1.522  1.00 20.00     0.273 C 
HETATM    3  C3  UNL     1     -33.622  18.187  -2.294  1.00 20.00     0.288 C 
HETATM    4  C4  UNL     1     -33.989  18.452  -0.841  1.00 20.00     0.087 C 
HETATM    5  N7  UNL     1     -34.556  17.123  -2.668  1.00 20.00     0.091 N 
HETATM    6 BR9  UNL     1     -32.412  18.909   0.195  1.00 20.00    -0.089 Br
ENDROOT
BRANCH   5   7
HETATM    7  C5  UNL     1     -34.172  16.454  -3.903  1.00 20.00     0.303 C 
BRANCH   7   8
HETATM    8  C6  UNL     1     -33.668  15.051  -3.642  1.00 20.00     0.252 C 
HETATM    9  F8  UNL     1     -32.309  15.050  -3.704  1.00 20.00    -0.254 F 
ENDBRANCH   7   8
ENDBRANCH   5   7
TORSDOF 2
ENDMDL
MODEL 8
REMARK VINA RESULT:      -3.4     11.205     12.235
REMARK  2 active torsions:
REMARK  status: ('A' for Active; 'I' for Inactive)
REMARK    1  A    between atoms: C5_5  and  C6_6 
REMARK    2  A    between atoms: C5_5  and  N7_7 
ROOT
HETATM    1  C1  UNL     1     -35.137  17.670  -3.456  1.00 20.00     0.048 C 
HETATM    2  C2  UNL     1     -35.469  16.627  -4.515  1.00 20.00     0.273 C 
HETATM    3  C3  UNL     1     -33.752  15.684  -3.270  1.00 20.00     0.288 C 
HETATM    4  C4  UNL     1     -34.028  17.034  -2.624  1.00 20.00     0.087 C 
HETATM    5  N7  UNL     1     -34.211  15.890  -4.645  1.00 20.00     0.091 N 
HETATM    6 BR9  UNL     1     -34.566  16.815  -0.772  1.00 20.00    -0.089 Br
ENDROOT
BRANCH   5   7
HETATM    7  C5  UNL     1     -34.376  14.638  -5.370  1.00 20.00     0.303 C 
BRANCH   7   8
HETATM    8  C6  UNL     1     -34.241  13.443  -4.452  1.00 20.00     0.252 C 
HETATM    9  F8  UNL     1     -35.478  12.934  -4.202  1.00 20.00    -0.254 F 
ENDBRANCH   7   8
ENDBRANCH   5   7
TORSDOF 2
ENDMDL
MODEL 9
REMARK VINA RESULT:      -3.4     11.322     12.423
REMARK  2 active torsions:
REMARK  status: ('A' for Active; 'I' for Inactive)
REMARK    1  A    between atoms: C5_5  and  C6_6 
REMARK    2  A    between atoms: C5_5  and  N7_7 
ROOT
HETATM    1  C1  UNL     1     -33.516  17.451  -4.619  1.00 20.00     0.048 C 
HETATM    2  C2  UNL     1     -33.481  15.974  -4.989  1.00 20.00     0.273 C 
HETATM    3  C3  UNL     1     -33.968  16.005  -2.720  1.00 20.00     0.288 C 
HETATM    4  C4  UNL     1     -33.864  17.466  -3.134  1.00 20.00     0.087 C 
HETATM    5  N7  UNL     1     -33.137  15.332  -3.720  1.00 20.00     0.091 N 
HETATM    6 BR9  UNL     1     -35.535  18.397  -2.806  1.00 20.00    -0.089 Br
ENDROOT
BRANCH   5   7
HETATM    7  C5  UNL     1     -33.358  13.893  -3.749  1.00 20.00     0.303 C 
BRANCH   7   8
HETATM    8  C6  UNL     1     -34.384  13.510  -4.794  1.00 20.00     0.252 C 
HETATM    9  F8  UNL     1     -35.456  12.945  -4.176  1.00 20.00    -0.254 F 
ENDBRANCH   7   8
ENDBRANCH   5   7
TORSDOF 2
ENDMDL
