MODEL 1
REMARK VINA RESULT:      -4.7      0.000      0.000
REMARK  1 active torsions:
REMARK  status: ('A' for Active; 'I' for Inactive)
REMARK    1  A    between atoms: C5_5  and  O9_9 
ROOT
HETATM    1  C1  UNL     1     -36.024  16.090  -3.789  1.00 20.00     0.012 C 
HETATM    2  C2  UNL     1     -36.509  14.657  -3.941  1.00 20.00     0.038 C 
HETATM    3  C3  UNL     1     -34.145  14.525  -3.511  1.00 20.00     0.046 C 
HETATM    4  C4  UNL     1     -34.614  15.964  -3.174  1.00 20.00    -0.045 C 
HETATM    5  C5  UNL     1     -35.256  13.892  -4.361  1.00 20.00     0.055 C 
HETATM    6  C6  UNL     1     -34.678  16.153  -1.650  1.00 20.00     0.015 C 
HETATM    7  C7  UNL     1     -33.667  17.013  -3.765  1.00 20.00     0.015 C 
HETATM    8  C8  UNL     1     -34.967  14.003  -5.858  1.00 20.00     0.045 C 
ENDROOT
BRANCH   5   9
HETATM    9  O9  UNL     1     -35.388  12.514  -4.031  1.00 20.00    -0.390 OA
HETATM   10  H25 UNL     1     -35.233  12.020  -4.850  1.00 20.00     0.210 HD
ENDBRANCH   5   9
TORSDOF 1
ENDMDL
MODEL 2
REMARK VINA RESULT:      -4.2      1.890      2.377
REMARK  1 active torsions:
REMARK  status: ('A' for Active; 'I' for Inactive)
REMARK    1  A    between atoms: C5_5  and  O9_9 
ROOT
HETATM    1  C1  UNL     1     -35.496  15.226  -2.938  1.00 20.00     0.012 C 
HETATM    2  C2  UNL     1     -34.271  14.525  -3.506  1.00 20.00     0.038 C 
HETATM    3  C3  UNL     1     -33.657  16.835  -3.231  1.00 20.00     0.046 C 
HETATM    4  C4  UNL     1     -34.974  16.593  -2.448  1.00 20.00    -0.045 C 
HETATM    5  C5  UNL     1     -33.495  15.647  -4.191  1.00 20.00     0.055 C 
HETATM    6  C6  UNL     1     -34.687  16.544  -0.939  1.00 20.00     0.015 C 
HETATM    7  C7  UNL     1     -36.000  17.698  -2.724  1.00 20.00     0.015 C 
HETATM    8  C8  UNL     1     -34.022  15.964  -5.590  1.00 20.00     0.045 C 
ENDROOT
BRANCH   5   9
HETATM    9  O9  UNL     1     -32.120  15.300  -4.297  1.00 20.00    -0.390 OA
HETATM   10  H25 UNL     1     -31.992  14.513  -3.745  1.00 20.00     0.210 HD
ENDBRANCH   5   9
TORSDOF 1
ENDMDL
MODEL 3
REMARK VINA RESULT:      -4.2      1.928      3.597
REMARK  1 active torsions:
REMARK  status: ('A' for Active; 'I' for Inactive)
REMARK    1  A    between atoms: C5_5  and  O9_9 
ROOT
HETATM    1  C1  UNL     1     -34.605  16.584  -5.676  1.00 20.00     0.012 C 
HETATM    2  C2  UNL     1     -33.203  16.504  -5.094  1.00 20.00     0.038 C 
HETATM    3  C3  UNL     1     -34.191  14.335  -4.769  1.00 20.00     0.046 C 
HETATM    4  C4  UNL     1     -35.074  15.117  -5.776  1.00 20.00    -0.045 C 
HETATM    5  C5  UNL     1     -33.296  15.372  -4.075  1.00 20.00     0.055 C 
HETATM    6  C6  UNL     1     -34.850  14.582  -7.199  1.00 20.00     0.015 C 
HETATM    7  C7  UNL     1     -36.561  14.996  -5.427  1.00 20.00     0.015 C 
HETATM    8  C8  UNL     1     -33.878  15.825  -2.736  1.00 20.00     0.045 C 
ENDROOT
BRANCH   5   9
HETATM    9  O9  UNL     1     -32.009  14.815  -3.839  1.00 20.00    -0.390 OA
HETATM   10  H25 UNL     1     -31.421  15.187  -4.514  1.00 20.00     0.210 HD
ENDBRANCH   5   9
TORSDOF 1
ENDMDL
MODEL 4
REMARK VINA RESULT:      -4.2      1.261      2.242
REMARK  1 active torsions:
REMARK  status: ('A' for Active; 'I' for Inactive)
REMARK    1  A    between atoms: C5_5  and  O9_9 
ROOT
HETATM    1  C1  UNL     1     -34.611  15.630  -5.847  1.00 20.00     0.012 C 
HETATM    2  C2  UNL     1     -34.728  14.114  -5.828  1.00 20.00     0.038 C 
HETATM    3  C3  UNL     1     -35.606  14.883  -3.724  1.00 20.00     0.046 C 
HETATM    4  C4  UNL     1     -35.487  16.107  -4.670  1.00 20.00    -0.045 C 
HETATM    5  C5  UNL     1     -34.747  13.770  -4.340  1.00 20.00     0.055 C 
HETATM    6  C6  UNL     1     -36.879  16.518  -5.175  1.00 20.00     0.015 C 
HETATM    7  C7  UNL     1     -34.842  17.302  -3.960  1.00 20.00     0.015 C 
HETATM    8  C8  UNL     1     -33.349  13.718  -3.725  1.00 20.00     0.045 C 
ENDROOT
BRANCH   5   9
HETATM    9  O9  UNL     1     -35.374  12.510  -4.135  1.00 20.00    -0.390 OA
HETATM   10  H25 UNL     1     -34.897  12.081  -3.408  1.00 20.00     0.210 HD
ENDBRANCH   5   9
TORSDOF 1
ENDMDL
MODEL 5
REMARK VINA RESULT:      -4.1      1.868      2.944
REMARK  1 active torsions:
REMARK  status: ('A' for Active; 'I' for Inactive)
REMARK    1  A    between atoms: C5_5  and  O9_9 
ROOT
HETATM    1  C1  UNL     1     -35.170  15.856  -2.427  1.00 20.00     0.012 C 
HETATM    2  C2  UNL     1     -33.704  16.072  -2.766  1.00 20.00     0.038 C 
HETATM    3  C3  UNL     1     -34.790  15.471  -4.827  1.00 20.00     0.046 C 
HETATM    4  C4  UNL     1     -35.889  15.825  -3.792  1.00 20.00    -0.045 C 
HETATM    5  C5  UNL     1     -33.498  15.242  -4.031  1.00 20.00     0.055 C 
HETATM    6  C6  UNL     1     -36.488  17.204  -4.111  1.00 20.00     0.015 C 
HETATM    7  C7  UNL     1     -37.013  14.783  -3.792  1.00 20.00     0.015 C 
HETATM    8  C8  UNL     1     -33.260  13.761  -3.736  1.00 20.00     0.045 C 
ENDROOT
BRANCH   5   9
HETATM    9  O9  UNL     1     -32.385  15.736  -4.767  1.00 20.00    -0.390 OA
HETATM   10  H25 UNL     1     -31.592  15.453  -4.288  1.00 20.00     0.210 HD
ENDBRANCH   5   9
TORSDOF 1
ENDMDL
MODEL 6
REMARK VINA RESULT:      -4.1      1.588      3.253
REMARK  1 active torsions:
REMARK  status: ('A' for Active; 'I' for Inactive)
REMARK    1  A    between atoms: C5_5  and  O9_9 
ROOT
HETATM    1  C1  UNL     1     -34.431  13.879  -5.190  1.00 20.00     0.012 C 
HETATM    2  C2  UNL     1     -35.462  13.552  -4.121  1.00 20.00     0.038 C 
HETATM    3  C3  UNL     1     -36.084  15.694  -5.023  1.00 20.00     0.046 C 
HETATM    4  C4  UNL     1     -35.043  15.056  -5.979  1.00 20.00    -0.045 C 
HETATM    5  C5  UNL     1     -35.995  14.919  -3.701  1.00 20.00     0.055 C 
HETATM    6  C6  UNL     1     -35.740  14.542  -7.249  1.00 20.00     0.015 C 
HETATM    7  C7  UNL     1     -33.961  16.064  -6.380  1.00 20.00     0.015 C 
HETATM    8  C8  UNL     1     -35.094  15.620  -2.685  1.00 20.00     0.045 C 
ENDROOT
BRANCH   5   9
HETATM    9  O9  UNL     1     -37.292  14.787  -3.133  1.00 20.00    -0.390 OA
HETATM   10  H25 UNL     1     -37.270  13.991  -2.580  1.00 20.00     0.210 HD
ENDBRANCH   5   9
TORSDOF 1
ENDMDL
MODEL 7
REMARK VINA RESULT:      -4.0      1.835      2.530
REMARK  1 active torsions:
REMARK  status: ('A' for Active; 'I' for Inactive)
REMARK    1  A    between atoms: C5_5  and  O9_9 
ROOT
HETATM    1  C1  UNL     1     -34.636  13.604  -3.828  1.00 20.00     0.012 C 
HETATM    2  C2  UNL     1     -34.761  13.312  -5.315  1.00 20.00     0.038 C 
HETATM    3  C3  UNL     1     -34.057  15.605  -5.137  1.00 20.00     0.046 C 
HETATM    4  C4  UNL     1     -33.858  14.934  -3.753  1.00 20.00    -0.045 C 
HETATM    5  C5  UNL     1     -34.991  14.686  -5.938  1.00 20.00     0.055 C 
HETATM    6  C6  UNL     1     -32.365  14.666  -3.510  1.00 20.00     0.015 C 
HETATM    7  C7  UNL     1     -34.395  15.817  -2.622  1.00 20.00     0.015 C 
HETATM    8  C8  UNL     1     -36.449  15.138  -5.855  1.00 20.00     0.045 C 
ENDROOT
BRANCH   5   9
HETATM    9  O9  UNL     1     -34.601  14.678  -7.305  1.00 20.00    -0.390 OA
HETATM   10  H25 UNL     1     -34.360  13.763  -7.516  1.00 20.00     0.210 HD
ENDBRANCH   5   9
TORSDOF 1
ENDMDL
MODEL 8
REMARK VINA RESULT:      -3.9     10.841     12.102
REMARK  1 active torsions:
REMARK  status: ('A' for Active; 'I' for Inactive)
REMARK    1  A    between atoms: C5_5  and  O9_9 
ROOT
HETATM    1  C1  UNL     1     -41.131   6.949  -0.818  1.00 20.00     0.012 C 
HETATM    2  C2  UNL     1     -40.827   5.460  -0.879  1.00 20.00     0.038 C 
HETATM    3  C3  UNL     1     -43.129   5.703  -1.533  1.00 20.00     0.046 C 
HETATM    4  C4  UNL     1     -42.470   7.107  -1.568  1.00 20.00    -0.045 C 
HETATM    5  C5  UNL     1     -42.194   4.802  -0.713  1.00 20.00     0.055 C 
HETATM    6  C6  UNL     1     -42.220   7.534  -3.022  1.00 20.00     0.015 C 
HETATM    7  C7  UNL     1     -43.355   8.156  -0.887  1.00 20.00     0.015 C 
HETATM    8  C8  UNL     1     -42.631   4.702   0.748  1.00 20.00     0.045 C 
ENDROOT
BRANCH   5   9
HETATM    9  O9  UNL     1     -42.180   3.493  -1.268  1.00 20.00    -0.390 OA
HETATM   10  H25 UNL     1     -42.160   2.878  -0.519  1.00 20.00     0.210 HD
ENDBRANCH   5   9
TORSDOF 1
ENDMDL
MODEL 9
REMARK VINA RESULT:      -3.9      1.653      2.552
REMARK  1 active torsions:
REMARK  status: ('A' for Active; 'I' for Inactive)
REMARK    1  A    between atoms: C5_5  and  O9_9 
ROOT
HETATM    1  C1  UNL     1     -33.803  17.362  -3.263  1.00 20.00     0.012 C 
HETATM    2  C2  UNL     1     -33.560  16.610  -4.562  1.00 20.00     0.038 C 
HETATM    3  C3  UNL     1     -34.796  15.113  -3.141  1.00 20.00     0.046 C 
HETATM    4  C4  UNL     1     -34.878  16.535  -2.527  1.00 20.00    -0.045 C 
HETATM    5  C5  UNL     1     -33.642  15.141  -4.153  1.00 20.00     0.055 C 
HETATM    6  C6  UNL     1     -36.272  17.134  -2.772  1.00 20.00     0.015 C 
HETATM    7  C7  UNL     1     -34.607  16.509  -1.019  1.00 20.00     0.015 C 
HETATM    8  C8  UNL     1     -32.338  14.619  -3.551  1.00 20.00     0.045 C 
ENDROOT
BRANCH   5   9
HETATM    9  O9  UNL     1     -33.970  14.335  -5.278  1.00 20.00    -0.390 OA
HETATM   10  H25 UNL     1     -34.929  14.200  -5.248  1.00 20.00     0.210 HD
ENDBRANCH   5   9
TORSDOF 1
ENDMDL
