MODEL 1
REMARK VINA RESULT:      -3.7      0.000      0.000
REMARK  1 active torsions:
REMARK  status: ('A' for Active; 'I' for Inactive)
REMARK    1  A    between atoms: C4_4  and  S8_8 
ROOT
HETATM    1  C1  UNL     1     -33.602  13.975  -3.634  1.00 20.00     0.015 C 
HETATM    2  C2  UNL     1     -33.269  15.454  -3.492  1.00 20.00     0.010 C 
HETATM    3  C3  UNL     1     -35.708  15.139  -3.441  1.00 20.00     0.023 C 
HETATM    4  C4  UNL     1     -35.037  13.959  -4.151  1.00 20.00     0.045 C 
HETATM    5  C5  UNL     1     -34.577  16.107  -3.002  1.00 20.00    -0.047 C 
HETATM    6  C6  UNL     1     -34.563  16.246  -1.471  1.00 20.00     0.015 C 
HETATM    7  C7  UNL     1     -34.758  17.495  -3.624  1.00 20.00     0.015 C 
ENDROOT
BRANCH   4   8
HETATM    8  S8  UNL     1     -35.106  14.139  -5.968  1.00 20.00    -0.177 SA
HETATM    9  H22 UNL     1     -36.106  15.030  -5.971  1.00 20.00     0.102 HD
ENDBRANCH   4   8
TORSDOF 1
ENDMDL
MODEL 2
REMARK VINA RESULT:      -3.5      2.151      3.228
REMARK  1 active torsions:
REMARK  status: ('A' for Active; 'I' for Inactive)
REMARK    1  A    between atoms: C4_4  and  S8_8 
ROOT
HETATM    1  C1  UNL     1     -32.943  14.899  -3.614  1.00 20.00     0.015 C 
HETATM    2  C2  UNL     1     -34.119  13.934  -3.683  1.00 20.00     0.010 C 
HETATM    3  C3  UNL     1     -34.818  16.157  -4.470  1.00 20.00     0.023 C 
HETATM    4  C4  UNL     1     -33.591  16.279  -3.560  1.00 20.00     0.045 C 
HETATM    5  C5  UNL     1     -35.163  14.647  -4.565  1.00 20.00    -0.047 C 
HETATM    6  C6  UNL     1     -35.048  14.168  -6.022  1.00 20.00     0.015 C 
HETATM    7  C7  UNL     1     -36.583  14.366  -4.062  1.00 20.00     0.015 C 
ENDROOT
BRANCH   4   8
HETATM    8  S8  UNL     1     -34.061  16.743  -1.857  1.00 20.00    -0.177 SA
HETATM    9  H22 UNL     1     -32.908  17.360  -1.568  1.00 20.00     0.102 HD
ENDBRANCH   4   8
TORSDOF 1
ENDMDL
MODEL 3
REMARK VINA RESULT:      -3.5      2.116      3.378
REMARK  1 active torsions:
REMARK  status: ('A' for Active; 'I' for Inactive)
REMARK    1  A    between atoms: C4_4  and  S8_8 
ROOT
HETATM    1  C1  UNL     1     -34.276  17.207  -3.932  1.00 20.00     0.015 C 
HETATM    2  C2  UNL     1     -33.286  16.101  -4.275  1.00 20.00     0.010 C 
HETATM    3  C3  UNL     1     -35.368  15.118  -3.410  1.00 20.00     0.023 C 
HETATM    4  C4  UNL     1     -35.225  16.565  -2.926  1.00 20.00     0.045 C 
HETATM    5  C5  UNL     1     -34.127  14.810  -4.289  1.00 20.00    -0.047 C 
HETATM    6  C6  UNL     1     -34.566  14.474  -5.724  1.00 20.00     0.015 C 
HETATM    7  C7  UNL     1     -33.325  13.631  -3.728  1.00 20.00     0.015 C 
ENDROOT
BRANCH   4   8
HETATM    8  S8  UNL     1     -34.564  16.642  -1.224  1.00 20.00    -0.177 SA
HETATM    9  H22 UNL     1     -35.523  17.447  -0.749  1.00 20.00     0.102 HD
ENDBRANCH   4   8
TORSDOF 1
ENDMDL
MODEL 4
REMARK VINA RESULT:      -3.5      1.880      3.212
REMARK  1 active torsions:
REMARK  status: ('A' for Active; 'I' for Inactive)
REMARK    1  A    between atoms: C4_4  and  S8_8 
ROOT
HETATM    1  C1  UNL     1     -34.485  16.247  -2.199  1.00 20.00     0.015 C 
HETATM    2  C2  UNL     1     -35.137  15.141  -3.017  1.00 20.00     0.010 C 
HETATM    3  C3  UNL     1     -33.229  16.078  -4.254  1.00 20.00     0.023 C 
HETATM    4  C4  UNL     1     -33.747  17.094  -3.230  1.00 20.00     0.045 C 
HETATM    5  C5  UNL     1     -34.112  14.809  -4.120  1.00 20.00    -0.047 C 
HETATM    6  C6  UNL     1     -33.251  13.606  -3.703  1.00 20.00     0.015 C 
HETATM    7  C7  UNL     1     -34.819  14.480  -5.439  1.00 20.00     0.015 C 
ENDROOT
BRANCH   4   8
HETATM    8  S8  UNL     1     -34.846  18.330  -4.007  1.00 20.00    -0.177 SA
HETATM    9  H22 UNL     1     -35.541  18.602  -2.895  1.00 20.00     0.102 HD
ENDBRANCH   4   8
TORSDOF 1
ENDMDL
MODEL 5
REMARK VINA RESULT:      -3.5      2.006      2.895
REMARK  1 active torsions:
REMARK  status: ('A' for Active; 'I' for Inactive)
REMARK    1  A    between atoms: C4_4  and  S8_8 
ROOT
HETATM    1  C1  UNL     1     -32.938  15.533  -3.694  1.00 20.00     0.015 C 
HETATM    2  C2  UNL     1     -34.246  15.131  -3.025  1.00 20.00     0.010 C 
HETATM    3  C3  UNL     1     -34.599  15.418  -5.443  1.00 20.00     0.023 C 
HETATM    4  C4  UNL     1     -33.370  16.213  -4.989  1.00 20.00     0.045 C 
HETATM    5  C5  UNL     1     -35.168  14.707  -4.186  1.00 20.00    -0.047 C 
HETATM    6  C6  UNL     1     -35.123  13.182  -4.374  1.00 20.00     0.015 C 
HETATM    7  C7  UNL     1     -36.615  15.130  -3.914  1.00 20.00     0.015 C 
ENDROOT
BRANCH   4   8
HETATM    8  S8  UNL     1     -33.769  17.977  -4.731  1.00 20.00    -0.177 SA
HETATM    9  H22 UNL     1     -34.715  17.762  -3.808  1.00 20.00     0.102 HD
ENDBRANCH   4   8
TORSDOF 1
ENDMDL
MODEL 6
REMARK VINA RESULT:      -3.4      1.216      2.026
REMARK  1 active torsions:
REMARK  status: ('A' for Active; 'I' for Inactive)
REMARK    1  A    between atoms: C4_4  and  S8_8 
ROOT
HETATM    1  C1  UNL     1     -36.207  14.241  -4.446  1.00 20.00     0.015 C 
HETATM    2  C2  UNL     1     -34.918  13.936  -3.697  1.00 20.00     0.010 C 
HETATM    3  C3  UNL     1     -34.800  16.190  -4.673  1.00 20.00     0.023 C 
HETATM    4  C4  UNL     1     -35.819  15.335  -5.435  1.00 20.00     0.045 C 
HETATM    5  C5  UNL     1     -34.219  15.301  -3.542  1.00 20.00    -0.047 C 
HETATM    6  C6  UNL     1     -34.540  15.913  -2.169  1.00 20.00     0.015 C 
HETATM    7  C7  UNL     1     -32.699  15.153  -3.676  1.00 20.00     0.015 C 
ENDROOT
BRANCH   4   8
HETATM    8  S8  UNL     1     -35.103  14.643  -6.968  1.00 20.00    -0.177 SA
HETATM    9  H22 UNL     1     -34.929  15.824  -7.574  1.00 20.00     0.102 HD
ENDBRANCH   4   8
TORSDOF 1
ENDMDL
MODEL 7
REMARK VINA RESULT:      -3.4      1.702      2.407
REMARK  1 active torsions:
REMARK  status: ('A' for Active; 'I' for Inactive)
REMARK    1  A    between atoms: C4_4  and  S8_8 
ROOT
HETATM    1  C1  UNL     1     -34.416  15.175  -6.345  1.00 20.00     0.015 C 
HETATM    2  C2  UNL     1     -33.815  15.740  -5.065  1.00 20.00     0.010 C 
HETATM    3  C3  UNL     1     -35.562  14.099  -4.512  1.00 20.00     0.023 C 
HETATM    4  C4  UNL     1     -35.787  14.658  -5.922  1.00 20.00     0.045 C 
HETATM    5  C5  UNL     1     -34.287  14.783  -3.952  1.00 20.00    -0.047 C 
HETATM    6  C6  UNL     1     -33.206  13.729  -3.660  1.00 20.00     0.015 C 
HETATM    7  C7  UNL     1     -34.588  15.554  -2.663  1.00 20.00     0.015 C 
ENDROOT
BRANCH   4   8
HETATM    8  S8  UNL     1     -37.045  15.984  -5.927  1.00 20.00    -0.177 SA
HETATM    9  H22 UNL     1     -36.168  16.994  -5.859  1.00 20.00     0.102 HD
ENDBRANCH   4   8
TORSDOF 1
ENDMDL
MODEL 8
REMARK VINA RESULT:      -3.4      1.586      2.336
REMARK  1 active torsions:
REMARK  status: ('A' for Active; 'I' for Inactive)
REMARK    1  A    between atoms: C4_4  and  S8_8 
ROOT
HETATM    1  C1  UNL     1     -35.575  13.697  -4.273  1.00 20.00     0.015 C 
HETATM    2  C2  UNL     1     -34.448  14.233  -5.146  1.00 20.00     0.010 C 
HETATM    3  C3  UNL     1     -34.765  15.702  -3.198  1.00 20.00     0.023 C 
HETATM    4  C4  UNL     1     -36.047  14.911  -3.480  1.00 20.00     0.045 C 
HETATM    5  C5  UNL     1     -33.722  15.266  -4.261  1.00 20.00    -0.047 C 
HETATM    6  C6  UNL     1     -32.506  14.621  -3.576  1.00 20.00     0.015 C 
HETATM    7  C7  UNL     1     -33.245  16.458  -5.097  1.00 20.00     0.015 C 
ENDROOT
BRANCH   4   8
HETATM    8  S8  UNL     1     -37.259  15.907  -4.418  1.00 20.00    -0.177 SA
HETATM    9  H22 UNL     1     -37.761  14.878  -5.113  1.00 20.00     0.102 HD
ENDBRANCH   4   8
TORSDOF 1
ENDMDL
MODEL 9
REMARK VINA RESULT:      -3.3     11.979     13.159
REMARK  1 active torsions:
REMARK  status: ('A' for Active; 'I' for Inactive)
REMARK    1  A    between atoms: C4_4  and  S8_8 
ROOT
HETATM    1  C1  UNL     1     -42.916   5.325  -3.027  1.00 20.00     0.015 C 
HETATM    2  C2  UNL     1     -43.244   5.970  -1.687  1.00 20.00     0.010 C 
HETATM    3  C3  UNL     1     -41.303   4.477  -1.442  1.00 20.00     0.023 C 
HETATM    4  C4  UNL     1     -42.138   4.066  -2.660  1.00 20.00     0.045 C 
HETATM    5  C5  UNL     1     -42.002   5.711  -0.811  1.00 20.00    -0.047 C 
HETATM    6  C6  UNL     1     -41.062   6.927  -0.845  1.00 20.00     0.015 C 
HETATM    7  C7  UNL     1     -42.407   5.440   0.642  1.00 20.00     0.015 C 
ENDROOT
BRANCH   4   8
HETATM    8  S8  UNL     1     -43.251   2.669  -2.272  1.00 20.00    -0.177 SA
HETATM    9  H22 UNL     1     -43.574   2.404  -3.544  1.00 20.00     0.102 HD
ENDBRANCH   4   8
TORSDOF 1
ENDMDL
