MODEL 1
REMARK VINA RESULT:      -4.1      0.000      0.000
REMARK  0 active torsions:
REMARK  status: ('A' for Active; 'I' for Inactive)
ROOT
HETATM    1  C1  UNL     1     -34.643   5.187   6.282  1.00 20.00     0.021 C 
HETATM    2  C2  UNL     1     -35.048   4.498   4.980  1.00 20.00     0.010 C 
HETATM    3  C3  UNL     1     -34.297   6.802   4.577  1.00 20.00     0.029 C 
HETATM    4  C4  UNL     1     -33.640   6.232   5.826  1.00 20.00     0.083 C 
HETATM    5  C5  UNL     1     -34.898   5.567   3.867  1.00 20.00    -0.046 C 
HETATM    6  C6  UNL     1     -36.254   5.909   3.242  1.00 20.00     0.015 C 
HETATM    7  C7  UNL     1     -33.952   5.061   2.768  1.00 20.00     0.015 C 
HETATM    8 CL8  UNL     1     -33.350   7.468   7.059  1.00 20.00    -0.125 Cl
ENDROOT
TORSDOF 0
ENDMDL
MODEL 2
REMARK VINA RESULT:      -3.8      1.555      2.678
REMARK  0 active torsions:
REMARK  status: ('A' for Active; 'I' for Inactive)
ROOT
HETATM    1  C1  UNL     1     -32.608   5.621   2.741  1.00 20.00     0.021 C 
HETATM    2  C2  UNL     1     -33.954   4.899   2.755  1.00 20.00     0.010 C 
HETATM    3  C3  UNL     1     -33.751   6.449   4.650  1.00 20.00     0.029 C 
HETATM    4  C4  UNL     1     -32.899   6.917   3.477  1.00 20.00     0.083 C 
HETATM    5  C5  UNL     1     -34.680   5.376   4.038  1.00 20.00    -0.046 C 
HETATM    6  C6  UNL     1     -34.886   4.217   5.020  1.00 20.00     0.015 C 
HETATM    7  C7  UNL     1     -36.046   5.981   3.683  1.00 20.00     0.015 C 
HETATM    8 CL8  UNL     1     -31.422   7.738   4.002  1.00 20.00    -0.125 Cl
ENDROOT
TORSDOF 0
ENDMDL
MODEL 3
REMARK VINA RESULT:      -3.8      1.954      3.080
REMARK  0 active torsions:
REMARK  status: ('A' for Active; 'I' for Inactive)
ROOT
HETATM    1  C1  UNL     1     -34.762   5.887   3.006  1.00 20.00     0.021 C 
HETATM    2  C2  UNL     1     -35.497   5.283   4.201  1.00 20.00     0.010 C 
HETATM    3  C3  UNL     1     -33.118   5.638   4.701  1.00 20.00     0.029 C 
HETATM    4  C4  UNL     1     -33.601   6.627   3.648  1.00 20.00     0.083 C 
HETATM    5  C5  UNL     1     -34.420   5.046   5.290  1.00 20.00    -0.046 C 
HETATM    6  C6  UNL     1     -34.249   3.551   5.583  1.00 20.00     0.015 C 
HETATM    7  C7  UNL     1     -34.806   5.771   6.587  1.00 20.00     0.015 C 
HETATM    8 CL8  UNL     1     -32.338   7.037   2.479  1.00 20.00    -0.125 Cl
ENDROOT
TORSDOF 0
ENDMDL
MODEL 4
REMARK VINA RESULT:      -3.8      1.736      2.429
REMARK  0 active torsions:
REMARK  status: ('A' for Active; 'I' for Inactive)
ROOT
HETATM    1  C1  UNL     1     -35.243   5.278   3.913  1.00 20.00     0.021 C 
HETATM    2  C2  UNL     1     -34.312   5.561   2.735  1.00 20.00     0.010 C 
HETATM    3  C3  UNL     1     -33.336   6.335   4.853  1.00 20.00     0.029 C 
HETATM    4  C4  UNL     1     -34.292   5.174   5.092  1.00 20.00     0.083 C 
HETATM    5  C5  UNL     1     -33.096   6.319   3.326  1.00 20.00    -0.046 C 
HETATM    6  C6  UNL     1     -33.014   7.748   2.776  1.00 20.00     0.015 C 
HETATM    7  C7  UNL     1     -31.793   5.578   2.991  1.00 20.00     0.015 C 
HETATM    8 CL8  UNL     1     -35.131   5.301   6.645  1.00 20.00    -0.125 Cl
ENDROOT
TORSDOF 0
ENDMDL
MODEL 5
REMARK VINA RESULT:      -3.8      8.931      9.903
REMARK  0 active torsions:
REMARK  status: ('A' for Active; 'I' for Inactive)
ROOT
HETATM    1  C1  UNL     1     -41.332   7.543  -1.001  1.00 20.00     0.021 C 
HETATM    2  C2  UNL     1     -40.789   6.326  -0.253  1.00 20.00     0.010 C 
HETATM    3  C3  UNL     1     -42.472   5.674  -1.921  1.00 20.00     0.029 C 
HETATM    4  C4  UNL     1     -41.776   6.964  -2.333  1.00 20.00     0.083 C 
HETATM    5  C5  UNL     1     -41.579   5.107  -0.792  1.00 20.00    -0.046 C 
HETATM    6  C6  UNL     1     -42.437   4.473   0.308  1.00 20.00     0.015 C 
HETATM    7  C7  UNL     1     -40.613   4.049  -1.347  1.00 20.00     0.015 C 
HETATM    8 CL8  UNL     1     -42.852   8.058  -3.215  1.00 20.00    -0.125 Cl
ENDROOT
TORSDOF 0
ENDMDL
MODEL 6
REMARK VINA RESULT:      -3.7     12.448     13.416
REMARK  0 active torsions:
REMARK  status: ('A' for Active; 'I' for Inactive)
ROOT
HETATM    1  C1  UNL     1     -34.860  13.165  -5.235  1.00 20.00     0.021 C 
HETATM    2  C2  UNL     1     -34.424  13.492  -3.808  1.00 20.00     0.010 C 
HETATM    3  C3  UNL     1     -34.112  15.418  -5.301  1.00 20.00     0.029 C 
HETATM    4  C4  UNL     1     -35.236  14.522  -5.804  1.00 20.00     0.083 C 
HETATM    5  C5  UNL     1     -33.864  14.936  -3.853  1.00 20.00    -0.046 C 
HETATM    6  C6  UNL     1     -32.366  14.959  -3.526  1.00 20.00     0.015 C 
HETATM    7  C7  UNL     1     -34.610  15.829  -2.851  1.00 20.00     0.015 C 
HETATM    8 CL8  UNL     1     -35.344  14.503  -7.571  1.00 20.00    -0.125 Cl
ENDROOT
TORSDOF 0
ENDMDL
MODEL 7
REMARK VINA RESULT:      -3.7     13.002     13.956
REMARK  0 active torsions:
REMARK  status: ('A' for Active; 'I' for Inactive)
ROOT
HETATM    1  C1  UNL     1     -34.052  16.110  -6.221  1.00 20.00     0.021 C 
HETATM    2  C2  UNL     1     -33.382  16.026  -4.851  1.00 20.00     0.010 C 
HETATM    3  C3  UNL     1     -35.123  14.311  -5.102  1.00 20.00     0.029 C 
HETATM    4  C4  UNL     1     -34.543  14.692  -6.457  1.00 20.00     0.083 C 
HETATM    5  C5  UNL     1     -34.124  14.903  -4.082  1.00 20.00    -0.046 C 
HETATM    6  C6  UNL     1     -34.864  15.463  -2.862  1.00 20.00     0.015 C 
HETATM    7  C7  UNL     1     -33.127  13.831  -3.615  1.00 20.00     0.015 C 
HETATM    8 CL8  UNL     1     -35.744  14.604  -7.754  1.00 20.00    -0.125 Cl
ENDROOT
TORSDOF 0
ENDMDL
MODEL 8
REMARK VINA RESULT:      -3.7     12.247     13.159
REMARK  0 active torsions:
REMARK  status: ('A' for Active; 'I' for Inactive)
ROOT
HETATM    1  C1  UNL     1     -33.375  15.862  -4.185  1.00 20.00     0.021 C 
HETATM    2  C2  UNL     1     -33.636  16.984  -3.181  1.00 20.00     0.010 C 
HETATM    3  C3  UNL     1     -35.289  15.180  -2.957  1.00 20.00     0.029 C 
HETATM    4  C4  UNL     1     -33.976  14.642  -3.509  1.00 20.00     0.083 C 
HETATM    5  C5  UNL     1     -34.927  16.585  -2.422  1.00 20.00    -0.046 C 
HETATM    6  C6  UNL     1     -36.062  17.577  -2.702  1.00 20.00     0.015 C 
HETATM    7  C7  UNL     1     -34.663  16.537  -0.910  1.00 20.00     0.015 C 
HETATM    8 CL8  UNL     1     -34.218  13.301  -4.638  1.00 20.00    -0.125 Cl
ENDROOT
TORSDOF 0
ENDMDL
MODEL 9
REMARK VINA RESULT:      -3.7     11.992     12.777
REMARK  0 active torsions:
REMARK  status: ('A' for Active; 'I' for Inactive)
ROOT
HETATM    1  C1  UNL     1     -33.306  15.948  -3.031  1.00 20.00     0.021 C 
HETATM    2  C2  UNL     1     -33.602  15.392  -4.423  1.00 20.00     0.010 C 
HETATM    3  C3  UNL     1     -35.533  15.131  -2.927  1.00 20.00     0.029 C 
HETATM    4  C4  UNL     1     -34.681  16.321  -2.505  1.00 20.00     0.083 C 
HETATM    5  C5  UNL     1     -35.027  14.788  -4.347  1.00 20.00    -0.046 C 
HETATM    6  C6  UNL     1     -34.996  13.270  -4.558  1.00 20.00     0.015 C 
HETATM    7  C7  UNL     1     -35.932  15.425  -5.412  1.00 20.00     0.015 C 
HETATM    8 CL8  UNL     1     -34.685  16.566  -0.752  1.00 20.00    -0.125 Cl
ENDROOT
TORSDOF 0
ENDMDL
