MODEL 1
REMARK VINA RESULT:      -4.8      0.000      0.000
REMARK  2 active torsions:
REMARK  status: ('A' for Active; 'I' for Inactive)
REMARK    1  A    between atoms: C1_1  and  C5_5 
REMARK    2  A    between atoms: C1_1  and  C11_11 
ROOT
HETATM    1  C2  UNL     1     -34.686  14.011  -3.656  1.00 20.00     0.013 C 
HETATM    2  C3  UNL     1     -34.451  13.588  -5.103  1.00 20.00     0.009 C 
HETATM    3  C4  UNL     1     -36.321  15.073  -5.150  1.00 20.00     0.021 C 
HETATM    4  C5  UNL     1     -35.977  14.836  -3.673  1.00 20.00     0.056 C 
HETATM    5  C6  UNL     1     -35.049  14.723  -5.942  1.00 20.00    -0.047 C 
HETATM    6  C7  UNL     1     -35.383  14.255  -7.362  1.00 20.00     0.015 C 
HETATM    7  C8  UNL     1     -34.093  15.925  -6.023  1.00 20.00     0.015 C 
ENDROOT
BRANCH   4   8
HETATM    8  C1  UNL     1     -35.808  16.128  -2.929  1.00 20.00     0.134 C 
HETATM    9  O12 UNL     1     -36.707  16.970  -2.921  1.00 20.00    -0.297 OA
BRANCH   8  10
HETATM   10  C11 UNL     1     -34.473  16.348  -2.225  1.00 20.00     0.047 C 
HETATM   11  C9  UNL     1     -33.737  17.521  -2.860  1.00 20.00     0.017 C 
HETATM   12  C10 UNL     1     -34.676  16.579  -0.729  1.00 20.00     0.017 C 
ENDBRANCH   8  10
ENDBRANCH   4   8
TORSDOF 2
ENDMDL
MODEL 2
REMARK VINA RESULT:      -4.6      1.375      2.562
REMARK  2 active torsions:
REMARK  status: ('A' for Active; 'I' for Inactive)
REMARK    1  A    between atoms: C1_1  and  C5_5 
REMARK    2  A    between atoms: C1_1  and  C11_11 
ROOT
HETATM    1  C2  UNL     1     -34.327  16.995  -5.063  1.00 20.00     0.013 C 
HETATM    2  C3  UNL     1     -34.563  15.579  -5.582  1.00 20.00     0.009 C 
HETATM    3  C4  UNL     1     -33.554  15.330  -3.430  1.00 20.00     0.021 C 
HETATM    4  C5  UNL     1     -33.542  16.829  -3.757  1.00 20.00     0.056 C 
HETATM    5  C6  UNL     1     -34.647  14.712  -4.320  1.00 20.00    -0.047 C 
HETATM    6  C7  UNL     1     -34.353  13.241  -4.630  1.00 20.00     0.015 C 
HETATM    7  C8  UNL     1     -36.031  14.817  -3.658  1.00 20.00     0.015 C 
ENDROOT
BRANCH   4   8
HETATM    8  C1  UNL     1     -34.146  17.643  -2.651  1.00 20.00     0.134 C 
HETATM    9  O12 UNL     1     -34.978  18.516  -2.896  1.00 20.00    -0.297 OA
BRANCH   8  10
HETATM   10  C11 UNL     1     -33.654  17.355  -1.236  1.00 20.00     0.047 C 
HETATM   11  C9  UNL     1     -32.967  18.588  -0.663  1.00 20.00     0.017 C 
HETATM   12  C10 UNL     1     -34.805  16.907  -0.338  1.00 20.00     0.017 C 
ENDBRANCH   8  10
ENDBRANCH   4   8
TORSDOF 2
ENDMDL
MODEL 3
REMARK VINA RESULT:      -4.5      1.621      1.704
REMARK  2 active torsions:
REMARK  status: ('A' for Active; 'I' for Inactive)
REMARK    1  A    between atoms: C1_1  and  C5_5 
REMARK    2  A    between atoms: C1_1  and  C11_11 
ROOT
HETATM    1  C2  UNL     1     -34.591  13.631  -3.875  1.00 20.00     0.013 C 
HETATM    2  C3  UNL     1     -35.446  13.491  -5.131  1.00 20.00     0.009 C 
HETATM    3  C4  UNL     1     -35.668  15.766  -4.435  1.00 20.00     0.021 C 
HETATM    4  C5  UNL     1     -34.860  15.044  -3.348  1.00 20.00     0.056 C 
HETATM    5  C6  UNL     1     -35.526  14.910  -5.706  1.00 20.00    -0.047 C 
HETATM    6  C7  UNL     1     -36.736  15.073  -6.630  1.00 20.00     0.015 C 
HETATM    7  C8  UNL     1     -34.250  15.273  -6.483  1.00 20.00     0.015 C 
ENDROOT
BRANCH   4   8
HETATM    8  C1  UNL     1     -33.581  15.764  -3.039  1.00 20.00     0.134 C 
HETATM    9  O12 UNL     1     -32.541  15.479  -3.632  1.00 20.00    -0.297 OA
BRANCH   8  10
HETATM   10  C11 UNL     1     -33.634  16.825  -1.944  1.00 20.00     0.047 C 
HETATM   11  C9  UNL     1     -33.799  18.206  -2.565  1.00 20.00     0.017 C 
HETATM   12  C10 UNL     1     -34.762  16.535  -0.956  1.00 20.00     0.017 C 
ENDBRANCH   8  10
ENDBRANCH   4   8
TORSDOF 2
ENDMDL
MODEL 4
REMARK VINA RESULT:      -4.3      1.645      4.345
REMARK  2 active torsions:
REMARK  status: ('A' for Active; 'I' for Inactive)
REMARK    1  A    between atoms: C1_1  and  C5_5 
REMARK    2  A    between atoms: C1_1  and  C11_11 
ROOT
HETATM    1  C2  UNL     1     -36.634  15.845  -4.080  1.00 20.00     0.013 C 
HETATM    2  C3  UNL     1     -36.245  16.700  -2.877  1.00 20.00     0.009 C 
HETATM    3  C4  UNL     1     -34.823  14.782  -2.806  1.00 20.00     0.021 C 
HETATM    4  C5  UNL     1     -35.829  14.549  -3.941  1.00 20.00     0.056 C 
HETATM    5  C6  UNL     1     -34.797  16.303  -2.569  1.00 20.00    -0.047 C 
HETATM    6  C7  UNL     1     -34.418  16.639  -1.124  1.00 20.00     0.015 C 
HETATM    7  C8  UNL     1     -33.810  16.999  -3.521  1.00 20.00     0.015 C 
ENDROOT
BRANCH   4   8
HETATM    8  C1  UNL     1     -35.143  14.193  -5.226  1.00 20.00     0.134 C 
HETATM    9  O12 UNL     1     -34.421  13.198  -5.298  1.00 20.00    -0.297 OA
BRANCH   8  10
HETATM   10  C11 UNL     1     -35.358  15.134  -6.407  1.00 20.00     0.047 C 
HETATM   11  C9  UNL     1     -34.043  15.802  -6.787  1.00 20.00     0.017 C 
HETATM   12  C10 UNL     1     -35.954  14.388  -7.599  1.00 20.00     0.017 C 
ENDBRANCH   8  10
ENDBRANCH   4   8
TORSDOF 2
ENDMDL
MODEL 5
REMARK VINA RESULT:      -4.2      2.099      3.214
REMARK  2 active torsions:
REMARK  status: ('A' for Active; 'I' for Inactive)
REMARK    1  A    between atoms: C1_1  and  C5_5 
REMARK    2  A    between atoms: C1_1  and  C11_11 
ROOT
HETATM    1  C2  UNL     1     -34.035  15.796  -6.606  1.00 20.00     0.013 C 
HETATM    2  C3  UNL     1     -35.085  16.637  -7.326  1.00 20.00     0.009 C 
HETATM    3  C4  UNL     1     -36.164  14.582  -6.760  1.00 20.00     0.021 C 
HETATM    4  C5  UNL     1     -34.684  14.426  -6.385  1.00 20.00     0.056 C 
HETATM    5  C6  UNL     1     -36.428  16.097  -6.821  1.00 20.00    -0.047 C 
HETATM    6  C7  UNL     1     -37.566  16.430  -7.790  1.00 20.00     0.015 C 
HETATM    7  C8  UNL     1     -36.772  16.659  -5.431  1.00 20.00     0.015 C 
ENDROOT
BRANCH   4   8
HETATM    8  C1  UNL     1     -34.517  13.966  -4.967  1.00 20.00     0.134 C 
HETATM    9  O12 UNL     1     -34.921  12.857  -4.615  1.00 20.00    -0.297 OA
BRANCH   8  10
HETATM   10  C11 UNL     1     -33.861  14.943  -3.997  1.00 20.00     0.047 C 
HETATM   11  C9  UNL     1     -34.786  15.204  -2.816  1.00 20.00     0.017 C 
HETATM   12  C10 UNL     1     -32.507  14.417  -3.523  1.00 20.00     0.017 C 
ENDBRANCH   8  10
ENDBRANCH   4   8
TORSDOF 2
ENDMDL
MODEL 6
REMARK VINA RESULT:      -4.2     12.652     14.032
REMARK  2 active torsions:
REMARK  status: ('A' for Active; 'I' for Inactive)
REMARK    1  A    between atoms: C1_1  and  C5_5 
REMARK    2  A    between atoms: C1_1  and  C11_11 
ROOT
HETATM    1  C2  UNL     1     -40.746   4.445  -0.995  1.00 20.00     0.013 C 
HETATM    2  C3  UNL     1     -40.737   5.915  -0.588  1.00 20.00     0.009 C 
HETATM    3  C4  UNL     1     -42.386   5.720  -2.305  1.00 20.00     0.021 C 
HETATM    4  C5  UNL     1     -41.691   4.357  -2.199  1.00 20.00     0.056 C 
HETATM    5  C6  UNL     1     -42.131   6.431  -0.965  1.00 20.00    -0.047 C 
HETATM    6  C7  UNL     1     -42.139   7.954  -1.127  1.00 20.00     0.015 C 
HETATM    7  C8  UNL     1     -43.180   6.034   0.087  1.00 20.00     0.015 C 
ENDROOT
BRANCH   4   8
HETATM    8  C1  UNL     1     -42.679   3.241  -2.035  1.00 20.00     0.134 C 
HETATM    9  O12 UNL     1     -43.387   3.170  -1.030  1.00 20.00    -0.297 OA
BRANCH   8  10
HETATM   10  C11 UNL     1     -42.735   2.200  -3.150  1.00 20.00     0.047 C 
HETATM   11  C9  UNL     1     -41.347   2.001  -3.745  1.00 20.00     0.017 C 
HETATM   12  C10 UNL     1     -43.301   0.878  -2.635  1.00 20.00     0.017 C 
ENDBRANCH   8  10
ENDBRANCH   4   8
TORSDOF 2
ENDMDL
MODEL 7
REMARK VINA RESULT:      -4.2      1.889      4.839
REMARK  2 active torsions:
REMARK  status: ('A' for Active; 'I' for Inactive)
REMARK    1  A    between atoms: C1_1  and  C5_5 
REMARK    2  A    between atoms: C1_1  and  C11_11 
ROOT
HETATM    1  C2  UNL     1     -35.818  17.776  -2.779  1.00 20.00     0.013 C 
HETATM    2  C3  UNL     1     -35.800  18.373  -1.374  1.00 20.00     0.009 C 
HETATM    3  C4  UNL     1     -34.707  16.255  -1.202  1.00 20.00     0.021 C 
HETATM    4  C5  UNL     1     -35.258  16.358  -2.631  1.00 20.00     0.056 C 
HETATM    5  C6  UNL     1     -34.608  17.701  -0.682  1.00 20.00    -0.047 C 
HETATM    6  C7  UNL     1     -34.740  17.759   0.842  1.00 20.00     0.015 C 
HETATM    7  C8  UNL     1     -33.278  18.352  -1.096  1.00 20.00     0.015 C 
ENDROOT
BRANCH   4   8
HETATM    8  C1  UNL     1     -34.198  16.081  -3.655  1.00 20.00     0.134 C 
HETATM    9  O12 UNL     1     -33.424  16.968  -4.013  1.00 20.00    -0.297 OA
BRANCH   8  10
HETATM   10  C11 UNL     1     -34.156  14.672  -4.240  1.00 20.00     0.047 C 
HETATM   11  C9  UNL     1     -33.040  13.869  -3.584  1.00 20.00     0.017 C 
HETATM   12  C10 UNL     1     -35.502  13.970  -4.073  1.00 20.00     0.017 C 
ENDBRANCH   8  10
ENDBRANCH   4   8
TORSDOF 2
ENDMDL
MODEL 8
REMARK VINA RESULT:      -4.1      1.693      4.387
REMARK  2 active torsions:
REMARK  status: ('A' for Active; 'I' for Inactive)
REMARK    1  A    between atoms: C1_1  and  C5_5 
REMARK    2  A    between atoms: C1_1  and  C11_11 
ROOT
HETATM    1  C2  UNL     1     -33.798  14.693  -4.338  1.00 20.00     0.013 C 
HETATM    2  C3  UNL     1     -34.113  14.738  -2.845  1.00 20.00     0.009 C 
HETATM    3  C4  UNL     1     -33.749  17.004  -3.507  1.00 20.00     0.021 C 
HETATM    4  C5  UNL     1     -33.415  16.126  -4.721  1.00 20.00     0.056 C 
HETATM    5  C6  UNL     1     -34.658  16.150  -2.605  1.00 20.00    -0.047 C 
HETATM    6  C7  UNL     1     -34.531  16.557  -1.134  1.00 20.00     0.015 C 
HETATM    7  C8  UNL     1     -36.131  16.263  -3.031  1.00 20.00     0.015 C 
ENDROOT
BRANCH   4   8
HETATM    8  C1  UNL     1     -34.147  16.577  -5.949  1.00 20.00     0.134 C 
HETATM    9  O12 UNL     1     -33.916  17.678  -6.450  1.00 20.00    -0.297 OA
BRANCH   8  10
HETATM   10  C11 UNL     1     -35.198  15.626  -6.514  1.00 20.00     0.047 C 
HETATM   11  C9  UNL     1     -36.512  16.367  -6.722  1.00 20.00     0.017 C 
HETATM   12  C10 UNL     1     -34.718  14.993  -7.818  1.00 20.00     0.017 C 
ENDBRANCH   8  10
ENDBRANCH   4   8
TORSDOF 2
ENDMDL
MODEL 9
REMARK VINA RESULT:      -4.1      1.930      2.948
REMARK  2 active torsions:
REMARK  status: ('A' for Active; 'I' for Inactive)
REMARK    1  A    between atoms: C1_1  and  C5_5 
REMARK    2  A    between atoms: C1_1  and  C11_11 
ROOT
HETATM    1  C2  UNL     1     -34.456  14.828  -7.265  1.00 20.00     0.013 C 
HETATM    2  C3  UNL     1     -35.868  14.889  -7.841  1.00 20.00     0.009 C 
HETATM    3  C4  UNL     1     -36.121  15.017  -5.469  1.00 20.00     0.021 C 
HETATM    4  C5  UNL     1     -34.635  14.754  -5.745  1.00 20.00     0.056 C 
HETATM    5  C6  UNL     1     -36.694  15.609  -6.769  1.00 20.00    -0.047 C 
HETATM    6  C7  UNL     1     -38.188  15.303  -6.913  1.00 20.00     0.015 C 
HETATM    7  C8  UNL     1     -36.486  17.131  -6.829  1.00 20.00     0.015 C 
ENDROOT
BRANCH   4   8
HETATM    8  C1  UNL     1     -33.756  15.747  -5.044  1.00 20.00     0.134 C 
HETATM    9  O12 UNL     1     -33.481  16.825  -5.571  1.00 20.00    -0.297 OA
BRANCH   8  10
HETATM   10  C11 UNL     1     -33.206  15.339  -3.681  1.00 20.00     0.047 C 
HETATM   11  C9  UNL     1     -34.080  15.914  -2.574  1.00 20.00     0.017 C 
HETATM   12  C10 UNL     1     -33.108  13.820  -3.563  1.00 20.00     0.017 C 
ENDBRANCH   8  10
ENDBRANCH   4   8
TORSDOF 2
ENDMDL
