MODEL 1
REMARK VINA RESULT:      -3.8      0.000      0.000
REMARK  0 active torsions:
REMARK  status: ('A' for Active; 'I' for Inactive)
ROOT
HETATM    1  C1  UNL     1     -34.934  13.249  -5.217  1.00 20.00     0.016 C 
HETATM    2  C2  UNL     1     -34.437  13.497  -3.796  1.00 20.00     0.010 C 
HETATM    3  C3  UNL     1     -34.089  15.469  -5.220  1.00 20.00     0.024 C 
HETATM    4  C4  UNL     1     -35.258  14.639  -5.723  1.00 20.00     0.058 C 
HETATM    5  C5  UNL     1     -33.812  14.915  -3.803  1.00 20.00    -0.047 C 
HETATM    6  C6  UNL     1     -32.305  14.858  -3.530  1.00 20.00     0.015 C 
HETATM    7  C7  UNL     1     -34.482  15.797  -2.738  1.00 20.00     0.015 C 
HETATM    8 BR8  UNL     1     -35.388  14.682  -7.650  1.00 20.00    -0.091 Br
ENDROOT
TORSDOF 0
ENDMDL
MODEL 2
REMARK VINA RESULT:      -3.8     10.962     12.123
REMARK  0 active torsions:
REMARK  status: ('A' for Active; 'I' for Inactive)
ROOT
HETATM    1  C1  UNL     1     -41.534   7.592  -1.204  1.00 20.00     0.016 C 
HETATM    2  C2  UNL     1     -40.961   6.462  -0.352  1.00 20.00     0.010 C 
HETATM    3  C3  UNL     1     -42.517   5.602  -2.049  1.00 20.00     0.024 C 
HETATM    4  C4  UNL     1     -41.887   6.906  -2.507  1.00 20.00     0.058 C 
HETATM    5  C5  UNL     1     -41.654   5.165  -0.843  1.00 20.00    -0.047 C 
HETATM    6  C6  UNL     1     -42.529   4.555   0.257  1.00 20.00     0.015 C 
HETATM    7  C7  UNL     1     -40.602   4.133  -1.278  1.00 20.00     0.015 C 
HETATM    8 BR8  UNL     1     -43.115   7.963  -3.558  1.00 20.00    -0.091 Br
ENDROOT
TORSDOF 0
ENDMDL
MODEL 3
REMARK VINA RESULT:      -3.7      0.939      2.154
REMARK  0 active torsions:
REMARK  status: ('A' for Active; 'I' for Inactive)
ROOT
HETATM    1  C1  UNL     1     -33.977  16.193  -6.177  1.00 20.00     0.016 C 
HETATM    2  C2  UNL     1     -33.351  16.065  -4.791  1.00 20.00     0.010 C 
HETATM    3  C3  UNL     1     -35.045  14.326  -5.170  1.00 20.00     0.024 C 
HETATM    4  C4  UNL     1     -34.438  14.784  -6.485  1.00 20.00     0.058 C 
HETATM    5  C5  UNL     1     -34.094  14.897  -4.093  1.00 20.00    -0.047 C 
HETATM    6  C6  UNL     1     -34.886  15.392  -2.879  1.00 20.00     0.015 C 
HETATM    7  C7  UNL     1     -33.091  13.826  -3.636  1.00 20.00     0.015 C 
HETATM    8 BR8  UNL     1     -35.735  14.759  -7.917  1.00 20.00    -0.091 Br
ENDROOT
TORSDOF 0
ENDMDL
MODEL 4
REMARK VINA RESULT:      -3.7      1.981      3.242
REMARK  0 active torsions:
REMARK  status: ('A' for Active; 'I' for Inactive)
ROOT
HETATM    1  C1  UNL     1     -33.482  15.897  -4.061  1.00 20.00     0.016 C 
HETATM    2  C2  UNL     1     -33.628  17.015  -3.032  1.00 20.00     0.010 C 
HETATM    3  C3  UNL     1     -35.433  15.361  -2.816  1.00 20.00     0.024 C 
HETATM    4  C4  UNL     1     -34.186  14.726  -3.409  1.00 20.00     0.058 C 
HETATM    5  C5  UNL     1     -34.941  16.718  -2.263  1.00 20.00    -0.047 C 
HETATM    6  C6  UNL     1     -35.985  17.813  -2.508  1.00 20.00     0.015 C 
HETATM    7  C7  UNL     1     -34.663  16.618  -0.755  1.00 20.00     0.015 C 
HETATM    8 BR8  UNL     1     -34.627  13.355  -4.696  1.00 20.00    -0.091 Br
ENDROOT
TORSDOF 0
ENDMDL
MODEL 5
REMARK VINA RESULT:      -3.7      2.761      3.802
REMARK  0 active torsions:
REMARK  status: ('A' for Active; 'I' for Inactive)
ROOT
HETATM    1  C1  UNL     1     -33.287  15.952  -3.056  1.00 20.00     0.016 C 
HETATM    2  C2  UNL     1     -33.587  15.282  -4.394  1.00 20.00     0.010 C 
HETATM    3  C3  UNL     1     -35.568  15.301  -2.940  1.00 20.00     0.024 C 
HETATM    4  C4  UNL     1     -34.641  16.457  -2.604  1.00 20.00     0.058 C 
HETATM    5  C5  UNL     1     -35.052  14.783  -4.302  1.00 20.00    -0.047 C 
HETATM    6  C6  UNL     1     -35.119  13.253  -4.360  1.00 20.00     0.015 C 
HETATM    7  C7  UNL     1     -35.885  15.367  -5.453  1.00 20.00     0.015 C 
HETATM    8 BR8  UNL     1     -34.657  16.860  -0.715  1.00 20.00    -0.091 Br
ENDROOT
TORSDOF 0
ENDMDL
MODEL 6
REMARK VINA RESULT:      -3.6     12.126     13.146
REMARK  0 active torsions:
REMARK  status: ('A' for Active; 'I' for Inactive)
ROOT
HETATM    1  C1  UNL     1     -34.755   5.851   3.099  1.00 20.00     0.016 C 
HETATM    2  C2  UNL     1     -35.503   5.124   4.213  1.00 20.00     0.010 C 
HETATM    3  C3  UNL     1     -33.203   5.667   4.888  1.00 20.00     0.024 C 
HETATM    4  C4  UNL     1     -33.706   6.650   3.844  1.00 20.00     0.058 C 
HETATM    5  C5  UNL     1     -34.478   4.928   5.358  1.00 20.00    -0.047 C 
HETATM    6  C6  UNL     1     -34.186   3.442   5.592  1.00 20.00     0.015 C 
HETATM    7  C7  UNL     1     -35.010   5.546   6.660  1.00 20.00     0.015 C 
HETATM    8 BR8  UNL     1     -32.287   7.231   2.669  1.00 20.00    -0.091 Br
ENDROOT
TORSDOF 0
ENDMDL
MODEL 7
REMARK VINA RESULT:      -3.6      1.881      3.008
REMARK  0 active torsions:
REMARK  status: ('A' for Active; 'I' for Inactive)
ROOT
HETATM    1  C1  UNL     1     -34.379  16.930  -3.255  1.00 20.00     0.016 C 
HETATM    2  C2  UNL     1     -34.468  15.512  -2.699  1.00 20.00     0.010 C 
HETATM    3  C3  UNL     1     -34.039  15.497  -5.119  1.00 20.00     0.024 C 
HETATM    4  C4  UNL     1     -33.508  16.772  -4.484  1.00 20.00     0.058 C 
HETATM    5  C5  UNL     1     -34.325  14.566  -3.919  1.00 20.00    -0.047 C 
HETATM    6  C6  UNL     1     -35.610  13.764  -4.151  1.00 20.00     0.015 C 
HETATM    7  C7  UNL     1     -33.157  13.591  -3.701  1.00 20.00     0.015 C 
HETATM    8 BR8  UNL     1     -33.674  18.285  -5.674  1.00 20.00    -0.091 Br
ENDROOT
TORSDOF 0
ENDMDL
MODEL 8
REMARK VINA RESULT:      -3.6      2.405      3.530
REMARK  0 active torsions:
REMARK  status: ('A' for Active; 'I' for Inactive)
ROOT
HETATM    1  C1  UNL     1     -34.518  14.072  -3.572  1.00 20.00     0.016 C 
HETATM    2  C2  UNL     1     -34.627  13.796  -5.069  1.00 20.00     0.010 C 
HETATM    3  C3  UNL     1     -35.135  16.145  -4.555  1.00 20.00     0.024 C 
HETATM    4  C4  UNL     1     -34.204  15.553  -3.510  1.00 20.00     0.058 C 
HETATM    5  C5  UNL     1     -35.105  15.122  -5.714  1.00 20.00    -0.047 C 
HETATM    6  C6  UNL     1     -36.497  14.966  -6.333  1.00 20.00     0.015 C 
HETATM    7  C7  UNL     1     -34.118  15.569  -6.803  1.00 20.00     0.015 C 
HETATM    8 BR8  UNL     1     -34.547  16.280  -1.754  1.00 20.00    -0.091 Br
ENDROOT
TORSDOF 0
ENDMDL
MODEL 9
REMARK VINA RESULT:      -3.6      2.666      3.619
REMARK  0 active torsions:
REMARK  status: ('A' for Active; 'I' for Inactive)
ROOT
HETATM    1  C1  UNL     1     -36.211  16.025  -3.235  1.00 20.00     0.016 C 
HETATM    2  C2  UNL     1     -36.211  15.147  -4.483  1.00 20.00     0.010 C 
HETATM    3  C3  UNL     1     -33.950  15.365  -3.545  1.00 20.00     0.024 C 
HETATM    4  C4  UNL     1     -35.003  15.538  -2.463  1.00 20.00     0.058 C 
HETATM    5  C5  UNL     1     -34.729  14.772  -4.741  1.00 20.00    -0.047 C 
HETATM    6  C6  UNL     1     -34.230  15.368  -6.062  1.00 20.00     0.015 C 
HETATM    7  C7  UNL     1     -34.567  13.244  -4.787  1.00 20.00     0.015 C 
HETATM    8 BR8  UNL     1     -34.449  16.818  -1.127  1.00 20.00    -0.091 Br
ENDROOT
TORSDOF 0
ENDMDL
