MODEL 1
REMARK VINA RESULT:      -4.8      0.000      0.000
REMARK  2 active torsions:
REMARK  status: ('A' for Active; 'I' for Inactive)
REMARK    1  A    between atoms: C3_3  and  C8_8 
REMARK    2  A    between atoms: C3_3  and  C9_9 
ROOT
HETATM    1  C1  UNL     1     -32.263   9.817   1.106  1.00 20.00     0.012 C 
HETATM    2  C2  UNL     1     -32.261   8.697   1.541  1.00 20.00    -0.110 C 
HETATM    3  C9  UNL     1     -32.260   7.327   2.064  1.00 20.00     0.172 C 
ENDROOT
BRANCH   3   4
HETATM    4  C3  UNL     1     -32.256   7.282   3.579  1.00 20.00     0.151 C 
HETATM    5  O10 UNL     1     -31.296   7.641   4.259  1.00 20.00    -0.296 OA
BRANCH   4   6
HETATM    6  C8  UNL     1     -33.503   6.770   4.224  1.00 20.00     0.117 C 
HETATM    7  C6  UNL     1     -33.246   6.448   5.693  1.00 20.00     0.023 C 
HETATM    8  C4  UNL     1     -34.484   5.915   6.410  1.00 20.00     0.002 C 
HETATM    9  C5  UNL     1     -35.023   4.631   5.785  1.00 20.00     0.010 C 
HETATM   10  C7  UNL     1     -35.426   4.798   4.326  1.00 20.00     0.075 C 
HETATM   11  S11 UNL     1     -34.023   5.301   3.290  1.00 20.00    -0.157 SA
ENDBRANCH   4   6
ENDBRANCH   3   4
TORSDOF 2
ENDMDL
MODEL 2
REMARK VINA RESULT:      -4.6     11.088     11.898
REMARK  2 active torsions:
REMARK  status: ('A' for Active; 'I' for Inactive)
REMARK    1  A    between atoms: C3_3  and  C8_8 
REMARK    2  A    between atoms: C3_3  and  C9_9 
ROOT
HETATM    1  C1  UNL     1     -32.142  19.054   0.106  1.00 20.00     0.012 C 
HETATM    2  C2  UNL     1     -33.000  18.302  -0.267  1.00 20.00    -0.110 C 
HETATM    3  C9  UNL     1     -34.051  17.382  -0.716  1.00 20.00     0.172 C 
ENDROOT
BRANCH   3   4
HETATM    4  C3  UNL     1     -33.984  17.102  -2.204  1.00 20.00     0.151 C 
HETATM    5  O10 UNL     1     -33.659  17.950  -3.033  1.00 20.00    -0.296 OA
BRANCH   4   6
HETATM    6  C8  UNL     1     -34.339  15.714  -2.627  1.00 20.00     0.117 C 
HETATM    7  C6  UNL     1     -33.196  15.095  -3.426  1.00 20.00     0.023 C 
HETATM    8  C4  UNL     1     -33.498  13.673  -3.893  1.00 20.00     0.002 C 
HETATM    9  C5  UNL     1     -34.730  13.594  -4.791  1.00 20.00     0.010 C 
HETATM   10  C7  UNL     1     -35.999  14.089  -4.110  1.00 20.00     0.075 C 
HETATM   11  S11 UNL     1     -35.864  15.828  -3.608  1.00 20.00    -0.157 SA
ENDBRANCH   4   6
ENDBRANCH   3   4
TORSDOF 2
ENDMDL
MODEL 3
REMARK VINA RESULT:      -4.6     11.085     11.869
REMARK  2 active torsions:
REMARK  status: ('A' for Active; 'I' for Inactive)
REMARK    1  A    between atoms: C3_3  and  C8_8 
REMARK    2  A    between atoms: C3_3  and  C9_9 
ROOT
HETATM    1  C1  UNL     1     -35.192  17.384   0.770  1.00 20.00     0.012 C 
HETATM    2  C2  UNL     1     -34.397  17.474  -0.126  1.00 20.00    -0.110 C 
HETATM    3  C9  UNL     1     -33.421  17.587  -1.215  1.00 20.00     0.172 C 
ENDROOT
BRANCH   3   4
HETATM    4  C3  UNL     1     -34.018  17.257  -2.569  1.00 20.00     0.151 C 
HETATM    5  O10 UNL     1     -34.246  18.108  -3.427  1.00 20.00    -0.296 OA
BRANCH   4   6
HETATM    6  C8  UNL     1     -34.323  15.816  -2.817  1.00 20.00     0.117 C 
HETATM    7  C6  UNL     1     -33.152  15.141  -3.526  1.00 20.00     0.023 C 
HETATM    8  C4  UNL     1     -33.403  13.662  -3.813  1.00 20.00     0.002 C 
HETATM    9  C5  UNL     1     -34.623  13.431  -4.701  1.00 20.00     0.010 C 
HETATM   10  C7  UNL     1     -35.915  13.964  -4.096  1.00 20.00     0.075 C 
HETATM   11  S11 UNL     1     -35.842  15.756  -3.814  1.00 20.00    -0.157 SA
ENDBRANCH   4   6
ENDBRANCH   3   4
TORSDOF 2
ENDMDL
MODEL 4
REMARK VINA RESULT:      -4.6     11.410     12.534
REMARK  2 active torsions:
REMARK  status: ('A' for Active; 'I' for Inactive)
REMARK    1  A    between atoms: C3_3  and  C8_8 
REMARK    2  A    between atoms: C3_3  and  C9_9 
ROOT
HETATM    1  C1  UNL     1     -34.438  17.761   0.448  1.00 20.00     0.012 C 
HETATM    2  C2  UNL     1     -34.546  17.045  -0.510  1.00 20.00    -0.110 C 
HETATM    3  C9  UNL     1     -34.681  16.166  -1.677  1.00 20.00     0.172 C 
ENDROOT
BRANCH   3   4
HETATM    4  C3  UNL     1     -34.004  16.727  -2.911  1.00 20.00     0.151 C 
HETATM    5  O10 UNL     1     -33.581  17.880  -2.979  1.00 20.00    -0.296 OA
BRANCH   4   6
HETATM    6  C8  UNL     1     -33.869  15.792  -4.068  1.00 20.00     0.117 C 
HETATM    7  C6  UNL     1     -34.229  16.504  -5.369  1.00 20.00     0.023 C 
HETATM    8  C4  UNL     1     -34.115  15.599  -6.594  1.00 20.00     0.002 C 
HETATM    9  C5  UNL     1     -35.028  14.379  -6.515  1.00 20.00     0.010 C 
HETATM   10  C7  UNL     1     -34.739  13.491  -5.312  1.00 20.00     0.075 C 
HETATM   11  S11 UNL     1     -34.965  14.380  -3.745  1.00 20.00    -0.157 SA
ENDBRANCH   4   6
ENDBRANCH   3   4
TORSDOF 2
ENDMDL
MODEL 5
REMARK VINA RESULT:      -4.5     11.194     12.813
REMARK  2 active torsions:
REMARK  status: ('A' for Active; 'I' for Inactive)
REMARK    1  A    between atoms: C3_3  and  C8_8 
REMARK    2  A    between atoms: C3_3  and  C9_9 
ROOT
HETATM    1  C1  UNL     1     -34.502  16.515  -1.346  1.00 20.00     0.012 C 
HETATM    2  C2  UNL     1     -33.982  16.042  -2.320  1.00 20.00    -0.110 C 
HETATM    3  C9  UNL     1     -33.342  15.470  -3.509  1.00 20.00     0.172 C 
ENDROOT
BRANCH   3   4
HETATM    4  C3  UNL     1     -34.077  14.255  -4.039  1.00 20.00     0.151 C 
HETATM    5  O10 UNL     1     -34.084  13.170  -3.460  1.00 20.00    -0.296 OA
BRANCH   4   6
HETATM    6  C8  UNL     1     -34.809  14.441  -5.327  1.00 20.00     0.117 C 
HETATM    7  C6  UNL     1     -34.104  15.482  -6.192  1.00 20.00     0.023 C 
HETATM    8  C4  UNL     1     -34.807  15.722  -7.526  1.00 20.00     0.002 C 
HETATM    9  C5  UNL     1     -36.242  16.215  -7.358  1.00 20.00     0.010 C 
HETATM   10  C7  UNL     1     -37.125  15.240  -6.591  1.00 20.00     0.075 C 
HETATM   11  S11 UNL     1     -36.505  14.944  -4.910  1.00 20.00    -0.157 SA
ENDBRANCH   4   6
ENDBRANCH   3   4
TORSDOF 2
ENDMDL
MODEL 6
REMARK VINA RESULT:      -4.5     11.477     12.262
REMARK  2 active torsions:
REMARK  status: ('A' for Active; 'I' for Inactive)
REMARK    1  A    between atoms: C3_3  and  C8_8 
REMARK    2  A    between atoms: C3_3  and  C9_9 
ROOT
HETATM    1  C1  UNL     1     -34.825  17.717   0.743  1.00 20.00     0.012 C 
HETATM    2  C2  UNL     1     -34.721  17.068  -0.262  1.00 20.00    -0.110 C 
HETATM    3  C9  UNL     1     -34.586  16.273  -1.488  1.00 20.00     0.172 C 
ENDROOT
BRANCH   3   4
HETATM    4  C3  UNL     1     -35.703  16.536  -2.478  1.00 20.00     0.151 C 
HETATM    5  O10 UNL     1     -36.417  17.537  -2.435  1.00 20.00    -0.296 OA
BRANCH   4   6
HETATM    6  C8  UNL     1     -35.902  15.498  -3.534  1.00 20.00     0.117 C 
HETATM    7  C6  UNL     1     -34.780  14.465  -3.479  1.00 20.00     0.023 C 
HETATM    8  C4  UNL     1     -34.922  13.375  -4.539  1.00 20.00     0.002 C 
HETATM    9  C5  UNL     1     -34.916  13.929  -5.962  1.00 20.00     0.010 C 
HETATM   10  C7  UNL     1     -36.045  14.917  -6.225  1.00 20.00     0.075 C 
HETATM   11  S11 UNL     1     -35.947  16.363  -5.131  1.00 20.00    -0.157 SA
ENDBRANCH   4   6
ENDBRANCH   3   4
TORSDOF 2
ENDMDL
MODEL 7
REMARK VINA RESULT:      -4.5     11.284     12.258
REMARK  2 active torsions:
REMARK  status: ('A' for Active; 'I' for Inactive)
REMARK    1  A    between atoms: C3_3  and  C8_8 
REMARK    2  A    between atoms: C3_3  and  C9_9 
ROOT
HETATM    1  C1  UNL     1     -34.533  16.541  -7.499  1.00 20.00     0.012 C 
HETATM    2  C2  UNL     1     -34.805  15.427  -7.146  1.00 20.00    -0.110 C 
HETATM    3  C9  UNL     1     -35.141  14.063  -6.722  1.00 20.00     0.172 C 
ENDROOT
BRANCH   3   4
HETATM    4  C3  UNL     1     -34.926  13.845  -5.237  1.00 20.00     0.151 C 
HETATM    5  O10 UNL     1     -34.805  12.730  -4.732  1.00 20.00    -0.296 OA
BRANCH   4   6
HETATM    6  C8  UNL     1     -34.865  15.079  -4.396  1.00 20.00     0.117 C 
HETATM    7  C6  UNL     1     -33.737  14.967  -3.374  1.00 20.00     0.023 C 
HETATM    8  C4  UNL     1     -33.623  16.198  -2.477  1.00 20.00     0.002 C 
HETATM    9  C5  UNL     1     -34.893  16.465  -1.675  1.00 20.00     0.010 C 
HETATM   10  C7  UNL     1     -36.117  16.698  -2.550  1.00 20.00     0.075 C 
HETATM   11  S11 UNL     1     -36.486  15.260  -3.595  1.00 20.00    -0.157 SA
ENDBRANCH   4   6
ENDBRANCH   3   4
TORSDOF 2
ENDMDL
MODEL 8
REMARK VINA RESULT:      -4.4     11.609     12.356
REMARK  2 active torsions:
REMARK  status: ('A' for Active; 'I' for Inactive)
REMARK    1  A    between atoms: C3_3  and  C8_8 
REMARK    2  A    between atoms: C3_3  and  C9_9 
ROOT
HETATM    1  C1  UNL     1     -34.769  13.144  -5.013  1.00 20.00     0.012 C 
HETATM    2  C2  UNL     1     -34.030  13.843  -4.375  1.00 20.00    -0.110 C 
HETATM    3  C9  UNL     1     -33.123  14.690  -3.592  1.00 20.00     0.172 C 
ENDROOT
BRANCH   3   4
HETATM    4  C3  UNL     1     -33.257  16.160  -3.937  1.00 20.00     0.151 C 
HETATM    5  O10 UNL     1     -32.996  16.615  -5.049  1.00 20.00    -0.296 OA
BRANCH   4   6
HETATM    6  C8  UNL     1     -33.731  17.052  -2.836  1.00 20.00     0.117 C 
HETATM    7  C6  UNL     1     -34.355  16.224  -1.716  1.00 20.00     0.023 C 
HETATM    8  C4  UNL     1     -34.865  17.079  -0.558  1.00 20.00     0.002 C 
HETATM    9  C5  UNL     1     -35.934  18.080  -0.988  1.00 20.00     0.010 C 
HETATM   10  C7  UNL     1     -35.446  19.060  -2.047  1.00 20.00     0.075 C 
HETATM   11  S11 UNL     1     -34.925  18.211  -3.565  1.00 20.00    -0.157 SA
ENDBRANCH   4   6
ENDBRANCH   3   4
TORSDOF 2
ENDMDL
MODEL 9
REMARK VINA RESULT:      -4.4     11.435     13.509
REMARK  2 active torsions:
REMARK  status: ('A' for Active; 'I' for Inactive)
REMARK    1  A    between atoms: C3_3  and  C8_8 
REMARK    2  A    between atoms: C3_3  and  C9_9 
ROOT
HETATM    1  C1  UNL     1     -34.479  16.746  -0.767  1.00 20.00     0.012 C 
HETATM    2  C2  UNL     1     -34.544  16.127  -1.794  1.00 20.00    -0.110 C 
HETATM    3  C9  UNL     1     -34.631  15.367  -3.047  1.00 20.00     0.172 C 
ENDROOT
BRANCH   3   4
HETATM    4  C3  UNL     1     -33.339  15.399  -3.838  1.00 20.00     0.151 C 
HETATM    5  O10 UNL     1     -32.319  14.810  -3.482  1.00 20.00    -0.296 OA
BRANCH   4   6
HETATM    6  C8  UNL     1     -33.361  16.199  -5.099  1.00 20.00     0.117 C 
HETATM    7  C6  UNL     1     -33.638  17.668  -4.790  1.00 20.00     0.023 C 
HETATM    8  C4  UNL     1     -33.677  18.542  -6.042  1.00 20.00     0.002 C 
HETATM    9  C5  UNL     1     -34.755  18.109  -7.032  1.00 20.00     0.010 C 
HETATM   10  C7  UNL     1     -34.576  16.680  -7.526  1.00 20.00     0.075 C 
HETATM   11  S11 UNL     1     -34.644  15.480  -6.166  1.00 20.00    -0.157 SA
ENDBRANCH   4   6
ENDBRANCH   3   4
TORSDOF 2
ENDMDL
