MODEL 1
REMARK VINA RESULT:      -4.6      0.000      0.000
REMARK  0 active torsions:
REMARK  status: ('A' for Active; 'I' for Inactive)
ROOT
HETATM    1  C1  UNL     1     -32.528   7.071   2.778  1.00 20.00     0.064 C 
HETATM    2  C2  UNL     1     -34.500   5.548   2.799  1.00 20.00     0.020 C 
HETATM    3  C3  UNL     1     -35.403   5.517   4.032  1.00 20.00     0.010 C 
HETATM    4  C4  UNL     1     -33.195   5.871   4.848  1.00 20.00     0.027 C 
HETATM    5  C5  UNL     1     -33.081   5.821   3.317  1.00 20.00     0.093 C 
HETATM    6  C6  UNL     1     -34.480   5.100   5.186  1.00 20.00    -0.046 C 
HETATM    7  C7  UNL     1     -35.052   5.521   6.541  1.00 20.00     0.015 C 
HETATM    8  C8  UNL     1     -34.236   3.583   5.190  1.00 20.00     0.015 C 
HETATM    9  N9  UNL     1     -32.092   8.058   2.352  1.00 20.00    -0.197 NA
ENDROOT
TORSDOF 0
ENDMDL
MODEL 2
REMARK VINA RESULT:      -4.3     11.842     12.657
REMARK  0 active torsions:
REMARK  status: ('A' for Active; 'I' for Inactive)
ROOT
HETATM    1  C1  UNL     1     -34.869  13.774  -4.483  1.00 20.00     0.064 C 
HETATM    2  C2  UNL     1     -33.511  15.835  -4.145  1.00 20.00     0.020 C 
HETATM    3  C3  UNL     1     -33.298  16.361  -2.727  1.00 20.00     0.010 C 
HETATM    4  C4  UNL     1     -35.498  15.451  -2.762  1.00 20.00     0.027 C 
HETATM    5  C5  UNL     1     -34.912  15.206  -4.160  1.00 20.00     0.093 C 
HETATM    6  C6  UNL     1     -34.711  16.642  -2.194  1.00 20.00    -0.046 C 
HETATM    7  C7  UNL     1     -34.739  16.661  -0.664  1.00 20.00     0.015 C 
HETATM    8  C8  UNL     1     -35.257  17.977  -2.726  1.00 20.00     0.015 C 
HETATM    9  N9  UNL     1     -34.836  12.642  -4.737  1.00 20.00    -0.197 NA
ENDROOT
TORSDOF 0
ENDMDL
MODEL 3
REMARK VINA RESULT:      -4.2     11.551     13.028
REMARK  0 active torsions:
REMARK  status: ('A' for Active; 'I' for Inactive)
ROOT
HETATM    1  C1  UNL     1     -34.623  13.586  -4.102  1.00 20.00     0.064 C 
HETATM    2  C2  UNL     1     -35.836  15.468  -3.010  1.00 20.00     0.020 C 
HETATM    3  C3  UNL     1     -35.593  16.894  -3.501  1.00 20.00     0.010 C 
HETATM    4  C4  UNL     1     -33.506  15.769  -3.705  1.00 20.00     0.027 C 
HETATM    5  C5  UNL     1     -34.504  14.725  -3.182  1.00 20.00     0.093 C 
HETATM    6  C6  UNL     1     -34.090  17.130  -3.298  1.00 20.00    -0.046 C 
HETATM    7  C7  UNL     1     -33.573  18.257  -4.195  1.00 20.00     0.015 C 
HETATM    8  C8  UNL     1     -33.765  17.461  -1.833  1.00 20.00     0.015 C 
HETATM    9  N9  UNL     1     -34.717  12.686  -4.828  1.00 20.00    -0.197 NA
ENDROOT
TORSDOF 0
ENDMDL
MODEL 4
REMARK VINA RESULT:      -4.2     11.563     12.928
REMARK  0 active torsions:
REMARK  status: ('A' for Active; 'I' for Inactive)
ROOT
HETATM    1  C1  UNL     1     -37.612  14.802  -4.056  1.00 20.00     0.064 C 
HETATM    2  C2  UNL     1     -35.821  14.849  -5.786  1.00 20.00     0.020 C 
HETATM    3  C3  UNL     1     -34.515  14.098  -5.527  1.00 20.00     0.010 C 
HETATM    4  C4  UNL     1     -35.216  14.939  -3.413  1.00 20.00     0.027 C 
HETATM    5  C5  UNL     1     -36.300  15.355  -4.419  1.00 20.00     0.093 C 
HETATM    6  C6  UNL     1     -33.945  14.730  -4.249  1.00 20.00    -0.046 C 
HETATM    7  C7  UNL     1     -32.958  13.790  -3.552  1.00 20.00     0.015 C 
HETATM    8  C8  UNL     1     -33.246  16.066  -4.546  1.00 20.00     0.015 C 
HETATM    9  N9  UNL     1     -38.648  14.365  -3.769  1.00 20.00    -0.197 NA
ENDROOT
TORSDOF 0
ENDMDL
MODEL 5
REMARK VINA RESULT:      -4.1     11.781     12.957
REMARK  0 active torsions:
REMARK  status: ('A' for Active; 'I' for Inactive)
ROOT
HETATM    1  C1  UNL     1     -35.706  14.688  -6.949  1.00 20.00     0.064 C 
HETATM    2  C2  UNL     1     -34.672  13.239  -5.207  1.00 20.00     0.020 C 
HETATM    3  C3  UNL     1     -34.783  13.646  -3.738  1.00 20.00     0.010 C 
HETATM    4  C4  UNL     1     -34.584  15.676  -4.966  1.00 20.00     0.027 C 
HETATM    5  C5  UNL     1     -34.589  14.546  -6.007  1.00 20.00     0.093 C 
HETATM    6  C6  UNL     1     -34.108  15.023  -3.659  1.00 20.00    -0.046 C 
HETATM    7  C7  UNL     1     -34.578  15.807  -2.432  1.00 20.00     0.015 C 
HETATM    8  C8  UNL     1     -32.577  14.897  -3.623  1.00 20.00     0.015 C 
HETATM    9  N9  UNL     1     -36.589  14.800  -7.693  1.00 20.00    -0.197 NA
ENDROOT
TORSDOF 0
ENDMDL
MODEL 6
REMARK VINA RESULT:      -4.1     11.731     12.888
REMARK  0 active torsions:
REMARK  status: ('A' for Active; 'I' for Inactive)
ROOT
HETATM    1  C1  UNL     1     -37.565  14.651  -4.120  1.00 20.00     0.064 C 
HETATM    2  C2  UNL     1     -35.191  13.910  -4.258  1.00 20.00     0.020 C 
HETATM    3  C3  UNL     1     -34.192  14.413  -3.216  1.00 20.00     0.010 C 
HETATM    4  C4  UNL     1     -35.705  16.212  -3.593  1.00 20.00     0.027 C 
HETATM    5  C5  UNL     1     -36.195  15.050  -4.471  1.00 20.00     0.093 C 
HETATM    6  C6  UNL     1     -34.211  15.942  -3.359  1.00 20.00    -0.046 C 
HETATM    7  C7  UNL     1     -33.705  16.629  -2.088  1.00 20.00     0.015 C 
HETATM    8  C8  UNL     1     -33.366  16.406  -4.555  1.00 20.00     0.015 C 
HETATM    9  N9  UNL     1     -38.646  14.336  -3.842  1.00 20.00    -0.197 NA
ENDROOT
TORSDOF 0
ENDMDL
MODEL 7
REMARK VINA RESULT:      -4.0      9.230     10.381
REMARK  0 active torsions:
REMARK  status: ('A' for Active; 'I' for Inactive)
ROOT
HETATM    1  C1  UNL     1     -42.664   7.853  -3.503  1.00 20.00     0.064 C 
HETATM    2  C2  UNL     1     -41.875   7.754  -1.142  1.00 20.00     0.020 C 
HETATM    3  C3  UNL     1     -40.875   6.672  -0.736  1.00 20.00     0.010 C 
HETATM    4  C4  UNL     1     -42.289   5.674  -2.370  1.00 20.00     0.027 C 
HETATM    5  C5  UNL     1     -42.761   7.129  -2.229  1.00 20.00     0.093 C 
HETATM    6  C6  UNL     1     -41.582   5.345  -1.047  1.00 20.00    -0.046 C 
HETATM    7  C7  UNL     1     -40.579   4.201  -1.211  1.00 20.00     0.015 C 
HETATM    8  C8  UNL     1     -42.594   4.977   0.050  1.00 20.00     0.015 C 
HETATM    9  N9  UNL     1     -42.586   8.425  -4.509  1.00 20.00    -0.197 NA
ENDROOT
TORSDOF 0
ENDMDL
MODEL 8
REMARK VINA RESULT:      -4.0      1.170      1.945
REMARK  0 active torsions:
REMARK  status: ('A' for Active; 'I' for Inactive)
ROOT
HETATM    1  C1  UNL     1     -32.129   8.075   2.155  1.00 20.00     0.064 C 
HETATM    2  C2  UNL     1     -32.212   5.717   2.954  1.00 20.00     0.020 C 
HETATM    3  C3  UNL     1     -33.561   5.003   3.027  1.00 20.00     0.010 C 
HETATM    4  C4  UNL     1     -33.994   7.275   3.587  1.00 20.00     0.027 C 
HETATM    5  C5  UNL     1     -32.494   7.193   3.271  1.00 20.00     0.093 C 
HETATM    6  C6  UNL     1     -34.404   5.851   3.989  1.00 20.00    -0.046 C 
HETATM    7  C7  UNL     1     -35.902   5.613   3.779  1.00 20.00     0.015 C 
HETATM    8  C8  UNL     1     -34.047   5.560   5.455  1.00 20.00     0.015 C 
HETATM    9  N9  UNL     1     -31.841   8.772   1.273  1.00 20.00    -0.197 NA
ENDROOT
TORSDOF 0
ENDMDL
MODEL 9
REMARK VINA RESULT:      -4.0      9.425     10.605
REMARK  0 active torsions:
REMARK  status: ('A' for Active; 'I' for Inactive)
ROOT
HETATM    1  C1  UNL     1     -41.630   2.774  -3.057  1.00 20.00     0.064 C 
HETATM    2  C2  UNL     1     -43.044   4.824  -3.004  1.00 20.00     0.020 C 
HETATM    3  C3  UNL     1     -42.413   6.152  -2.587  1.00 20.00     0.010 C 
HETATM    4  C4  UNL     1     -41.342   4.480  -1.275  1.00 20.00     0.027 C 
HETATM    5  C5  UNL     1     -42.324   3.738  -2.193  1.00 20.00     0.093 C 
HETATM    6  C6  UNL     1     -41.891   5.910  -1.164  1.00 20.00    -0.046 C 
HETATM    7  C7  UNL     1     -40.792   6.910  -0.793  1.00 20.00     0.015 C 
HETATM    8  C8  UNL     1     -43.022   5.995  -0.127  1.00 20.00     0.015 C 
HETATM    9  N9  UNL     1     -41.081   2.013  -3.740  1.00 20.00    -0.197 NA
ENDROOT
TORSDOF 0
ENDMDL
