MODEL 1
REMARK VINA RESULT:      -3.9      0.000      0.000
REMARK  3 active torsions:
REMARK  status: ('A' for Active; 'I' for Inactive)
REMARK    1  A    between atoms: C4_4  and  C5_5 
REMARK    2  A    between atoms: C6_6  and  C7_7 
REMARK    3  A    between atoms: C6_6  and  N8_8 
ROOT
HETATM    1  C1  UNL     1     -33.904  14.029  -3.682  1.00 20.00     0.035 C 
HETATM    2  C2  UNL     1     -34.832  13.348  -4.674  1.00 20.00     0.235 C 
HETATM    3  C3  UNL     1     -35.465  15.685  -4.330  1.00 20.00     0.240 C 
HETATM    4  C4  UNL     1     -34.753  15.149  -3.099  1.00 20.00     0.027 C 
HETATM    5  N8  UNL     1     -35.806  14.429  -5.105  1.00 20.00    -0.068 N 
HETATM    6  H24 UNL     1     -36.740  14.128  -4.792  1.00 20.00     0.280 HD
ENDROOT
BRANCH   5   7
HETATM    7  C6  UNL     1     -35.884  14.636  -6.582  1.00 20.00     0.266 C 
BRANCH   7   8
HETATM    8  C7  UNL     1     -34.966  15.772  -6.972  1.00 20.00     0.249 C 
HETATM    9  F9  UNL     1     -33.713  15.285  -7.175  1.00 20.00    -0.254 F 
ENDBRANCH   7   8
ENDBRANCH   5   7
BRANCH   4  10
HETATM   10  C5  UNL     1     -33.938  16.208  -2.377  1.00 20.00     0.121 C 
HETATM   11 CL10 UNL     1     -34.625  16.529  -0.772  1.00 20.00    -0.130 Cl
ENDBRANCH   4  10
TORSDOF 3
ENDMDL
MODEL 2
REMARK VINA RESULT:      -3.8      1.412      1.953
REMARK  3 active torsions:
REMARK  status: ('A' for Active; 'I' for Inactive)
REMARK    1  A    between atoms: C4_4  and  C5_5 
REMARK    2  A    between atoms: C6_6  and  C7_7 
REMARK    3  A    between atoms: C6_6  and  N8_8 
ROOT
HETATM    1  C1  UNL     1     -33.809  17.036  -3.725  1.00 20.00     0.035 C 
HETATM    2  C2  UNL     1     -33.347  16.228  -4.925  1.00 20.00     0.235 C 
HETATM    3  C3  UNL     1     -34.339  14.787  -3.217  1.00 20.00     0.240 C 
HETATM    4  C4  UNL     1     -33.765  16.039  -2.576  1.00 20.00     0.027 C 
HETATM    5  N8  UNL     1     -33.721  14.794  -4.600  1.00 20.00    -0.068 N 
HETATM    6  H24 UNL     1     -32.841  14.263  -4.537  1.00 20.00     0.280 HD
ENDROOT
BRANCH   5   7
HETATM    7  C6  UNL     1     -34.562  14.125  -5.639  1.00 20.00     0.266 C 
BRANCH   7   8
HETATM    8  C7  UNL     1     -34.820  15.098  -6.767  1.00 20.00     0.249 C 
HETATM    9  F9  UNL     1     -34.130  14.697  -7.868  1.00 20.00    -0.254 F 
ENDBRANCH   7   8
ENDBRANCH   5   7
BRANCH   4  10
HETATM   10  C5  UNL     1     -34.549  16.493  -1.357  1.00 20.00     0.121 C 
HETATM   11 CL10 UNL     1     -33.645  17.737  -0.469  1.00 20.00    -0.130 Cl
ENDBRANCH   4  10
TORSDOF 3
ENDMDL
MODEL 3
REMARK VINA RESULT:      -3.7      1.040      1.338
REMARK  3 active torsions:
REMARK  status: ('A' for Active; 'I' for Inactive)
REMARK    1  A    between atoms: C4_4  and  C5_5 
REMARK    2  A    between atoms: C6_6  and  C7_7 
REMARK    3  A    between atoms: C6_6  and  N8_8 
ROOT
HETATM    1  C1  UNL     1     -33.365  15.574  -3.120  1.00 20.00     0.035 C 
HETATM    2  C2  UNL     1     -33.303  14.261  -3.882  1.00 20.00     0.235 C 
HETATM    3  C3  UNL     1     -35.616  14.952  -3.492  1.00 20.00     0.240 C 
HETATM    4  C4  UNL     1     -34.711  15.523  -2.414  1.00 20.00     0.027 C 
HETATM    5  N8  UNL     1     -34.752  13.890  -4.141  1.00 20.00    -0.068 N 
HETATM    6  H24 UNL     1     -34.928  13.010  -3.637  1.00 20.00     0.280 HD
ENDROOT
BRANCH   5   7
HETATM    7  C6  UNL     1     -35.077  13.645  -5.579  1.00 20.00     0.266 C 
BRANCH   7   8
HETATM    8  C7  UNL     1     -34.938  14.940  -6.345  1.00 20.00     0.249 C 
HETATM    9  F9  UNL     1     -33.974  14.796  -7.294  1.00 20.00    -0.254 F 
ENDBRANCH   7   8
ENDBRANCH   5   7
BRANCH   4  10
HETATM   10  C5  UNL     1     -35.175  16.876  -1.906  1.00 20.00     0.121 C 
HETATM   11 CL10 UNL     1     -34.821  17.042  -0.175  1.00 20.00    -0.130 Cl
ENDBRANCH   4  10
TORSDOF 3
ENDMDL
MODEL 4
REMARK VINA RESULT:      -3.7      3.009      4.126
REMARK  3 active torsions:
REMARK  status: ('A' for Active; 'I' for Inactive)
REMARK    1  A    between atoms: C4_4  and  C5_5 
REMARK    2  A    between atoms: C6_6  and  C7_7 
REMARK    3  A    between atoms: C6_6  and  N8_8 
ROOT
HETATM    1  C1  UNL     1     -34.828  13.397  -4.972  1.00 20.00     0.035 C 
HETATM    2  C2  UNL     1     -33.716  13.681  -3.977  1.00 20.00     0.235 C 
HETATM    3  C3  UNL     1     -34.164  15.630  -5.385  1.00 20.00     0.240 C 
HETATM    4  C4  UNL     1     -34.544  14.355  -6.120  1.00 20.00     0.027 C 
HETATM    5  N8  UNL     1     -33.322  15.125  -4.232  1.00 20.00    -0.068 N 
HETATM    6  H24 UNL     1     -32.345  15.113  -4.556  1.00 20.00     0.280 HD
ENDROOT
BRANCH   5   7
HETATM    7  C6  UNL     1     -33.372  16.000  -3.022  1.00 20.00     0.266 C 
BRANCH   7   8
HETATM    8  C7  UNL     1     -34.748  15.912  -2.404  1.00 20.00     0.249 C 
HETATM    9  F9  UNL     1     -34.640  16.020  -1.053  1.00 20.00    -0.254 F 
ENDBRANCH   7   8
ENDBRANCH   5   7
BRANCH   4  10
HETATM   10  C5  UNL     1     -35.726  14.540  -7.055  1.00 20.00     0.121 C 
HETATM   11 CL10 UNL     1     -37.082  15.298  -6.195  1.00 20.00    -0.130 Cl
ENDBRANCH   4  10
TORSDOF 3
ENDMDL
MODEL 5
REMARK VINA RESULT:      -3.6      1.952      2.716
REMARK  3 active torsions:
REMARK  status: ('A' for Active; 'I' for Inactive)
REMARK    1  A    between atoms: C4_4  and  C5_5 
REMARK    2  A    between atoms: C6_6  and  C7_7 
REMARK    3  A    between atoms: C6_6  and  N8_8 
ROOT
HETATM    1  C1  UNL     1     -34.935  17.269  -4.506  1.00 20.00     0.035 C 
HETATM    2  C2  UNL     1     -34.788  16.372  -5.723  1.00 20.00     0.235 C 
HETATM    3  C3  UNL     1     -33.552  15.480  -3.811  1.00 20.00     0.240 C 
HETATM    4  C4  UNL     1     -33.680  16.989  -3.693  1.00 20.00     0.027 C 
HETATM    5  N8  UNL     1     -33.926  15.214  -5.255  1.00 20.00    -0.068 N 
HETATM    6  H24 UNL     1     -33.055  15.251  -5.802  1.00 20.00     0.280 HD
ENDROOT
BRANCH   5   7
HETATM    7  C6  UNL     1     -34.528  13.865  -5.482  1.00 20.00     0.266 C 
BRANCH   7   8
HETATM    8  C7  UNL     1     -35.114  13.360  -4.183  1.00 20.00     0.249 C 
HETATM    9  F9  UNL     1     -36.394  13.803  -4.067  1.00 20.00    -0.254 F 
ENDBRANCH   7   8
ENDBRANCH   5   7
BRANCH   4  10
HETATM   10  C5  UNL     1     -33.777  17.465  -2.255  1.00 20.00     0.121 C 
HETATM   11 CL10 UNL     1     -34.673  16.289  -1.273  1.00 20.00    -0.130 Cl
ENDBRANCH   4  10
TORSDOF 3
ENDMDL
MODEL 6
REMARK VINA RESULT:      -3.5      3.490      4.544
REMARK  3 active torsions:
REMARK  status: ('A' for Active; 'I' for Inactive)
REMARK    1  A    between atoms: C4_4  and  C5_5 
REMARK    2  A    between atoms: C6_6  and  C7_7 
REMARK    3  A    between atoms: C6_6  and  N8_8 
ROOT
HETATM    1  C1  UNL     1     -36.616  14.874  -4.640  1.00 20.00     0.035 C 
HETATM    2  C2  UNL     1     -37.110  15.642  -3.425  1.00 20.00     0.235 C 
HETATM    3  C3  UNL     1     -34.768  14.989  -3.169  1.00 20.00     0.240 C 
HETATM    4  C4  UNL     1     -35.483  14.019  -4.094  1.00 20.00     0.027 C 
HETATM    5  N8  UNL     1     -35.907  15.735  -2.505  1.00 20.00    -0.068 N 
HETATM    6  H24 UNL     1     -36.146  15.217  -1.649  1.00 20.00     0.280 HD
ENDROOT
BRANCH   5   7
HETATM    7  C6  UNL     1     -35.554  17.127  -2.091  1.00 20.00     0.266 C 
BRANCH   7   8
HETATM    8  C7  UNL     1     -34.398  17.076  -1.119  1.00 20.00     0.249 C 
HETATM    9  F9  UNL     1     -34.823  16.531   0.053  1.00 20.00    -0.254 F 
ENDBRANCH   7   8
ENDBRANCH   5   7
BRANCH   4  10
HETATM   10  C5  UNL     1     -34.578  13.458  -5.178  1.00 20.00     0.121 C 
HETATM   11 CL10 UNL     1     -34.623  14.495  -6.618  1.00 20.00    -0.130 Cl
ENDBRANCH   4  10
TORSDOF 3
ENDMDL
MODEL 7
REMARK VINA RESULT:      -3.5      3.191      4.344
REMARK  3 active torsions:
REMARK  status: ('A' for Active; 'I' for Inactive)
REMARK    1  A    between atoms: C4_4  and  C5_5 
REMARK    2  A    between atoms: C6_6  and  C7_7 
REMARK    3  A    between atoms: C6_6  and  N8_8 
ROOT
HETATM    1  C1  UNL     1     -35.246  14.323  -6.069  1.00 20.00     0.035 C 
HETATM    2  C2  UNL     1     -34.352  13.890  -4.920  1.00 20.00     0.235 C 
HETATM    3  C3  UNL     1     -33.701  16.089  -5.769  1.00 20.00     0.240 C 
HETATM    4  C4  UNL     1     -34.376  15.283  -6.866  1.00 20.00     0.027 C 
HETATM    5  N8  UNL     1     -33.387  15.044  -4.718  1.00 20.00    -0.068 N 
HETATM    6  H24 UNL     1     -32.445  14.684  -4.925  1.00 20.00     0.280 HD
ENDROOT
BRANCH   5   7
HETATM    7  C6  UNL     1     -33.354  15.583  -3.325  1.00 20.00     0.266 C 
BRANCH   7   8
HETATM    8  C7  UNL     1     -34.738  15.488  -2.725  1.00 20.00     0.249 C 
HETATM    9  F9  UNL     1     -34.682  15.842  -1.413  1.00 20.00    -0.254 F 
ENDBRANCH   7   8
ENDBRANCH   5   7
BRANCH   4  10
HETATM   10  C5  UNL     1     -35.165  16.146  -7.835  1.00 20.00     0.121 C 
HETATM   11 CL10 UNL     1     -34.469  17.777  -7.918  1.00 20.00    -0.130 Cl
ENDBRANCH   4  10
TORSDOF 3
ENDMDL
MODEL 8
REMARK VINA RESULT:      -3.5      2.148      2.926
REMARK  3 active torsions:
REMARK  status: ('A' for Active; 'I' for Inactive)
REMARK    1  A    between atoms: C4_4  and  C5_5 
REMARK    2  A    between atoms: C6_6  and  C7_7 
REMARK    3  A    between atoms: C6_6  and  N8_8 
ROOT
HETATM    1  C1  UNL     1     -34.734  16.279  -1.555  1.00 20.00     0.035 C 
HETATM    2  C2  UNL     1     -35.318  15.497  -2.719  1.00 20.00     0.235 C 
HETATM    3  C3  UNL     1     -33.739  17.195  -3.495  1.00 20.00     0.240 C 
HETATM    4  C4  UNL     1     -34.351  17.617  -2.170  1.00 20.00     0.027 C 
HETATM    5  N8  UNL     1     -34.648  16.073  -3.953  1.00 20.00    -0.068 N 
HETATM    6  H24 UNL     1     -35.392  16.502  -4.522  1.00 20.00     0.280 HD
ENDROOT
BRANCH   5   7
HETATM    7  C6  UNL     1     -33.967  15.060  -4.815  1.00 20.00     0.266 C 
BRANCH   7   8
HETATM    8  C7  UNL     1     -34.021  13.713  -4.131  1.00 20.00     0.249 C 
HETATM    9  F9  UNL     1     -32.788  13.407  -3.648  1.00 20.00    -0.254 F 
ENDBRANCH   7   8
ENDBRANCH   5   7
BRANCH   4  10
HETATM   10  C5  UNL     1     -33.397  18.423  -1.307  1.00 20.00     0.121 C 
HETATM   11 CL10 UNL     1     -33.749  18.163   0.414  1.00 20.00    -0.130 Cl
ENDBRANCH   4  10
TORSDOF 3
ENDMDL
MODEL 9
REMARK VINA RESULT:      -3.4      3.153      4.342
REMARK  3 active torsions:
REMARK  status: ('A' for Active; 'I' for Inactive)
REMARK    1  A    between atoms: C4_4  and  C5_5 
REMARK    2  A    between atoms: C6_6  and  C7_7 
REMARK    3  A    between atoms: C6_6  and  N8_8 
ROOT
HETATM    1  C1  UNL     1     -33.291  16.326  -4.932  1.00 20.00     0.035 C 
HETATM    2  C2  UNL     1     -33.715  17.683  -4.395  1.00 20.00     0.235 C 
HETATM    3  C3  UNL     1     -35.267  15.928  -3.693  1.00 20.00     0.240 C 
HETATM    4  C4  UNL     1     -34.591  15.538  -4.997  1.00 20.00     0.027 C 
HETATM    5  N8  UNL     1     -34.964  17.408  -3.578  1.00 20.00    -0.068 N 
HETATM    6  H24 UNL     1     -35.736  17.909  -4.037  1.00 20.00     0.280 HD
ENDROOT
BRANCH   5   7
HETATM    7  C6  UNL     1     -34.899  17.900  -2.168  1.00 20.00     0.266 C 
BRANCH   7   8
HETATM    8  C7  UNL     1     -34.004  16.985  -1.365  1.00 20.00     0.249 C 
HETATM    9  F9  UNL     1     -34.758  16.300  -0.464  1.00 20.00    -0.254 F 
ENDBRANCH   7   8
ENDBRANCH   5   7
BRANCH   4  10
HETATM   10  C5  UNL     1     -34.379  14.040  -5.129  1.00 20.00     0.121 C 
HETATM   11 CL10 UNL     1     -33.338  13.445  -3.820  1.00 20.00    -0.130 Cl
ENDBRANCH   4  10
TORSDOF 3
ENDMDL
