MODEL 1
REMARK VINA RESULT:      -5.2      0.000      0.000
REMARK  4 active torsions:
REMARK  status: ('A' for Active; 'I' for Inactive)
REMARK    1  A    between atoms: C2_2  and  C8_8 
REMARK    2  A    between atoms: C6_6  and  C9_9 
REMARK    3  A    between atoms: C8_8  and  C9_9 
REMARK    4  A    between atoms: C9_9  and  O10_10 
ROOT
HETATM    1  C1  UNL     1     -32.199   8.700   1.451  1.00 20.00    -0.111 C 
HETATM    2  C2  UNL     1     -32.031   8.043   2.443  1.00 20.00    -0.104 C 
HETATM    3  C7  UNL     1     -32.405   9.500   0.245  1.00 20.00     0.112 C 
ENDROOT
BRANCH   2   4
HETATM    4  C8  UNL     1     -31.823   7.239   3.657  1.00 20.00     0.126 C 
BRANCH   4   5
HETATM    5  C9  UNL     1     -32.748   6.021   3.685  1.00 20.00     0.143 C 
BRANCH   5   6
HETATM    6  C6  UNL     1     -34.100   6.371   4.298  1.00 20.00     0.077 C 
HETATM    7  C4  UNL     1     -35.196   5.370   3.935  1.00 20.00     0.018 C 
HETATM    8  C3  UNL     1     -35.086   4.202   4.905  1.00 20.00     0.011 C 
HETATM    9  C5  UNL     1     -35.006   4.802   6.298  1.00 20.00     0.074 C 
HETATM   10  S11 UNL     1     -33.994   6.296   6.117  1.00 20.00    -0.162 SA
ENDBRANCH   5   6
BRANCH   5  11
HETATM   11  O10 UNL     1     -32.961   5.575   2.346  1.00 20.00    -0.394 OA
HETATM   12  H25 UNL     1     -33.587   6.198   1.945  1.00 20.00     0.210 HD
ENDBRANCH   5  11
ENDBRANCH   4   5
ENDBRANCH   2   4
TORSDOF 4
ENDMDL
MODEL 2
REMARK VINA RESULT:      -4.8     11.235     11.916
REMARK  4 active torsions:
REMARK  status: ('A' for Active; 'I' for Inactive)
REMARK    1  A    between atoms: C2_2  and  C8_8 
REMARK    2  A    between atoms: C6_6  and  C9_9 
REMARK    3  A    between atoms: C8_8  and  C9_9 
REMARK    4  A    between atoms: C9_9  and  O10_10 
ROOT
HETATM    1  C1  UNL     1     -34.459  16.939  -0.932  1.00 20.00    -0.111 C 
HETATM    2  C2  UNL     1     -34.060  16.668  -2.032  1.00 20.00    -0.104 C 
HETATM    3  C7  UNL     1     -34.945  17.268   0.408  1.00 20.00     0.112 C 
ENDROOT
BRANCH   2   4
HETATM    4  C8  UNL     1     -33.571  16.338  -3.380  1.00 20.00     0.126 C 
BRANCH   4   5
HETATM    5  C9  UNL     1     -33.319  14.837  -3.530  1.00 20.00     0.143 C 
BRANCH   5   6
HETATM    6  C6  UNL     1     -34.066  14.271  -4.733  1.00 20.00     0.077 C 
HETATM    7  C4  UNL     1     -35.245  13.384  -4.338  1.00 20.00     0.018 C 
HETATM    8  C3  UNL     1     -36.432  14.297  -4.062  1.00 20.00     0.011 C 
HETATM    9  C5  UNL     1     -36.530  15.248  -5.242  1.00 20.00     0.074 C 
HETATM   10  S11 UNL     1     -34.816  15.629  -5.693  1.00 20.00    -0.162 SA
ENDBRANCH   5   6
BRANCH   5  11
HETATM   11  O10 UNL     1     -31.921  14.623  -3.724  1.00 20.00    -0.394 OA
HETATM   12  H25 UNL     1     -31.810  13.676  -3.902  1.00 20.00     0.210 HD
ENDBRANCH   5  11
ENDBRANCH   4   5
ENDBRANCH   2   4
TORSDOF 4
ENDMDL
MODEL 3
REMARK VINA RESULT:      -4.7     11.358     12.561
REMARK  4 active torsions:
REMARK  status: ('A' for Active; 'I' for Inactive)
REMARK    1  A    between atoms: C2_2  and  C8_8 
REMARK    2  A    between atoms: C6_6  and  C9_9 
REMARK    3  A    between atoms: C8_8  and  C9_9 
REMARK    4  A    between atoms: C9_9  and  O10_10 
ROOT
HETATM    1  C1  UNL     1     -34.539  16.275  -1.513  1.00 20.00    -0.111 C 
HETATM    2  C2  UNL     1     -34.319  15.578  -2.467  1.00 20.00    -0.104 C 
HETATM    3  C7  UNL     1     -34.807  17.122  -0.352  1.00 20.00     0.112 C 
ENDROOT
BRANCH   2   4
HETATM    4  C8  UNL     1     -34.049  14.726  -3.636  1.00 20.00     0.126 C 
BRANCH   4   5
HETATM    5  C9  UNL     1     -35.327  14.058  -4.147  1.00 20.00     0.143 C 
BRANCH   5   6
HETATM    6  C6  UNL     1     -35.640  14.490  -5.575  1.00 20.00     0.077 C 
HETATM    7  C4  UNL     1     -36.924  15.311  -5.682  1.00 20.00     0.018 C 
HETATM    8  C3  UNL     1     -36.574  16.754  -5.348  1.00 20.00     0.011 C 
HETATM    9  C5  UNL     1     -35.352  17.105  -6.178  1.00 20.00     0.074 C 
HETATM   10  S11 UNL     1     -34.333  15.605  -6.187  1.00 20.00    -0.162 SA
ENDBRANCH   5   6
BRANCH   5  11
HETATM   11  O10 UNL     1     -35.144  12.643  -4.132  1.00 20.00    -0.394 OA
HETATM   12  H25 UNL     1     -35.560  12.321  -3.317  1.00 20.00     0.210 HD
ENDBRANCH   5  11
ENDBRANCH   4   5
ENDBRANCH   2   4
TORSDOF 4
ENDMDL
MODEL 4
REMARK VINA RESULT:      -4.5     10.974     11.936
REMARK  4 active torsions:
REMARK  status: ('A' for Active; 'I' for Inactive)
REMARK    1  A    between atoms: C2_2  and  C8_8 
REMARK    2  A    between atoms: C6_6  and  C9_9 
REMARK    3  A    between atoms: C8_8  and  C9_9 
REMARK    4  A    between atoms: C9_9  and  O10_10 
ROOT
HETATM    1  C1  UNL     1     -35.010  17.288   0.458  1.00 20.00    -0.111 C 
HETATM    2  C2  UNL     1     -34.585  16.917  -0.603  1.00 20.00    -0.104 C 
HETATM    3  C7  UNL     1     -35.526  17.741   1.749  1.00 20.00     0.112 C 
ENDROOT
BRANCH   2   4
HETATM    4  C8  UNL     1     -34.067  16.462  -1.902  1.00 20.00     0.126 C 
BRANCH   4   5
HETATM    5  C9  UNL     1     -35.165  16.453  -2.968  1.00 20.00     0.143 C 
BRANCH   5   6
HETATM    6  C6  UNL     1     -34.627  15.960  -4.307  1.00 20.00     0.077 C 
HETATM    7  C4  UNL     1     -33.309  15.199  -4.175  1.00 20.00     0.018 C 
HETATM    8  C3  UNL     1     -33.646  13.760  -3.809  1.00 20.00     0.011 C 
HETATM    9  C5  UNL     1     -34.717  13.305  -4.785  1.00 20.00     0.074 C 
HETATM   10  S11 UNL     1     -35.783  14.751  -5.033  1.00 20.00    -0.162 SA
ENDBRANCH   5   6
BRANCH   5  11
HETATM   11  O10 UNL     1     -36.207  15.573  -2.547  1.00 20.00    -0.394 OA
HETATM   12  H25 UNL     1     -37.033  16.078  -2.606  1.00 20.00     0.210 HD
ENDBRANCH   5  11
ENDBRANCH   4   5
ENDBRANCH   2   4
TORSDOF 4
ENDMDL
MODEL 5
REMARK VINA RESULT:      -4.3     11.488     12.680
REMARK  4 active torsions:
REMARK  status: ('A' for Active; 'I' for Inactive)
REMARK    1  A    between atoms: C2_2  and  C8_8 
REMARK    2  A    between atoms: C6_6  and  C9_9 
REMARK    3  A    between atoms: C8_8  and  C9_9 
REMARK    4  A    between atoms: C9_9  and  O10_10 
ROOT
HETATM    1  C1  UNL     1     -34.677  16.761  -0.815  1.00 20.00    -0.111 C 
HETATM    2  C2  UNL     1     -34.776  16.100  -1.813  1.00 20.00    -0.104 C 
HETATM    3  C7  UNL     1     -34.557  17.565   0.401  1.00 20.00     0.112 C 
ENDROOT
BRANCH   2   4
HETATM    4  C8  UNL     1     -34.896  15.290  -3.036  1.00 20.00     0.126 C 
BRANCH   4   5
HETATM    5  C9  UNL     1     -36.247  15.508  -3.719  1.00 20.00     0.143 C 
BRANCH   5   6
HETATM    6  C6  UNL     1     -36.338  14.721  -5.022  1.00 20.00     0.077 C 
HETATM    7  C4  UNL     1     -36.650  15.603  -6.230  1.00 20.00     0.018 C 
HETATM    8  C3  UNL     1     -35.336  16.201  -6.711  1.00 20.00     0.011 C 
HETATM    9  C5  UNL     1     -34.350  15.050  -6.818  1.00 20.00     0.074 C 
HETATM   10  S11 UNL     1     -34.721  13.972  -5.408  1.00 20.00    -0.162 SA
ENDBRANCH   5   6
BRANCH   5  11
HETATM   11  O10 UNL     1     -37.282  15.058  -2.845  1.00 20.00    -0.394 OA
HETATM   12  H25 UNL     1     -37.156  15.527  -2.006  1.00 20.00     0.210 HD
ENDBRANCH   5  11
ENDBRANCH   4   5
ENDBRANCH   2   4
TORSDOF 4
ENDMDL
MODEL 6
REMARK VINA RESULT:      -4.3     11.383     12.840
REMARK  4 active torsions:
REMARK  status: ('A' for Active; 'I' for Inactive)
REMARK    1  A    between atoms: C2_2  and  C8_8 
REMARK    2  A    between atoms: C6_6  and  C9_9 
REMARK    3  A    between atoms: C8_8  and  C9_9 
REMARK    4  A    between atoms: C9_9  and  O10_10 
ROOT
HETATM    1  C1  UNL     1     -34.058  16.775  -1.534  1.00 20.00    -0.111 C 
HETATM    2  C2  UNL     1     -34.369  15.871  -2.262  1.00 20.00    -0.104 C 
HETATM    3  C7  UNL     1     -33.681  17.875  -0.647  1.00 20.00     0.112 C 
ENDROOT
BRANCH   2   4
HETATM    4  C8  UNL     1     -34.747  14.764  -3.154  1.00 20.00     0.126 C 
BRANCH   4   5
HETATM    5  C9  UNL     1     -33.981  14.828  -4.477  1.00 20.00     0.143 C 
BRANCH   5   6
HETATM    6  C6  UNL     1     -34.596  15.856  -5.420  1.00 20.00     0.077 C 
HETATM    7  C4  UNL     1     -34.201  15.637  -6.879  1.00 20.00     0.018 C 
HETATM    8  C3  UNL     1     -35.140  14.585  -7.454  1.00 20.00     0.011 C 
HETATM    9  C5  UNL     1     -36.549  15.013  -7.081  1.00 20.00     0.074 C 
HETATM   10  S11 UNL     1     -36.413  15.700  -5.409  1.00 20.00    -0.162 SA
ENDBRANCH   5   6
BRANCH   5  11
HETATM   11  O10 UNL     1     -32.632  15.209  -4.209  1.00 20.00    -0.394 OA
HETATM   12  H25 UNL     1     -32.103  14.397  -4.249  1.00 20.00     0.210 HD
ENDBRANCH   5  11
ENDBRANCH   4   5
ENDBRANCH   2   4
TORSDOF 4
ENDMDL
MODEL 7
REMARK VINA RESULT:      -4.0     11.556     13.023
REMARK  4 active torsions:
REMARK  status: ('A' for Active; 'I' for Inactive)
REMARK    1  A    between atoms: C2_2  and  C8_8 
REMARK    2  A    between atoms: C6_6  and  C9_9 
REMARK    3  A    between atoms: C8_8  and  C9_9 
REMARK    4  A    between atoms: C9_9  and  O10_10 
ROOT
HETATM    1  C1  UNL     1     -38.826  14.840  -4.134  1.00 20.00    -0.111 C 
HETATM    2  C2  UNL     1     -37.641  14.791  -3.942  1.00 20.00    -0.104 C 
HETATM    3  C7  UNL     1     -40.268  14.900  -4.366  1.00 20.00     0.112 C 
ENDROOT
BRANCH   2   4
HETATM    4  C8  UNL     1     -36.189  14.731  -3.709  1.00 20.00     0.126 C 
BRANCH   4   5
HETATM    5  C9  UNL     1     -35.496  13.837  -4.739  1.00 20.00     0.143 C 
BRANCH   5   6
HETATM    6  C6  UNL     1     -34.263  14.521  -5.319  1.00 20.00     0.077 C 
HETATM    7  C4  UNL     1     -34.425  14.893  -6.792  1.00 20.00     0.018 C 
HETATM    8  C3  UNL     1     -35.160  16.224  -6.849  1.00 20.00     0.011 C 
HETATM    9  C5  UNL     1     -34.447  17.154  -5.883  1.00 20.00     0.074 C 
HETATM   10  S11 UNL     1     -33.980  16.113  -4.474  1.00 20.00    -0.162 SA
ENDBRANCH   5   6
BRANCH   5  11
HETATM   11  O10 UNL     1     -35.084  12.631  -4.098  1.00 20.00    -0.394 OA
HETATM   12  H25 UNL     1     -35.879  12.249  -3.694  1.00 20.00     0.210 HD
ENDBRANCH   5  11
ENDBRANCH   4   5
ENDBRANCH   2   4
TORSDOF 4
ENDMDL
MODEL 8
REMARK VINA RESULT:      -4.0     10.907     12.510
REMARK  4 active torsions:
REMARK  status: ('A' for Active; 'I' for Inactive)
REMARK    1  A    between atoms: C2_2  and  C8_8 
REMARK    2  A    between atoms: C6_6  and  C9_9 
REMARK    3  A    between atoms: C8_8  and  C9_9 
REMARK    4  A    between atoms: C9_9  and  O10_10 
ROOT
HETATM    1  C1  UNL     1     -37.674  15.623  -6.177  1.00 20.00    -0.111 C 
HETATM    2  C2  UNL     1     -37.186  15.148  -5.187  1.00 20.00    -0.104 C 
HETATM    3  C7  UNL     1     -38.266  16.200  -7.383  1.00 20.00     0.112 C 
ENDROOT
BRANCH   2   4
HETATM    4  C8  UNL     1     -36.591  14.567  -3.973  1.00 20.00     0.126 C 
BRANCH   4   5
HETATM    5  C9  UNL     1     -35.182  14.035  -4.242  1.00 20.00     0.143 C 
BRANCH   5   6
HETATM    6  C6  UNL     1     -34.173  14.635  -3.270  1.00 20.00     0.077 C 
HETATM    7  C4  UNL     1     -32.985  15.288  -3.973  1.00 20.00     0.018 C 
HETATM    8  C3  UNL     1     -33.405  16.697  -4.367  1.00 20.00     0.011 C 
HETATM    9  C5  UNL     1     -34.024  17.326  -3.131  1.00 20.00     0.074 C 
HETATM   10  S11 UNL     1     -34.948  15.990  -2.327  1.00 20.00    -0.162 SA
ENDBRANCH   5   6
BRANCH   5  11
HETATM   11  O10 UNL     1     -35.187  12.618  -4.073  1.00 20.00    -0.394 OA
HETATM   12  H25 UNL     1     -35.330  12.454  -3.128  1.00 20.00     0.210 HD
ENDBRANCH   5  11
ENDBRANCH   4   5
ENDBRANCH   2   4
TORSDOF 4
ENDMDL
MODEL 9
REMARK VINA RESULT:      -3.9     11.721     13.663
REMARK  4 active torsions:
REMARK  status: ('A' for Active; 'I' for Inactive)
REMARK    1  A    between atoms: C2_2  and  C8_8 
REMARK    2  A    between atoms: C6_6  and  C9_9 
REMARK    3  A    between atoms: C8_8  and  C9_9 
REMARK    4  A    between atoms: C9_9  and  O10_10 
ROOT
HETATM    1  C1  UNL     1     -34.635  16.533  -1.036  1.00 20.00    -0.111 C 
HETATM    2  C2  UNL     1     -34.408  15.875  -2.014  1.00 20.00    -0.104 C 
HETATM    3  C7  UNL     1     -34.914  17.335   0.155  1.00 20.00     0.112 C 
ENDROOT
BRANCH   2   4
HETATM    4  C8  UNL     1     -34.127  15.068  -3.213  1.00 20.00     0.126 C 
BRANCH   4   5
HETATM    5  C9  UNL     1     -33.955  15.951  -4.451  1.00 20.00     0.143 C 
BRANCH   5   6
HETATM    6  C6  UNL     1     -34.386  17.385  -4.167  1.00 20.00     0.077 C 
HETATM    7  C4  UNL     1     -33.447  18.422  -4.781  1.00 20.00     0.018 C 
HETATM    8  C3  UNL     1     -33.861  18.611  -6.234  1.00 20.00     0.011 C 
HETATM    9  C5  UNL     1     -35.365  18.824  -6.230  1.00 20.00     0.074 C 
HETATM   10  S11 UNL     1     -36.002  17.714  -4.946  1.00 20.00    -0.162 SA
ENDBRANCH   5   6
BRANCH   5  11
HETATM   11  O10 UNL     1     -32.577  15.957  -4.823  1.00 20.00    -0.394 OA
HETATM   12  H25 UNL     1     -32.349  15.042  -5.050  1.00 20.00     0.210 HD
ENDBRANCH   5  11
ENDBRANCH   4   5
ENDBRANCH   2   4
TORSDOF 4
ENDMDL
