MODEL 1
REMARK VINA RESULT:      -4.2      0.000      0.000
REMARK  0 active torsions:
REMARK  status: ('A' for Active; 'I' for Inactive)
ROOT
HETATM    1  C1  UNL     1     -42.579   7.705  -0.856  1.00 20.00     0.064 C 
HETATM    2  C2  UNL     1     -40.797   6.066  -0.300  1.00 20.00     0.020 C 
HETATM    3  C3  UNL     1     -40.680   4.639  -0.822  1.00 20.00     0.010 C 
HETATM    4  C4  UNL     1     -42.076   5.799  -2.381  1.00 20.00     0.027 C 
HETATM    5  C5  UNL     1     -41.518   6.849  -1.406  1.00 20.00     0.093 C 
HETATM    6  C6  UNL     1     -41.942   4.438  -1.672  1.00 20.00    -0.046 C 
HETATM    7  C7  UNL     1     -41.763   3.296  -2.677  1.00 20.00     0.015 C 
HETATM    8  C8  UNL     1     -43.170   4.143  -0.795  1.00 20.00     0.015 C 
HETATM    9  N9  UNL     1     -43.417   8.380  -0.421  1.00 20.00    -0.197 NA
ENDROOT
TORSDOF 0
ENDMDL
MODEL 2
REMARK VINA RESULT:      -4.2     11.612     12.646
REMARK  0 active torsions:
REMARK  status: ('A' for Active; 'I' for Inactive)
ROOT
HETATM    1  C1  UNL     1     -35.178  14.574  -6.820  1.00 20.00     0.064 C 
HETATM    2  C2  UNL     1     -34.518  13.235  -4.835  1.00 20.00     0.020 C 
HETATM    3  C3  UNL     1     -34.231  13.765  -3.435  1.00 20.00     0.010 C 
HETATM    4  C4  UNL     1     -35.563  15.434  -4.512  1.00 20.00     0.027 C 
HETATM    5  C5  UNL     1     -35.536  14.209  -5.441  1.00 20.00     0.093 C 
HETATM    6  C6  UNL     1     -34.352  15.288  -3.571  1.00 20.00    -0.046 C 
HETATM    7  C7  UNL     1     -34.612  15.951  -2.215  1.00 20.00     0.015 C 
HETATM    8  C8  UNL     1     -33.086  15.901  -4.193  1.00 20.00     0.015 C 
HETATM    9  N9  UNL     1     -34.894  14.862  -7.908  1.00 20.00    -0.197 NA
ENDROOT
TORSDOF 0
ENDMDL
MODEL 3
REMARK VINA RESULT:      -4.2     11.612     12.465
REMARK  0 active torsions:
REMARK  status: ('A' for Active; 'I' for Inactive)
ROOT
HETATM    1  C1  UNL     1     -33.730  15.998  -2.669  1.00 20.00     0.064 C 
HETATM    2  C2  UNL     1     -33.827  13.689  -3.578  1.00 20.00     0.020 C 
HETATM    3  C3  UNL     1     -34.418  13.263  -4.918  1.00 20.00     0.010 C 
HETATM    4  C4  UNL     1     -33.937  15.598  -5.121  1.00 20.00     0.027 C 
HETATM    5  C5  UNL     1     -33.335  15.127  -3.786  1.00 20.00     0.093 C 
HETATM    6  C6  UNL     1     -35.003  14.554  -5.505  1.00 20.00    -0.046 C 
HETATM    7  C7  UNL     1     -35.168  14.453  -7.024  1.00 20.00     0.015 C 
HETATM    8  C8  UNL     1     -36.365  14.892  -4.876  1.00 20.00     0.015 C 
HETATM    9  N9  UNL     1     -34.042  16.685  -1.787  1.00 20.00    -0.197 NA
ENDROOT
TORSDOF 0
ENDMDL
MODEL 4
REMARK VINA RESULT:      -4.2     10.823     12.168
REMARK  0 active torsions:
REMARK  status: ('A' for Active; 'I' for Inactive)
ROOT
HETATM    1  C1  UNL     1     -37.215  14.470  -4.108  1.00 20.00     0.064 C 
HETATM    2  C2  UNL     1     -35.502  15.803  -5.315  1.00 20.00     0.020 C 
HETATM    3  C3  UNL     1     -34.017  15.891  -4.980  1.00 20.00     0.010 C 
HETATM    4  C4  UNL     1     -34.800  13.866  -3.975  1.00 20.00     0.027 C 
HETATM    5  C5  UNL     1     -35.945  14.411  -4.846  1.00 20.00     0.093 C 
HETATM    6  C6  UNL     1     -33.863  15.058  -3.701  1.00 20.00    -0.046 C 
HETATM    7  C7  UNL     1     -32.415  14.599  -3.504  1.00 20.00     0.015 C 
HETATM    8  C8  UNL     1     -34.312  15.845  -2.459  1.00 20.00     0.015 C 
HETATM    9  N9  UNL     1     -38.218  14.518  -3.524  1.00 20.00    -0.197 NA
ENDROOT
TORSDOF 0
ENDMDL
MODEL 5
REMARK VINA RESULT:      -4.1     12.090     13.550
REMARK  0 active torsions:
REMARK  status: ('A' for Active; 'I' for Inactive)
ROOT
HETATM    1  C1  UNL     1     -34.233  13.797  -4.128  1.00 20.00     0.064 C 
HETATM    2  C2  UNL     1     -33.448  15.948  -5.092  1.00 20.00     0.020 C 
HETATM    3  C3  UNL     1     -33.609  17.333  -4.475  1.00 20.00     0.010 C 
HETATM    4  C4  UNL     1     -33.825  15.778  -2.670  1.00 20.00     0.027 C 
HETATM    5  C5  UNL     1     -33.383  14.976  -3.906  1.00 20.00     0.093 C 
HETATM    6  C6  UNL     1     -34.429  17.092  -3.201  1.00 20.00    -0.046 C 
HETATM    7  C7  UNL     1     -34.255  18.235  -2.199  1.00 20.00     0.015 C 
HETATM    8  C8  UNL     1     -35.925  16.928  -3.518  1.00 20.00     0.015 C 
HETATM    9  N9  UNL     1     -34.904  12.867  -4.304  1.00 20.00    -0.197 NA
ENDROOT
TORSDOF 0
ENDMDL
MODEL 6
REMARK VINA RESULT:      -4.0     11.827     13.263
REMARK  0 active torsions:
REMARK  status: ('A' for Active; 'I' for Inactive)
ROOT
HETATM    1  C1  UNL     1     -35.155  13.734  -4.117  1.00 20.00     0.064 C 
HETATM    2  C2  UNL     1     -34.423  15.526  -2.561  1.00 20.00     0.020 C 
HETATM    3  C3  UNL     1     -34.242  17.003  -2.896  1.00 20.00     0.010 C 
HETATM    4  C4  UNL     1     -35.708  16.122  -4.569  1.00 20.00     0.027 C 
HETATM    5  C5  UNL     1     -35.519  15.023  -3.510  1.00 20.00     0.093 C 
HETATM    6  C6  UNL     1     -34.522  17.091  -4.402  1.00 20.00    -0.046 C 
HETATM    7  C7  UNL     1     -34.896  18.515  -4.818  1.00 20.00     0.015 C 
HETATM    8  C8  UNL     1     -33.308  16.632  -5.227  1.00 20.00     0.015 C 
HETATM    9  N9  UNL     1     -34.867  12.717  -4.597  1.00 20.00    -0.197 NA
ENDROOT
TORSDOF 0
ENDMDL
MODEL 7
REMARK VINA RESULT:      -4.0     12.325     13.268
REMARK  0 active torsions:
REMARK  status: ('A' for Active; 'I' for Inactive)
ROOT
HETATM    1  C1  UNL     1     -34.511  14.542  -5.451  1.00 20.00     0.064 C 
HETATM    2  C2  UNL     1     -33.537  16.677  -4.637  1.00 20.00     0.020 C 
HETATM    3  C3  UNL     1     -33.736  17.300  -3.260  1.00 20.00     0.010 C 
HETATM    4  C4  UNL     1     -34.241  14.975  -3.011  1.00 20.00     0.027 C 
HETATM    5  C5  UNL     1     -33.662  15.163  -4.424  1.00 20.00     0.093 C 
HETATM    6  C6  UNL     1     -34.728  16.364  -2.556  1.00 20.00    -0.046 C 
HETATM    7  C7  UNL     1     -34.655  16.514  -1.035  1.00 20.00     0.015 C 
HETATM    8  C8  UNL     1     -36.172  16.626  -3.015  1.00 20.00     0.015 C 
HETATM    9  N9  UNL     1     -35.181  14.052  -6.263  1.00 20.00    -0.197 NA
ENDROOT
TORSDOF 0
ENDMDL
MODEL 8
REMARK VINA RESULT:      -3.9     11.603     12.950
REMARK  0 active torsions:
REMARK  status: ('A' for Active; 'I' for Inactive)
ROOT
HETATM    1  C1  UNL     1     -36.876  14.935  -3.547  1.00 20.00     0.064 C 
HETATM    2  C2  UNL     1     -34.429  14.973  -3.126  1.00 20.00     0.020 C 
HETATM    3  C3  UNL     1     -33.391  15.803  -3.872  1.00 20.00     0.010 C 
HETATM    4  C4  UNL     1     -35.491  16.889  -4.239  1.00 20.00     0.027 C 
HETATM    5  C5  UNL     1     -35.729  15.785  -3.195  1.00 20.00     0.093 C 
HETATM    6  C6  UNL     1     -34.189  16.514  -4.973  1.00 20.00    -0.046 C 
HETATM    7  C7  UNL     1     -33.454  17.757  -5.482  1.00 20.00     0.015 C 
HETATM    8  C8  UNL     1     -34.468  15.577  -6.160  1.00 20.00     0.015 C 
HETATM    9  N9  UNL     1     -37.782  14.264  -3.826  1.00 20.00    -0.197 NA
ENDROOT
TORSDOF 0
ENDMDL
MODEL 9
REMARK VINA RESULT:      -3.9     11.963     13.335
REMARK  0 active torsions:
REMARK  status: ('A' for Active; 'I' for Inactive)
ROOT
HETATM    1  C1  UNL     1     -34.220  13.578  -4.587  1.00 20.00     0.064 C 
HETATM    2  C2  UNL     1     -36.076  15.195  -4.920  1.00 20.00     0.020 C 
HETATM    3  C3  UNL     1     -36.087  16.383  -5.875  1.00 20.00     0.010 C 
HETATM    4  C4  UNL     1     -34.411  14.889  -6.700  1.00 20.00     0.027 C 
HETATM    5  C5  UNL     1     -35.151  14.156  -5.568  1.00 20.00     0.093 C 
HETATM    6  C6  UNL     1     -34.682  16.391  -6.492  1.00 20.00    -0.046 C 
HETATM    7  C7  UNL     1     -34.658  17.155  -7.818  1.00 20.00     0.015 C 
HETATM    8  C8  UNL     1     -33.652  17.016  -5.536  1.00 20.00     0.015 C 
HETATM    9  N9  UNL     1     -33.485  13.122  -3.813  1.00 20.00    -0.197 NA
ENDROOT
TORSDOF 0
ENDMDL
