MODEL 1
REMARK VINA RESULT:      -4.3      0.000      0.000
REMARK  1 active torsions:
REMARK  status: ('A' for Active; 'I' for Inactive)
REMARK    1  A    between atoms: C4_4  and  C8_8 
ROOT
HETATM    1  C1  UNL     1     -34.670   5.503   2.788  1.00 20.00     0.006 C 
HETATM    2  C2  UNL     1     -35.327   5.900   4.103  1.00 20.00     0.009 C 
HETATM    3  C3  UNL     1     -32.959   5.367   4.482  1.00 20.00     0.014 C 
HETATM    4  C4  UNL     1     -33.187   5.777   3.021  1.00 20.00     0.000 C 
HETATM    5  C5  UNL     1     -34.337   5.435   5.189  1.00 20.00    -0.047 C 
HETATM    6  C6  UNL     1     -34.313   6.423   6.360  1.00 20.00     0.015 C 
HETATM    7  C7  UNL     1     -34.733   4.046   5.714  1.00 20.00     0.015 C 
ENDROOT
BRANCH   4   8
HETATM    8  C8  UNL     1     -32.824   7.242   2.780  1.00 20.00     0.119 C 
HETATM    9 CL9  UNL     1     -31.368   7.677   3.697  1.00 20.00    -0.130 Cl
ENDBRANCH   4   8
TORSDOF 1
ENDMDL
MODEL 2
REMARK VINA RESULT:      -4.1      1.736      3.492
REMARK  1 active torsions:
REMARK  status: ('A' for Active; 'I' for Inactive)
REMARK    1  A    between atoms: C4_4  and  C8_8 
ROOT
HETATM    1  C1  UNL     1     -33.729   5.241   2.746  1.00 20.00     0.006 C 
HETATM    2  C2  UNL     1     -32.285   5.703   2.881  1.00 20.00     0.009 C 
HETATM    3  C3  UNL     1     -33.793   7.387   3.845  1.00 20.00     0.014 C 
HETATM    4  C4  UNL     1     -34.464   6.007   3.842  1.00 20.00     0.000 C 
HETATM    5  C5  UNL     1     -32.387   7.204   3.219  1.00 20.00    -0.047 C 
HETATM    6  C6  UNL     1     -31.283   7.615   4.198  1.00 20.00     0.015 C 
HETATM    7  C7  UNL     1     -32.261   8.049   1.941  1.00 20.00     0.015 C 
ENDROOT
BRANCH   4   8
HETATM    8  C8  UNL     1     -34.353   5.319   5.203  1.00 20.00     0.119 C 
HETATM    9 CL9  UNL     1     -34.026   6.515   6.474  1.00 20.00    -0.130 Cl
ENDBRANCH   4   8
TORSDOF 1
ENDMDL
MODEL 3
REMARK VINA RESULT:      -4.1     11.569     12.607
REMARK  1 active torsions:
REMARK  status: ('A' for Active; 'I' for Inactive)
REMARK    1  A    between atoms: C4_4  and  C8_8 
ROOT
HETATM    1  C1  UNL     1     -33.327  16.165  -4.645  1.00 20.00     0.006 C 
HETATM    2  C2  UNL     1     -34.716  15.801  -5.150  1.00 20.00     0.009 C 
HETATM    3  C3  UNL     1     -34.273  14.646  -3.028  1.00 20.00     0.014 C 
HETATM    4  C4  UNL     1     -33.404  15.905  -3.143  1.00 20.00     0.000 C 
HETATM    5  C5  UNL     1     -35.119  14.564  -4.324  1.00 20.00    -0.047 C 
HETATM    6  C6  UNL     1     -36.619  14.586  -4.011  1.00 20.00     0.015 C 
HETATM    7  C7  UNL     1     -34.789  13.276  -5.093  1.00 20.00     0.015 C 
ENDROOT
BRANCH   4   8
HETATM    8  C8  UNL     1     -34.009  17.084  -2.381  1.00 20.00     0.119 C 
HETATM    9 CL9  UNL     1     -34.690  16.536  -0.836  1.00 20.00    -0.130 Cl
ENDBRANCH   4   8
TORSDOF 1
ENDMDL
MODEL 4
REMARK VINA RESULT:      -3.9     11.627     13.477
REMARK  1 active torsions:
REMARK  status: ('A' for Active; 'I' for Inactive)
REMARK    1  A    between atoms: C4_4  and  C8_8 
ROOT
HETATM    1  C1  UNL     1     -33.365  16.936  -5.089  1.00 20.00     0.006 C 
HETATM    2  C2  UNL     1     -33.015  15.750  -4.201  1.00 20.00     0.009 C 
HETATM    3  C3  UNL     1     -35.405  15.691  -4.765  1.00 20.00     0.014 C 
HETATM    4  C4  UNL     1     -34.626  16.486  -5.821  1.00 20.00     0.000 C 
HETATM    5  C5  UNL     1     -34.374  15.218  -3.708  1.00 20.00    -0.047 C 
HETATM    6  C6  UNL     1     -34.351  13.689  -3.600  1.00 20.00     0.015 C 
HETATM    7  C7  UNL     1     -34.715  15.811  -2.332  1.00 20.00     0.015 C 
ENDROOT
BRANCH   4   8
HETATM    8  C8  UNL     1     -34.309  15.637  -7.051  1.00 20.00     0.119 C 
HETATM    9 CL9  UNL     1     -35.398  14.238  -7.133  1.00 20.00    -0.130 Cl
ENDBRANCH   4   8
TORSDOF 1
ENDMDL
MODEL 5
REMARK VINA RESULT:      -3.8     11.776     12.897
REMARK  1 active torsions:
REMARK  status: ('A' for Active; 'I' for Inactive)
REMARK    1  A    between atoms: C4_4  and  C8_8 
ROOT
HETATM    1  C1  UNL     1     -34.756  13.308  -5.265  1.00 20.00     0.006 C 
HETATM    2  C2  UNL     1     -34.642  13.642  -3.784  1.00 20.00     0.009 C 
HETATM    3  C3  UNL     1     -34.062  15.613  -5.131  1.00 20.00     0.014 C 
HETATM    4  C4  UNL     1     -34.962  14.664  -5.932  1.00 20.00     0.000 C 
HETATM    5  C5  UNL     1     -33.842  14.959  -3.743  1.00 20.00    -0.047 C 
HETATM    6  C6  UNL     1     -34.345  15.865  -2.615  1.00 20.00     0.015 C 
HETATM    7  C7  UNL     1     -32.348  14.671  -3.523  1.00 20.00     0.015 C 
ENDROOT
BRANCH   4   8
HETATM    8  C8  UNL     1     -36.425  15.108  -5.902  1.00 20.00     0.119 C 
HETATM    9 CL9  UNL     1     -36.543  16.811  -5.416  1.00 20.00    -0.130 Cl
ENDBRANCH   4   8
TORSDOF 1
ENDMDL
MODEL 6
REMARK VINA RESULT:      -3.7     11.987     12.979
REMARK  1 active torsions:
REMARK  status: ('A' for Active; 'I' for Inactive)
REMARK    1  A    between atoms: C4_4  and  C8_8 
ROOT
HETATM    1  C1  UNL     1     -35.382  13.609  -4.078  1.00 20.00     0.006 C 
HETATM    2  C2  UNL     1     -36.121  14.858  -3.620  1.00 20.00     0.009 C 
HETATM    3  C3  UNL     1     -33.864  15.459  -4.380  1.00 20.00     0.014 C 
HETATM    4  C4  UNL     1     -34.314  14.143  -5.029  1.00 20.00     0.000 C 
HETATM    5  C5  UNL     1     -35.021  15.925  -3.461  1.00 20.00    -0.047 C 
HETATM    6  C6  UNL     1     -35.541  17.305  -3.878  1.00 20.00     0.015 C 
HETATM    7  C7  UNL     1     -34.546  15.991  -2.001  1.00 20.00     0.015 C 
ENDROOT
BRANCH   4   8
HETATM    8  C8  UNL     1     -34.854  14.363  -6.442  1.00 20.00     0.119 C 
HETATM    9 CL9  UNL     1     -34.285  15.916  -7.085  1.00 20.00    -0.130 Cl
ENDBRANCH   4   8
TORSDOF 1
ENDMDL
MODEL 7
REMARK VINA RESULT:      -3.7     12.174     13.098
REMARK  1 active torsions:
REMARK  status: ('A' for Active; 'I' for Inactive)
REMARK    1  A    between atoms: C4_4  and  C8_8 
ROOT
HETATM    1  C1  UNL     1     -33.692  14.912  -3.672  1.00 20.00     0.006 C 
HETATM    2  C2  UNL     1     -35.056  15.188  -3.054  1.00 20.00     0.009 C 
HETATM    3  C3  UNL     1     -33.797  17.287  -3.267  1.00 20.00     0.014 C 
HETATM    4  C4  UNL     1     -33.286  16.252  -4.277  1.00 20.00     0.000 C 
HETATM    5  C5  UNL     1     -34.936  16.607  -2.465  1.00 20.00    -0.047 C 
HETATM    6  C6  UNL     1     -36.256  17.371  -2.616  1.00 20.00     0.015 C 
HETATM    7  C7  UNL     1     -34.568  16.538  -0.974  1.00 20.00     0.015 C 
ENDROOT
BRANCH   4   8
HETATM    8  C8  UNL     1     -33.890  16.468  -5.665  1.00 20.00     0.119 C 
HETATM    9 CL9  UNL     1     -34.281  14.909  -6.417  1.00 20.00    -0.130 Cl
ENDBRANCH   4   8
TORSDOF 1
ENDMDL
MODEL 8
REMARK VINA RESULT:      -3.7     11.458     12.645
REMARK  1 active torsions:
REMARK  status: ('A' for Active; 'I' for Inactive)
REMARK    1  A    between atoms: C4_4  and  C8_8 
ROOT
HETATM    1  C1  UNL     1     -36.109  16.203  -3.198  1.00 20.00     0.006 C 
HETATM    2  C2  UNL     1     -35.721  14.781  -3.576  1.00 20.00     0.009 C 
HETATM    3  C3  UNL     1     -33.721  16.207  -3.538  1.00 20.00     0.014 C 
HETATM    4  C4  UNL     1     -34.819  16.800  -2.644  1.00 20.00     0.000 C 
HETATM    5  C5  UNL     1     -34.297  14.905  -4.152  1.00 20.00    -0.047 C 
HETATM    6  C6  UNL     1     -33.449  13.688  -3.769  1.00 20.00     0.015 C 
HETATM    7  C7  UNL     1     -34.346  15.018  -5.684  1.00 20.00     0.015 C 
ENDROOT
BRANCH   4   8
HETATM    8  C8  UNL     1     -34.603  16.450  -1.172  1.00 20.00     0.119 C 
HETATM    9 CL9  UNL     1     -33.684  17.733  -0.360  1.00 20.00    -0.130 Cl
ENDBRANCH   4   8
TORSDOF 1
ENDMDL
MODEL 9
REMARK VINA RESULT:      -3.7     11.907     12.985
REMARK  1 active torsions:
REMARK  status: ('A' for Active; 'I' for Inactive)
REMARK    1  A    between atoms: C4_4  and  C8_8 
ROOT
HETATM    1  C1  UNL     1     -33.296  15.479  -3.433  1.00 20.00     0.006 C 
HETATM    2  C2  UNL     1     -33.769  15.936  -4.806  1.00 20.00     0.009 C 
HETATM    3  C3  UNL     1     -35.636  14.913  -3.579  1.00 20.00     0.014 C 
HETATM    4  C4  UNL     1     -34.574  15.434  -2.601  1.00 20.00     0.000 C 
HETATM    5  C5  UNL     1     -35.122  15.225  -5.008  1.00 20.00    -0.047 C 
HETATM    6  C6  UNL     1     -36.100  16.127  -5.767  1.00 20.00     0.015 C 
HETATM    7  C7  UNL     1     -34.928  13.922  -5.799  1.00 20.00     0.015 C 
ENDROOT
BRANCH   4   8
HETATM    8  C8  UNL     1     -34.947  16.805  -2.036  1.00 20.00     0.119 C 
HETATM    9 CL9  UNL     1     -34.703  16.835  -0.278  1.00 20.00    -0.130 Cl
ENDBRANCH   4   8
TORSDOF 1
ENDMDL
