MODEL 1
REMARK VINA RESULT:      -4.0      0.000      0.000
REMARK  3 active torsions:
REMARK  status: ('A' for Active; 'I' for Inactive)
REMARK    1  A    between atoms: C2_2  and  C8_8 
REMARK    2  A    between atoms: C6_6  and  C8_8 
REMARK    3  A    between atoms: C8_8  and  N9_9 
ROOT
HETATM    1  C8  UNL     1     -35.326  15.904  -2.463  1.00 20.00     0.255 C 
ENDROOT
BRANCH   1   2
HETATM    2  C2  UNL     1     -34.365  16.592  -1.534  1.00 20.00    -0.001 C 
HETATM    3  C1  UNL     1     -34.670  16.966  -0.286  1.00 20.00     0.009 C 
ENDBRANCH   1   2
BRANCH   1   4
HETATM    4  C6  UNL     1     -34.741  15.747  -3.861  1.00 20.00     0.084 C 
HETATM    5  C4  UNL     1     -33.316  15.196  -3.852  1.00 20.00     0.018 C 
HETATM    6  C3  UNL     1     -33.413  13.680  -3.751  1.00 20.00     0.011 C 
HETATM    7  C5  UNL     1     -34.414  13.239  -4.804  1.00 20.00     0.074 C 
HETATM    8  S10 UNL     1     -35.702  14.517  -4.803  1.00 20.00    -0.162 SA
ENDBRANCH   1   4
BRANCH   1   9
HETATM    9  N9  UNL     1     -36.542  16.682  -2.496  1.00 20.00     0.088 N 
HETATM   10  C7  UNL     1     -36.386  17.881  -3.316  1.00 20.00     0.307 C 
HETATM   11  H25 UNL     1     -36.800  16.966  -1.547  1.00 20.00     0.316 HD
ENDBRANCH   1   9
TORSDOF 3
ENDMDL
MODEL 2
REMARK VINA RESULT:      -4.0      1.889      2.285
REMARK  3 active torsions:
REMARK  status: ('A' for Active; 'I' for Inactive)
REMARK    1  A    between atoms: C2_2  and  C8_8 
REMARK    2  A    between atoms: C6_6  and  C8_8 
REMARK    3  A    between atoms: C8_8  and  N9_9 
ROOT
HETATM    1  C8  UNL     1     -34.375  16.417  -3.157  1.00 20.00     0.255 C 
ENDROOT
BRANCH   1   2
HETATM    2  C2  UNL     1     -33.934  16.957  -1.825  1.00 20.00    -0.001 C 
HETATM    3  C1  UNL     1     -34.582  16.733  -0.676  1.00 20.00     0.009 C 
ENDBRANCH   1   2
BRANCH   1   4
HETATM    4  C6  UNL     1     -34.891  14.988  -3.041  1.00 20.00     0.084 C 
HETATM    5  C4  UNL     1     -36.228  14.777  -3.748  1.00 20.00     0.018 C 
HETATM    6  C3  UNL     1     -35.931  14.523  -5.220  1.00 20.00     0.011 C 
HETATM    7  C5  UNL     1     -34.848  13.460  -5.266  1.00 20.00     0.074 C 
HETATM    8  S10 UNL     1     -33.744  13.844  -3.878  1.00 20.00    -0.162 SA
ENDBRANCH   1   4
BRANCH   1   9
HETATM    9  N9  UNL     1     -33.250  16.489  -4.058  1.00 20.00     0.088 N 
HETATM   10  C7  UNL     1     -33.496  17.434  -5.145  1.00 20.00     0.307 C 
HETATM   11  H25 UNL     1     -33.068  15.567  -4.462  1.00 20.00     0.316 HD
ENDBRANCH   1   9
TORSDOF 3
ENDMDL
MODEL 3
REMARK VINA RESULT:      -3.8      1.564      2.127
REMARK  3 active torsions:
REMARK  status: ('A' for Active; 'I' for Inactive)
REMARK    1  A    between atoms: C2_2  and  C8_8 
REMARK    2  A    between atoms: C6_6  and  C8_8 
REMARK    3  A    between atoms: C8_8  and  N9_9 
ROOT
HETATM    1  C8  UNL     1     -33.843  16.807  -1.859  1.00 20.00     0.255 C 
ENDROOT
BRANCH   1   2
HETATM    2  C2  UNL     1     -33.629  18.283  -1.668  1.00 20.00    -0.001 C 
HETATM    3  C1  UNL     1     -33.523  19.159  -2.674  1.00 20.00     0.009 C 
ENDBRANCH   1   2
BRANCH   1   4
HETATM    4  C6  UNL     1     -34.237  16.478  -3.294  1.00 20.00     0.084 C 
HETATM    5  C4  UNL     1     -33.174  15.667  -4.032  1.00 20.00     0.018 C 
HETATM    6  C3  UNL     1     -33.381  14.203  -3.667  1.00 20.00     0.011 C 
HETATM    7  C5  UNL     1     -34.859  13.914  -3.861  1.00 20.00     0.074 C 
HETATM    8  S10 UNL     1     -35.717  15.412  -3.303  1.00 20.00    -0.162 SA
ENDBRANCH   1   4
BRANCH   1   9
HETATM    9  N9  UNL     1     -34.867  16.386  -0.932  1.00 20.00     0.088 N 
HETATM   10  C7  UNL     1     -34.935  17.272   0.227  1.00 20.00     0.307 C 
HETATM   11  H25 UNL     1     -34.673  15.436  -0.607  1.00 20.00     0.316 HD
ENDBRANCH   1   9
TORSDOF 3
ENDMDL
MODEL 4
REMARK VINA RESULT:      -3.7      2.383      4.125
REMARK  3 active torsions:
REMARK  status: ('A' for Active; 'I' for Inactive)
REMARK    1  A    between atoms: C2_2  and  C8_8 
REMARK    2  A    between atoms: C6_6  and  C8_8 
REMARK    3  A    between atoms: C8_8  and  N9_9 
ROOT
HETATM    1  C8  UNL     1     -33.466  15.854  -4.104  1.00 20.00     0.255 C 
ENDROOT
BRANCH   1   2
HETATM    2  C2  UNL     1     -33.949  14.435  -4.215  1.00 20.00    -0.001 C 
HETATM    3  C1  UNL     1     -33.315  13.386  -3.677  1.00 20.00     0.009 C 
ENDBRANCH   1   2
BRANCH   1   4
HETATM    4  C6  UNL     1     -34.526  16.763  -3.493  1.00 20.00     0.084 C 
HETATM    5  C4  UNL     1     -34.809  16.445  -2.026  1.00 20.00     0.018 C 
HETATM    6  C3  UNL     1     -33.753  17.159  -1.192  1.00 20.00     0.011 C 
HETATM    7  C5  UNL     1     -33.709  18.594  -1.686  1.00 20.00     0.074 C 
HETATM    8  S10 UNL     1     -33.935  18.488  -3.483  1.00 20.00    -0.162 SA
ENDBRANCH   1   4
BRANCH   1   9
HETATM    9  N9  UNL     1     -33.102  16.302  -5.428  1.00 20.00     0.088 N 
HETATM   10  C7  UNL     1     -34.111  15.923  -6.415  1.00 20.00     0.307 C 
HETATM   11  H25 UNL     1     -32.206  15.890  -5.701  1.00 20.00     0.316 HD
ENDBRANCH   1   9
TORSDOF 3
ENDMDL
MODEL 5
REMARK VINA RESULT:      -3.6      1.931      2.753
REMARK  3 active torsions:
REMARK  status: ('A' for Active; 'I' for Inactive)
REMARK    1  A    between atoms: C2_2  and  C8_8 
REMARK    2  A    between atoms: C6_6  and  C8_8 
REMARK    3  A    between atoms: C8_8  and  N9_9 
ROOT
HETATM    1  C8  UNL     1     -33.820  16.057  -3.363  1.00 20.00     0.255 C 
ENDROOT
BRANCH   1   2
HETATM    2  C2  UNL     1     -33.745  16.647  -1.982  1.00 20.00    -0.001 C 
HETATM    3  C1  UNL     1     -34.714  16.528  -1.066  1.00 20.00     0.009 C 
ENDBRANCH   1   2
BRANCH   1   4
HETATM    4  C6  UNL     1     -34.553  16.980  -4.329  1.00 20.00     0.084 C 
HETATM    5  C4  UNL     1     -33.799  17.190  -5.641  1.00 20.00     0.018 C 
HETATM    6  C3  UNL     1     -34.131  16.015  -6.551  1.00 20.00     0.011 C 
HETATM    7  C5  UNL     1     -35.642  15.868  -6.534  1.00 20.00     0.074 C 
HETATM    8  S10 UNL     1     -36.137  16.227  -4.826  1.00 20.00    -0.162 SA
ENDBRANCH   1   4
BRANCH   1   9
HETATM    9  N9  UNL     1     -34.485  14.780  -3.263  1.00 20.00     0.088 N 
HETATM   10  C7  UNL     1     -33.622  13.692  -3.719  1.00 20.00     0.307 C 
HETATM   11  H25 UNL     1     -35.335  14.784  -3.833  1.00 20.00     0.316 HD
ENDBRANCH   1   9
TORSDOF 3
ENDMDL
MODEL 6
REMARK VINA RESULT:      -3.5      1.922      2.666
REMARK  3 active torsions:
REMARK  status: ('A' for Active; 'I' for Inactive)
REMARK    1  A    between atoms: C2_2  and  C8_8 
REMARK    2  A    between atoms: C6_6  and  C8_8 
REMARK    3  A    between atoms: C8_8  and  N9_9 
ROOT
HETATM    1  C8  UNL     1     -34.152  17.065  -0.934  1.00 20.00     0.255 C 
ENDROOT
BRANCH   1   2
HETATM    2  C2  UNL     1     -33.247  18.161  -0.443  1.00 20.00    -0.001 C 
HETATM    3  C1  UNL     1     -32.960  19.263  -1.146  1.00 20.00     0.009 C 
ENDBRANCH   1   2
BRANCH   1   4
HETATM    4  C6  UNL     1     -34.321  17.112  -2.448  1.00 20.00     0.084 C 
HETATM    5  C4  UNL     1     -33.570  15.991  -3.165  1.00 20.00     0.018 C 
HETATM    6  C3  UNL     1     -34.456  14.753  -3.131  1.00 20.00     0.011 C 
HETATM    7  C5  UNL     1     -35.833  15.192  -3.595  1.00 20.00     0.074 C 
HETATM    8  S10 UNL     1     -36.071  16.846  -2.887  1.00 20.00    -0.162 SA
ENDBRANCH   1   4
BRANCH   1   9
HETATM    9  N9  UNL     1     -35.425  17.212  -0.268  1.00 20.00     0.088 N 
HETATM   10  C7  UNL     1     -35.252  17.536   1.147  1.00 20.00     0.307 C 
HETATM   11  H25 UNL     1     -35.959  16.342  -0.342  1.00 20.00     0.316 HD
ENDBRANCH   1   9
TORSDOF 3
ENDMDL
MODEL 7
REMARK VINA RESULT:      -3.5      2.464      3.738
REMARK  3 active torsions:
REMARK  status: ('A' for Active; 'I' for Inactive)
REMARK    1  A    between atoms: C2_2  and  C8_8 
REMARK    2  A    between atoms: C6_6  and  C8_8 
REMARK    3  A    between atoms: C8_8  and  N9_9 
ROOT
HETATM    1  C8  UNL     1     -34.134  15.654  -3.938  1.00 20.00     0.255 C 
ENDROOT
BRANCH   1   2
HETATM    2  C2  UNL     1     -33.984  14.158  -3.968  1.00 20.00    -0.001 C 
HETATM    3  C1  UNL     1     -34.996  13.311  -4.189  1.00 20.00     0.009 C 
ENDBRANCH   1   2
BRANCH   1   4
HETATM    4  C6  UNL     1     -33.418  16.313  -5.111  1.00 20.00     0.084 C 
HETATM    5  C4  UNL     1     -33.990  15.902  -6.466  1.00 20.00     0.018 C 
HETATM    6  C3  UNL     1     -35.198  16.788  -6.739  1.00 20.00     0.011 C 
HETATM    7  C5  UNL     1     -34.755  18.217  -6.480  1.00 20.00     0.074 C 
HETATM    8  S10 UNL     1     -33.650  18.121  -5.044  1.00 20.00    -0.162 SA
ENDBRANCH   1   4
BRANCH   1   9
HETATM    9  N9  UNL     1     -33.607  16.126  -2.680  1.00 20.00     0.088 N 
HETATM   10  C7  UNL     1     -34.662  16.261  -1.677  1.00 20.00     0.307 C 
HETATM   11  H25 UNL     1     -33.161  17.038  -2.809  1.00 20.00     0.316 HD
ENDBRANCH   1   9
TORSDOF 3
ENDMDL
MODEL 8
REMARK VINA RESULT:      -3.5      2.747      4.758
REMARK  3 active torsions:
REMARK  status: ('A' for Active; 'I' for Inactive)
REMARK    1  A    between atoms: C2_2  and  C8_8 
REMARK    2  A    between atoms: C6_6  and  C8_8 
REMARK    3  A    between atoms: C8_8  and  N9_9 
ROOT
HETATM    1  C8  UNL     1     -34.340  15.244  -5.521  1.00 20.00     0.255 C 
ENDROOT
BRANCH   1   2
HETATM    2  C2  UNL     1     -34.285  15.115  -7.018  1.00 20.00    -0.001 C 
HETATM    3  C1  UNL     1     -35.298  14.665  -7.767  1.00 20.00     0.009 C 
ENDBRANCH   1   2
BRANCH   1   4
HETATM    4  C6  UNL     1     -33.442  16.368  -5.020  1.00 20.00     0.084 C 
HETATM    5  C4  UNL     1     -33.659  17.682  -5.768  1.00 20.00     0.018 C 
HETATM    6  C3  UNL     1     -34.849  18.382  -5.125  1.00 20.00     0.011 C 
HETATM    7  C5  UNL     1     -34.603  18.367  -3.627  1.00 20.00     0.074 C 
HETATM    8  S10 UNL     1     -33.842  16.756  -3.284  1.00 20.00    -0.162 SA
ENDBRANCH   1   4
BRANCH   1   9
HETATM    9  N9  UNL     1     -33.946  13.976  -4.954  1.00 20.00     0.088 N 
HETATM   10  C7  UNL     1     -35.076  13.302  -4.317  1.00 20.00     0.307 C 
HETATM   11  H25 UNL     1     -33.215  14.120  -4.253  1.00 20.00     0.316 HD
ENDBRANCH   1   9
TORSDOF 3
ENDMDL
MODEL 9
REMARK VINA RESULT:      -3.5      2.394      2.828
REMARK  3 active torsions:
REMARK  status: ('A' for Active; 'I' for Inactive)
REMARK    1  A    between atoms: C2_2  and  C8_8 
REMARK    2  A    between atoms: C6_6  and  C8_8 
REMARK    3  A    between atoms: C8_8  and  N9_9 
ROOT
HETATM    1  C8  UNL     1     -34.338  16.201  -4.099  1.00 20.00     0.255 C 
ENDROOT
BRANCH   1   2
HETATM    2  C2  UNL     1     -33.846  16.015  -2.690  1.00 20.00    -0.001 C 
HETATM    3  C1  UNL     1     -34.556  16.337  -1.603  1.00 20.00     0.009 C 
ENDBRANCH   1   2
BRANCH   1   4
HETATM    4  C6  UNL     1     -34.723  14.873  -4.739  1.00 20.00     0.084 C 
HETATM    5  C4  UNL     1     -36.189  14.507  -4.516  1.00 20.00     0.018 C 
HETATM    6  C3  UNL     1     -37.007  15.227  -5.580  1.00 20.00     0.011 C 
HETATM    7  C5  UNL     1     -36.327  14.952  -6.909  1.00 20.00     0.074 C 
HETATM    8  S10 UNL     1     -34.548  14.983  -6.551  1.00 20.00    -0.162 SA
ENDBRANCH   1   4
BRANCH   1   9
HETATM    9  N9  UNL     1     -33.291  16.853  -4.850  1.00 20.00     0.088 N 
HETATM   10  C7  UNL     1     -33.559  18.281  -5.009  1.00 20.00     0.307 C 
HETATM   11  H25 UNL     1     -33.213  16.429  -5.778  1.00 20.00     0.316 HD
ENDBRANCH   1   9
TORSDOF 3
ENDMDL
