MODEL 1
REMARK VINA RESULT:      -4.6      0.000      0.000
REMARK  3 active torsions:
REMARK  status: ('A' for Active; 'I' for Inactive)
REMARK    1  A    between atoms: C5_5  and  C8_8 
REMARK    2  A    between atoms: C6_6  and  C9_9 
REMARK    3  A    between atoms: C8_8  and  C10_10 
ROOT
HETATM    1  C1  UNL     1     -34.323  16.703  -4.221  1.00 20.00     0.131 C 
HETATM    2  C2  UNL     1     -33.662  17.950  -3.679  1.00 20.00     0.079 C 
HETATM    3  C3  UNL     1     -34.181  18.267  -2.284  1.00 20.00     0.012 C 
HETATM    4  C4  UNL     1     -34.795  15.850  -1.921  1.00 20.00     0.017 C 
HETATM    5  C5  UNL     1     -34.278  15.477  -3.315  1.00 20.00     0.058 C 
HETATM    6  C6  UNL     1     -34.049  17.063  -1.341  1.00 20.00    -0.014 C 
HETATM    7  O11 UNL     1     -34.782  16.673  -5.362  1.00 20.00    -0.298 OA
ENDROOT
BRANCH   5   8
HETATM    8  C8  UNL     1     -35.083  14.317  -3.895  1.00 20.00     0.043 C 
BRANCH   8   9
HETATM    9  C10 UNL     1     -34.181  13.278  -4.532  1.00 20.00     0.223 C 
HETATM   10  F12 UNL     1     -32.993  13.250  -3.872  1.00 20.00    -0.255 F 
ENDBRANCH   8   9
ENDBRANCH   5   8
BRANCH   6  11
HETATM   11  C9  UNL     1     -34.581  17.407   0.048  1.00 20.00     0.000 C 
HETATM   12  C7  UNL     1     -33.703  18.392   0.747  1.00 20.00     0.005 C 
ENDBRANCH   6  11
TORSDOF 3
ENDMDL
MODEL 2
REMARK VINA RESULT:      -4.6      2.578      3.349
REMARK  3 active torsions:
REMARK  status: ('A' for Active; 'I' for Inactive)
REMARK    1  A    between atoms: C5_5  and  C8_8 
REMARK    2  A    between atoms: C6_6  and  C9_9 
REMARK    3  A    between atoms: C8_8  and  C10_10 
ROOT
HETATM    1  C1  UNL     1     -35.025  14.144  -4.750  1.00 20.00     0.131 C 
HETATM    2  C2  UNL     1     -33.690  13.946  -4.067  1.00 20.00     0.079 C 
HETATM    3  C3  UNL     1     -33.293  15.197  -3.297  1.00 20.00     0.012 C 
HETATM    4  C4  UNL     1     -35.708  15.888  -3.097  1.00 20.00     0.017 C 
HETATM    5  C5  UNL     1     -36.162  14.639  -3.861  1.00 20.00     0.058 C 
HETATM    6  C6  UNL     1     -34.398  15.645  -2.330  1.00 20.00    -0.014 C 
HETATM    7  O11 UNL     1     -35.187  13.830  -5.928  1.00 20.00    -0.298 OA
ENDROOT
BRANCH   5   8
HETATM    8  C8  UNL     1     -37.423  14.930  -4.669  1.00 20.00     0.043 C 
BRANCH   8   9
HETATM    9  C10 UNL     1     -38.670  14.817  -3.814  1.00 20.00     0.223 C 
HETATM   10  F12 UNL     1     -39.602  14.081  -4.476  1.00 20.00    -0.255 F 
ENDBRANCH   8   9
ENDBRANCH   5   8
BRANCH   6  11
HETATM   11  C9  UNL     1     -33.975  16.904  -1.576  1.00 20.00     0.000 C 
HETATM   12  C7  UNL     1     -34.718  17.053  -0.290  1.00 20.00     0.005 C 
ENDBRANCH   6  11
TORSDOF 3
ENDMDL
MODEL 3
REMARK VINA RESULT:      -4.5      2.294      3.128
REMARK  3 active torsions:
REMARK  status: ('A' for Active; 'I' for Inactive)
REMARK    1  A    between atoms: C5_5  and  C8_8 
REMARK    2  A    between atoms: C6_6  and  C9_9 
REMARK    3  A    between atoms: C8_8  and  C10_10 
ROOT
HETATM    1  C1  UNL     1     -35.010  14.087  -4.682  1.00 20.00     0.131 C 
HETATM    2  C2  UNL     1     -33.663  13.936  -4.011  1.00 20.00     0.079 C 
HETATM    3  C3  UNL     1     -33.291  15.211  -3.267  1.00 20.00     0.012 C 
HETATM    4  C4  UNL     1     -35.722  15.841  -3.052  1.00 20.00     0.017 C 
HETATM    5  C5  UNL     1     -36.150  14.567  -3.790  1.00 20.00     0.058 C 
HETATM    6  C6  UNL     1     -34.398  15.646  -2.296  1.00 20.00    -0.014 C 
HETATM    7  O11 UNL     1     -35.176  13.748  -5.853  1.00 20.00    -0.298 OA
ENDROOT
BRANCH   5   8
HETATM    8  C8  UNL     1     -37.427  14.810  -4.588  1.00 20.00     0.043 C 
BRANCH   8   9
HETATM    9  C10 UNL     1     -37.554  16.263  -5.007  1.00 20.00     0.223 C 
HETATM   10  F12 UNL     1     -36.825  16.468  -6.135  1.00 20.00    -0.255 F 
ENDBRANCH   8   9
ENDBRANCH   5   8
BRANCH   6  11
HETATM   11  C9  UNL     1     -34.001  16.929  -1.569  1.00 20.00     0.000 C 
HETATM   12  C7  UNL     1     -34.712  17.066  -0.264  1.00 20.00     0.005 C 
ENDBRANCH   6  11
TORSDOF 3
ENDMDL
MODEL 4
REMARK VINA RESULT:      -4.5      2.667      4.562
REMARK  3 active torsions:
REMARK  status: ('A' for Active; 'I' for Inactive)
REMARK    1  A    between atoms: C5_5  and  C8_8 
REMARK    2  A    between atoms: C6_6  and  C9_9 
REMARK    3  A    between atoms: C8_8  and  C10_10 
ROOT
HETATM    1  C1  UNL     1     -33.624  18.406  -2.183  1.00 20.00     0.131 C 
HETATM    2  C2  UNL     1     -33.750  18.175  -3.672  1.00 20.00     0.079 C 
HETATM    3  C3  UNL     1     -33.700  16.686  -3.988  1.00 20.00     0.012 C 
HETATM    4  C4  UNL     1     -34.510  16.128  -1.667  1.00 20.00     0.017 C 
HETATM    5  C5  UNL     1     -34.585  17.615  -1.301  1.00 20.00     0.058 C 
HETATM    6  C6  UNL     1     -34.733  15.898  -3.170  1.00 20.00    -0.014 C 
HETATM    7  O11 UNL     1     -32.853  19.254  -1.736  1.00 20.00    -0.298 OA
ENDROOT
BRANCH   5   8
HETATM    8  C8  UNL     1     -34.289  17.820   0.181  1.00 20.00     0.043 C 
BRANCH   8   9
HETATM    9  C10 UNL     1     -35.559  17.804   1.010  1.00 20.00     0.223 C 
HETATM   10  F12 UNL     1     -35.386  16.981   2.078  1.00 20.00    -0.255 F 
ENDBRANCH   8   9
ENDBRANCH   5   8
BRANCH   6  11
HETATM   11  C9  UNL     1     -34.657  14.409  -3.503  1.00 20.00     0.000 C 
HETATM   12  C7  UNL     1     -33.246  13.957  -3.694  1.00 20.00     0.005 C 
ENDBRANCH   6  11
TORSDOF 3
ENDMDL
MODEL 5
REMARK VINA RESULT:      -4.3      2.515      4.713
REMARK  3 active torsions:
REMARK  status: ('A' for Active; 'I' for Inactive)
REMARK    1  A    between atoms: C5_5  and  C8_8 
REMARK    2  A    between atoms: C6_6  and  C9_9 
REMARK    3  A    between atoms: C8_8  and  C10_10 
ROOT
HETATM    1  C1  UNL     1     -35.845  17.496  -2.288  1.00 20.00     0.131 C 
HETATM    2  C2  UNL     1     -36.678  16.584  -3.161  1.00 20.00     0.079 C 
HETATM    3  C3  UNL     1     -35.782  15.692  -4.009  1.00 20.00     0.012 C 
HETATM    4  C4  UNL     1     -33.908  15.919  -2.339  1.00 20.00     0.017 C 
HETATM    5  C5  UNL     1     -34.771  16.815  -1.444  1.00 20.00     0.058 C 
HETATM    6  C6  UNL     1     -34.761  14.931  -3.151  1.00 20.00    -0.014 C 
HETATM    7  O11 UNL     1     -36.095  18.698  -2.207  1.00 20.00    -0.298 OA
ENDROOT
BRANCH   5   8
HETATM    8  C8  UNL     1     -33.907  17.831  -0.705  1.00 20.00     0.043 C 
BRANCH   8   9
HETATM    9  C10 UNL     1     -34.350  17.996   0.736  1.00 20.00     0.223 C 
HETATM   10  F12 UNL     1     -35.200  16.986   1.061  1.00 20.00    -0.255 F 
ENDBRANCH   8   9
ENDBRANCH   5   8
BRANCH   6  11
HETATM   11  C9  UNL     1     -33.874  14.050  -4.028  1.00 20.00     0.000 C 
HETATM   12  C7  UNL     1     -34.683  13.171  -4.925  1.00 20.00     0.005 C 
ENDBRANCH   6  11
TORSDOF 3
ENDMDL
MODEL 6
REMARK VINA RESULT:      -4.3      1.974      2.246
REMARK  3 active torsions:
REMARK  status: ('A' for Active; 'I' for Inactive)
REMARK    1  A    between atoms: C5_5  and  C8_8 
REMARK    2  A    between atoms: C6_6  and  C9_9 
REMARK    3  A    between atoms: C8_8  and  C10_10 
ROOT
HETATM    1  C1  UNL     1     -36.775  15.463  -3.442  1.00 20.00     0.131 C 
HETATM    2  C2  UNL     1     -36.998  16.923  -3.116  1.00 20.00     0.079 C 
HETATM    3  C3  UNL     1     -36.061  17.372  -2.004  1.00 20.00     0.012 C 
HETATM    4  C4  UNL     1     -34.428  15.543  -2.588  1.00 20.00     0.017 C 
HETATM    5  C5  UNL     1     -35.332  15.056  -3.726  1.00 20.00     0.058 C 
HETATM    6  C6  UNL     1     -34.596  17.049  -2.330  1.00 20.00    -0.014 C 
HETATM    7  O11 UNL     1     -37.722  14.687  -3.556  1.00 20.00    -0.298 OA
ENDROOT
BRANCH   5   8
HETATM    8  C8  UNL     1     -35.199  13.547  -3.912  1.00 20.00     0.043 C 
BRANCH   8   9
HETATM    9  C10 UNL     1     -34.549  13.205  -5.239  1.00 20.00     0.223 C 
HETATM   10  F12 UNL     1     -35.258  13.781  -6.246  1.00 20.00    -0.255 F 
ENDBRANCH   8   9
ENDBRANCH   5   8
BRANCH   6  11
HETATM   11  C9  UNL     1     -33.680  17.505  -1.196  1.00 20.00     0.000 C 
HETATM   12  C7  UNL     1     -34.408  17.580   0.105  1.00 20.00     0.005 C 
ENDBRANCH   6  11
TORSDOF 3
ENDMDL
MODEL 7
REMARK VINA RESULT:      -4.3      3.112      4.061
REMARK  3 active torsions:
REMARK  status: ('A' for Active; 'I' for Inactive)
REMARK    1  A    between atoms: C5_5  and  C8_8 
REMARK    2  A    between atoms: C6_6  and  C9_9 
REMARK    3  A    between atoms: C8_8  and  C10_10 
ROOT
HETATM    1  C1  UNL     1     -34.767  13.874  -3.896  1.00 20.00     0.131 C 
HETATM    2  C2  UNL     1     -33.326  14.239  -3.615  1.00 20.00     0.079 C 
HETATM    3  C3  UNL     1     -33.004  15.616  -4.179  1.00 20.00     0.012 C 
HETATM    4  C4  UNL     1     -35.433  16.277  -4.057  1.00 20.00     0.017 C 
HETATM    5  C5  UNL     1     -35.809  14.907  -3.480  1.00 20.00     0.058 C 
HETATM    6  C6  UNL     1     -33.996  16.678  -3.686  1.00 20.00    -0.014 C 
HETATM    7  O11 UNL     1     -35.065  12.769  -4.346  1.00 20.00    -0.298 OA
ENDROOT
BRANCH   5   8
HETATM    8  C8  UNL     1     -37.211  14.503  -3.924  1.00 20.00     0.043 C 
BRANCH   8   9
HETATM    9  C10 UNL     1     -38.226  15.589  -3.621  1.00 20.00     0.223 C 
HETATM   10  F12 UNL     1     -39.372  15.016  -3.166  1.00 20.00    -0.255 F 
ENDBRANCH   8   9
ENDBRANCH   5   8
BRANCH   6  11
HETATM   11  C9  UNL     1     -33.652  18.047  -4.270  1.00 20.00     0.000 C 
HETATM   12  C7  UNL     1     -33.626  18.019  -5.762  1.00 20.00     0.005 C 
ENDBRANCH   6  11
TORSDOF 3
ENDMDL
MODEL 8
REMARK VINA RESULT:      -4.2      2.508      4.610
REMARK  3 active torsions:
REMARK  status: ('A' for Active; 'I' for Inactive)
REMARK    1  A    between atoms: C5_5  and  C8_8 
REMARK    2  A    between atoms: C6_6  and  C9_9 
REMARK    3  A    between atoms: C8_8  and  C10_10 
ROOT
HETATM    1  C1  UNL     1     -34.876  13.912  -5.047  1.00 20.00     0.131 C 
HETATM    2  C2  UNL     1     -35.022  13.931  -6.552  1.00 20.00     0.079 C 
HETATM    3  C3  UNL     1     -35.268  15.349  -7.048  1.00 20.00     0.012 C 
HETATM    4  C4  UNL     1     -34.143  16.301  -5.003  1.00 20.00     0.017 C 
HETATM    5  C5  UNL     1     -33.864  14.893  -4.463  1.00 20.00     0.058 C 
HETATM    6  C6  UNL     1     -34.196  16.322  -6.539  1.00 20.00    -0.014 C 
HETATM    7  O11 UNL     1     -35.476  13.086  -4.362  1.00 20.00    -0.298 OA
ENDROOT
BRANCH   5   8
HETATM    8  C8  UNL     1     -33.889  14.887  -2.938  1.00 20.00     0.043 C 
BRANCH   8   9
HETATM    9  C10 UNL     1     -34.614  16.101  -2.388  1.00 20.00     0.223 C 
HETATM   10  F12 UNL     1     -34.651  16.023  -1.031  1.00 20.00    -0.255 F 
ENDBRANCH   8   9
ENDBRANCH   5   8
BRANCH   6  11
HETATM   11  C9  UNL     1     -34.470  17.737  -7.047  1.00 20.00     0.000 C 
HETATM   12  C7  UNL     1     -33.720  18.761  -6.261  1.00 20.00     0.005 C 
ENDBRANCH   6  11
TORSDOF 3
ENDMDL
MODEL 9
REMARK VINA RESULT:      -4.2      2.305      4.160
REMARK  3 active torsions:
REMARK  status: ('A' for Active; 'I' for Inactive)
REMARK    1  A    between atoms: C5_5  and  C8_8 
REMARK    2  A    between atoms: C6_6  and  C9_9 
REMARK    3  A    between atoms: C8_8  and  C10_10 
ROOT
HETATM    1  C1  UNL     1     -34.199  17.904  -3.547  1.00 20.00     0.131 C 
HETATM    2  C2  UNL     1     -34.022  17.149  -2.249  1.00 20.00     0.079 C 
HETATM    3  C3  UNL     1     -34.259  15.660  -2.460  1.00 20.00     0.012 C 
HETATM    4  C4  UNL     1     -33.667  15.873  -4.901  1.00 20.00     0.017 C 
HETATM    5  C5  UNL     1     -33.408  17.375  -4.740  1.00 20.00     0.058 C 
HETATM    6  C6  UNL     1     -33.393  15.103  -3.599  1.00 20.00    -0.014 C 
HETATM    7  O11 UNL     1     -34.870  18.934  -3.595  1.00 20.00    -0.298 OA
ENDROOT
BRANCH   5   8
HETATM    8  C8  UNL     1     -33.756  18.123  -6.023  1.00 20.00     0.043 C 
BRANCH   8   9
HETATM    9  C10 UNL     1     -34.894  17.452  -6.767  1.00 20.00     0.223 C 
HETATM   10  F12 UNL     1     -34.418  16.907  -7.918  1.00 20.00    -0.255 F 
ENDBRANCH   8   9
ENDBRANCH   5   8
BRANCH   6  11
HETATM   11  C9  UNL     1     -33.655  13.611  -3.792  1.00 20.00     0.000 C 
HETATM   12  C7  UNL     1     -34.788  13.367  -4.733  1.00 20.00     0.005 C 
ENDBRANCH   6  11
TORSDOF 3
ENDMDL
