MODEL 1
REMARK VINA RESULT:      -4.7      0.000      0.000
REMARK  2 active torsions:
REMARK  status: ('A' for Active; 'I' for Inactive)
REMARK    1  A    between atoms: C4_4  and  C10_10 
REMARK    2  A    between atoms: C10_10  and  C11_11 
ROOT
HETATM    1  C1  UNL     1     -33.953  17.099  -3.581  1.00 20.00     0.007 C 
HETATM    2  C2  UNL     1     -33.762  18.313  -2.677  1.00 20.00     0.009 C 
HETATM    3  C3  UNL     1     -34.685  16.408  -1.430  1.00 20.00     0.015 C 
HETATM    4  C4  UNL     1     -33.868  15.918  -2.624  1.00 20.00     0.005 C 
HETATM    5  C5  UNL     1     -34.316  17.902  -1.290  1.00 20.00    -0.047 C 
HETATM    6  C6  UNL     1     -35.552  18.731  -0.921  1.00 20.00     0.015 C 
HETATM    7  C7  UNL     1     -33.242  18.095  -0.209  1.00 20.00     0.015 C 
ENDROOT
BRANCH   4   8
HETATM    8  C10 UNL     1     -34.399  14.625  -3.221  1.00 20.00     0.089 C 
HETATM    9 CL12 UNL     1     -33.013  13.586  -3.688  1.00 20.00    -0.124 Cl
BRANCH   8  10
HETATM   10  C11 UNL     1     -35.384  14.854  -4.395  1.00 20.00    -0.004 C 
HETATM   11  C8  UNL     1     -35.060  14.041  -5.652  1.00 20.00     0.011 C 
HETATM   12  C9  UNL     1     -36.838  14.602  -3.977  1.00 20.00     0.011 C 
ENDBRANCH   8  10
ENDBRANCH   4   8
TORSDOF 2
ENDMDL
MODEL 2
REMARK VINA RESULT:      -4.6      1.861      4.833
REMARK  2 active torsions:
REMARK  status: ('A' for Active; 'I' for Inactive)
REMARK    1  A    between atoms: C4_4  and  C10_10 
REMARK    2  A    between atoms: C10_10  and  C11_11 
ROOT
HETATM    1  C1  UNL     1     -36.109  15.719  -2.989  1.00 20.00     0.007 C 
HETATM    2  C2  UNL     1     -35.874  14.494  -3.869  1.00 20.00     0.009 C 
HETATM    3  C3  UNL     1     -33.828  15.835  -3.641  1.00 20.00     0.015 C 
HETATM    4  C4  UNL     1     -34.730  16.028  -2.423  1.00 20.00     0.005 C 
HETATM    5  C5  UNL     1     -34.413  14.605  -4.370  1.00 20.00    -0.047 C 
HETATM    6  C6  UNL     1     -34.364  14.803  -5.889  1.00 20.00     0.015 C 
HETATM    7  C7  UNL     1     -33.628  13.336  -4.005  1.00 20.00     0.015 C 
ENDROOT
BRANCH   4   8
HETATM    8  C10 UNL     1     -34.630  17.419  -1.819  1.00 20.00     0.089 C 
HETATM    9 CL12 UNL     1     -33.733  18.484  -2.950  1.00 20.00    -0.124 Cl
BRANCH   8  10
HETATM   10  C11 UNL     1     -34.017  17.424  -0.395  1.00 20.00    -0.004 C 
HETATM   11  C8  UNL     1     -32.973  18.522  -0.167  1.00 20.00     0.011 C 
HETATM   12  C9  UNL     1     -35.097  17.503   0.690  1.00 20.00     0.011 C 
ENDBRANCH   8  10
ENDBRANCH   4   8
TORSDOF 2
ENDMDL
MODEL 3
REMARK VINA RESULT:      -4.5      1.414      2.055
REMARK  2 active torsions:
REMARK  status: ('A' for Active; 'I' for Inactive)
REMARK    1  A    between atoms: C4_4  and  C10_10 
REMARK    2  A    between atoms: C10_10  and  C11_11 
ROOT
HETATM    1  C1  UNL     1     -36.166  16.365  -3.458  1.00 20.00     0.007 C 
HETATM    2  C2  UNL     1     -35.963  17.473  -2.429  1.00 20.00     0.009 C 
HETATM    3  C3  UNL     1     -33.967  16.053  -2.615  1.00 20.00     0.015 C 
HETATM    4  C4  UNL     1     -34.753  16.042  -3.926  1.00 20.00     0.005 C 
HETATM    5  C5  UNL     1     -34.565  17.228  -1.810  1.00 20.00    -0.047 C 
HETATM    6  C6  UNL     1     -34.674  16.865  -0.325  1.00 20.00     0.015 C 
HETATM    7  C7  UNL     1     -33.690  18.483  -1.956  1.00 20.00     0.015 C 
ENDROOT
BRANCH   4   8
HETATM    8  C10 UNL     1     -34.657  14.721  -4.670  1.00 20.00     0.089 C 
HETATM    9 CL12 UNL     1     -33.435  13.684  -3.863  1.00 20.00    -0.124 Cl
BRANCH   8  10
HETATM   10  C11 UNL     1     -34.376  14.891  -6.184  1.00 20.00    -0.004 C 
HETATM   11  C8  UNL     1     -35.490  14.358  -7.091  1.00 20.00     0.011 C 
HETATM   12  C9  UNL     1     -34.066  16.348  -6.547  1.00 20.00     0.011 C 
ENDBRANCH   8  10
ENDBRANCH   4   8
TORSDOF 2
ENDMDL
MODEL 4
REMARK VINA RESULT:      -4.5      1.586      2.072
REMARK  2 active torsions:
REMARK  status: ('A' for Active; 'I' for Inactive)
REMARK    1  A    between atoms: C4_4  and  C10_10 
REMARK    2  A    between atoms: C10_10  and  C11_11 
ROOT
HETATM    1  C1  UNL     1     -35.150  18.152  -2.906  1.00 20.00     0.007 C 
HETATM    2  C2  UNL     1     -34.972  18.863  -1.567  1.00 20.00     0.009 C 
HETATM    3  C3  UNL     1     -33.822  16.692  -1.585  1.00 20.00     0.015 C 
HETATM    4  C4  UNL     1     -33.926  17.251  -3.003  1.00 20.00     0.005 C 
HETATM    5  C5  UNL     1     -34.180  17.883  -0.667  1.00 20.00    -0.047 C 
HETATM    6  C6  UNL     1     -35.029  17.413   0.520  1.00 20.00     0.015 C 
HETATM    7  C7  UNL     1     -32.906  18.558  -0.136  1.00 20.00     0.015 C 
ENDROOT
BRANCH   4   8
HETATM    8  C10 UNL     1     -34.061  16.171  -4.063  1.00 20.00     0.089 C 
HETATM    9 CL12 UNL     1     -35.145  16.763  -5.364  1.00 20.00    -0.124 Cl
BRANCH   8  10
HETATM   10  C11 UNL     1     -34.521  14.806  -3.490  1.00 20.00    -0.004 C 
HETATM   11  C8  UNL     1     -35.936  14.396  -3.910  1.00 20.00     0.011 C 
HETATM   12  C9  UNL     1     -33.534  13.683  -3.830  1.00 20.00     0.011 C 
ENDBRANCH   8  10
ENDBRANCH   4   8
TORSDOF 2
ENDMDL
MODEL 5
REMARK VINA RESULT:      -4.4      1.986      4.914
REMARK  2 active torsions:
REMARK  status: ('A' for Active; 'I' for Inactive)
REMARK    1  A    between atoms: C4_4  and  C10_10 
REMARK    2  A    between atoms: C10_10  and  C11_11 
ROOT
HETATM    1  C1  UNL     1     -35.035  13.954  -3.836  1.00 20.00     0.007 C 
HETATM    2  C2  UNL     1     -34.817  13.707  -5.327  1.00 20.00     0.009 C 
HETATM    3  C3  UNL     1     -35.531  16.019  -4.900  1.00 20.00     0.015 C 
HETATM    4  C4  UNL     1     -34.807  15.452  -3.680  1.00 20.00     0.005 C 
HETATM    5  C5  UNL     1     -35.220  15.022  -6.039  1.00 20.00    -0.047 C 
HETATM    6  C6  UNL     1     -36.453  14.814  -6.926  1.00 20.00     0.015 C 
HETATM    7  C7  UNL     1     -34.061  15.535  -6.906  1.00 20.00     0.015 C 
ENDROOT
BRANCH   4   8
HETATM    8  C10 UNL     1     -35.331  16.002  -2.364  1.00 20.00     0.089 C 
HETATM    9 CL12 UNL     1     -36.733  17.070  -2.695  1.00 20.00    -0.124 Cl
BRANCH   8  10
HETATM   10  C11 UNL     1     -34.240  16.707  -1.519  1.00 20.00    -0.004 C 
HETATM   11  C8  UNL     1     -33.642  17.952  -2.182  1.00 20.00     0.011 C 
HETATM   12  C9  UNL     1     -34.744  17.060  -0.116  1.00 20.00     0.011 C 
ENDBRANCH   8  10
ENDBRANCH   4   8
TORSDOF 2
ENDMDL
MODEL 6
REMARK VINA RESULT:      -4.3     10.611     11.841
REMARK  2 active torsions:
REMARK  status: ('A' for Active; 'I' for Inactive)
REMARK    1  A    between atoms: C4_4  and  C10_10 
REMARK    2  A    between atoms: C10_10  and  C11_11 
ROOT
HETATM    1  C1  UNL     1     -31.726   6.846   3.812  1.00 20.00     0.007 C 
HETATM    2  C2  UNL     1     -31.217   8.096   3.100  1.00 20.00     0.009 C 
HETATM    3  C3  UNL     1     -33.429   7.431   2.263  1.00 20.00     0.015 C 
HETATM    4  C4  UNL     1     -33.241   6.959   3.704  1.00 20.00     0.005 C 
HETATM    5  C5  UNL     1     -32.281   8.437   2.027  1.00 20.00    -0.047 C 
HETATM    6  C6  UNL     1     -31.709   8.282   0.613  1.00 20.00     0.015 C 
HETATM    7  C7  UNL     1     -32.779   9.878   2.210  1.00 20.00     0.015 C 
ENDROOT
BRANCH   4   8
HETATM    8  C10 UNL     1     -33.961   5.656   4.006  1.00 20.00     0.089 C 
HETATM    9 CL12 UNL     1     -35.613   5.726   3.310  1.00 20.00    -0.124 Cl
BRANCH   8  10
HETATM   10  C11 UNL     1     -33.973   5.300   5.514  1.00 20.00    -0.004 C 
HETATM   11  C8  UNL     1     -34.122   6.510   6.442  1.00 20.00     0.011 C 
HETATM   12  C9  UNL     1     -35.048   4.258   5.846  1.00 20.00     0.011 C 
ENDBRANCH   8  10
ENDBRANCH   4   8
TORSDOF 2
ENDMDL
MODEL 7
REMARK VINA RESULT:      -4.3     12.541     15.322
REMARK  2 active torsions:
REMARK  status: ('A' for Active; 'I' for Inactive)
REMARK    1  A    between atoms: C4_4  and  C10_10 
REMARK    2  A    between atoms: C10_10  and  C11_11 
ROOT
HETATM    1  C1  UNL     1     -41.053   3.430  -2.564  1.00 20.00     0.007 C 
HETATM    2  C2  UNL     1     -41.311   2.193  -3.420  1.00 20.00     0.009 C 
HETATM    3  C3  UNL     1     -43.416   3.259  -2.736  1.00 20.00     0.015 C 
HETATM    4  C4  UNL     1     -42.289   4.290  -2.788  1.00 20.00     0.005 C 
HETATM    5  C5  UNL     1     -42.849   2.022  -3.468  1.00 20.00    -0.047 C 
HETATM    6  C6  UNL     1     -43.284   0.732  -2.764  1.00 20.00     0.015 C 
HETATM    7  C7  UNL     1     -43.336   1.986  -4.924  1.00 20.00     0.015 C 
ENDROOT
BRANCH   4   8
HETATM    8  C10 UNL     1     -42.442   5.397  -1.759  1.00 20.00     0.089 C 
HETATM    9 CL12 UNL     1     -41.919   6.950  -2.489  1.00 20.00    -0.124 Cl
BRANCH   8  10
HETATM   10  C11 UNL     1     -41.711   5.097  -0.426  1.00 20.00    -0.004 C 
HETATM   11  C8  UNL     1     -40.667   6.147  -0.035  1.00 20.00     0.011 C 
HETATM   12  C9  UNL     1     -42.695   4.890   0.731  1.00 20.00     0.011 C 
ENDBRANCH   8  10
ENDBRANCH   4   8
TORSDOF 2
ENDMDL
MODEL 8
REMARK VINA RESULT:      -4.2      1.582      2.263
REMARK  2 active torsions:
REMARK  status: ('A' for Active; 'I' for Inactive)
REMARK    1  A    between atoms: C4_4  and  C10_10 
REMARK    2  A    between atoms: C10_10  and  C11_11 
ROOT
HETATM    1  C1  UNL     1     -34.517  15.784  -1.926  1.00 20.00     0.007 C 
HETATM    2  C2  UNL     1     -34.785  16.779  -0.799  1.00 20.00     0.009 C 
HETATM    3  C3  UNL     1     -33.715  17.873  -2.721  1.00 20.00     0.015 C 
HETATM    4  C4  UNL     1     -34.507  16.650  -3.178  1.00 20.00     0.005 C 
HETATM    5  C5  UNL     1     -34.188  18.127  -1.272  1.00 20.00    -0.047 C 
HETATM    6  C6  UNL     1     -33.011  18.552  -0.386  1.00 20.00     0.015 C 
HETATM    7  C7  UNL     1     -35.261  19.226  -1.239  1.00 20.00     0.015 C 
ENDROOT
BRANCH   4   8
HETATM    8  C10 UNL     1     -33.892  15.954  -4.381  1.00 20.00     0.089 C 
HETATM    9 CL12 UNL     1     -33.426  17.189  -5.595  1.00 20.00    -0.124 Cl
BRANCH   8  10
HETATM   10  C11 UNL     1     -34.802  14.852  -4.981  1.00 20.00    -0.004 C 
HETATM   11  C8  UNL     1     -34.985  14.950  -6.499  1.00 20.00     0.011 C 
HETATM   12  C9  UNL     1     -34.319  13.446  -4.608  1.00 20.00     0.011 C 
ENDBRANCH   8  10
ENDBRANCH   4   8
TORSDOF 2
ENDMDL
MODEL 9
REMARK VINA RESULT:      -4.2      1.296      1.505
REMARK  2 active torsions:
REMARK  status: ('A' for Active; 'I' for Inactive)
REMARK    1  A    between atoms: C4_4  and  C10_10 
REMARK    2  A    between atoms: C10_10  and  C11_11 
ROOT
HETATM    1  C1  UNL     1     -33.834  16.363  -3.888  1.00 20.00     0.007 C 
HETATM    2  C2  UNL     1     -33.682  17.311  -2.702  1.00 20.00     0.009 C 
HETATM    3  C3  UNL     1     -35.806  16.080  -2.596  1.00 20.00     0.015 C 
HETATM    4  C4  UNL     1     -34.761  15.275  -3.366  1.00 20.00     0.005 C 
HETATM    5  C5  UNL     1     -35.001  17.199  -1.897  1.00 20.00    -0.047 C 
HETATM    6  C6  UNL     1     -35.778  18.520  -1.922  1.00 20.00     0.015 C 
HETATM    7  C7  UNL     1     -34.703  16.821  -0.438  1.00 20.00     0.015 C 
ENDROOT
BRANCH   4   8
HETATM    8  C10 UNL     1     -35.360  14.420  -4.470  1.00 20.00     0.089 C 
HETATM    9 CL12 UNL     1     -34.284  13.016  -4.770  1.00 20.00    -0.124 Cl
BRANCH   8  10
HETATM   10  C11 UNL     1     -35.663  15.216  -5.764  1.00 20.00    -0.004 C 
HETATM   11  C8  UNL     1     -34.976  14.661  -7.016  1.00 20.00     0.011 C 
HETATM   12  C9  UNL     1     -37.170  15.346  -6.015  1.00 20.00     0.011 C 
ENDBRANCH   8  10
ENDBRANCH   4   8
TORSDOF 2
ENDMDL
