MODEL 1
REMARK VINA RESULT:      -4.2      0.000      0.000
REMARK  4 active torsions:
REMARK  status: ('A' for Active; 'I' for Inactive)
REMARK    1  A    between atoms: C5_5  and  C6_6 
REMARK    2  A    between atoms: C6_6  and  C9_9 
REMARK    3  A    between atoms: C7_7  and  C8_8 
REMARK    4  A    between atoms: C7_7  and  N10_10 
ROOT
HETATM    1  C1  UNL     1     -33.671  17.755  -3.991  1.00 20.00     0.028 C 
HETATM    2  C2  UNL     1     -33.973  18.228  -2.572  1.00 20.00     0.008 C 
HETATM    3  C3  UNL     1     -34.561  16.591  -4.398  1.00 20.00     0.235 C 
HETATM    4  C4  UNL     1     -34.780  15.908  -1.994  1.00 20.00     0.239 C 
HETATM    5  C5  UNL     1     -33.883  17.072  -1.570  1.00 20.00     0.012 C 
HETATM    6  N10 UNL     1     -34.412  15.473  -3.394  1.00 20.00    -0.069 N 
HETATM    7  H30 UNL     1     -33.419  15.204  -3.380  1.00 20.00     0.280 HD
ENDROOT
BRANCH   6   8
HETATM    8  C7  UNL     1     -35.178  14.247  -3.814  1.00 20.00     0.266 C 
BRANCH   8   9
HETATM    9  C8  UNL     1     -34.246  13.311  -4.547  1.00 20.00     0.249 C 
HETATM   10  F11 UNL     1     -33.050  13.275  -3.902  1.00 20.00    -0.254 F 
ENDBRANCH   8   9
ENDBRANCH   6   8
BRANCH   5  11
HETATM   11  C6  UNL     1     -34.255  17.546  -0.167  1.00 20.00     0.021 C 
BRANCH  11  12
HETATM   12  C9  UNL     1     -33.631  18.884   0.202  1.00 20.00     0.115 C 
HETATM   13 CL12 UNL     1     -31.858  18.790   0.308  1.00 20.00    -0.130 Cl
ENDBRANCH  11  12
ENDBRANCH   5  11
TORSDOF 4
ENDMDL
MODEL 2
REMARK VINA RESULT:      -4.1      2.652      3.379
REMARK  4 active torsions:
REMARK  status: ('A' for Active; 'I' for Inactive)
REMARK    1  A    between atoms: C5_5  and  C6_6 
REMARK    2  A    between atoms: C6_6  and  C9_9 
REMARK    3  A    between atoms: C7_7  and  C8_8 
REMARK    4  A    between atoms: C7_7  and  N10_10 
ROOT
HETATM    1  C1  UNL     1     -34.061  13.677  -4.233  1.00 20.00     0.028 C 
HETATM    2  C2  UNL     1     -33.496  14.845  -3.431  1.00 20.00     0.008 C 
HETATM    3  C3  UNL     1     -35.285  14.087  -5.037  1.00 20.00     0.235 C 
HETATM    4  C4  UNL     1     -35.795  15.883  -3.362  1.00 20.00     0.239 C 
HETATM    5  C5  UNL     1     -34.569  15.480  -2.540  1.00 20.00     0.012 C 
HETATM    6  N10 UNL     1     -36.319  14.678  -4.109  1.00 20.00    -0.069 N 
HETATM    7  H30 UNL     1     -36.549  13.960  -3.410  1.00 20.00     0.280 HD
ENDROOT
BRANCH   6   8
HETATM    8  C7  UNL     1     -37.601  14.989  -4.834  1.00 20.00     0.266 C 
BRANCH   8   9
HETATM    9  C8  UNL     1     -38.761  14.810  -3.883  1.00 20.00     0.249 C 
HETATM   10  F11 UNL     1     -39.716  14.050  -4.483  1.00 20.00    -0.254 F 
ENDBRANCH   8   9
ENDBRANCH   6   8
BRANCH   5  11
HETATM   11  C6  UNL     1     -34.006  16.689  -1.797  1.00 20.00     0.021 C 
BRANCH  11  12
HETATM   12  C9  UNL     1     -34.665  16.924  -0.446  1.00 20.00     0.115 C 
HETATM   13 CL12 UNL     1     -33.802  18.147   0.516  1.00 20.00    -0.130 Cl
ENDBRANCH  11  12
ENDBRANCH   5  11
TORSDOF 4
ENDMDL
MODEL 3
REMARK VINA RESULT:      -4.1      2.409      3.469
REMARK  4 active torsions:
REMARK  status: ('A' for Active; 'I' for Inactive)
REMARK    1  A    between atoms: C5_5  and  C6_6 
REMARK    2  A    between atoms: C6_6  and  C9_9 
REMARK    3  A    between atoms: C7_7  and  C8_8 
REMARK    4  A    between atoms: C7_7  and  N10_10 
ROOT
HETATM    1  C1  UNL     1     -34.662  13.243  -4.550  1.00 20.00     0.028 C 
HETATM    2  C2  UNL     1     -33.923  14.117  -3.541  1.00 20.00     0.008 C 
HETATM    3  C3  UNL     1     -35.007  14.013  -5.816  1.00 20.00     0.235 C 
HETATM    4  C4  UNL     1     -35.053  16.155  -4.510  1.00 20.00     0.239 C 
HETATM    5  C5  UNL     1     -34.711  15.393  -3.228  1.00 20.00     0.012 C 
HETATM    6  N10 UNL     1     -35.805  15.243  -5.452  1.00 20.00    -0.069 N 
HETATM    7  H30 UNL     1     -36.651  14.924  -4.960  1.00 20.00     0.280 HD
ENDROOT
BRANCH   6   8
HETATM    8  C7  UNL     1     -36.278  15.978  -6.676  1.00 20.00     0.266 C 
BRANCH   8   9
HETATM    9  C8  UNL     1     -35.296  15.746  -7.801  1.00 20.00     0.249 C 
HETATM   10  F11 UNL     1     -34.319  16.689  -7.743  1.00 20.00    -0.254 F 
ENDBRANCH   8   9
ENDBRANCH   6   8
BRANCH   5  11
HETATM   11  C6  UNL     1     -33.927  16.289  -2.271  1.00 20.00     0.021 C 
BRANCH  11  12
HETATM   12  C9  UNL     1     -34.655  16.552  -0.961  1.00 20.00     0.115 C 
HETATM   13 CL12 UNL     1     -33.884  17.846  -0.015  1.00 20.00    -0.130 Cl
ENDBRANCH  11  12
ENDBRANCH   5  11
TORSDOF 4
ENDMDL
MODEL 4
REMARK VINA RESULT:      -4.1      3.747      5.739
REMARK  4 active torsions:
REMARK  status: ('A' for Active; 'I' for Inactive)
REMARK    1  A    between atoms: C5_5  and  C6_6 
REMARK    2  A    between atoms: C6_6  and  C9_9 
REMARK    3  A    between atoms: C7_7  and  C8_8 
REMARK    4  A    between atoms: C7_7  and  N10_10 
ROOT
HETATM    1  C1  UNL     1     -34.212  13.287  -4.556  1.00 20.00     0.028 C 
HETATM    2  C2  UNL     1     -34.901  13.796  -5.819  1.00 20.00     0.008 C 
HETATM    3  C3  UNL     1     -34.325  14.283  -3.412  1.00 20.00     0.235 C 
HETATM    4  C4  UNL     1     -34.494  16.167  -5.059  1.00 20.00     0.239 C 
HETATM    5  C5  UNL     1     -34.376  15.178  -6.220  1.00 20.00     0.012 C 
HETATM    6  N10 UNL     1     -33.770  15.616  -3.852  1.00 20.00    -0.069 N 
HETATM    7  H30 UNL     1     -32.790  15.464  -4.126  1.00 20.00     0.280 HD
ENDROOT
BRANCH   6   8
HETATM    8  C7  UNL     1     -33.745  16.606  -2.720  1.00 20.00     0.266 C 
BRANCH   8   9
HETATM    9  C8  UNL     1     -34.822  16.245  -1.724  1.00 20.00     0.249 C 
HETATM   10  F11 UNL     1     -34.351  16.441  -0.464  1.00 20.00    -0.254 F 
ENDBRANCH   8   9
ENDBRANCH   6   8
BRANCH   5  11
HETATM   11  C6  UNL     1     -35.124  15.703  -7.444  1.00 20.00     0.021 C 
BRANCH  11  12
HETATM   12  C9  UNL     1     -36.230  14.772  -7.918  1.00 20.00     0.115 C 
HETATM   13 CL12 UNL     1     -37.820  15.236  -7.270  1.00 20.00    -0.130 Cl
ENDBRANCH  11  12
ENDBRANCH   5  11
TORSDOF 4
ENDMDL
MODEL 5
REMARK VINA RESULT:      -4.0      1.720      1.848
REMARK  4 active torsions:
REMARK  status: ('A' for Active; 'I' for Inactive)
REMARK    1  A    between atoms: C5_5  and  C6_6 
REMARK    2  A    between atoms: C6_6  and  C9_9 
REMARK    3  A    between atoms: C7_7  and  C8_8 
REMARK    4  A    between atoms: C7_7  and  N10_10 
ROOT
HETATM    1  C1  UNL     1     -33.546  17.300  -5.103  1.00 20.00     0.028 C 
HETATM    2  C2  UNL     1     -34.105  17.964  -3.848  1.00 20.00     0.008 C 
HETATM    3  C3  UNL     1     -33.895  15.821  -5.160  1.00 20.00     0.235 C 
HETATM    4  C4  UNL     1     -34.007  15.742  -2.656  1.00 20.00     0.239 C 
HETATM    5  C5  UNL     1     -33.652  17.229  -2.582  1.00 20.00     0.012 C 
HETATM    6  N10 UNL     1     -33.403  15.142  -3.904  1.00 20.00    -0.069 N 
HETATM    7  H30 UNL     1     -32.386  15.289  -3.855  1.00 20.00     0.280 HD
ENDROOT
BRANCH   6   8
HETATM    8  C7  UNL     1     -33.613  13.653  -3.962  1.00 20.00     0.266 C 
BRANCH   8   9
HETATM    9  C8  UNL     1     -34.783  13.354  -4.870  1.00 20.00     0.249 C 
HETATM   10  F11 UNL     1     -35.911  13.232  -4.120  1.00 20.00    -0.254 F 
ENDBRANCH   8   9
ENDBRANCH   6   8
BRANCH   5  11
HETATM   11  C6  UNL     1     -34.275  17.863  -1.340  1.00 20.00     0.021 C 
BRANCH  11  12
HETATM   12  C9  UNL     1     -34.785  16.841  -0.334  1.00 20.00     0.115 C 
HETATM   13 CL12 UNL     1     -35.277  17.597   1.198  1.00 20.00    -0.130 Cl
ENDBRANCH  11  12
ENDBRANCH   5  11
TORSDOF 4
ENDMDL
MODEL 6
REMARK VINA RESULT:      -4.0      3.311      4.847
REMARK  4 active torsions:
REMARK  status: ('A' for Active; 'I' for Inactive)
REMARK    1  A    between atoms: C5_5  and  C6_6 
REMARK    2  A    between atoms: C6_6  and  C9_9 
REMARK    3  A    between atoms: C7_7  and  C8_8 
REMARK    4  A    between atoms: C7_7  and  N10_10 
ROOT
HETATM    1  C1  UNL     1     -33.564  17.784  -4.457  1.00 20.00     0.028 C 
HETATM    2  C2  UNL     1     -33.210  16.299  -4.475  1.00 20.00     0.008 C 
HETATM    3  C3  UNL     1     -33.906  18.264  -3.056  1.00 20.00     0.235 C 
HETATM    4  C4  UNL     1     -34.657  15.952  -2.437  1.00 20.00     0.239 C 
HETATM    5  C5  UNL     1     -34.323  15.455  -3.844  1.00 20.00     0.012 C 
HETATM    6  N10 UNL     1     -35.023  17.418  -2.494  1.00 20.00    -0.069 N 
HETATM    7  H30 UNL     1     -35.826  17.509  -3.132  1.00 20.00     0.280 HD
ENDROOT
BRANCH   6   8
HETATM    8  C7  UNL     1     -35.485  17.927  -1.156  1.00 20.00     0.266 C 
BRANCH   8   9
HETATM    9  C8  UNL     1     -34.818  17.123  -0.065  1.00 20.00     0.249 C 
HETATM   10  F11 UNL     1     -33.655  17.731   0.290  1.00 20.00    -0.254 F 
ENDBRANCH   8   9
ENDBRANCH   6   8
BRANCH   5  11
HETATM   11  C6  UNL     1     -33.924  13.981  -3.807  1.00 20.00     0.021 C 
BRANCH  11  12
HETATM   12  C9  UNL     1     -34.714  13.119  -4.780  1.00 20.00     0.115 C 
HETATM   13 CL12 UNL     1     -35.160  14.010  -6.253  1.00 20.00    -0.130 Cl
ENDBRANCH  11  12
ENDBRANCH   5  11
TORSDOF 4
ENDMDL
MODEL 7
REMARK VINA RESULT:      -3.9     12.775     13.881
REMARK  4 active torsions:
REMARK  status: ('A' for Active; 'I' for Inactive)
REMARK    1  A    between atoms: C5_5  and  C6_6 
REMARK    2  A    between atoms: C6_6  and  C9_9 
REMARK    3  A    between atoms: C7_7  and  C8_8 
REMARK    4  A    between atoms: C7_7  and  N10_10 
ROOT
HETATM    1  C1  UNL     1     -40.734   5.775  -0.445  1.00 20.00     0.028 C 
HETATM    2  C2  UNL     1     -41.114   6.998  -1.276  1.00 20.00     0.008 C 
HETATM    3  C3  UNL     1     -40.940   4.483  -1.219  1.00 20.00     0.235 C 
HETATM    4  C4  UNL     1     -42.739   5.577  -2.583  1.00 20.00     0.239 C 
HETATM    5  C5  UNL     1     -42.546   6.883  -1.811  1.00 20.00     0.012 C 
HETATM    6  N10 UNL     1     -42.370   4.408  -1.698  1.00 20.00    -0.069 N 
HETATM    7  H30 UNL     1     -42.974   4.452  -0.866  1.00 20.00     0.280 HD
ENDROOT
BRANCH   6   8
HETATM    8  C7  UNL     1     -42.663   3.092  -2.365  1.00 20.00     0.266 C 
BRANCH   8   9
HETATM    9  C8  UNL     1     -41.448   2.656  -3.150  1.00 20.00     0.249 C 
HETATM   10  F11 UNL     1     -41.501   1.311  -3.345  1.00 20.00    -0.254 F 
ENDBRANCH   8   9
ENDBRANCH   6   8
BRANCH   5  11
HETATM   11  C6  UNL     1     -42.887   8.080  -2.696  1.00 20.00     0.021 C 
BRANCH  11  12
HETATM   12  C9  UNL     1     -42.885   7.749  -4.181  1.00 20.00     0.115 C 
HETATM   13 CL12 UNL     1     -41.857   8.861  -5.113  1.00 20.00    -0.130 Cl
ENDBRANCH  11  12
ENDBRANCH   5  11
TORSDOF 4
ENDMDL
MODEL 8
REMARK VINA RESULT:      -3.9      3.242      4.699
REMARK  4 active torsions:
REMARK  status: ('A' for Active; 'I' for Inactive)
REMARK    1  A    between atoms: C5_5  and  C6_6 
REMARK    2  A    between atoms: C6_6  and  C9_9 
REMARK    3  A    between atoms: C7_7  and  C8_8 
REMARK    4  A    between atoms: C7_7  and  N10_10 
ROOT
HETATM    1  C1  UNL     1     -33.855  17.381  -2.169  1.00 20.00     0.028 C 
HETATM    2  C2  UNL     1     -33.981  15.870  -2.338  1.00 20.00     0.008 C 
HETATM    3  C3  UNL     1     -34.242  18.124  -3.438  1.00 20.00     0.235 C 
HETATM    4  C4  UNL     1     -33.574  16.136  -4.814  1.00 20.00     0.239 C 
HETATM    5  C5  UNL     1     -33.177  15.377  -3.546  1.00 20.00     0.012 C 
HETATM    6  N10 UNL     1     -33.403  17.620  -4.588  1.00 20.00    -0.069 N 
HETATM    7  H30 UNL     1     -32.417  17.781  -4.341  1.00 20.00     0.280 HD
ENDROOT
BRANCH   6   8
HETATM    8  C7  UNL     1     -33.657  18.406  -5.846  1.00 20.00     0.266 C 
BRANCH   8   9
HETATM    9  C8  UNL     1     -34.703  17.693  -6.670  1.00 20.00     0.249 C 
HETATM   10  F11 UNL     1     -34.212  17.469  -7.918  1.00 20.00    -0.254 F 
ENDBRANCH   8   9
ENDBRANCH   6   8
BRANCH   5  11
HETATM   11  C6  UNL     1     -33.368  13.875  -3.743  1.00 20.00     0.021 C 
BRANCH  11  12
HETATM   12  C9  UNL     1     -34.375  13.535  -4.832  1.00 20.00     0.115 C 
HETATM   13 CL12 UNL     1     -36.053  13.703  -4.268  1.00 20.00    -0.130 Cl
ENDBRANCH  11  12
ENDBRANCH   5  11
TORSDOF 4
ENDMDL
MODEL 9
REMARK VINA RESULT:      -3.9      3.583      5.062
REMARK  4 active torsions:
REMARK  status: ('A' for Active; 'I' for Inactive)
REMARK    1  A    between atoms: C5_5  and  C6_6 
REMARK    2  A    between atoms: C6_6  and  C9_9 
REMARK    3  A    between atoms: C7_7  and  C8_8 
REMARK    4  A    between atoms: C7_7  and  N10_10 
ROOT
HETATM    1  C1  UNL     1     -36.734  17.302  -2.777  1.00 20.00     0.028 C 
HETATM    2  C2  UNL     1     -35.571  16.728  -3.582  1.00 20.00     0.008 C 
HETATM    3  C3  UNL     1     -36.254  18.000  -1.514  1.00 20.00     0.235 C 
HETATM    4  C4  UNL     1     -34.231  16.518  -1.454  1.00 20.00     0.239 C 
HETATM    5  C5  UNL     1     -34.702  15.804  -2.722  1.00 20.00     0.012 C 
HETATM    6  N10 UNL     1     -35.429  17.038  -0.693  1.00 20.00    -0.069 N 
HETATM    7  H30 UNL     1     -36.027  16.230  -0.475  1.00 20.00     0.280 HD
ENDROOT
BRANCH   6   8
HETATM    8  C7  UNL     1     -35.030  17.638   0.628  1.00 20.00     0.266 C 
BRANCH   8   9
HETATM    9  C8  UNL     1     -33.720  18.373   0.461  1.00 20.00     0.249 C 
HETATM   10  F11 UNL     1     -33.041  18.349   1.638  1.00 20.00    -0.254 F 
ENDBRANCH   8   9
ENDBRANCH   6   8
BRANCH   5  11
HETATM   11  C6  UNL     1     -33.506  15.293  -3.521  1.00 20.00     0.021 C 
BRANCH  11  12
HETATM   12  C9  UNL     1     -33.510  13.784  -3.712  1.00 20.00     0.115 C 
HETATM   13 CL12 UNL     1     -34.863  13.241  -4.731  1.00 20.00    -0.130 Cl
ENDBRANCH  11  12
ENDBRANCH   5  11
TORSDOF 4
ENDMDL
