MODEL 1
REMARK VINA RESULT:      -5.1      0.000      0.000
REMARK  0 active torsions:
REMARK  status: ('A' for Active; 'I' for Inactive)
ROOT
HETATM    1  C1  UNL     1     -32.160   8.168   2.104  1.00 20.00     0.088 C 
HETATM    2  C2  UNL     1     -33.077   6.442   3.512  1.00 20.00    -0.069 C 
HETATM    3  C3  UNL     1     -32.020   7.035   2.947  1.00 20.00     0.096 C 
HETATM    4  C4  UNL     1     -34.500   6.887   3.329  1.00 20.00     0.036 C 
HETATM    5  C5  UNL     1     -33.001   5.257   4.436  1.00 20.00     0.043 C 
HETATM    6  C6  UNL     1     -35.306   5.784   4.016  1.00 20.00     0.013 C 
HETATM    7  C7  UNL     1     -34.381   5.244   5.121  1.00 20.00    -0.044 C 
HETATM    8  C8  UNL     1     -34.398   6.162   6.357  1.00 20.00     0.015 C 
HETATM    9  C9  UNL     1     -34.782   3.829   5.545  1.00 20.00     0.015 C 
HETATM   10  N10 UNL     1     -32.268   9.093   1.414  1.00 20.00    -0.192 NA
ENDROOT
TORSDOF 0
ENDMDL
MODEL 2
REMARK VINA RESULT:      -4.6     11.240     12.323
REMARK  0 active torsions:
REMARK  status: ('A' for Active; 'I' for Inactive)
ROOT
HETATM    1  C1  UNL     1     -34.426  16.886  -0.799  1.00 20.00     0.088 C 
HETATM    2  C2  UNL     1     -34.341  16.064  -3.062  1.00 20.00    -0.069 C 
HETATM    3  C3  UNL     1     -33.744  16.656  -2.022  1.00 20.00     0.096 C 
HETATM    4  C4  UNL     1     -35.765  15.584  -3.065  1.00 20.00     0.036 C 
HETATM    5  C5  UNL     1     -33.673  15.765  -4.376  1.00 20.00     0.043 C 
HETATM    6  C6  UNL     1     -35.995  15.171  -4.519  1.00 20.00     0.013 C 
HETATM    7  C7  UNL     1     -34.611  14.735  -5.033  1.00 20.00    -0.044 C 
HETATM    8  C8  UNL     1     -34.274  13.304  -4.577  1.00 20.00     0.015 C 
HETATM    9  C9  UNL     1     -34.535  14.803  -6.561  1.00 20.00     0.015 C 
HETATM   10  N10 UNL     1     -34.979  17.077   0.202  1.00 20.00    -0.192 NA
ENDROOT
TORSDOF 0
ENDMDL
MODEL 3
REMARK VINA RESULT:      -4.6     11.167     12.326
REMARK  0 active torsions:
REMARK  status: ('A' for Active; 'I' for Inactive)
ROOT
HETATM    1  C1  UNL     1     -35.352  13.639  -4.176  1.00 20.00     0.088 C 
HETATM    2  C2  UNL     1     -35.346  15.778  -3.069  1.00 20.00    -0.069 C 
HETATM    3  C3  UNL     1     -36.017  14.771  -3.638  1.00 20.00     0.096 C 
HETATM    4  C4  UNL     1     -33.851  15.835  -2.933  1.00 20.00     0.036 C 
HETATM    5  C5  UNL     1     -35.985  16.994  -2.455  1.00 20.00     0.043 C 
HETATM    6  C6  UNL     1     -33.598  17.244  -2.398  1.00 20.00     0.013 C 
HETATM    7  C7  UNL     1     -34.861  17.597  -1.592  1.00 20.00    -0.044 C 
HETATM    8  C8  UNL     1     -34.826  16.954  -0.194  1.00 20.00     0.015 C 
HETATM    9  C9  UNL     1     -35.023  19.112  -1.441  1.00 20.00     0.015 C 
HETATM   10  N10 UNL     1     -34.814  12.712  -4.618  1.00 20.00    -0.192 NA
ENDROOT
TORSDOF 0
ENDMDL
MODEL 4
REMARK VINA RESULT:      -4.3     11.498     12.121
REMARK  0 active torsions:
REMARK  status: ('A' for Active; 'I' for Inactive)
ROOT
HETATM    1  C1  UNL     1     -33.826  17.650  -0.665  1.00 20.00     0.088 C 
HETATM    2  C2  UNL     1     -34.465  15.976  -2.276  1.00 20.00    -0.069 C 
HETATM    3  C3  UNL     1     -34.772  16.761  -1.238  1.00 20.00     0.096 C 
HETATM    4  C4  UNL     1     -33.120  15.939  -2.945  1.00 20.00     0.036 C 
HETATM    5  C5  UNL     1     -35.424  15.033  -2.950  1.00 20.00     0.043 C 
HETATM    6  C6  UNL     1     -33.244  14.771  -3.922  1.00 20.00     0.013 C 
HETATM    7  C7  UNL     1     -34.738  14.716  -4.292  1.00 20.00    -0.044 C 
HETATM    8  C8  UNL     1     -35.085  15.772  -5.357  1.00 20.00     0.015 C 
HETATM    9  C9  UNL     1     -35.136  13.333  -4.812  1.00 20.00     0.015 C 
HETATM   10  N10 UNL     1     -33.056  18.377  -0.193  1.00 20.00    -0.192 NA
ENDROOT
TORSDOF 0
ENDMDL
MODEL 5
REMARK VINA RESULT:      -4.3     11.595     12.559
REMARK  0 active torsions:
REMARK  status: ('A' for Active; 'I' for Inactive)
ROOT
HETATM    1  C1  UNL     1     -33.306  16.247  -4.067  1.00 20.00     0.088 C 
HETATM    2  C2  UNL     1     -34.228  16.889  -1.936  1.00 20.00    -0.069 C 
HETATM    3  C3  UNL     1     -33.736  15.947  -2.748  1.00 20.00     0.096 C 
HETATM    4  C4  UNL     1     -34.381  18.336  -2.307  1.00 20.00     0.036 C 
HETATM    5  C5  UNL     1     -34.677  16.649  -0.520  1.00 20.00     0.043 C 
HETATM    6  C6  UNL     1     -35.144  18.925  -1.121  1.00 20.00     0.013 C 
HETATM    7  C7  UNL     1     -34.734  18.063   0.086  1.00 20.00    -0.044 C 
HETATM    8  C8  UNL     1     -33.360  18.491   0.633  1.00 20.00     0.015 C 
HETATM    9  C9  UNL     1     -35.768  18.149   1.212  1.00 20.00     0.015 C 
HETATM   10  N10 UNL     1     -32.953  16.486  -5.145  1.00 20.00    -0.192 NA
ENDROOT
TORSDOF 0
ENDMDL
MODEL 6
REMARK VINA RESULT:      -4.2      9.396     10.557
REMARK  0 active torsions:
REMARK  status: ('A' for Active; 'I' for Inactive)
ROOT
HETATM    1  C1  UNL     1     -42.512   8.205  -4.286  1.00 20.00     0.088 C 
HETATM    2  C2  UNL     1     -42.503   6.639  -2.455  1.00 20.00    -0.069 C 
HETATM    3  C3  UNL     1     -43.032   7.075  -3.603  1.00 20.00     0.096 C 
HETATM    4  C4  UNL     1     -41.328   7.273  -1.765  1.00 20.00     0.036 C 
HETATM    5  C5  UNL     1     -42.985   5.435  -1.693  1.00 20.00     0.043 C 
HETATM    6  C6  UNL     1     -41.253   6.523  -0.436  1.00 20.00     0.013 C 
HETATM    7  C7  UNL     1     -41.821   5.124  -0.734  1.00 20.00    -0.044 C 
HETATM    8  C8  UNL     1     -40.766   4.229  -1.410  1.00 20.00     0.015 C 
HETATM    9  C9  UNL     1     -42.314   4.436   0.542  1.00 20.00     0.015 C 
HETATM   10  N10 UNL     1     -42.090   9.128  -4.847  1.00 20.00    -0.192 NA
ENDROOT
TORSDOF 0
ENDMDL
MODEL 7
REMARK VINA RESULT:      -4.2      9.618     11.017
REMARK  0 active torsions:
REMARK  status: ('A' for Active; 'I' for Inactive)
ROOT
HETATM    1  C1  UNL     1     -42.285   2.124  -3.352  1.00 20.00     0.088 C 
HETATM    2  C2  UNL     1     -42.134   4.359  -2.467  1.00 20.00    -0.069 C 
HETATM    3  C3  UNL     1     -42.688   3.484  -3.312  1.00 20.00     0.096 C 
HETATM    4  C4  UNL     1     -41.047   4.023  -1.485  1.00 20.00     0.036 C 
HETATM    5  C5  UNL     1     -42.530   5.806  -2.352  1.00 20.00     0.043 C 
HETATM    6  C6  UNL     1     -40.653   5.385  -0.915  1.00 20.00     0.013 C 
HETATM    7  C7  UNL     1     -41.931   6.239  -1.001  1.00 20.00    -0.044 C 
HETATM    8  C8  UNL     1     -42.890   5.921   0.161  1.00 20.00     0.015 C 
HETATM    9  C9  UNL     1     -41.606   7.735  -0.985  1.00 20.00     0.015 C 
HETATM   10  N10 UNL     1     -41.958   1.012  -3.389  1.00 20.00    -0.192 NA
ENDROOT
TORSDOF 0
ENDMDL
MODEL 8
REMARK VINA RESULT:      -4.2     10.157     11.401
REMARK  0 active torsions:
REMARK  status: ('A' for Active; 'I' for Inactive)
ROOT
HETATM    1  C1  UNL     1     -41.951   1.654  -4.437  1.00 20.00     0.088 C 
HETATM    2  C2  UNL     1     -41.765   3.268  -2.659  1.00 20.00    -0.069 C 
HETATM    3  C3  UNL     1     -41.201   2.360  -3.461  1.00 20.00     0.096 C 
HETATM    4  C4  UNL     1     -43.220   3.642  -2.689  1.00 20.00     0.036 C 
HETATM    5  C5  UNL     1     -41.027   4.072  -1.623  1.00 20.00     0.043 C 
HETATM    6  C6  UNL     1     -43.374   4.559  -1.476  1.00 20.00     0.013 C 
HETATM    7  C7  UNL     1     -41.997   5.225  -1.302  1.00 20.00    -0.044 C 
HETATM    8  C8  UNL     1     -41.817   6.395  -2.285  1.00 20.00     0.015 C 
HETATM    9  C9  UNL     1     -41.801   5.739   0.127  1.00 20.00     0.015 C 
HETATM   10  N10 UNL     1     -42.559   1.074  -5.236  1.00 20.00    -0.192 NA
ENDROOT
TORSDOF 0
ENDMDL
MODEL 9
REMARK VINA RESULT:      -4.1     10.983     12.462
REMARK  0 active torsions:
REMARK  status: ('A' for Active; 'I' for Inactive)
ROOT
HETATM    1  C1  UNL     1     -34.388  13.509  -4.094  1.00 20.00     0.088 C 
HETATM    2  C2  UNL     1     -34.410  15.579  -2.862  1.00 20.00    -0.069 C 
HETATM    3  C3  UNL     1     -33.767  14.478  -3.264  1.00 20.00     0.096 C 
HETATM    4  C4  UNL     1     -35.827  15.918  -3.229  1.00 20.00     0.036 C 
HETATM    5  C5  UNL     1     -33.806  16.659  -2.006  1.00 20.00     0.043 C 
HETATM    6  C6  UNL     1     -36.126  17.152  -2.379  1.00 20.00     0.013 C 
HETATM    7  C7  UNL     1     -34.766  17.849  -2.194  1.00 20.00    -0.044 C 
HETATM    8  C8  UNL     1     -34.391  18.676  -3.437  1.00 20.00     0.015 C 
HETATM    9  C9  UNL     1     -34.768  18.765  -0.967  1.00 20.00     0.015 C 
HETATM   10  N10 UNL     1     -34.891  12.715  -4.772  1.00 20.00    -0.192 NA
ENDROOT
TORSDOF 0
ENDMDL
