MODEL 1
REMARK VINA RESULT:      -5.1      0.000      0.000
REMARK  4 active torsions:
REMARK  status: ('A' for Active; 'I' for Inactive)
REMARK    1  A    between atoms: C1_1  and  C4_4 
REMARK    2  A    between atoms: C1_1  and  C7_7 
REMARK    3  A    between atoms: C4_4  and  C5_5 
REMARK    4  A    between atoms: C5_5  and  C6_6 
ROOT
HETATM    1  C1  UNL     1     -34.141   5.715   4.013  1.00 20.00     0.130 C 
HETATM    2  O8  UNL     1     -34.593   5.266   2.960  1.00 20.00    -0.298 OA
ENDROOT
BRANCH   1   3
HETATM    3  C4  UNL     1     -32.886   6.577   4.046  1.00 20.00     0.081 C 
BRANCH   3   4
HETATM    4  C5  UNL     1     -32.222   6.740   2.679  1.00 20.00     0.038 C 
BRANCH   4   5
HETATM    5  C6  UNL     1     -32.177   8.189   2.219  1.00 20.00     0.222 C 
HETATM    6  F9  UNL     1     -31.408   8.279   1.101  1.00 20.00    -0.255 F 
ENDBRANCH   4   5
ENDBRANCH   3   4
ENDBRANCH   1   3
BRANCH   1   7
HETATM    7  C7  UNL     1     -34.841   5.483   5.353  1.00 20.00     0.047 C 
HETATM    8  C2  UNL     1     -34.837   3.998   5.695  1.00 20.00     0.017 C 
HETATM    9  C3  UNL     1     -34.180   6.296   6.465  1.00 20.00     0.017 C 
ENDBRANCH   1   7
TORSDOF 4
ENDMDL
MODEL 2
REMARK VINA RESULT:      -4.8      0.737      1.388
REMARK  4 active torsions:
REMARK  status: ('A' for Active; 'I' for Inactive)
REMARK    1  A    between atoms: C1_1  and  C4_4 
REMARK    2  A    between atoms: C1_1  and  C7_7 
REMARK    3  A    between atoms: C4_4  and  C5_5 
REMARK    4  A    between atoms: C5_5  and  C6_6 
ROOT
HETATM    1  C1  UNL     1     -34.311   5.629   3.924  1.00 20.00     0.130 C 
HETATM    2  O8  UNL     1     -35.455   5.881   3.543  1.00 20.00    -0.298 OA
ENDROOT
BRANCH   1   3
HETATM    3  C4  UNL     1     -33.112   5.740   2.991  1.00 20.00     0.081 C 
BRANCH   3   4
HETATM    4  C5  UNL     1     -32.202   6.926   3.305  1.00 20.00     0.038 C 
BRANCH   4   5
HETATM    5  C6  UNL     1     -32.407   8.092   2.350  1.00 20.00     0.222 C 
HETATM    6  F9  UNL     1     -31.407   8.096   1.429  1.00 20.00    -0.255 F 
ENDBRANCH   4   5
ENDBRANCH   3   4
ENDBRANCH   1   3
BRANCH   1   7
HETATM    7  C7  UNL     1     -34.012   5.242   5.373  1.00 20.00     0.047 C 
HETATM    8  C2  UNL     1     -34.108   6.468   6.272  1.00 20.00     0.017 C 
HETATM    9  C3  UNL     1     -34.957   4.143   5.854  1.00 20.00     0.017 C 
ENDBRANCH   1   7
TORSDOF 4
ENDMDL
MODEL 3
REMARK VINA RESULT:      -4.7      1.405      1.677
REMARK  4 active torsions:
REMARK  status: ('A' for Active; 'I' for Inactive)
REMARK    1  A    between atoms: C1_1  and  C4_4 
REMARK    2  A    between atoms: C1_1  and  C7_7 
REMARK    3  A    between atoms: C4_4  and  C5_5 
REMARK    4  A    between atoms: C5_5  and  C6_6 
ROOT
HETATM    1  C1  UNL     1     -33.522   6.112   4.467  1.00 20.00     0.130 C 
HETATM    2  O8  UNL     1     -33.294   6.828   5.442  1.00 20.00    -0.298 OA
ENDROOT
BRANCH   1   3
HETATM    3  C4  UNL     1     -32.686   6.197   3.196  1.00 20.00     0.081 C 
BRANCH   3   4
HETATM    4  C5  UNL     1     -31.816   7.451   3.119  1.00 20.00     0.038 C 
BRANCH   4   5
HETATM    5  C6  UNL     1     -32.243   8.394   2.004  1.00 20.00     0.222 C 
HETATM    6  F9  UNL     1     -31.325   8.345   1.003  1.00 20.00    -0.255 F 
ENDBRANCH   4   5
ENDBRANCH   3   4
ENDBRANCH   1   3
BRANCH   1   7
HETATM    7  C7  UNL     1     -34.624   5.052   4.485  1.00 20.00     0.047 C 
HETATM    8  C2  UNL     1     -34.971   4.684   5.922  1.00 20.00     0.017 C 
HETATM    9  C3  UNL     1     -35.864   5.536   3.737  1.00 20.00     0.017 C 
ENDBRANCH   1   7
TORSDOF 4
ENDMDL
MODEL 4
REMARK VINA RESULT:      -4.6      1.436      1.744
REMARK  4 active torsions:
REMARK  status: ('A' for Active; 'I' for Inactive)
REMARK    1  A    between atoms: C1_1  and  C4_4 
REMARK    2  A    between atoms: C1_1  and  C7_7 
REMARK    3  A    between atoms: C4_4  and  C5_5 
REMARK    4  A    between atoms: C5_5  and  C6_6 
ROOT
HETATM    1  C1  UNL     1     -33.654   6.261   4.942  1.00 20.00     0.130 C 
HETATM    2  O8  UNL     1     -33.146   6.891   5.870  1.00 20.00    -0.298 OA
ENDROOT
BRANCH   1   3
HETATM    3  C4  UNL     1     -32.981   6.157   3.579  1.00 20.00     0.081 C 
BRANCH   3   4
HETATM    4  C5  UNL     1     -31.903   7.215   3.348  1.00 20.00     0.038 C 
BRANCH   4   5
HETATM    5  C6  UNL     1     -32.292   8.225   2.280  1.00 20.00     0.222 C 
HETATM    6  F9  UNL     1     -31.395   8.166   1.260  1.00 20.00    -0.255 F 
ENDBRANCH   4   5
ENDBRANCH   3   4
ENDBRANCH   1   3
BRANCH   1   7
HETATM    7  C7  UNL     1     -34.968   5.497   5.110  1.00 20.00     0.047 C 
HETATM    8  C2  UNL     1     -35.638   5.304   3.755  1.00 20.00     0.017 C 
HETATM    9  C3  UNL     1     -34.737   4.152   5.796  1.00 20.00     0.017 C 
ENDBRANCH   1   7
TORSDOF 4
ENDMDL
MODEL 5
REMARK VINA RESULT:      -4.4      1.555      1.914
REMARK  4 active torsions:
REMARK  status: ('A' for Active; 'I' for Inactive)
REMARK    1  A    between atoms: C1_1  and  C4_4 
REMARK    2  A    between atoms: C1_1  and  C7_7 
REMARK    3  A    between atoms: C4_4  and  C5_5 
REMARK    4  A    between atoms: C5_5  and  C6_6 
ROOT
HETATM    1  C1  UNL     1     -32.660   6.462   3.380  1.00 20.00     0.130 C 
HETATM    2  O8  UNL     1     -32.153   5.427   2.946  1.00 20.00    -0.298 OA
ENDROOT
BRANCH   1   3
HETATM    3  C4  UNL     1     -31.998   7.821   3.192  1.00 20.00     0.081 C 
BRANCH   3   4
HETATM    4  C5  UNL     1     -31.808   8.209   1.727  1.00 20.00     0.038 C 
BRANCH   4   5
HETATM    5  C6  UNL     1     -32.471   9.533   1.380  1.00 20.00     0.222 C 
HETATM    6  F9  UNL     1     -32.820   9.528   0.066  1.00 20.00    -0.255 F 
ENDBRANCH   4   5
ENDBRANCH   3   4
ENDBRANCH   1   3
BRANCH   1   7
HETATM    7  C7  UNL     1     -34.014   6.458   4.090  1.00 20.00     0.047 C 
HETATM    8  C2  UNL     1     -34.873   5.311   3.572  1.00 20.00     0.017 C 
HETATM    9  C3  UNL     1     -33.840   6.363   5.604  1.00 20.00     0.017 C 
ENDBRANCH   1   7
TORSDOF 4
ENDMDL
MODEL 6
REMARK VINA RESULT:      -4.1      2.559      4.382
REMARK  4 active torsions:
REMARK  status: ('A' for Active; 'I' for Inactive)
REMARK    1  A    between atoms: C1_1  and  C4_4 
REMARK    2  A    between atoms: C1_1  and  C7_7 
REMARK    3  A    between atoms: C4_4  and  C5_5 
REMARK    4  A    between atoms: C5_5  and  C6_6 
ROOT
HETATM    1  C1  UNL     1     -33.249   6.148   3.173  1.00 20.00     0.130 C 
HETATM    2  O8  UNL     1     -33.665   5.403   2.285  1.00 20.00    -0.298 OA
ENDROOT
BRANCH   1   3
HETATM    3  C4  UNL     1     -33.918   6.220   4.540  1.00 20.00     0.081 C 
BRANCH   3   4
HETATM    4  C5  UNL     1     -35.081   5.242   4.702  1.00 20.00     0.038 C 
BRANCH   4   5
HETATM    5  C6  UNL     1     -34.864   4.257   5.841  1.00 20.00     0.222 C 
HETATM    6  F9  UNL     1     -34.068   4.830   6.782  1.00 20.00    -0.255 F 
ENDBRANCH   4   5
ENDBRANCH   3   4
ENDBRANCH   1   3
BRANCH   1   7
HETATM    7  C7  UNL     1     -32.001   7.010   2.982  1.00 20.00     0.047 C 
HETATM    8  C2  UNL     1     -32.268   8.095   1.946  1.00 20.00     0.017 C 
HETATM    9  C3  UNL     1     -31.551   7.625   4.306  1.00 20.00     0.017 C 
ENDBRANCH   1   7
TORSDOF 4
ENDMDL
MODEL 7
REMARK VINA RESULT:      -4.1      2.527      4.246
REMARK  4 active torsions:
REMARK  status: ('A' for Active; 'I' for Inactive)
REMARK    1  A    between atoms: C1_1  and  C4_4 
REMARK    2  A    between atoms: C1_1  and  C7_7 
REMARK    3  A    between atoms: C4_4  and  C5_5 
REMARK    4  A    between atoms: C5_5  and  C6_6 
ROOT
HETATM    1  C1  UNL     1     -33.796   6.498   4.243  1.00 20.00     0.130 C 
HETATM    2  O8  UNL     1     -34.828   6.447   3.574  1.00 20.00    -0.298 OA
ENDROOT
BRANCH   1   3
HETATM    3  C4  UNL     1     -33.822   6.433   5.765  1.00 20.00     0.081 C 
BRANCH   3   4
HETATM    4  C5  UNL     1     -34.800   5.395   6.315  1.00 20.00     0.038 C 
BRANCH   4   5
HETATM    5  C6  UNL     1     -34.445   3.976   5.897  1.00 20.00     0.222 C 
HETATM    6  F9  UNL     1     -35.213   3.619   4.834  1.00 20.00    -0.255 F 
ENDBRANCH   4   5
ENDBRANCH   3   4
ENDBRANCH   1   3
BRANCH   1   7
HETATM    7  C7  UNL     1     -32.415   6.574   3.591  1.00 20.00     0.047 C 
HETATM    8  C2  UNL     1     -32.121   5.284   2.835  1.00 20.00     0.017 C 
HETATM    9  C3  UNL     1     -32.314   7.781   2.661  1.00 20.00     0.017 C 
ENDBRANCH   1   7
TORSDOF 4
ENDMDL
MODEL 8
REMARK VINA RESULT:      -4.0     11.395     12.463
REMARK  4 active torsions:
REMARK  status: ('A' for Active; 'I' for Inactive)
REMARK    1  A    between atoms: C1_1  and  C4_4 
REMARK    2  A    between atoms: C1_1  and  C7_7 
REMARK    3  A    between atoms: C4_4  and  C5_5 
REMARK    4  A    between atoms: C5_5  and  C6_6 
ROOT
HETATM    1  C1  UNL     1     -34.548  13.830  -4.914  1.00 20.00     0.130 C 
HETATM    2  O8  UNL     1     -34.792  12.634  -4.753  1.00 20.00    -0.298 OA
ENDROOT
BRANCH   1   3
HETATM    3  C4  UNL     1     -33.857  14.660  -3.839  1.00 20.00     0.081 C 
BRANCH   3   4
HETATM    4  C5  UNL     1     -34.818  15.236  -2.801  1.00 20.00     0.038 C 
BRANCH   4   5
HETATM    5  C6  UNL     1     -34.190  16.347  -1.973  1.00 20.00     0.222 C 
HETATM    6  F9  UNL     1     -34.575  16.210  -0.677  1.00 20.00    -0.255 F 
ENDBRANCH   4   5
ENDBRANCH   3   4
ENDBRANCH   1   3
BRANCH   1   7
HETATM    7  C7  UNL     1     -34.873  14.549  -6.223  1.00 20.00     0.047 C 
HETATM    8  C2  UNL     1     -36.346  14.938  -6.255  1.00 20.00     0.017 C 
HETATM    9  C3  UNL     1     -33.985  15.778  -6.410  1.00 20.00     0.017 C 
ENDBRANCH   1   7
TORSDOF 4
ENDMDL
MODEL 9
REMARK VINA RESULT:      -4.0     11.233     12.257
REMARK  4 active torsions:
REMARK  status: ('A' for Active; 'I' for Inactive)
REMARK    1  A    between atoms: C1_1  and  C4_4 
REMARK    2  A    between atoms: C1_1  and  C7_7 
REMARK    3  A    between atoms: C4_4  and  C5_5 
REMARK    4  A    between atoms: C5_5  and  C6_6 
ROOT
HETATM    1  C1  UNL     1     -34.541  13.728  -4.694  1.00 20.00     0.130 C 
HETATM    2  O8  UNL     1     -34.843  12.539  -4.798  1.00 20.00    -0.298 OA
ENDROOT
BRANCH   1   3
HETATM    3  C4  UNL     1     -33.435  14.197  -3.758  1.00 20.00     0.081 C 
BRANCH   3   4
HETATM    4  C5  UNL     1     -33.276  15.716  -3.713  1.00 20.00     0.038 C 
BRANCH   4   5
HETATM    5  C6  UNL     1     -33.767  16.319  -2.406  1.00 20.00     0.222 C 
HETATM    6  F9  UNL     1     -34.833  15.605  -1.957  1.00 20.00    -0.255 F 
ENDBRANCH   4   5
ENDBRANCH   3   4
ENDBRANCH   1   3
BRANCH   1   7
HETATM    7  C7  UNL     1     -35.219  14.808  -5.538  1.00 20.00     0.047 C 
HETATM    8  C2  UNL     1     -35.167  14.429  -7.013  1.00 20.00     0.017 C 
HETATM    9  C3  UNL     1     -36.661  15.033  -5.088  1.00 20.00     0.017 C 
ENDBRANCH   1   7
TORSDOF 4
ENDMDL
