MODEL 1
REMARK VINA RESULT:      -4.1      0.000      0.000
REMARK  2 active torsions:
REMARK  status: ('A' for Active; 'I' for Inactive)
REMARK    1  A    between atoms: C5_5  and  C6_6 
REMARK    2  A    between atoms: C5_5  and  N7_7 
ROOT
HETATM    1  C1  UNL     1     -35.129   5.044   3.896  1.00 20.00     0.052 C 
HETATM    2  C2  UNL     1     -34.138   5.550   2.849  1.00 20.00     0.274 C 
HETATM    3  C3  UNL     1     -33.336   6.290   4.908  1.00 20.00     0.292 C 
HETATM    4  C4  UNL     1     -34.732   5.757   5.186  1.00 20.00     0.112 C 
HETATM    5  N7  UNL     1     -33.458   6.673   3.500  1.00 20.00     0.092 N 
HETATM    6 CL9  UNL     1     -34.771   4.687   6.595  1.00 20.00    -0.123 Cl
ENDROOT
BRANCH   5   7
HETATM    7  C5  UNL     1     -32.172   6.976   2.890  1.00 20.00     0.303 C 
BRANCH   7   8
HETATM    8  C6  UNL     1     -32.192   8.320   2.194  1.00 20.00     0.252 C 
HETATM    9  F8  UNL     1     -31.406   8.256   1.085  1.00 20.00    -0.254 F 
ENDBRANCH   7   8
ENDBRANCH   5   7
TORSDOF 2
ENDMDL
MODEL 2
REMARK VINA RESULT:      -3.8     11.426     12.197
REMARK  2 active torsions:
REMARK  status: ('A' for Active; 'I' for Inactive)
REMARK    1  A    between atoms: C5_5  and  C6_6 
REMARK    2  A    between atoms: C5_5  and  N7_7 
ROOT
HETATM    1  C1  UNL     1     -34.779  13.301  -4.875  1.00 20.00     0.052 C 
HETATM    2  C2  UNL     1     -34.400  13.950  -3.545  1.00 20.00     0.274 C 
HETATM    3  C3  UNL     1     -34.356  15.655  -5.132  1.00 20.00     0.292 C 
HETATM    4  C4  UNL     1     -34.486  14.367  -5.927  1.00 20.00     0.112 C 
HETATM    5  N7  UNL     1     -33.685  15.172  -3.924  1.00 20.00     0.092 N 
HETATM    6 CL9  UNL     1     -35.751  14.469  -7.163  1.00 20.00    -0.123 Cl
ENDROOT
BRANCH   5   7
HETATM    7  C5  UNL     1     -33.669  16.163  -2.858  1.00 20.00     0.303 C 
BRANCH   7   8
HETATM    8  C6  UNL     1     -34.940  16.115  -2.038  1.00 20.00     0.252 C 
HETATM    9  F8  UNL     1     -34.616  16.135  -0.717  1.00 20.00    -0.254 F 
ENDBRANCH   7   8
ENDBRANCH   5   7
TORSDOF 2
ENDMDL
MODEL 3
REMARK VINA RESULT:      -3.7      3.388      4.355
REMARK  2 active torsions:
REMARK  status: ('A' for Active; 'I' for Inactive)
REMARK    1  A    between atoms: C5_5  and  C6_6 
REMARK    2  A    between atoms: C5_5  and  N7_7 
ROOT
HETATM    1  C1  UNL     1     -33.718   5.845   2.396  1.00 20.00     0.052 C 
HETATM    2  C2  UNL     1     -34.581   5.417   3.581  1.00 20.00     0.274 C 
HETATM    3  C3  UNL     1     -32.930   6.810   4.454  1.00 20.00     0.292 C 
HETATM    4  C4  UNL     1     -32.506   6.530   3.023  1.00 20.00     0.112 C 
HETATM    5  N7  UNL     1     -33.722   5.614   4.751  1.00 20.00     0.092 N 
HETATM    6 CL9  UNL     1     -32.037   8.005   2.163  1.00 20.00    -0.123 Cl
ENDROOT
BRANCH   5   7
HETATM    7  C5  UNL     1     -34.480   5.739   5.987  1.00 20.00     0.303 C 
BRANCH   7   8
HETATM    8  C6  UNL     1     -35.210   4.455   6.321  1.00 20.00     0.252 C 
HETATM    9  F8  UNL     1     -34.492   3.401   5.847  1.00 20.00    -0.254 F 
ENDBRANCH   7   8
ENDBRANCH   5   7
TORSDOF 2
ENDMDL
MODEL 4
REMARK VINA RESULT:      -3.6     11.174     11.672
REMARK  2 active torsions:
REMARK  status: ('A' for Active; 'I' for Inactive)
REMARK    1  A    between atoms: C5_5  and  C6_6 
REMARK    2  A    between atoms: C5_5  and  N7_7 
ROOT
HETATM    1  C1  UNL     1     -36.266  14.794  -3.791  1.00 20.00     0.052 C 
HETATM    2  C2  UNL     1     -35.875  16.060  -3.030  1.00 20.00     0.274 C 
HETATM    3  C3  UNL     1     -33.896  14.881  -3.382  1.00 20.00     0.292 C 
HETATM    4  C4  UNL     1     -35.011  13.926  -3.774  1.00 20.00     0.112 C 
HETATM    5  N7  UNL     1     -34.587  15.735  -2.413  1.00 20.00     0.092 N 
HETATM    6 CL9  UNL     1     -34.703  13.143  -5.332  1.00 20.00    -0.123 Cl
ENDROOT
BRANCH   5   7
HETATM    7  C5  UNL     1     -33.818  16.920  -2.065  1.00 20.00     0.303 C 
BRANCH   7   8
HETATM    8  C6  UNL     1     -34.160  17.414  -0.675  1.00 20.00     0.252 C 
HETATM    9  F8  UNL     1     -34.820  16.431  -0.005  1.00 20.00    -0.254 F 
ENDBRANCH   7   8
ENDBRANCH   5   7
TORSDOF 2
ENDMDL
MODEL 5
REMARK VINA RESULT:      -3.5     11.615     11.971
REMARK  2 active torsions:
REMARK  status: ('A' for Active; 'I' for Inactive)
REMARK    1  A    between atoms: C5_5  and  C6_6 
REMARK    2  A    between atoms: C5_5  and  N7_7 
ROOT
HETATM    1  C1  UNL     1     -33.660  16.212  -2.626  1.00 20.00     0.052 C 
HETATM    2  C2  UNL     1     -33.255  15.118  -3.613  1.00 20.00     0.274 C 
HETATM    3  C3  UNL     1     -35.578  15.020  -3.457  1.00 20.00     0.292 C 
HETATM    4  C4  UNL     1     -35.138  15.954  -2.342  1.00 20.00     0.112 C 
HETATM    5  N7  UNL     1     -34.385  14.185  -3.611  1.00 20.00     0.092 N 
HETATM    6 CL9  UNL     1     -36.093  17.444  -2.301  1.00 20.00    -0.123 Cl
ENDROOT
BRANCH   5   7
HETATM    7  C5  UNL     1     -34.430  13.360  -4.808  1.00 20.00     0.303 C 
BRANCH   7   8
HETATM    8  C6  UNL     1     -35.108  14.081  -5.953  1.00 20.00     0.252 C 
HETATM    9  F8  UNL     1     -34.156  14.588  -6.783  1.00 20.00    -0.254 F 
ENDBRANCH   7   8
ENDBRANCH   5   7
TORSDOF 2
ENDMDL
MODEL 6
REMARK VINA RESULT:      -3.5     11.395     12.451
REMARK  2 active torsions:
REMARK  status: ('A' for Active; 'I' for Inactive)
REMARK    1  A    between atoms: C5_5  and  C6_6 
REMARK    2  A    between atoms: C5_5  and  N7_7 
ROOT
HETATM    1  C1  UNL     1     -34.153  13.835  -3.601  1.00 20.00     0.052 C 
HETATM    2  C2  UNL     1     -34.532  13.646  -5.069  1.00 20.00     0.274 C 
HETATM    3  C3  UNL     1     -35.498  15.660  -4.407  1.00 20.00     0.292 C 
HETATM    4  C4  UNL     1     -35.008  15.007  -3.126  1.00 20.00     0.112 C 
HETATM    5  N7  UNL     1     -35.718  14.486  -5.253  1.00 20.00     0.092 N 
HETATM    6 CL9  UNL     1     -34.105  16.136  -2.102  1.00 20.00    -0.123 Cl
ENDROOT
BRANCH   5   7
HETATM    7  C5  UNL     1     -35.945  14.836  -6.647  1.00 20.00     0.303 C 
BRANCH   7   8
HETATM    8  C6  UNL     1     -34.652  14.838  -7.435  1.00 20.00     0.252 C 
HETATM    9  F8  UNL     1     -34.103  16.081  -7.383  1.00 20.00    -0.254 F 
ENDBRANCH   7   8
ENDBRANCH   5   7
TORSDOF 2
ENDMDL
MODEL 7
REMARK VINA RESULT:      -3.5     11.520     12.463
REMARK  2 active torsions:
REMARK  status: ('A' for Active; 'I' for Inactive)
REMARK    1  A    between atoms: C5_5  and  C6_6 
REMARK    2  A    between atoms: C5_5  and  N7_7 
ROOT
HETATM    1  C1  UNL     1     -33.951  17.086  -3.613  1.00 20.00     0.052 C 
HETATM    2  C2  UNL     1     -34.238  16.344  -4.918  1.00 20.00     0.274 C 
HETATM    3  C3  UNL     1     -34.474  14.771  -3.215  1.00 20.00     0.292 C 
HETATM    4  C4  UNL     1     -33.851  15.990  -2.555  1.00 20.00     0.112 C 
HETATM    5  N7  UNL     1     -34.012  14.933  -4.595  1.00 20.00     0.092 N 
HETATM    6 CL9  UNL     1     -34.667  16.424  -1.045  1.00 20.00    -0.123 Cl
ENDROOT
BRANCH   5   7
HETATM    7  C5  UNL     1     -34.687  14.034  -5.519  1.00 20.00     0.303 C 
BRANCH   7   8
HETATM    8  C6  UNL     1     -35.162  14.764  -6.756  1.00 20.00     0.252 C 
HETATM    9  F8  UNL     1     -34.264  14.569  -7.759  1.00 20.00    -0.254 F 
ENDBRANCH   7   8
ENDBRANCH   5   7
TORSDOF 2
ENDMDL
MODEL 8
REMARK VINA RESULT:      -3.5     11.117     12.024
REMARK  2 active torsions:
REMARK  status: ('A' for Active; 'I' for Inactive)
REMARK    1  A    between atoms: C5_5  and  C6_6 
REMARK    2  A    between atoms: C5_5  and  N7_7 
ROOT
HETATM    1  C1  UNL     1     -33.787  18.066  -2.471  1.00 20.00     0.052 C 
HETATM    2  C2  UNL     1     -33.796  17.386  -3.839  1.00 20.00     0.274 C 
HETATM    3  C3  UNL     1     -34.404  15.746  -2.298  1.00 20.00     0.292 C 
HETATM    4  C4  UNL     1     -33.925  16.924  -1.466  1.00 20.00     0.112 C 
HETATM    5  N7  UNL     1     -33.657  15.958  -3.540  1.00 20.00     0.092 N 
HETATM    6 CL9  UNL     1     -35.041  17.309  -0.147  1.00 20.00    -0.123 Cl
ENDROOT
BRANCH   5   7
HETATM    7  C5  UNL     1     -34.126  15.112  -4.626  1.00 20.00     0.303 C 
BRANCH   7   8
HETATM    8  C6  UNL     1     -34.088  13.648  -4.245  1.00 20.00     0.252 C 
HETATM    9  F8  UNL     1     -32.840  13.338  -3.801  1.00 20.00    -0.254 F 
ENDBRANCH   7   8
ENDBRANCH   5   7
TORSDOF 2
ENDMDL
MODEL 9
REMARK VINA RESULT:      -3.4     11.959     13.080
REMARK  2 active torsions:
REMARK  status: ('A' for Active; 'I' for Inactive)
REMARK    1  A    between atoms: C5_5  and  C6_6 
REMARK    2  A    between atoms: C5_5  and  N7_7 
ROOT
HETATM    1  C1  UNL     1     -35.074  14.473  -6.976  1.00 20.00     0.052 C 
HETATM    2  C2  UNL     1     -35.125  13.862  -5.577  1.00 20.00     0.274 C 
HETATM    3  C3  UNL     1     -34.066  15.925  -5.343  1.00 20.00     0.292 C 
HETATM    4  C4  UNL     1     -34.152  15.683  -6.840  1.00 20.00     0.112 C 
HETATM    5  N7  UNL     1     -34.064  14.551  -4.837  1.00 20.00     0.092 N 
HETATM    6 CL9  UNL     1     -34.756  17.100  -7.714  1.00 20.00    -0.123 Cl
ENDROOT
BRANCH   5   7
HETATM    7  C5  UNL     1     -34.256  14.485  -3.396  1.00 20.00     0.303 C 
BRANCH   7   8
HETATM    8  C6  UNL     1     -34.115  15.849  -2.755  1.00 20.00     0.252 C 
HETATM    9  F8  UNL     1     -34.611  15.798  -1.490  1.00 20.00    -0.254 F 
ENDBRANCH   7   8
ENDBRANCH   5   7
TORSDOF 2
ENDMDL
