MODEL 1
REMARK VINA RESULT:      -3.6      0.000      0.000
REMARK  4 active torsions:
REMARK  status: ('A' for Active; 'I' for Inactive)
REMARK    1  A    between atoms: C3_3  and  C5_5 
REMARK    2  A    between atoms: C3_3  and  N7_7 
REMARK    3  A    between atoms: C4_4  and  C6_6 
REMARK    4  A    between atoms: C4_4  and  N7_7 
ROOT
HETATM    1  C2  UNL     1     -32.230   5.416   2.939  1.00 20.00     0.310 C 
HETATM    2  N7  UNL     1     -32.878   6.710   3.149  1.00 20.00     0.087 N 
ENDROOT
BRANCH   2   3
HETATM    3  C3  UNL     1     -31.915   7.798   2.975  1.00 20.00     0.303 C 
BRANCH   3   4
HETATM    4  C5  UNL     1     -32.220   8.616   1.738  1.00 20.00     0.252 C 
HETATM    5  F8  UNL     1     -31.266   8.372   0.799  1.00 20.00    -0.254 F 
ENDBRANCH   3   4
ENDBRANCH   2   3
BRANCH   2   6
HETATM    6  C4  UNL     1     -33.480   6.770   4.480  1.00 20.00     0.291 C 
BRANCH   6   7
HETATM    7  C6  UNL     1     -34.218   5.477   4.834  1.00 20.00     0.106 C 
HETATM    8  C1  UNL     1     -34.534   5.353   6.320  1.00 20.00     0.028 C 
HETATM    9 CL9  UNL     1     -35.728   5.328   3.883  1.00 20.00    -0.124 Cl
ENDBRANCH   6   7
ENDBRANCH   2   6
TORSDOF 4
ENDMDL
MODEL 2
REMARK VINA RESULT:      -3.5     11.015     11.556
REMARK  4 active torsions:
REMARK  status: ('A' for Active; 'I' for Inactive)
REMARK    1  A    between atoms: C3_3  and  C5_5 
REMARK    2  A    between atoms: C3_3  and  N7_7 
REMARK    3  A    between atoms: C4_4  and  C6_6 
REMARK    4  A    between atoms: C4_4  and  N7_7 
ROOT
HETATM    1  C2  UNL     1     -34.025  15.696  -5.568  1.00 20.00     0.310 C 
HETATM    2  N7  UNL     1     -33.320  15.478  -4.305  1.00 20.00     0.087 N 
ENDROOT
BRANCH   2   3
HETATM    3  C3  UNL     1     -33.609  14.142  -3.783  1.00 20.00     0.303 C 
BRANCH   3   4
HETATM    4  C5  UNL     1     -34.430  13.330  -4.761  1.00 20.00     0.252 C 
HETATM    5  F8  UNL     1     -35.626  13.024  -4.188  1.00 20.00    -0.254 F 
ENDBRANCH   3   4
ENDBRANCH   2   3
BRANCH   2   6
HETATM    6  C4  UNL     1     -33.694  16.500  -3.328  1.00 20.00     0.291 C 
BRANCH   6   7
HETATM    7  C6  UNL     1     -34.743  15.989  -2.338  1.00 20.00     0.106 C 
HETATM    8  C1  UNL     1     -34.587  16.579  -0.941  1.00 20.00     0.028 C 
HETATM    9 CL9  UNL     1     -36.397  16.307  -2.945  1.00 20.00    -0.124 Cl
ENDBRANCH   6   7
ENDBRANCH   2   6
TORSDOF 4
ENDMDL
MODEL 3
REMARK VINA RESULT:      -3.4      1.671      1.672
REMARK  4 active torsions:
REMARK  status: ('A' for Active; 'I' for Inactive)
REMARK    1  A    between atoms: C3_3  and  C5_5 
REMARK    2  A    between atoms: C3_3  and  N7_7 
REMARK    3  A    between atoms: C4_4  and  C6_6 
REMARK    4  A    between atoms: C4_4  and  N7_7 
ROOT
HETATM    1  C2  UNL     1     -34.165   5.425   2.574  1.00 20.00     0.310 C 
HETATM    2  N7  UNL     1     -33.426   6.404   3.370  1.00 20.00     0.087 N 
ENDROOT
BRANCH   2   3
HETATM    3  C3  UNL     1     -32.175   6.763   2.704  1.00 20.00     0.303 C 
BRANCH   3   4
HETATM    4  C5  UNL     1     -32.191   8.200   2.229  1.00 20.00     0.252 C 
HETATM    5  F8  UNL     1     -31.466   8.296   1.081  1.00 20.00    -0.254 F 
ENDBRANCH   3   4
ENDBRANCH   2   3
BRANCH   2   6
HETATM    6  C4  UNL     1     -33.160   5.879   4.708  1.00 20.00     0.291 C 
BRANCH   6   7
HETATM    7  C6  UNL     1     -34.335   6.112   5.660  1.00 20.00     0.106 C 
HETATM    8  C1  UNL     1     -34.889   4.823   6.256  1.00 20.00     0.028 C 
HETATM    9 CL9  UNL     1     -33.875   7.235   6.975  1.00 20.00    -0.124 Cl
ENDBRANCH   6   7
ENDBRANCH   2   6
TORSDOF 4
ENDMDL
MODEL 4
REMARK VINA RESULT:      -3.4     11.469     12.291
REMARK  4 active torsions:
REMARK  status: ('A' for Active; 'I' for Inactive)
REMARK    1  A    between atoms: C3_3  and  C5_5 
REMARK    2  A    between atoms: C3_3  and  N7_7 
REMARK    3  A    between atoms: C4_4  and  C6_6 
REMARK    4  A    between atoms: C4_4  and  N7_7 
ROOT
HETATM    1  C2  UNL     1     -33.326  16.918  -5.222  1.00 20.00     0.310 C 
HETATM    2  N7  UNL     1     -34.379  16.723  -4.227  1.00 20.00     0.087 N 
ENDROOT
BRANCH   2   3
HETATM    3  C3  UNL     1     -33.796  16.429  -2.918  1.00 20.00     0.303 C 
BRANCH   3   4
HETATM    4  C5  UNL     1     -34.852  15.991  -1.925  1.00 20.00     0.252 C 
HETATM    5  F8  UNL     1     -34.449  16.332  -0.671  1.00 20.00    -0.254 F 
ENDBRANCH   3   4
ENDBRANCH   2   3
BRANCH   2   6
HETATM    6  C4  UNL     1     -35.279  15.647  -4.639  1.00 20.00     0.291 C 
BRANCH   6   7
HETATM    7  C6  UNL     1     -34.550  14.563  -5.436  1.00 20.00     0.106 C 
HETATM    8  C1  UNL     1     -34.535  13.210  -4.735  1.00 20.00     0.028 C 
HETATM    9 CL9  UNL     1     -35.264  14.388  -7.068  1.00 20.00    -0.124 Cl
ENDBRANCH   6   7
ENDBRANCH   2   6
TORSDOF 4
ENDMDL
MODEL 5
REMARK VINA RESULT:      -3.4     11.205     12.071
REMARK  4 active torsions:
REMARK  status: ('A' for Active; 'I' for Inactive)
REMARK    1  A    between atoms: C3_3  and  C5_5 
REMARK    2  A    between atoms: C3_3  and  N7_7 
REMARK    3  A    between atoms: C4_4  and  C6_6 
REMARK    4  A    between atoms: C4_4  and  N7_7 
ROOT
HETATM    1  C2  UNL     1     -36.577  14.468  -4.037  1.00 20.00     0.310 C 
HETATM    2  N7  UNL     1     -35.219  14.718  -4.520  1.00 20.00     0.087 N 
ENDROOT
BRANCH   2   3
HETATM    3  C3  UNL     1     -34.923  13.870  -5.674  1.00 20.00     0.303 C 
BRANCH   3   4
HETATM    4  C5  UNL     1     -34.870  14.674  -6.955  1.00 20.00     0.252 C 
HETATM    5  F8  UNL     1     -33.771  15.475  -6.930  1.00 20.00    -0.254 F 
ENDBRANCH   3   4
ENDBRANCH   2   3
BRANCH   2   6
HETATM    6  C4  UNL     1     -34.246  14.487  -3.453  1.00 20.00     0.291 C 
BRANCH   6   7
HETATM    7  C6  UNL     1     -33.712  15.797  -2.871  1.00 20.00     0.106 C 
HETATM    8  C1  UNL     1     -33.713  16.944  -3.874  1.00 20.00     0.028 C 
HETATM    9 CL9  UNL     1     -34.639  16.270  -1.414  1.00 20.00    -0.124 Cl
ENDBRANCH   6   7
ENDBRANCH   2   6
TORSDOF 4
ENDMDL
MODEL 6
REMARK VINA RESULT:      -3.4      3.275      4.699
REMARK  4 active torsions:
REMARK  status: ('A' for Active; 'I' for Inactive)
REMARK    1  A    between atoms: C3_3  and  C5_5 
REMARK    2  A    between atoms: C3_3  and  N7_7 
REMARK    3  A    between atoms: C4_4  and  C6_6 
REMARK    4  A    between atoms: C4_4  and  N7_7 
ROOT
HETATM    1  C2  UNL     1     -34.974   5.237   3.676  1.00 20.00     0.310 C 
HETATM    2  N7  UNL     1     -33.783   5.945   4.146  1.00 20.00     0.087 N 
ENDROOT
BRANCH   2   3
HETATM    3  C3  UNL     1     -33.902   6.253   5.571  1.00 20.00     0.303 C 
BRANCH   3   4
HETATM    4  C5  UNL     1     -34.779   5.247   6.285  1.00 20.00     0.252 C 
HETATM    5  F8  UNL     1     -34.027   4.165   6.623  1.00 20.00    -0.254 F 
ENDBRANCH   3   4
ENDBRANCH   2   3
BRANCH   2   6
HETATM    6  C4  UNL     1     -33.579   7.170   3.374  1.00 20.00     0.291 C 
BRANCH   6   7
HETATM    7  C6  UNL     1     -32.144   7.287   2.856  1.00 20.00     0.106 C 
HETATM    8  C1  UNL     1     -32.008   8.243   1.676  1.00 20.00     0.028 C 
HETATM    9 CL9  UNL     1     -31.034   7.790   4.168  1.00 20.00    -0.124 Cl
ENDBRANCH   6   7
ENDBRANCH   2   6
TORSDOF 4
ENDMDL
MODEL 7
REMARK VINA RESULT:      -3.4     11.121     11.888
REMARK  4 active torsions:
REMARK  status: ('A' for Active; 'I' for Inactive)
REMARK    1  A    between atoms: C3_3  and  C5_5 
REMARK    2  A    between atoms: C3_3  and  N7_7 
REMARK    3  A    between atoms: C4_4  and  C6_6 
REMARK    4  A    between atoms: C4_4  and  N7_7 
ROOT
HETATM    1  C2  UNL     1     -34.662  16.246  -1.708  1.00 20.00     0.310 C 
HETATM    2  N7  UNL     1     -34.583  15.943  -3.137  1.00 20.00     0.087 N 
ENDROOT
BRANCH   2   3
HETATM    3  C3  UNL     1     -34.754  17.161  -3.928  1.00 20.00     0.303 C 
BRANCH   3   4
HETATM    4  C5  UNL     1     -33.608  17.360  -4.896  1.00 20.00     0.252 C 
HETATM    5  F8  UNL     1     -32.727  16.332  -4.757  1.00 20.00    -0.254 F 
ENDBRANCH   3   4
ENDBRANCH   2   3
BRANCH   2   6
HETATM    6  C4  UNL     1     -35.590  14.949  -3.505  1.00 20.00     0.291 C 
BRANCH   6   7
HETATM    7  C6  UNL     1     -34.979  13.766  -4.259  1.00 20.00     0.106 C 
HETATM    8  C1  UNL     1     -35.008  13.940  -5.773  1.00 20.00     0.028 C 
HETATM    9 CL9  UNL     1     -33.297  13.470  -3.720  1.00 20.00    -0.124 Cl
ENDBRANCH   6   7
ENDBRANCH   2   6
TORSDOF 4
ENDMDL
MODEL 8
REMARK VINA RESULT:      -3.4     11.454     12.189
REMARK  4 active torsions:
REMARK  status: ('A' for Active; 'I' for Inactive)
REMARK    1  A    between atoms: C3_3  and  C5_5 
REMARK    2  A    between atoms: C3_3  and  N7_7 
REMARK    3  A    between atoms: C4_4  and  C6_6 
REMARK    4  A    between atoms: C4_4  and  N7_7 
ROOT
HETATM    1  C2  UNL     1     -34.497  14.890  -6.980  1.00 20.00     0.310 C 
HETATM    2  N7  UNL     1     -34.767  15.066  -5.553  1.00 20.00     0.087 N 
ENDROOT
BRANCH   2   3
HETATM    3  C3  UNL     1     -36.176  15.393  -5.337  1.00 20.00     0.303 C 
BRANCH   3   4
HETATM    4  C5  UNL     1     -36.760  14.599  -4.188  1.00 20.00     0.252 C 
HETATM    5  F8  UNL     1     -36.094  13.418  -4.082  1.00 20.00    -0.254 F 
ENDBRANCH   3   4
ENDBRANCH   2   3
BRANCH   2   6
HETATM    6  C4  UNL     1     -33.908  16.109  -4.995  1.00 20.00     0.291 C 
BRANCH   6   7
HETATM    7  C6  UNL     1     -33.190  15.644  -3.727  1.00 20.00     0.106 C 
HETATM    8  C1  UNL     1     -33.857  16.132  -2.446  1.00 20.00     0.028 C 
HETATM    9 CL9  UNL     1     -33.056  13.859  -3.692  1.00 20.00    -0.124 Cl
ENDBRANCH   6   7
ENDBRANCH   2   6
TORSDOF 4
ENDMDL
MODEL 9
REMARK VINA RESULT:      -3.4     10.785     11.665
REMARK  4 active torsions:
REMARK  status: ('A' for Active; 'I' for Inactive)
REMARK    1  A    between atoms: C3_3  and  C5_5 
REMARK    2  A    between atoms: C3_3  and  N7_7 
REMARK    3  A    between atoms: C4_4  and  C6_6 
REMARK    4  A    between atoms: C4_4  and  N7_7 
ROOT
HETATM    1  C2  UNL     1     -33.336  16.117  -4.943  1.00 20.00     0.310 C 
HETATM    2  N7  UNL     1     -33.242  15.514  -3.614  1.00 20.00     0.087 N 
ENDROOT
BRANCH   2   3
HETATM    3  C3  UNL     1     -33.301  14.056  -3.710  1.00 20.00     0.303 C 
BRANCH   3   4
HETATM    4  C5  UNL     1     -34.314  13.607  -4.741  1.00 20.00     0.252 C 
HETATM    5  F8  UNL     1     -35.325  12.949  -4.111  1.00 20.00    -0.254 F 
ENDBRANCH   3   4
ENDBRANCH   2   3
BRANCH   2   6
HETATM    6  C4  UNL     1     -34.311  16.013  -2.750  1.00 20.00     0.291 C 
BRANCH   6   7
HETATM    7  C6  UNL     1     -33.778  16.950  -1.663  1.00 20.00     0.106 C 
HETATM    8  C1  UNL     1     -33.678  18.401  -2.117  1.00 20.00     0.028 C 
HETATM    9 CL9  UNL     1     -34.788  16.849  -0.188  1.00 20.00    -0.124 Cl
ENDBRANCH   6   7
ENDBRANCH   2   6
TORSDOF 4
ENDMDL
