MODEL 1
REMARK VINA RESULT:      -4.3      0.000      0.000
REMARK  3 active torsions:
REMARK  status: ('A' for Active; 'I' for Inactive)
REMARK    1  A    between atoms: C2_2  and  C8_8 
REMARK    2  A    between atoms: C6_6  and  N9_9 
REMARK    3  A    between atoms: C8_8  and  N9_9 
ROOT
HETATM    1  N9  UNL     1     -33.682  16.253  -2.570  1.00 20.00     0.094 N 
HETATM    2  H25 UNL     1     -32.789  16.005  -2.140  1.00 20.00     0.316 HD
ENDROOT
BRANCH   1   3
HETATM    3  C6  UNL     1     -33.992  15.308  -3.626  1.00 20.00     0.246 C 
HETATM    4  C3  UNL     1     -35.357  14.667  -3.494  1.00 20.00     0.064 C 
HETATM    5  C4  UNL     1     -35.201  13.444  -4.373  1.00 20.00     0.170 C 
HETATM    6  O10 UNL     1     -33.828  13.037  -4.273  1.00 20.00    -0.389 OA
HETATM    7  C5  UNL     1     -33.086  14.090  -3.635  1.00 20.00     0.203 C 
ENDBRANCH   1   3
BRANCH   1   8
HETATM    8  C8  UNL     1     -34.718  16.256  -1.543  1.00 20.00     0.303 C 
BRANCH   8   9
HETATM    9  C2  UNL     1     -34.369  17.250  -0.473  1.00 20.00    -0.066 C 
HETATM   10  C1  UNL     1     -35.115  17.377   0.636  1.00 20.00     0.015 C 
HETATM   11  C7  UNL     1     -33.171  18.124  -0.713  1.00 20.00     0.044 C 
ENDBRANCH   8   9
ENDBRANCH   1   8
TORSDOF 3
ENDMDL
MODEL 2
REMARK VINA RESULT:      -4.3     11.418     11.983
REMARK  3 active torsions:
REMARK  status: ('A' for Active; 'I' for Inactive)
REMARK    1  A    between atoms: C2_2  and  C8_8 
REMARK    2  A    between atoms: C6_6  and  N9_9 
REMARK    3  A    between atoms: C8_8  and  N9_9 
ROOT
HETATM    1  N9  UNL     1     -33.880   6.333   3.359  1.00 20.00     0.094 N 
HETATM    2  H25 UNL     1     -34.585   6.004   2.698  1.00 20.00     0.316 HD
ENDROOT
BRANCH   1   3
HETATM    3  C6  UNL     1     -33.935   5.532   4.568  1.00 20.00     0.246 C 
HETATM    4  C3  UNL     1     -35.144   4.625   4.648  1.00 20.00     0.064 C 
HETATM    5  C4  UNL     1     -35.197   4.325   6.131  1.00 20.00     0.170 C 
HETATM    6  O10 UNL     1     -34.707   5.494   6.805  1.00 20.00    -0.389 OA
HETATM    7  C5  UNL     1     -34.092   6.356   5.833  1.00 20.00     0.203 C 
ENDBRANCH   1   3
BRANCH   1   8
HETATM    8  C8  UNL     1     -32.566   6.249   2.731  1.00 20.00     0.303 C 
BRANCH   8   9
HETATM    9  C2  UNL     1     -31.875   7.579   2.817  1.00 20.00    -0.066 C 
HETATM   10  C1  UNL     1     -31.203   7.950   3.919  1.00 20.00     0.015 C 
HETATM   11  C7  UNL     1     -32.001   8.495   1.633  1.00 20.00     0.044 C 
ENDBRANCH   8   9
ENDBRANCH   1   8
TORSDOF 3
ENDMDL
MODEL 3
REMARK VINA RESULT:      -4.3      0.100      1.114
REMARK  3 active torsions:
REMARK  status: ('A' for Active; 'I' for Inactive)
REMARK    1  A    between atoms: C2_2  and  C8_8 
REMARK    2  A    between atoms: C6_6  and  N9_9 
REMARK    3  A    between atoms: C8_8  and  N9_9 
ROOT
HETATM    1  N9  UNL     1     -33.598  16.169  -2.554  1.00 20.00     0.094 N 
HETATM    2  H25 UNL     1     -32.756  15.816  -2.095  1.00 20.00     0.316 HD
ENDROOT
BRANCH   1   3
HETATM    3  C6  UNL     1     -33.981  15.269  -3.626  1.00 20.00     0.246 C 
HETATM    4  C3  UNL     1     -35.381  14.711  -3.487  1.00 20.00     0.064 C 
HETATM    5  C4  UNL     1     -35.314  13.501  -4.395  1.00 20.00     0.170 C 
HETATM    6  O10 UNL     1     -33.967  13.007  -4.324  1.00 20.00    -0.389 OA
HETATM    7  C5  UNL     1     -33.152  13.998  -3.674  1.00 20.00     0.203 C 
ENDBRANCH   1   3
BRANCH   1   8
HETATM    8  C8  UNL     1     -34.661  16.294  -1.564  1.00 20.00     0.303 C 
BRANCH   8   9
HETATM    9  C2  UNL     1     -34.279  17.316  -0.533  1.00 20.00    -0.066 C 
HETATM   10  C1  UNL     1     -33.201  18.101  -0.690  1.00 20.00     0.015 C 
HETATM   11  C7  UNL     1     -35.131  17.396   0.702  1.00 20.00     0.044 C 
ENDBRANCH   8   9
ENDBRANCH   1   8
TORSDOF 3
ENDMDL
MODEL 4
REMARK VINA RESULT:      -4.1     10.500     11.138
REMARK  3 active torsions:
REMARK  status: ('A' for Active; 'I' for Inactive)
REMARK    1  A    between atoms: C2_2  and  C8_8 
REMARK    2  A    between atoms: C6_6  and  N9_9 
REMARK    3  A    between atoms: C8_8  and  N9_9 
ROOT
HETATM    1  N9  UNL     1     -33.379   7.428   3.513  1.00 20.00     0.094 N 
HETATM    2  H25 UNL     1     -34.168   7.642   2.900  1.00 20.00     0.316 HD
ENDROOT
BRANCH   1   3
HETATM    3  C6  UNL     1     -33.622   6.173   4.200  1.00 20.00     0.246 C 
HETATM    4  C3  UNL     1     -34.837   5.424   3.697  1.00 20.00     0.064 C 
HETATM    5  C4  UNL     1     -35.114   4.489   4.856  1.00 20.00     0.170 C 
HETATM    6  O10 UNL     1     -34.719   5.183   6.049  1.00 20.00    -0.389 OA
HETATM    7  C5  UNL     1     -33.958   6.343   5.671  1.00 20.00     0.203 C 
ENDBRANCH   1   3
BRANCH   1   8
HETATM    8  C8  UNL     1     -32.161   7.365   2.713  1.00 20.00     0.303 C 
BRANCH   8   9
HETATM    9  C2  UNL     1     -32.138   8.501   1.731  1.00 20.00    -0.066 C 
HETATM   10  C1  UNL     1     -31.543   8.382   0.534  1.00 20.00     0.015 C 
HETATM   11  C7  UNL     1     -32.776   9.791   2.162  1.00 20.00     0.044 C 
ENDBRANCH   8   9
ENDBRANCH   1   8
TORSDOF 3
ENDMDL
MODEL 5
REMARK VINA RESULT:      -4.0      1.260      1.542
REMARK  3 active torsions:
REMARK  status: ('A' for Active; 'I' for Inactive)
REMARK    1  A    between atoms: C2_2  and  C8_8 
REMARK    2  A    between atoms: C6_6  and  N9_9 
REMARK    3  A    between atoms: C8_8  and  N9_9 
ROOT
HETATM    1  N9  UNL     1     -35.430  15.920  -2.230  1.00 20.00     0.094 N 
HETATM    2  H25 UNL     1     -36.083  16.699  -2.328  1.00 20.00     0.316 HD
ENDROOT
BRANCH   1   3
HETATM    3  C6  UNL     1     -35.485  15.088  -3.418  1.00 20.00     0.246 C 
HETATM    4  C3  UNL     1     -34.428  14.005  -3.457  1.00 20.00     0.064 C 
HETATM    5  C4  UNL     1     -34.406  13.661  -4.932  1.00 20.00     0.170 C 
HETATM    6  O10 UNL     1     -34.705  14.872  -5.642  1.00 20.00    -0.389 OA
HETATM    7  C5  UNL     1     -35.191  15.844  -4.701  1.00 20.00     0.203 C 
ENDBRANCH   1   3
BRANCH   1   8
HETATM    8  C8  UNL     1     -34.088  16.451  -2.019  1.00 20.00     0.303 C 
BRANCH   8   9
HETATM    9  C2  UNL     1     -34.070  17.315  -0.791  1.00 20.00    -0.066 C 
HETATM   10  C1  UNL     1     -34.992  17.179   0.175  1.00 20.00     0.015 C 
HETATM   11  C7  UNL     1     -32.999  18.365  -0.708  1.00 20.00     0.044 C 
ENDBRANCH   8   9
ENDBRANCH   1   8
TORSDOF 3
ENDMDL
MODEL 6
REMARK VINA RESULT:      -3.8      1.378      1.797
REMARK  3 active torsions:
REMARK  status: ('A' for Active; 'I' for Inactive)
REMARK    1  A    between atoms: C2_2  and  C8_8 
REMARK    2  A    between atoms: C6_6  and  N9_9 
REMARK    3  A    between atoms: C8_8  and  N9_9 
ROOT
HETATM    1  N9  UNL     1     -33.350  15.855  -3.209  1.00 20.00     0.094 N 
HETATM    2  H25 UNL     1     -33.430  15.515  -2.249  1.00 20.00     0.316 HD
ENDROOT
BRANCH   1   3
HETATM    3  C6  UNL     1     -33.560  14.757  -4.134  1.00 20.00     0.246 C 
HETATM    4  C3  UNL     1     -34.534  15.072  -5.248  1.00 20.00     0.064 C 
HETATM    5  C4  UNL     1     -34.919  13.683  -5.713  1.00 20.00     0.170 C 
HETATM    6  O10 UNL     1     -34.876  12.835  -4.555  1.00 20.00    -0.389 OA
HETATM    7  C5  UNL     1     -34.214  13.545  -3.494  1.00 20.00     0.203 C 
ENDBRANCH   1   3
BRANCH   1   8
HETATM    8  C8  UNL     1     -34.327  16.917  -3.419  1.00 20.00     0.303 C 
BRANCH   8   9
HETATM    9  C2  UNL     1     -35.181  17.072  -2.194  1.00 20.00    -0.066 C 
HETATM   10  C1  UNL     1     -36.394  17.644  -2.252  1.00 20.00     0.015 C 
HETATM   11  C7  UNL     1     -34.603  16.596  -0.892  1.00 20.00     0.044 C 
ENDBRANCH   8   9
ENDBRANCH   1   8
TORSDOF 3
ENDMDL
MODEL 7
REMARK VINA RESULT:      -3.7     12.634     14.227
REMARK  3 active torsions:
REMARK  status: ('A' for Active; 'I' for Inactive)
REMARK    1  A    between atoms: C2_2  and  C8_8 
REMARK    2  A    between atoms: C6_6  and  N9_9 
REMARK    3  A    between atoms: C8_8  and  N9_9 
ROOT
HETATM    1  N9  UNL     1     -41.251   3.464  -2.027  1.00 20.00     0.094 N 
HETATM    2  H25 UNL     1     -41.268   3.125  -1.063  1.00 20.00     0.316 HD
ENDROOT
BRANCH   1   3
HETATM    3  C6  UNL     1     -42.120   2.640  -2.847  1.00 20.00     0.246 C 
HETATM    4  C3  UNL     1     -41.387   1.825  -3.891  1.00 20.00     0.064 C 
HETATM    5  C4  UNL     1     -42.508   1.494  -4.854  1.00 20.00     0.170 C 
HETATM    6  O10 UNL     1     -43.417   2.604  -4.826  1.00 20.00    -0.389 OA
HETATM    7  C5  UNL     1     -43.080   3.442  -3.707  1.00 20.00     0.203 C 
ENDBRANCH   1   3
BRANCH   1   8
HETATM    8  C8  UNL     1     -41.675   4.859  -2.046  1.00 20.00     0.303 C 
BRANCH   8   9
HETATM    9  C2  UNL     1     -41.554   5.446  -0.670  1.00 20.00    -0.066 C 
HETATM   10  C1  UNL     1     -42.023   4.802   0.411  1.00 20.00     0.015 C 
HETATM   11  C7  UNL     1     -40.922   6.804  -0.557  1.00 20.00     0.044 C 
ENDBRANCH   8   9
ENDBRANCH   1   8
TORSDOF 3
ENDMDL
MODEL 8
REMARK VINA RESULT:      -3.7      2.274      4.704
REMARK  3 active torsions:
REMARK  status: ('A' for Active; 'I' for Inactive)
REMARK    1  A    between atoms: C2_2  and  C8_8 
REMARK    2  A    between atoms: C6_6  and  N9_9 
REMARK    3  A    between atoms: C8_8  and  N9_9 
ROOT
HETATM    1  N9  UNL     1     -35.602  15.523  -2.639  1.00 20.00     0.094 N 
HETATM    2  H25 UNL     1     -35.502  14.524  -2.454  1.00 20.00     0.316 HD
ENDROOT
BRANCH   1   3
HETATM    3  C6  UNL     1     -34.460  16.235  -2.095  1.00 20.00     0.246 C 
HETATM    4  C3  UNL     1     -34.668  16.743  -0.685  1.00 20.00     0.064 C 
HETATM    5  C4  UNL     1     -33.594  17.806  -0.587  1.00 20.00     0.170 C 
HETATM    6  O10 UNL     1     -33.446  18.365  -1.901  1.00 20.00    -0.389 OA
HETATM    7  C5  UNL     1     -34.139  17.521  -2.836  1.00 20.00     0.203 C 
ENDBRANCH   1   3
BRANCH   1   8
HETATM    8  C8  UNL     1     -35.716  15.730  -4.078  1.00 20.00     0.303 C 
BRANCH   8   9
HETATM    9  C2  UNL     1     -35.136  14.554  -4.809  1.00 20.00    -0.066 C 
HETATM   10  C1  UNL     1     -35.102  13.332  -4.255  1.00 20.00     0.015 C 
HETATM   11  C7  UNL     1     -34.557  14.811  -6.171  1.00 20.00     0.044 C 
ENDBRANCH   8   9
ENDBRANCH   1   8
TORSDOF 3
ENDMDL
MODEL 9
REMARK VINA RESULT:      -3.7      1.887      2.262
REMARK  3 active torsions:
REMARK  status: ('A' for Active; 'I' for Inactive)
REMARK    1  A    between atoms: C2_2  and  C8_8 
REMARK    2  A    between atoms: C6_6  and  N9_9 
REMARK    3  A    between atoms: C8_8  and  N9_9 
ROOT
HETATM    1  N9  UNL     1     -34.551  16.512  -4.027  1.00 20.00     0.094 N 
HETATM    2  H25 UNL     1     -33.855  16.400  -4.767  1.00 20.00     0.316 HD
ENDROOT
BRANCH   1   3
HETATM    3  C6  UNL     1     -35.767  15.811  -4.393  1.00 20.00     0.246 C 
HETATM    4  C3  UNL     1     -37.014  16.360  -3.734  1.00 20.00     0.064 C 
HETATM    5  C4  UNL     1     -37.972  15.197  -3.886  1.00 20.00     0.170 C 
HETATM    6  O10 UNL     1     -37.181  14.001  -3.820  1.00 20.00    -0.389 OA
HETATM    7  C5  UNL     1     -35.794  14.364  -3.933  1.00 20.00     0.203 C 
ENDBRANCH   1   3
BRANCH   1   8
HETATM    8  C8  UNL     1     -34.001  15.997  -2.778  1.00 20.00     0.303 C 
BRANCH   8   9
HETATM    9  C2  UNL     1     -34.098  17.046  -1.709  1.00 20.00    -0.066 C 
HETATM   10  C1  UNL     1     -34.640  16.779  -0.510  1.00 20.00     0.015 C 
HETATM   11  C7  UNL     1     -33.598  18.421  -2.051  1.00 20.00     0.044 C 
ENDBRANCH   8   9
ENDBRANCH   1   8
TORSDOF 3
ENDMDL
