MODEL 1
REMARK VINA RESULT:      -4.1      0.000      0.000
REMARK  1 active torsions:
REMARK  status: ('A' for Active; 'I' for Inactive)
REMARK    1  A    between atoms: C7_7  and  N8_8 
ROOT
HETATM    1  C1  UNL     1     -33.585   5.602   2.274  1.00 20.00     0.048 C 
HETATM    2  C2  UNL     1     -34.660   5.468   3.345  1.00 20.00     0.274 C 
HETATM    3  C3  UNL     1     -32.916   6.588   4.390  1.00 20.00     0.288 C 
HETATM    4  C4  UNL     1     -32.454   6.363   2.958  1.00 20.00     0.087 C 
HETATM    5  N8  UNL     1     -33.885   5.506   4.586  1.00 20.00     0.093 N 
HETATM    6 BR9  UNL     1     -32.100   8.054   2.075  1.00 20.00    -0.089 Br
ENDROOT
BRANCH   5   7
HETATM    7  C7  UNL     1     -34.723   5.716   5.757  1.00 20.00     0.215 C 
HETATM    8  C5  UNL     1     -34.006   6.650   6.721  1.00 20.00     0.042 C 
HETATM    9  C6  UNL     1     -35.023   4.368   6.397  1.00 20.00     0.042 C 
ENDBRANCH   5   7
TORSDOF 1
ENDMDL
MODEL 2
REMARK VINA RESULT:      -3.9     12.117     12.662
REMARK  1 active torsions:
REMARK  status: ('A' for Active; 'I' for Inactive)
REMARK    1  A    between atoms: C7_7  and  N8_8 
ROOT
HETATM    1  C1  UNL     1     -35.662  14.137  -4.297  1.00 20.00     0.048 C 
HETATM    2  C2  UNL     1     -35.574  15.178  -3.188  1.00 20.00     0.274 C 
HETATM    3  C3  UNL     1     -33.594  15.408  -4.379  1.00 20.00     0.288 C 
HETATM    4  C4  UNL     1     -34.373  14.313  -5.092  1.00 20.00     0.087 C 
HETATM    5  N8  UNL     1     -34.130  15.343  -3.016  1.00 20.00     0.093 N 
HETATM    6 BR9  UNL     1     -34.735  14.812  -6.932  1.00 20.00    -0.089 Br
ENDROOT
BRANCH   5   7
HETATM    7  C7  UNL     1     -33.796  16.522  -2.231  1.00 20.00     0.215 C 
HETATM    8  C5  UNL     1     -34.665  16.550  -0.981  1.00 20.00     0.042 C 
HETATM    9  C6  UNL     1     -34.003  17.761  -3.089  1.00 20.00     0.042 C 
ENDBRANCH   5   7
TORSDOF 1
ENDMDL
MODEL 3
REMARK VINA RESULT:      -3.9      2.420      3.842
REMARK  1 active torsions:
REMARK  status: ('A' for Active; 'I' for Inactive)
REMARK    1  A    between atoms: C7_7  and  N8_8 
ROOT
HETATM    1  C1  UNL     1     -35.081   5.277   3.527  1.00 20.00     0.048 C 
HETATM    2  C2  UNL     1     -33.866   5.663   2.694  1.00 20.00     0.274 C 
HETATM    3  C3  UNL     1     -33.407   6.467   4.823  1.00 20.00     0.288 C 
HETATM    4  C4  UNL     1     -34.761   5.782   4.930  1.00 20.00     0.087 C 
HETATM    5  N8  UNL     1     -33.346   6.832   3.405  1.00 20.00     0.093 N 
HETATM    6 BR9  UNL     1     -34.697   4.326   6.212  1.00 20.00    -0.089 Br
ENDROOT
BRANCH   5   7
HETATM    7  C7  UNL     1     -32.001   7.188   2.979  1.00 20.00     0.215 C 
HETATM    8  C5  UNL     1     -31.228   7.730   4.173  1.00 20.00     0.042 C 
HETATM    9  C6  UNL     1     -32.093   8.211   1.856  1.00 20.00     0.042 C 
ENDBRANCH   5   7
TORSDOF 1
ENDMDL
MODEL 4
REMARK VINA RESULT:      -3.7     12.020     13.218
REMARK  1 active torsions:
REMARK  status: ('A' for Active; 'I' for Inactive)
REMARK    1  A    between atoms: C7_7  and  N8_8 
ROOT
HETATM    1  C1  UNL     1     -33.844  17.557  -3.410  1.00 20.00     0.048 C 
HETATM    2  C2  UNL     1     -34.533  16.914  -4.606  1.00 20.00     0.274 C 
HETATM    3  C3  UNL     1     -34.284  15.193  -3.068  1.00 20.00     0.288 C 
HETATM    4  C4  UNL     1     -33.709  16.429  -2.393  1.00 20.00     0.087 C 
HETATM    5  N8  UNL     1     -34.136  15.510  -4.492  1.00 20.00     0.093 N 
HETATM    6 BR9  UNL     1     -34.671  16.829  -0.755  1.00 20.00    -0.089 Br
ENDROOT
BRANCH   5   7
HETATM    7  C7  UNL     1     -34.930  14.637  -5.342  1.00 20.00     0.215 C 
HETATM    8  C5  UNL     1     -34.718  13.194  -4.910  1.00 20.00     0.042 C 
HETATM    9  C6  UNL     1     -34.524  14.857  -6.792  1.00 20.00     0.042 C 
ENDBRANCH   5   7
TORSDOF 1
ENDMDL
MODEL 5
REMARK VINA RESULT:      -3.7     11.919     13.100
REMARK  1 active torsions:
REMARK  status: ('A' for Active; 'I' for Inactive)
REMARK    1  A    between atoms: C7_7  and  N8_8 
ROOT
HETATM    1  C1  UNL     1     -35.215  17.410  -3.576  1.00 20.00     0.048 C 
HETATM    2  C2  UNL     1     -35.529  16.271  -4.537  1.00 20.00     0.274 C 
HETATM    3  C3  UNL     1     -33.751  15.499  -3.259  1.00 20.00     0.288 C 
HETATM    4  C4  UNL     1     -34.066  16.887  -2.721  1.00 20.00     0.087 C 
HETATM    5  N8  UNL     1     -34.248  15.571  -4.636  1.00 20.00     0.093 N 
HETATM    6 BR9  UNL     1     -34.556  16.804  -0.845  1.00 20.00    -0.089 Br
ENDROOT
BRANCH   5   7
HETATM    7  C7  UNL     1     -34.378  14.258  -5.250  1.00 20.00     0.215 C 
HETATM    8  C5  UNL     1     -35.118  14.398  -6.572  1.00 20.00     0.042 C 
HETATM    9  C6  UNL     1     -35.113  13.335  -4.288  1.00 20.00     0.042 C 
ENDBRANCH   5   7
TORSDOF 1
ENDMDL
MODEL 6
REMARK VINA RESULT:      -3.7     12.043     13.381
REMARK  1 active torsions:
REMARK  status: ('A' for Active; 'I' for Inactive)
REMARK    1  A    between atoms: C7_7  and  N8_8 
ROOT
HETATM    1  C1  UNL     1     -34.358  13.768  -3.472  1.00 20.00     0.048 C 
HETATM    2  C2  UNL     1     -34.361  13.532  -4.977  1.00 20.00     0.274 C 
HETATM    3  C3  UNL     1     -35.507  15.530  -4.685  1.00 20.00     0.288 C 
HETATM    4  C4  UNL     1     -35.087  15.095  -3.289  1.00 20.00     0.087 C 
HETATM    5  N8  UNL     1     -35.554  14.260  -5.414  1.00 20.00     0.093 N 
HETATM    6 BR9  UNL     1     -33.940  16.428  -2.468  1.00 20.00    -0.089 Br
ENDROOT
BRANCH   5   7
HETATM    7  C7  UNL     1     -35.592  14.447  -6.857  1.00 20.00     0.215 C 
HETATM    8  C5  UNL     1     -34.347  15.207  -7.293  1.00 20.00     0.042 C 
HETATM    9  C6  UNL     1     -36.866  15.195  -7.224  1.00 20.00     0.042 C 
ENDBRANCH   5   7
TORSDOF 1
ENDMDL
MODEL 7
REMARK VINA RESULT:      -3.6      9.875     10.942
REMARK  1 active torsions:
REMARK  status: ('A' for Active; 'I' for Inactive)
REMARK    1  A    between atoms: C7_7  and  N8_8 
ROOT
HETATM    1  C1  UNL     1     -43.385   3.987  -3.307  1.00 20.00     0.048 C 
HETATM    2  C2  UNL     1     -42.875   5.396  -3.033  1.00 20.00     0.274 C 
HETATM    3  C3  UNL     1     -41.400   4.000  -1.907  1.00 20.00     0.288 C 
HETATM    4  C4  UNL     1     -42.397   3.074  -2.589  1.00 20.00     0.087 C 
HETATM    5  N8  UNL     1     -42.167   5.241  -1.762  1.00 20.00     0.093 N 
HETATM    6 BR9  UNL     1     -41.495   1.886  -3.831  1.00 20.00    -0.089 Br
ENDROOT
BRANCH   5   7
HETATM    7  C7  UNL     1     -41.322   6.384  -1.454  1.00 20.00     0.215 C 
HETATM    8  C5  UNL     1     -40.654   6.161  -0.104  1.00 20.00     0.042 C 
HETATM    9  C6  UNL     1     -42.175   7.645  -1.459  1.00 20.00     0.042 C 
ENDBRANCH   5   7
TORSDOF 1
ENDMDL
MODEL 8
REMARK VINA RESULT:      -3.6     12.379     13.717
REMARK  1 active torsions:
REMARK  status: ('A' for Active; 'I' for Inactive)
REMARK    1  A    between atoms: C7_7  and  N8_8 
ROOT
HETATM    1  C1  UNL     1     -34.447  14.181  -3.500  1.00 20.00     0.048 C 
HETATM    2  C2  UNL     1     -34.284  14.424  -4.995  1.00 20.00     0.274 C 
HETATM    3  C3  UNL     1     -35.722  16.097  -4.273  1.00 20.00     0.288 C 
HETATM    4  C4  UNL     1     -35.369  15.299  -3.027  1.00 20.00     0.087 C 
HETATM    5  N8  UNL     1     -35.524  15.118  -5.346  1.00 20.00     0.093 N 
HETATM    6 BR9  UNL     1     -34.499  16.428  -1.710  1.00 20.00    -0.089 Br
ENDROOT
BRANCH   5   7
HETATM    7  C7  UNL     1     -35.461  15.737  -6.660  1.00 20.00     0.215 C 
HETATM    8  C5  UNL     1     -35.174  14.666  -7.703  1.00 20.00     0.042 C 
HETATM    9  C6  UNL     1     -34.384  16.813  -6.647  1.00 20.00     0.042 C 
ENDBRANCH   5   7
TORSDOF 1
ENDMDL
MODEL 9
REMARK VINA RESULT:      -3.5     12.317     13.151
REMARK  1 active torsions:
REMARK  status: ('A' for Active; 'I' for Inactive)
REMARK    1  A    between atoms: C7_7  and  N8_8 
ROOT
HETATM    1  C1  UNL     1     -33.564  14.951  -4.028  1.00 20.00     0.048 C 
HETATM    2  C2  UNL     1     -34.151  15.518  -2.743  1.00 20.00     0.274 C 
HETATM    3  C3  UNL     1     -33.707  17.375  -4.064  1.00 20.00     0.288 C 
HETATM    4  C4  UNL     1     -33.301  16.172  -4.902  1.00 20.00     0.087 C 
HETATM    5  N8  UNL     1     -33.581  16.865  -2.695  1.00 20.00     0.093 N 
HETATM    6 BR9  UNL     1     -34.327  16.103  -6.548  1.00 20.00    -0.089 Br
ENDROOT
BRANCH   5   7
HETATM    7  C7  UNL     1     -34.248  17.716  -1.721  1.00 20.00     0.215 C 
HETATM    8  C5  UNL     1     -33.298  18.827  -1.298  1.00 20.00     0.042 C 
HETATM    9  C6  UNL     1     -34.682  16.864  -0.537  1.00 20.00     0.042 C 
ENDBRANCH   5   7
TORSDOF 1
ENDMDL
