MODEL 1
REMARK VINA RESULT:      -4.3      0.000      0.000
REMARK  2 active torsions:
REMARK  status: ('A' for Active; 'I' for Inactive)
REMARK    1  A    between atoms: C6_6  and  C7_7 
REMARK    2  A    between atoms: C6_6  and  N9_9 
ROOT
HETATM    1  C1  UNL     1     -37.047  14.576  -3.987  1.00 20.00     0.095 C 
HETATM    2  C2  UNL     1     -33.717  13.444  -4.075  1.00 20.00     0.033 C 
HETATM    3  C3  UNL     1     -34.946  13.671  -4.945  1.00 20.00     0.053 C 
HETATM    4  C4  UNL     1     -33.495  14.789  -3.414  1.00 20.00     0.274 C 
HETATM    5  C5  UNL     1     -35.654  14.889  -4.336  1.00 20.00     0.328 C 
HETATM    6  N8  UNL     1     -38.146  14.328  -3.712  1.00 20.00    -0.195 NA
HETATM    7  N9  UNL     1     -34.866  15.217  -3.138  1.00 20.00     0.108 N 
ENDROOT
BRANCH   7   8
HETATM    8  C6  UNL     1     -34.936  16.627  -2.774  1.00 20.00     0.305 C 
BRANCH   8   9
HETATM    9  C7  UNL     1     -34.172  16.910  -1.498  1.00 20.00     0.252 C 
HETATM   10  F10 UNL     1     -34.747  16.219  -0.477  1.00 20.00    -0.254 F 
ENDBRANCH   8   9
ENDBRANCH   7   8
TORSDOF 2
ENDMDL
MODEL 2
REMARK VINA RESULT:      -4.2      1.681      2.179
REMARK  2 active torsions:
REMARK  status: ('A' for Active; 'I' for Inactive)
REMARK    1  A    between atoms: C6_6  and  C7_7 
REMARK    2  A    between atoms: C6_6  and  N9_9 
ROOT
HETATM    1  C1  UNL     1     -34.891  13.737  -4.576  1.00 20.00     0.095 C 
HETATM    2  C2  UNL     1     -33.280  16.781  -5.294  1.00 20.00     0.033 C 
HETATM    3  C3  UNL     1     -34.334  15.812  -5.813  1.00 20.00     0.053 C 
HETATM    4  C4  UNL     1     -33.736  17.079  -3.880  1.00 20.00     0.274 C 
HETATM    5  C5  UNL     1     -34.977  15.204  -4.560  1.00 20.00     0.328 C 
HETATM    6  N8  UNL     1     -34.822  12.579  -4.588  1.00 20.00    -0.195 NA
HETATM    7  N9  UNL     1     -34.214  15.770  -3.437  1.00 20.00     0.108 N 
ENDROOT
BRANCH   7   8
HETATM    8  C6  UNL     1     -34.989  15.859  -2.205  1.00 20.00     0.305 C 
BRANCH   8   9
HETATM    9  C7  UNL     1     -34.329  16.781  -1.200  1.00 20.00     0.252 C 
HETATM   10  F10 UNL     1     -34.866  16.551   0.028  1.00 20.00    -0.254 F 
ENDBRANCH   8   9
ENDBRANCH   7   8
TORSDOF 2
ENDMDL
MODEL 3
REMARK VINA RESULT:      -4.1      1.491      2.498
REMARK  2 active torsions:
REMARK  status: ('A' for Active; 'I' for Inactive)
REMARK    1  A    between atoms: C6_6  and  C7_7 
REMARK    2  A    between atoms: C6_6  and  N9_9 
ROOT
HETATM    1  C1  UNL     1     -35.179  13.621  -4.199  1.00 20.00     0.095 C 
HETATM    2  C2  UNL     1     -36.960  16.647  -4.424  1.00 20.00     0.033 C 
HETATM    3  C3  UNL     1     -37.090  15.190  -4.002  1.00 20.00     0.053 C 
HETATM    4  C4  UNL     1     -35.754  17.136  -3.647  1.00 20.00     0.274 C 
HETATM    5  C5  UNL     1     -35.702  14.793  -3.482  1.00 20.00     0.328 C 
HETATM    6  N8  UNL     1     -34.767  12.696  -4.765  1.00 20.00    -0.195 NA
HETATM    7  N9  UNL     1     -34.863  15.978  -3.717  1.00 20.00     0.108 N 
ENDROOT
BRANCH   7   8
HETATM    8  C6  UNL     1     -33.750  16.088  -2.782  1.00 20.00     0.305 C 
BRANCH   8   9
HETATM    9  C7  UNL     1     -34.115  16.938  -1.582  1.00 20.00     0.252 C 
HETATM   10  F10 UNL     1     -34.682  16.144  -0.635  1.00 20.00    -0.254 F 
ENDBRANCH   8   9
ENDBRANCH   7   8
TORSDOF 2
ENDMDL
MODEL 4
REMARK VINA RESULT:      -4.1      2.246      2.373
REMARK  2 active torsions:
REMARK  status: ('A' for Active; 'I' for Inactive)
REMARK    1  A    between atoms: C6_6  and  C7_7 
REMARK    2  A    between atoms: C6_6  and  N9_9 
ROOT
HETATM    1  C1  UNL     1     -36.758  14.489  -4.130  1.00 20.00     0.095 C 
HETATM    2  C2  UNL     1     -33.362  13.672  -3.706  1.00 20.00     0.033 C 
HETATM    3  C3  UNL     1     -34.604  13.323  -4.516  1.00 20.00     0.053 C 
HETATM    4  C4  UNL     1     -33.227  15.170  -3.891  1.00 20.00     0.274 C 
HETATM    5  C5  UNL     1     -35.388  14.636  -4.642  1.00 20.00     0.328 C 
HETATM    6  N8  UNL     1     -37.839  14.373  -3.726  1.00 20.00    -0.195 NA
HETATM    7  N9  UNL     1     -34.623  15.606  -3.843  1.00 20.00     0.108 N 
ENDROOT
BRANCH   7   8
HETATM    8  C6  UNL     1     -34.782  16.980  -4.302  1.00 20.00     0.305 C 
BRANCH   8   9
HETATM    9  C7  UNL     1     -33.625  17.411  -5.178  1.00 20.00     0.252 C 
HETATM   10  F10 UNL     1     -33.913  17.103  -6.472  1.00 20.00    -0.254 F 
ENDBRANCH   8   9
ENDBRANCH   7   8
TORSDOF 2
ENDMDL
MODEL 5
REMARK VINA RESULT:      -4.1      2.886      3.590
REMARK  2 active torsions:
REMARK  status: ('A' for Active; 'I' for Inactive)
REMARK    1  A    between atoms: C6_6  and  C7_7 
REMARK    2  A    between atoms: C6_6  and  N9_9 
ROOT
HETATM    1  C1  UNL     1     -36.639  14.383  -4.115  1.00 20.00     0.095 C 
HETATM    2  C2  UNL     1     -33.355  15.446  -3.435  1.00 20.00     0.033 C 
HETATM    3  C3  UNL     1     -34.259  14.221  -3.437  1.00 20.00     0.053 C 
HETATM    4  C4  UNL     1     -33.499  15.997  -4.840  1.00 20.00     0.274 C 
HETATM    5  C5  UNL     1     -35.249  14.449  -4.587  1.00 20.00     0.328 C 
HETATM    6  N8  UNL     1     -37.736  14.330  -3.741  1.00 20.00    -0.195 NA
HETATM    7  N9  UNL     1     -34.924  15.790  -5.098  1.00 20.00     0.108 N 
ENDROOT
BRANCH   7   8
HETATM    8  C6  UNL     1     -35.254  15.963  -6.507  1.00 20.00     0.305 C 
BRANCH   8   9
HETATM    9  C7  UNL     1     -34.557  14.933  -7.371  1.00 20.00     0.252 C 
HETATM   10  F10 UNL     1     -35.486  14.072  -7.868  1.00 20.00    -0.254 F 
ENDBRANCH   8   9
ENDBRANCH   7   8
TORSDOF 2
ENDMDL
MODEL 6
REMARK VINA RESULT:      -4.0      2.323      3.167
REMARK  2 active torsions:
REMARK  status: ('A' for Active; 'I' for Inactive)
REMARK    1  A    between atoms: C6_6  and  C7_7 
REMARK    2  A    between atoms: C6_6  and  N9_9 
ROOT
HETATM    1  C1  UNL     1     -37.232  14.702  -4.196  1.00 20.00     0.095 C 
HETATM    2  C2  UNL     1     -35.596  15.841  -7.095  1.00 20.00     0.033 C 
HETATM    3  C3  UNL     1     -36.213  16.310  -5.785  1.00 20.00     0.053 C 
HETATM    4  C4  UNL     1     -34.604  14.780  -6.661  1.00 20.00     0.274 C 
HETATM    5  C5  UNL     1     -35.971  15.167  -4.790  1.00 20.00     0.328 C 
HETATM    6  N8  UNL     1     -38.227  14.334  -3.728  1.00 20.00    -0.195 NA
HETATM    7  N9  UNL     1     -35.335  14.107  -5.588  1.00 20.00     0.108 N 
ENDROOT
BRANCH   7   8
HETATM    8  C6  UNL     1     -34.470  13.238  -4.800  1.00 20.00     0.305 C 
BRANCH   8   9
HETATM    9  C7  UNL     1     -33.562  14.036  -3.887  1.00 20.00     0.252 C 
HETATM   10  F10 UNL     1     -32.536  13.241  -3.480  1.00 20.00    -0.254 F 
ENDBRANCH   8   9
ENDBRANCH   7   8
TORSDOF 2
ENDMDL
MODEL 7
REMARK VINA RESULT:      -4.0      2.841      3.913
REMARK  2 active torsions:
REMARK  status: ('A' for Active; 'I' for Inactive)
REMARK    1  A    between atoms: C6_6  and  C7_7 
REMARK    2  A    between atoms: C6_6  and  N9_9 
ROOT
HETATM    1  C1  UNL     1     -34.546  13.906  -3.920  1.00 20.00     0.095 C 
HETATM    2  C2  UNL     1     -35.400  17.008  -2.497  1.00 20.00     0.033 C 
HETATM    3  C3  UNL     1     -34.697  15.690  -2.204  1.00 20.00     0.053 C 
HETATM    4  C4  UNL     1     -34.720  17.501  -3.758  1.00 20.00     0.274 C 
HETATM    5  C5  UNL     1     -34.087  15.250  -3.542  1.00 20.00     0.328 C 
HETATM    6  N8  UNL     1     -34.909  12.845  -4.218  1.00 20.00    -0.195 NA
HETATM    7  N9  UNL     1     -34.543  16.259  -4.510  1.00 20.00     0.108 N 
ENDROOT
BRANCH   7   8
HETATM    8  C6  UNL     1     -33.633  16.427  -5.636  1.00 20.00     0.305 C 
BRANCH   8   9
HETATM    9  C7  UNL     1     -34.297  16.061  -6.946  1.00 20.00     0.252 C 
HETATM   10  F10 UNL     1     -34.033  14.755  -7.225  1.00 20.00    -0.254 F 
ENDBRANCH   8   9
ENDBRANCH   7   8
TORSDOF 2
ENDMDL
MODEL 8
REMARK VINA RESULT:      -3.9      2.145      3.458
REMARK  2 active torsions:
REMARK  status: ('A' for Active; 'I' for Inactive)
REMARK    1  A    between atoms: C6_6  and  C7_7 
REMARK    2  A    between atoms: C6_6  and  N9_9 
ROOT
HETATM    1  C1  UNL     1     -34.787  13.836  -4.353  1.00 20.00     0.095 C 
HETATM    2  C2  UNL     1     -34.680  16.232  -1.779  1.00 20.00     0.033 C 
HETATM    3  C3  UNL     1     -33.820  15.528  -2.820  1.00 20.00     0.053 C 
HETATM    4  C4  UNL     1     -35.824  16.804  -2.591  1.00 20.00     0.274 C 
HETATM    5  C5  UNL     1     -34.756  15.264  -4.008  1.00 20.00     0.328 C 
HETATM    6  N8  UNL     1     -34.813  12.709  -4.626  1.00 20.00    -0.195 NA
HETATM    7  N9  UNL     1     -36.075  15.731  -3.554  1.00 20.00     0.108 N 
ENDROOT
BRANCH   7   8
HETATM    8  C6  UNL     1     -36.936  16.168  -4.646  1.00 20.00     0.305 C 
BRANCH   8   9
HETATM    9  C7  UNL     1     -38.188  15.321  -4.739  1.00 20.00     0.252 C 
HETATM   10  F10 UNL     1     -38.119  14.329  -3.811  1.00 20.00    -0.254 F 
ENDBRANCH   8   9
ENDBRANCH   7   8
TORSDOF 2
ENDMDL
MODEL 9
REMARK VINA RESULT:      -3.8      3.147      4.397
REMARK  2 active torsions:
REMARK  status: ('A' for Active; 'I' for Inactive)
REMARK    1  A    between atoms: C6_6  and  C7_7 
REMARK    2  A    between atoms: C6_6  and  N9_9 
ROOT
HETATM    1  C1  UNL     1     -33.938  16.942  -5.009  1.00 20.00     0.095 C 
HETATM    2  C2  UNL     1     -33.362  13.722  -3.713  1.00 20.00     0.033 C 
HETATM    3  C3  UNL     1     -33.655  15.160  -3.308  1.00 20.00     0.053 C 
HETATM    4  C4  UNL     1     -34.476  13.393  -4.686  1.00 20.00     0.274 C 
HETATM    5  C5  UNL     1     -34.532  15.727  -4.432  1.00 20.00     0.328 C 
HETATM    6  N8  UNL     1     -33.469  17.900  -5.465  1.00 20.00    -0.195 NA
HETATM    7  N9  UNL     1     -34.608  14.647  -5.427  1.00 20.00     0.108 N 
ENDROOT
BRANCH   7   8
HETATM    8  C6  UNL     1     -35.828  14.685  -6.224  1.00 20.00     0.305 C 
BRANCH   8   9
HETATM    9  C7  UNL     1     -35.532  14.527  -7.701  1.00 20.00     0.252 C 
HETATM   10  F10 UNL     1     -34.194  14.663  -7.900  1.00 20.00    -0.254 F 
ENDBRANCH   8   9
ENDBRANCH   7   8
TORSDOF 2
ENDMDL
