MODEL 1
REMARK VINA RESULT:      -5.0      0.000      0.000
REMARK  1 active torsions:
REMARK  status: ('A' for Active; 'I' for Inactive)
REMARK    1  A    between atoms: C3_3  and  C8_8 
ROOT
HETATM    1  C1  UNL     1     -37.792  14.779  -4.109  1.00 20.00     0.021 C 
HETATM    2  C2  UNL     1     -36.667  14.359  -4.090  1.00 20.00    -0.037 C 
HETATM    3  C3  UNL     1     -35.315  13.853  -4.067  1.00 20.00     0.235 C 
HETATM    4  O10 UNL     1     -35.100  12.679  -4.338  1.00 20.00    -0.280 OA
ENDROOT
BRANCH   3   5
HETATM    5  C8  UNL     1     -34.242  14.838  -3.701  1.00 20.00     0.129 C 
HETATM    6  C6  UNL     1     -34.637  15.572  -2.413  1.00 20.00     0.047 C 
HETATM    7  C4  UNL     1     -33.819  16.843  -2.209  1.00 20.00     0.006 C 
HETATM    8  C5  UNL     1     -33.844  17.697  -3.470  1.00 20.00     0.026 C 
HETATM    9  C7  UNL     1     -33.439  16.878  -4.686  1.00 20.00     0.169 C 
HETATM   10  O11 UNL     1     -34.258  15.719  -4.828  1.00 20.00    -0.372 OA
HETATM   11  C9  UNL     1     -32.913  14.090  -3.587  1.00 20.00     0.055 C 
ENDBRANCH   3   5
TORSDOF 1
ENDMDL
MODEL 2
REMARK VINA RESULT:      -4.6      1.549      3.814
REMARK  1 active torsions:
REMARK  status: ('A' for Active; 'I' for Inactive)
REMARK    1  A    between atoms: C3_3  and  C8_8 
ROOT
HETATM    1  C1  UNL     1     -34.685  16.718  -0.543  1.00 20.00     0.021 C 
HETATM    2  C2  UNL     1     -34.356  16.960  -1.672  1.00 20.00    -0.037 C 
HETATM    3  C3  UNL     1     -33.961  17.253  -3.030  1.00 20.00     0.235 C 
HETATM    4  O10 UNL     1     -33.567  18.375  -3.320  1.00 20.00    -0.280 OA
ENDROOT
BRANCH   3   5
HETATM    5  C8  UNL     1     -34.066  16.122  -4.012  1.00 20.00     0.129 C 
HETATM    6  C6  UNL     1     -35.544  15.792  -4.257  1.00 20.00     0.047 C 
HETATM    7  C4  UNL     1     -35.722  14.423  -4.906  1.00 20.00     0.006 C 
HETATM    8  C5  UNL     1     -34.945  13.365  -4.132  1.00 20.00     0.026 C 
HETATM    9  C7  UNL     1     -33.497  13.788  -3.942  1.00 20.00     0.169 C 
HETATM   10  O11 UNL     1     -33.405  15.065  -3.312  1.00 20.00    -0.372 OA
HETATM   11  C9  UNL     1     -33.316  16.513  -5.285  1.00 20.00     0.055 C 
ENDBRANCH   3   5
TORSDOF 1
ENDMDL
MODEL 3
REMARK VINA RESULT:      -4.6      1.322      1.558
REMARK  1 active torsions:
REMARK  status: ('A' for Active; 'I' for Inactive)
REMARK    1  A    between atoms: C3_3  and  C8_8 
ROOT
HETATM    1  C1  UNL     1     -35.411  14.430  -7.367  1.00 20.00     0.021 C 
HETATM    2  C2  UNL     1     -35.106  14.115  -6.249  1.00 20.00    -0.037 C 
HETATM    3  C3  UNL     1     -34.741  13.737  -4.904  1.00 20.00     0.235 C 
HETATM    4  O10 UNL     1     -34.980  12.605  -4.504  1.00 20.00    -0.280 OA
ENDROOT
BRANCH   3   5
HETATM    5  C8  UNL     1     -34.075  14.795  -4.072  1.00 20.00     0.129 C 
HETATM    6  C6  UNL     1     -35.002  15.198  -2.917  1.00 20.00     0.047 C 
HETATM    7  C4  UNL     1     -34.584  16.522  -2.287  1.00 20.00     0.006 C 
HETATM    8  C5  UNL     1     -34.396  17.584  -3.363  1.00 20.00     0.026 C 
HETATM    9  C7  UNL     1     -33.465  17.087  -4.458  1.00 20.00     0.169 C 
HETATM   10  O11 UNL     1     -33.927  15.858  -5.016  1.00 20.00    -0.372 OA
HETATM   11  C9  UNL     1     -32.721  14.263  -3.602  1.00 20.00     0.055 C 
ENDBRANCH   3   5
TORSDOF 1
ENDMDL
MODEL 4
REMARK VINA RESULT:      -4.6      1.895      3.787
REMARK  1 active torsions:
REMARK  status: ('A' for Active; 'I' for Inactive)
REMARK    1  A    between atoms: C3_3  and  C8_8 
ROOT
HETATM    1  C1  UNL     1     -34.458  16.273  -1.575  1.00 20.00     0.021 C 
HETATM    2  C2  UNL     1     -34.168  16.038  -2.717  1.00 20.00    -0.037 C 
HETATM    3  C3  UNL     1     -33.819  15.757  -4.089  1.00 20.00     0.235 C 
HETATM    4  O10 UNL     1     -32.772  16.191  -4.552  1.00 20.00    -0.280 OA
ENDROOT
BRANCH   3   5
HETATM    5  C8  UNL     1     -34.797  14.925  -4.868  1.00 20.00     0.129 C 
HETATM    6  C6  UNL     1     -34.360  14.861  -6.337  1.00 20.00     0.047 C 
HETATM    7  C4  UNL     1     -35.491  14.394  -7.248  1.00 20.00     0.006 C 
HETATM    8  C5  UNL     1     -36.752  15.208  -6.986  1.00 20.00     0.026 C 
HETATM    9  C7  UNL     1     -37.097  15.209  -5.505  1.00 20.00     0.169 C 
HETATM   10  O11 UNL     1     -36.004  15.677  -4.716  1.00 20.00    -0.372 OA
HETATM   11  C9  UNL     1     -34.900  13.550  -4.209  1.00 20.00     0.055 C 
ENDBRANCH   3   5
TORSDOF 1
ENDMDL
MODEL 5
REMARK VINA RESULT:      -4.5      1.841      3.377
REMARK  1 active torsions:
REMARK  status: ('A' for Active; 'I' for Inactive)
REMARK    1  A    between atoms: C3_3  and  C8_8 
ROOT
HETATM    1  C1  UNL     1     -34.531  16.320  -1.637  1.00 20.00     0.021 C 
HETATM    2  C2  UNL     1     -34.590  15.495  -2.508  1.00 20.00    -0.037 C 
HETATM    3  C3  UNL     1     -34.659  14.502  -3.554  1.00 20.00     0.235 C 
HETATM    4  O10 UNL     1     -34.159  13.398  -3.379  1.00 20.00    -0.280 OA
ENDROOT
BRANCH   3   5
HETATM    5  C8  UNL     1     -35.362  14.912  -4.816  1.00 20.00     0.129 C 
HETATM    6  C6  UNL     1     -34.975  13.956  -5.952  1.00 20.00     0.047 C 
HETATM    7  C4  UNL     1     -35.313  14.535  -7.322  1.00 20.00     0.006 C 
HETATM    8  C5  UNL     1     -34.759  15.948  -7.452  1.00 20.00     0.026 C 
HETATM    9  C7  UNL     1     -35.198  16.811  -6.279  1.00 20.00     0.169 C 
HETATM   10  O11 UNL     1     -34.831  16.222  -5.033  1.00 20.00    -0.372 OA
HETATM   11  C9  UNL     1     -36.866  14.949  -4.544  1.00 20.00     0.055 C 
ENDBRANCH   3   5
TORSDOF 1
ENDMDL
MODEL 6
REMARK VINA RESULT:      -4.5      1.457      3.853
REMARK  1 active torsions:
REMARK  status: ('A' for Active; 'I' for Inactive)
REMARK    1  A    between atoms: C3_3  and  C8_8 
ROOT
HETATM    1  C1  UNL     1     -33.987  17.927  -6.403  1.00 20.00     0.021 C 
HETATM    2  C2  UNL     1     -33.946  17.732  -5.219  1.00 20.00    -0.037 C 
HETATM    3  C3  UNL     1     -33.896  17.497  -3.795  1.00 20.00     0.235 C 
HETATM    4  O10 UNL     1     -33.625  18.418  -3.036  1.00 20.00    -0.280 OA
ENDROOT
BRANCH   3   5
HETATM    5  C8  UNL     1     -34.191  16.097  -3.340  1.00 20.00     0.129 C 
HETATM    6  C6  UNL     1     -33.033  15.173  -3.741  1.00 20.00     0.047 C 
HETATM    7  C4  UNL     1     -33.433  13.702  -3.683  1.00 20.00     0.006 C 
HETATM    8  C5  UNL     1     -34.732  13.475  -4.445  1.00 20.00     0.026 C 
HETATM    9  C7  UNL     1     -35.810  14.439  -3.975  1.00 20.00     0.169 C 
HETATM   10  O11 UNL     1     -35.378  15.795  -4.077  1.00 20.00    -0.372 OA
HETATM   11  C9  UNL     1     -34.451  16.120  -1.833  1.00 20.00     0.055 C 
ENDBRANCH   3   5
TORSDOF 1
ENDMDL
MODEL 7
REMARK VINA RESULT:      -4.5      1.974      3.334
REMARK  1 active torsions:
REMARK  status: ('A' for Active; 'I' for Inactive)
REMARK    1  A    between atoms: C3_3  and  C8_8 
ROOT
HETATM    1  C1  UNL     1     -34.557  16.316  -1.522  1.00 20.00     0.021 C 
HETATM    2  C2  UNL     1     -34.496  15.573  -2.463  1.00 20.00    -0.037 C 
HETATM    3  C3  UNL     1     -34.422  14.679  -3.595  1.00 20.00     0.235 C 
HETATM    4  O10 UNL     1     -34.177  13.493  -3.419  1.00 20.00    -0.280 OA
ENDROOT
BRANCH   3   5
HETATM    5  C8  UNL     1     -34.659  15.293  -4.945  1.00 20.00     0.129 C 
HETATM    6  C6  UNL     1     -36.043  15.955  -4.971  1.00 20.00     0.047 C 
HETATM    7  C4  UNL     1     -36.514  16.233  -6.395  1.00 20.00     0.006 C 
HETATM    8  C5  UNL     1     -36.384  14.980  -7.250  1.00 20.00     0.026 C 
HETATM    9  C7  UNL     1     -34.980  14.402  -7.154  1.00 20.00     0.169 C 
HETATM   10  O11 UNL     1     -34.614  14.147  -5.799  1.00 20.00    -0.372 OA
HETATM   11  C9  UNL     1     -33.518  16.266  -5.244  1.00 20.00     0.055 C 
ENDBRANCH   3   5
TORSDOF 1
ENDMDL
MODEL 8
REMARK VINA RESULT:      -4.4      1.782      2.183
REMARK  1 active torsions:
REMARK  status: ('A' for Active; 'I' for Inactive)
REMARK    1  A    between atoms: C3_3  and  C8_8 
ROOT
HETATM    1  C1  UNL     1     -35.522  14.428  -7.755  1.00 20.00     0.021 C 
HETATM    2  C2  UNL     1     -35.177  14.256  -6.618  1.00 20.00    -0.037 C 
HETATM    3  C3  UNL     1     -34.763  14.048  -5.250  1.00 20.00     0.235 C 
HETATM    4  O10 UNL     1     -34.647  12.910  -4.816  1.00 20.00    -0.280 OA
ENDROOT
BRANCH   3   5
HETATM    5  C8  UNL     1     -34.497  15.284  -4.440  1.00 20.00     0.129 C 
HETATM    6  C6  UNL     1     -34.281  14.897  -2.971  1.00 20.00     0.047 C 
HETATM    7  C4  UNL     1     -34.412  16.099  -2.041  1.00 20.00     0.006 C 
HETATM    8  C5  UNL     1     -35.706  16.850  -2.325  1.00 20.00     0.026 C 
HETATM    9  C7  UNL     1     -35.824  17.184  -3.804  1.00 20.00     0.169 C 
HETATM   10  O11 UNL     1     -35.715  16.014  -4.613  1.00 20.00    -0.372 OA
HETATM   11  C9  UNL     1     -33.305  16.020  -5.052  1.00 20.00     0.055 C 
ENDBRANCH   3   5
TORSDOF 1
ENDMDL
MODEL 9
REMARK VINA RESULT:      -4.4      1.862      3.181
REMARK  1 active torsions:
REMARK  status: ('A' for Active; 'I' for Inactive)
REMARK    1  A    between atoms: C3_3  and  C8_8 
ROOT
HETATM    1  C1  UNL     1     -34.407  16.614  -1.043  1.00 20.00     0.021 C 
HETATM    2  C2  UNL     1     -34.942  16.082  -1.977  1.00 20.00    -0.037 C 
HETATM    3  C3  UNL     1     -35.587  15.441  -3.100  1.00 20.00     0.235 C 
HETATM    4  O10 UNL     1     -36.780  15.174  -3.045  1.00 20.00    -0.280 OA
ENDROOT
BRANCH   3   5
HETATM    5  C8  UNL     1     -34.716  15.144  -4.287  1.00 20.00     0.129 C 
HETATM    6  C6  UNL     1     -34.266  16.460  -4.934  1.00 20.00     0.047 C 
HETATM    7  C4  UNL     1     -33.735  16.246  -6.348  1.00 20.00     0.006 C 
HETATM    8  C5  UNL     1     -34.726  15.430  -7.168  1.00 20.00     0.026 C 
HETATM    9  C7  UNL     1     -35.107  14.151  -6.440  1.00 20.00     0.169 C 
HETATM   10  O11 UNL     1     -35.615  14.426  -5.136  1.00 20.00    -0.372 OA
HETATM   11  C9  UNL     1     -33.551  14.268  -3.828  1.00 20.00     0.055 C 
ENDBRANCH   3   5
TORSDOF 1
ENDMDL
