MODEL 1
REMARK VINA RESULT:      -4.8      0.000      0.000
REMARK  5 active torsions:
REMARK  status: ('A' for Active; 'I' for Inactive)
REMARK    1  A    between atoms: C2_2  and  C6_6 
REMARK    2  A    between atoms: C3_3  and  C7_7 
REMARK    3  A    between atoms: C3_3  and  O10_10 
REMARK    4  A    between atoms: C6_6  and  C8_8 
REMARK    5  A    between atoms: C7_7  and  C8_8 
ROOT
HETATM    1  C1  UNL     1     -34.863  17.174   0.202  1.00 20.00    -0.111 C 
HETATM    2  C2  UNL     1     -34.532  16.732  -0.865  1.00 20.00    -0.107 C 
HETATM    3  C4  UNL     1     -35.262  17.714   1.501  1.00 20.00     0.112 C 
ENDROOT
BRANCH   2   4
HETATM    4  C6  UNL     1     -34.131  16.188  -2.171  1.00 20.00     0.098 C 
BRANCH   4   5
HETATM    5  C8  UNL     1     -35.287  15.528  -2.950  1.00 20.00     0.002 C 
HETATM    6  C5  UNL     1     -36.417  16.524  -3.230  1.00 20.00     0.011 C 
BRANCH   5   7
HETATM    7  C7  UNL     1     -34.842  14.855  -4.257  1.00 20.00     0.115 C 
BRANCH   7   8
HETATM    8  C3  UNL     1     -34.359  13.441  -4.045  1.00 20.00     0.139 C 
HETATM    9  O9  UNL     1     -33.201  13.147  -3.780  1.00 20.00    -0.650 OA
BRANCH   8  10
HETATM   10  O10 UNL     1     -35.352  12.525  -4.172  1.00 20.00    -0.776 OA
HETATM   11  H22 UNL     1     -36.235  12.896  -4.382  1.00 20.00     0.167 HD
ENDBRANCH   8  10
ENDBRANCH   7   8
ENDBRANCH   5   7
ENDBRANCH   4   5
ENDBRANCH   2   4
TORSDOF 5
ENDMDL
MODEL 2
REMARK VINA RESULT:      -4.7     10.904     11.768
REMARK  5 active torsions:
REMARK  status: ('A' for Active; 'I' for Inactive)
REMARK    1  A    between atoms: C2_2  and  C6_6 
REMARK    2  A    between atoms: C3_3  and  C7_7 
REMARK    3  A    between atoms: C3_3  and  O10_10 
REMARK    4  A    between atoms: C6_6  and  C8_8 
REMARK    5  A    between atoms: C7_7  and  C8_8 
ROOT
HETATM    1  C1  UNL     1     -32.280   8.532   1.858  1.00 20.00    -0.111 C 
HETATM    2  C2  UNL     1     -32.291   7.547   2.545  1.00 20.00    -0.107 C 
HETATM    3  C4  UNL     1     -32.263   9.731   1.021  1.00 20.00     0.112 C 
ENDROOT
BRANCH   2   4
HETATM    4  C6  UNL     1     -32.309   6.342   3.388  1.00 20.00     0.098 C 
BRANCH   4   5
HETATM    5  C8  UNL     1     -33.725   5.901   3.810  1.00 20.00     0.002 C 
HETATM    6  C5  UNL     1     -34.547   5.423   2.609  1.00 20.00     0.011 C 
BRANCH   5   7
HETATM    7  C7  UNL     1     -33.733   4.831   4.912  1.00 20.00     0.115 C 
BRANCH   7   8
HETATM    8  C3  UNL     1     -34.645   5.189   6.061  1.00 20.00     0.139 C 
HETATM    9  O9  UNL     1     -34.552   6.222   6.710  1.00 20.00    -0.650 OA
BRANCH   8  10
HETATM   10  O10 UNL     1     -35.588   4.242   6.293  1.00 20.00    -0.776 OA
HETATM   11  H22 UNL     1     -35.316   3.526   6.906  1.00 20.00     0.167 HD
ENDBRANCH   8  10
ENDBRANCH   7   8
ENDBRANCH   5   7
ENDBRANCH   4   5
ENDBRANCH   2   4
TORSDOF 5
ENDMDL
MODEL 3
REMARK VINA RESULT:      -4.7      9.625     10.437
REMARK  5 active torsions:
REMARK  status: ('A' for Active; 'I' for Inactive)
REMARK    1  A    between atoms: C2_2  and  C6_6 
REMARK    2  A    between atoms: C3_3  and  C7_7 
REMARK    3  A    between atoms: C3_3  and  O10_10 
REMARK    4  A    between atoms: C6_6  and  C8_8 
REMARK    5  A    between atoms: C7_7  and  C8_8 
ROOT
HETATM    1  C1  UNL     1     -34.277   5.418   5.044  1.00 20.00    -0.111 C 
HETATM    2  C2  UNL     1     -33.704   5.749   4.041  1.00 20.00    -0.107 C 
HETATM    3  C4  UNL     1     -34.970   5.015   6.267  1.00 20.00     0.112 C 
ENDROOT
BRANCH   2   4
HETATM    4  C6  UNL     1     -33.008   6.152   2.810  1.00 20.00     0.098 C 
BRANCH   4   5
HETATM    5  C8  UNL     1     -32.380   7.558   2.884  1.00 20.00     0.002 C 
HETATM    6  C5  UNL     1     -31.313   7.641   3.981  1.00 20.00     0.011 C 
BRANCH   5   7
HETATM    7  C7  UNL     1     -31.799   8.044   1.547  1.00 20.00     0.115 C 
BRANCH   7   8
HETATM    8  C3  UNL     1     -32.425   9.334   1.079  1.00 20.00     0.139 C 
HETATM    9  O9  UNL     1     -32.579  10.318   1.790  1.00 20.00    -0.650 OA
BRANCH   8  10
HETATM   10  O10 UNL     1     -32.796   9.290  -0.225  1.00 20.00    -0.776 OA
HETATM   11  H22 UNL     1     -32.674   8.422  -0.664  1.00 20.00     0.167 HD
ENDBRANCH   8  10
ENDBRANCH   7   8
ENDBRANCH   5   7
ENDBRANCH   4   5
ENDBRANCH   2   4
TORSDOF 5
ENDMDL
MODEL 4
REMARK VINA RESULT:      -4.6      1.315      1.948
REMARK  5 active torsions:
REMARK  status: ('A' for Active; 'I' for Inactive)
REMARK    1  A    between atoms: C2_2  and  C6_6 
REMARK    2  A    between atoms: C3_3  and  C7_7 
REMARK    3  A    between atoms: C3_3  and  O10_10 
REMARK    4  A    between atoms: C6_6  and  C8_8 
REMARK    5  A    between atoms: C7_7  and  C8_8 
ROOT
HETATM    1  C1  UNL     1     -34.582  16.765  -0.891  1.00 20.00    -0.111 C 
HETATM    2  C2  UNL     1     -34.154  16.238  -1.882  1.00 20.00    -0.107 C 
HETATM    3  C4  UNL     1     -35.104  17.402   0.317  1.00 20.00     0.112 C 
ENDROOT
BRANCH   2   4
HETATM    4  C6  UNL     1     -33.629  15.598  -3.098  1.00 20.00     0.098 C 
BRANCH   4   5
HETATM    5  C8  UNL     1     -34.417  15.953  -4.375  1.00 20.00     0.002 C 
HETATM    6  C5  UNL     1     -33.610  16.873  -5.296  1.00 20.00     0.011 C 
BRANCH   5   7
HETATM    7  C7  UNL     1     -34.907  14.724  -5.157  1.00 20.00     0.115 C 
BRANCH   7   8
HETATM    8  C3  UNL     1     -35.729  13.787  -4.307  1.00 20.00     0.139 C 
HETATM    9  O9  UNL     1     -36.817  14.076  -3.826  1.00 20.00    -0.650 OA
BRANCH   8  10
HETATM   10  O10 UNL     1     -35.134  12.579  -4.137  1.00 20.00    -0.776 OA
HETATM   11  H22 UNL     1     -35.686  11.806  -4.379  1.00 20.00     0.167 HD
ENDBRANCH   8  10
ENDBRANCH   7   8
ENDBRANCH   5   7
ENDBRANCH   4   5
ENDBRANCH   2   4
TORSDOF 5
ENDMDL
MODEL 5
REMARK VINA RESULT:      -4.6     10.836     11.669
REMARK  5 active torsions:
REMARK  status: ('A' for Active; 'I' for Inactive)
REMARK    1  A    between atoms: C2_2  and  C6_6 
REMARK    2  A    between atoms: C3_3  and  C7_7 
REMARK    3  A    between atoms: C3_3  and  O10_10 
REMARK    4  A    between atoms: C6_6  and  C8_8 
REMARK    5  A    between atoms: C7_7  and  C8_8 
ROOT
HETATM    1  C1  UNL     1     -32.303   8.493   1.911  1.00 20.00    -0.111 C 
HETATM    2  C2  UNL     1     -32.274   7.411   2.432  1.00 20.00    -0.107 C 
HETATM    3  C4  UNL     1     -32.337   9.809   1.274  1.00 20.00     0.112 C 
ENDROOT
BRANCH   2   4
HETATM    4  C6  UNL     1     -32.239   6.089   3.075  1.00 20.00     0.098 C 
BRANCH   4   5
HETATM    5  C8  UNL     1     -33.062   6.009   4.377  1.00 20.00     0.002 C 
HETATM    6  C5  UNL     1     -32.985   7.316   5.172  1.00 20.00     0.011 C 
BRANCH   5   7
HETATM    7  C7  UNL     1     -34.530   5.615   4.154  1.00 20.00     0.115 C 
BRANCH   7   8
HETATM    8  C3  UNL     1     -35.079   4.767   5.275  1.00 20.00     0.139 C 
HETATM    9  O9  UNL     1     -35.160   5.140   6.437  1.00 20.00    -0.650 OA
BRANCH   8  10
HETATM   10  O10 UNL     1     -35.482   3.542   4.853  1.00 20.00    -0.776 OA
HETATM   11  H22 UNL     1     -36.316   3.533   4.338  1.00 20.00     0.167 HD
ENDBRANCH   8  10
ENDBRANCH   7   8
ENDBRANCH   5   7
ENDBRANCH   4   5
ENDBRANCH   2   4
TORSDOF 5
ENDMDL
MODEL 6
REMARK VINA RESULT:      -4.3      2.205      3.633
REMARK  5 active torsions:
REMARK  status: ('A' for Active; 'I' for Inactive)
REMARK    1  A    between atoms: C2_2  and  C6_6 
REMARK    2  A    between atoms: C3_3  and  C7_7 
REMARK    3  A    between atoms: C3_3  and  O10_10 
REMARK    4  A    between atoms: C6_6  and  C8_8 
REMARK    5  A    between atoms: C7_7  and  C8_8 
ROOT
HETATM    1  C1  UNL     1     -33.509  17.599  -5.317  1.00 20.00    -0.111 C 
HETATM    2  C2  UNL     1     -33.339  16.662  -4.585  1.00 20.00    -0.107 C 
HETATM    3  C4  UNL     1     -33.713  18.741  -6.208  1.00 20.00     0.112 C 
ENDROOT
BRANCH   2   4
HETATM    4  C6  UNL     1     -33.136  15.515  -3.688  1.00 20.00     0.098 C 
BRANCH   4   5
HETATM    5  C8  UNL     1     -34.385  15.140  -2.867  1.00 20.00     0.002 C 
HETATM    6  C5  UNL     1     -34.719  16.215  -1.828  1.00 20.00     0.011 C 
BRANCH   5   7
HETATM    7  C7  UNL     1     -35.621  14.841  -3.729  1.00 20.00     0.115 C 
BRANCH   7   8
HETATM    8  C3  UNL     1     -35.389  13.709  -4.700  1.00 20.00     0.139 C 
HETATM    9  O9  UNL     1     -35.251  13.861  -5.906  1.00 20.00    -0.650 OA
BRANCH   8  10
HETATM   10  O10 UNL     1     -35.343  12.499  -4.089  1.00 20.00    -0.776 OA
HETATM   11  H22 UNL     1     -36.108  11.913  -4.268  1.00 20.00     0.167 HD
ENDBRANCH   8  10
ENDBRANCH   7   8
ENDBRANCH   5   7
ENDBRANCH   4   5
ENDBRANCH   2   4
TORSDOF 5
ENDMDL
MODEL 7
REMARK VINA RESULT:      -4.3      1.682      2.079
REMARK  5 active torsions:
REMARK  status: ('A' for Active; 'I' for Inactive)
REMARK    1  A    between atoms: C2_2  and  C6_6 
REMARK    2  A    between atoms: C3_3  and  C7_7 
REMARK    3  A    between atoms: C3_3  and  O10_10 
REMARK    4  A    between atoms: C6_6  and  C8_8 
REMARK    5  A    between atoms: C7_7  and  C8_8 
ROOT
HETATM    1  C1  UNL     1     -33.107  18.226  -0.492  1.00 20.00    -0.111 C 
HETATM    2  C2  UNL     1     -33.866  17.372  -0.866  1.00 20.00    -0.107 C 
HETATM    3  C4  UNL     1     -32.184  19.263  -0.033  1.00 20.00     0.112 C 
ENDROOT
BRANCH   2   4
HETATM    4  C6  UNL     1     -34.796  16.332  -1.327  1.00 20.00     0.098 C 
BRANCH   4   5
HETATM    5  C8  UNL     1     -34.715  16.052  -2.842  1.00 20.00     0.002 C 
HETATM    6  C5  UNL     1     -33.772  17.034  -3.545  1.00 20.00     0.011 C 
BRANCH   5   7
HETATM    7  C7  UNL     1     -34.317  14.607  -3.180  1.00 20.00     0.115 C 
BRANCH   7   8
HETATM    8  C3  UNL     1     -35.300  13.938  -4.109  1.00 20.00     0.139 C 
HETATM    9  O9  UNL     1     -36.163  14.536  -4.737  1.00 20.00    -0.650 OA
BRANCH   8  10
HETATM   10  O10 UNL     1     -35.119  12.596  -4.180  1.00 20.00    -0.776 OA
HETATM   11  H22 UNL     1     -34.741  12.271  -5.025  1.00 20.00     0.167 HD
ENDBRANCH   8  10
ENDBRANCH   7   8
ENDBRANCH   5   7
ENDBRANCH   4   5
ENDBRANCH   2   4
TORSDOF 5
ENDMDL
MODEL 8
REMARK VINA RESULT:      -4.2      2.222      2.889
REMARK  5 active torsions:
REMARK  status: ('A' for Active; 'I' for Inactive)
REMARK    1  A    between atoms: C2_2  and  C6_6 
REMARK    2  A    between atoms: C3_3  and  C7_7 
REMARK    3  A    between atoms: C3_3  and  O10_10 
REMARK    4  A    between atoms: C6_6  and  C8_8 
REMARK    5  A    between atoms: C7_7  and  C8_8 
ROOT
HETATM    1  C1  UNL     1     -34.426  16.563  -1.235  1.00 20.00    -0.111 C 
HETATM    2  C2  UNL     1     -34.105  16.045  -2.271  1.00 20.00    -0.107 C 
HETATM    3  C4  UNL     1     -34.820  17.190   0.025  1.00 20.00     0.112 C 
ENDROOT
BRANCH   2   4
HETATM    4  C6  UNL     1     -33.709  15.416  -3.540  1.00 20.00     0.098 C 
BRANCH   4   5
HETATM    5  C8  UNL     1     -34.868  15.262  -4.545  1.00 20.00     0.002 C 
HETATM    6  C5  UNL     1     -34.354  14.953  -5.954  1.00 20.00     0.011 C 
BRANCH   5   7
HETATM    7  C7  UNL     1     -35.911  14.215  -4.124  1.00 20.00     0.115 C 
BRANCH   7   8
HETATM    8  C3  UNL     1     -37.273  14.819  -3.882  1.00 20.00     0.139 C 
HETATM    9  O9  UNL     1     -38.295  14.163  -3.734  1.00 20.00    -0.650 OA
BRANCH   8  10
HETATM   10  O10 UNL     1     -37.242  16.175  -3.838  1.00 20.00    -0.776 OA
HETATM   11  H22 UNL     1     -37.077  16.558  -2.951  1.00 20.00     0.167 HD
ENDBRANCH   8  10
ENDBRANCH   7   8
ENDBRANCH   5   7
ENDBRANCH   4   5
ENDBRANCH   2   4
TORSDOF 5
ENDMDL
MODEL 9
REMARK VINA RESULT:      -4.2      1.843      2.392
REMARK  5 active torsions:
REMARK  status: ('A' for Active; 'I' for Inactive)
REMARK    1  A    between atoms: C2_2  and  C6_6 
REMARK    2  A    between atoms: C3_3  and  C7_7 
REMARK    3  A    between atoms: C3_3  and  O10_10 
REMARK    4  A    between atoms: C6_6  and  C8_8 
REMARK    5  A    between atoms: C7_7  and  C8_8 
ROOT
HETATM    1  C1  UNL     1     -34.582  16.542  -1.088  1.00 20.00    -0.111 C 
HETATM    2  C2  UNL     1     -34.298  15.960  -2.100  1.00 20.00    -0.107 C 
HETATM    3  C4  UNL     1     -34.932  17.249   0.143  1.00 20.00     0.112 C 
ENDROOT
BRANCH   2   4
HETATM    4  C6  UNL     1     -33.946  15.251  -3.339  1.00 20.00     0.098 C 
BRANCH   4   5
HETATM    5  C8  UNL     1     -34.958  14.158  -3.738  1.00 20.00     0.002 C 
HETATM    6  C5  UNL     1     -36.390  14.700  -3.763  1.00 20.00     0.011 C 
BRANCH   5   7
HETATM    7  C7  UNL     1     -34.630  13.475  -5.075  1.00 20.00     0.115 C 
BRANCH   7   8
HETATM    8  C3  UNL     1     -34.839  14.388  -6.258  1.00 20.00     0.139 C 
HETATM    9  O9  UNL     1     -35.879  14.446  -6.902  1.00 20.00    -0.650 OA
BRANCH   8  10
HETATM   10  O10 UNL     1     -33.749  15.148  -6.530  1.00 20.00    -0.776 OA
HETATM   11  H22 UNL     1     -33.160  15.319  -5.764  1.00 20.00     0.167 HD
ENDBRANCH   8  10
ENDBRANCH   7   8
ENDBRANCH   5   7
ENDBRANCH   4   5
ENDBRANCH   2   4
TORSDOF 5
ENDMDL
