MODEL 1
REMARK VINA RESULT:      -4.9      0.000      0.000
REMARK  2 active torsions:
REMARK  status: ('A' for Active; 'I' for Inactive)
REMARK    1  A    between atoms: C1_1  and  C5_5 
REMARK    2  A    between atoms: C6_6  and  C10_10 
ROOT
HETATM    1  C2  UNL     1     -34.026  16.018  -5.179  1.00 20.00     0.016 C 
HETATM    2  C3  UNL     1     -33.462  17.128  -4.293  1.00 20.00     0.005 C 
HETATM    3  C4  UNL     1     -34.481  16.014  -2.260  1.00 20.00     0.009 C 
HETATM    4  C5  UNL     1     -34.193  14.720  -4.395  1.00 20.00     0.090 C 
HETATM    5  C6  UNL     1     -34.298  17.336  -3.024  1.00 20.00    -0.014 C 
HETATM    6  C7  UNL     1     -35.059  14.886  -3.137  1.00 20.00    -0.004 C 
HETATM    7  C8  UNL     1     -36.545  15.135  -3.431  1.00 20.00     0.011 C 
ENDROOT
BRANCH   4   8
HETATM    8  C1  UNL     1     -34.768  13.658  -5.315  1.00 20.00     0.177 C 
HETATM    9  O11 UNL     1     -35.125  14.067  -6.455  1.00 20.00    -0.648 OA
HETATM   10  O12 UNL     1     -34.814  12.497  -4.820  1.00 20.00    -0.648 OA
ENDBRANCH   4   8
BRANCH   5  11
HETATM   11  C10 UNL     1     -33.654  18.390  -2.124  1.00 20.00     0.000 C 
HETATM   12  C9  UNL     1     -33.466  17.885  -0.732  1.00 20.00     0.005 C 
ENDBRANCH   5  11
TORSDOF 2
ENDMDL
MODEL 2
REMARK VINA RESULT:      -4.8      1.507      2.129
REMARK  2 active torsions:
REMARK  status: ('A' for Active; 'I' for Inactive)
REMARK    1  A    between atoms: C1_1  and  C5_5 
REMARK    2  A    between atoms: C6_6  and  C10_10 
ROOT
HETATM    1  C2  UNL     1     -36.135  15.927  -4.286  1.00 20.00     0.016 C 
HETATM    2  C3  UNL     1     -35.935  16.603  -2.931  1.00 20.00     0.005 C 
HETATM    3  C4  UNL     1     -33.529  15.814  -2.900  1.00 20.00     0.009 C 
HETATM    4  C5  UNL     1     -34.821  15.837  -5.055  1.00 20.00     0.090 C 
HETATM    5  C6  UNL     1     -34.839  15.922  -2.101  1.00 20.00    -0.014 C 
HETATM    6  C7  UNL     1     -33.712  15.125  -4.266  1.00 20.00    -0.004 C 
HETATM    7  C8  UNL     1     -33.943  13.618  -4.088  1.00 20.00     0.011 C 
ENDROOT
BRANCH   4   8
HETATM    8  C1  UNL     1     -35.072  15.148  -6.385  1.00 20.00     0.177 C 
HETATM    9  O11 UNL     1     -34.081  15.106  -7.166  1.00 20.00    -0.648 OA
HETATM   10  O12 UNL     1     -36.245  14.705  -6.538  1.00 20.00    -0.648 OA
ENDBRANCH   4   8
BRANCH   5  11
HETATM   11  C10 UNL     1     -34.608  16.678  -0.793  1.00 20.00     0.000 C 
HETATM   12  C9  UNL     1     -33.537  17.708  -0.935  1.00 20.00     0.005 C 
ENDBRANCH   5  11
TORSDOF 2
ENDMDL
MODEL 3
REMARK VINA RESULT:      -4.7      1.061      2.048
REMARK  2 active torsions:
REMARK  status: ('A' for Active; 'I' for Inactive)
REMARK    1  A    between atoms: C1_1  and  C5_5 
REMARK    2  A    between atoms: C6_6  and  C10_10 
ROOT
HETATM    1  C2  UNL     1     -35.790  14.760  -3.594  1.00 20.00     0.016 C 
HETATM    2  C3  UNL     1     -35.944  15.783  -2.470  1.00 20.00     0.005 C 
HETATM    3  C4  UNL     1     -33.605  16.634  -2.935  1.00 20.00     0.009 C 
HETATM    4  C5  UNL     1     -34.807  15.250  -4.652  1.00 20.00     0.090 C 
HETATM    5  C6  UNL     1     -34.593  16.170  -1.852  1.00 20.00    -0.014 C 
HETATM    6  C7  UNL     1     -33.431  15.609  -4.072  1.00 20.00    -0.004 C 
HETATM    7  C8  UNL     1     -32.621  14.397  -3.591  1.00 20.00     0.011 C 
ENDROOT
BRANCH   4   8
HETATM    8  C1  UNL     1     -34.682  14.194  -5.736  1.00 20.00     0.177 C 
HETATM    9  O11 UNL     1     -34.280  14.616  -6.857  1.00 20.00    -0.648 OA
HETATM   10  O12 UNL     1     -34.997  13.025  -5.376  1.00 20.00    -0.648 OA
ENDBRANCH   4   8
BRANCH   5  11
HETATM   11  C10 UNL     1     -34.779  17.257  -0.794  1.00 20.00     0.000 C 
HETATM   12  C9  UNL     1     -33.494  17.951  -0.487  1.00 20.00     0.005 C 
ENDBRANCH   5  11
TORSDOF 2
ENDMDL
MODEL 4
REMARK VINA RESULT:      -4.6      1.736      2.914
REMARK  2 active torsions:
REMARK  status: ('A' for Active; 'I' for Inactive)
REMARK    1  A    between atoms: C1_1  and  C5_5 
REMARK    2  A    between atoms: C6_6  and  C10_10 
ROOT
HETATM    1  C2  UNL     1     -35.419  15.009  -5.478  1.00 20.00     0.016 C 
HETATM    2  C3  UNL     1     -35.476  16.378  -6.154  1.00 20.00     0.005 C 
HETATM    3  C4  UNL     1     -33.597  17.186  -4.662  1.00 20.00     0.009 C 
HETATM    4  C5  UNL     1     -34.025  14.725  -4.930  1.00 20.00     0.090 C 
HETATM    5  C6  UNL     1     -34.991  17.501  -5.228  1.00 20.00    -0.014 C 
HETATM    6  C7  UNL     1     -33.525  15.813  -3.967  1.00 20.00    -0.004 C 
HETATM    7  C8  UNL     1     -34.266  15.845  -2.623  1.00 20.00     0.011 C 
ENDROOT
BRANCH   4   8
HETATM    8  C1  UNL     1     -34.026  13.363  -4.258  1.00 20.00     0.177 C 
HETATM    9  O11 UNL     1     -35.128  12.747  -4.291  1.00 20.00    -0.648 OA
HETATM   10  O12 UNL     1     -32.920  13.021  -3.752  1.00 20.00    -0.648 OA
ENDBRANCH   4   8
BRANCH   5  11
HETATM   11  C10 UNL     1     -34.980  18.839  -5.968  1.00 20.00     0.000 C 
HETATM   12  C9  UNL     1     -33.695  19.054  -6.696  1.00 20.00     0.005 C 
ENDBRANCH   5  11
TORSDOF 2
ENDMDL
MODEL 5
REMARK VINA RESULT:      -4.5      1.586      2.415
REMARK  2 active torsions:
REMARK  status: ('A' for Active; 'I' for Inactive)
REMARK    1  A    between atoms: C1_1  and  C5_5 
REMARK    2  A    between atoms: C6_6  and  C10_10 
ROOT
HETATM    1  C2  UNL     1     -34.142  15.388  -2.614  1.00 20.00     0.016 C 
HETATM    2  C3  UNL     1     -34.855  16.655  -2.144  1.00 20.00     0.005 C 
HETATM    3  C4  UNL     1     -36.093  16.768  -4.350  1.00 20.00     0.009 C 
HETATM    4  C5  UNL     1     -34.984  14.630  -3.635  1.00 20.00     0.090 C 
HETATM    5  C6  UNL     1     -35.270  17.554  -3.317  1.00 20.00    -0.014 C 
HETATM    6  C7  UNL     1     -35.384  15.492  -4.842  1.00 20.00    -0.004 C 
HETATM    7  C8  UNL     1     -34.214  15.845  -5.770  1.00 20.00     0.011 C 
ENDROOT
BRANCH   4   8
HETATM    8  C1  UNL     1     -34.227  13.391  -4.078  1.00 20.00     0.177 C 
HETATM    9  O11 UNL     1     -33.035  13.313  -3.669  1.00 20.00    -0.648 OA
HETATM   10  O12 UNL     1     -34.890  12.595  -4.801  1.00 20.00    -0.648 OA
ENDBRANCH   4   8
BRANCH   5  11
HETATM   11  C10 UNL     1     -36.055  18.764  -2.813  1.00 20.00     0.000 C 
HETATM   12  C9  UNL     1     -36.575  18.546  -1.430  1.00 20.00     0.005 C 
ENDBRANCH   5  11
TORSDOF 2
ENDMDL
MODEL 6
REMARK VINA RESULT:      -4.4      2.822      4.660
REMARK  2 active torsions:
REMARK  status: ('A' for Active; 'I' for Inactive)
REMARK    1  A    between atoms: C1_1  and  C5_5 
REMARK    2  A    between atoms: C6_6  and  C10_10 
ROOT
HETATM    1  C2  UNL     1     -34.476  15.171  -2.922  1.00 20.00     0.016 C 
HETATM    2  C3  UNL     1     -34.270  14.561  -4.307  1.00 20.00     0.005 C 
HETATM    3  C4  UNL     1     -33.705  16.853  -5.225  1.00 20.00     0.009 C 
HETATM    4  C5  UNL     1     -33.640  16.435  -2.748  1.00 20.00     0.090 C 
HETATM    5  C6  UNL     1     -34.533  15.574  -5.430  1.00 20.00    -0.014 C 
HETATM    6  C7  UNL     1     -33.909  17.487  -3.836  1.00 20.00    -0.004 C 
HETATM    7  C8  UNL     1     -35.292  18.145  -3.737  1.00 20.00     0.011 C 
ENDROOT
BRANCH   4   8
HETATM    8  C1  UNL     1     -33.891  17.007  -1.364  1.00 20.00     0.177 C 
HETATM    9  O11 UNL     1     -33.225  18.041  -1.079  1.00 20.00    -0.648 OA
HETATM   10  O12 UNL     1     -34.736  16.371  -0.674  1.00 20.00    -0.648 OA
ENDBRANCH   4   8
BRANCH   5  11
HETATM   11  C10 UNL     1     -34.233  14.953  -6.794  1.00 20.00     0.000 C 
HETATM   12  C9  UNL     1     -35.457  14.360  -7.410  1.00 20.00     0.005 C 
ENDBRANCH   5  11
TORSDOF 2
ENDMDL
MODEL 7
REMARK VINA RESULT:      -4.4      1.880      3.036
REMARK  2 active torsions:
REMARK  status: ('A' for Active; 'I' for Inactive)
REMARK    1  A    between atoms: C1_1  and  C5_5 
REMARK    2  A    between atoms: C6_6  and  C10_10 
ROOT
HETATM    1  C2  UNL     1     -33.351  15.775  -4.040  1.00 20.00     0.016 C 
HETATM    2  C3  UNL     1     -33.649  17.265  -4.203  1.00 20.00     0.005 C 
HETATM    3  C4  UNL     1     -35.562  16.704  -5.764  1.00 20.00     0.009 C 
HETATM    4  C5  UNL     1     -34.606  14.936  -4.256  1.00 20.00     0.090 C 
HETATM    5  C6  UNL     1     -34.315  17.577  -5.550  1.00 20.00    -0.014 C 
HETATM    6  C7  UNL     1     -35.277  15.197  -5.613  1.00 20.00    -0.004 C 
HETATM    7  C8  UNL     1     -34.477  14.674  -6.814  1.00 20.00     0.011 C 
ENDROOT
BRANCH   4   8
HETATM    8  C1  UNL     1     -34.253  13.468  -4.096  1.00 20.00     0.177 C 
HETATM    9  O11 UNL     1     -35.191  12.659  -4.338  1.00 20.00    -0.648 OA
HETATM   10  O12 UNL     1     -33.062  13.246  -3.740  1.00 20.00    -0.648 OA
ENDBRANCH   4   8
BRANCH   5  11
HETATM   11  C10 UNL     1     -34.677  19.059  -5.638  1.00 20.00     0.000 C 
HETATM   12  C9  UNL     1     -36.016  19.263  -6.265  1.00 20.00     0.005 C 
ENDBRANCH   5  11
TORSDOF 2
ENDMDL
MODEL 8
REMARK VINA RESULT:      -4.3      1.418      2.010
REMARK  2 active torsions:
REMARK  status: ('A' for Active; 'I' for Inactive)
REMARK    1  A    between atoms: C1_1  and  C5_5 
REMARK    2  A    between atoms: C6_6  and  C10_10 
ROOT
HETATM    1  C2  UNL     1     -34.001  17.339  -4.797  1.00 20.00     0.016 C 
HETATM    2  C3  UNL     1     -33.809  17.381  -3.282  1.00 20.00     0.005 C 
HETATM    3  C4  UNL     1     -34.890  15.099  -3.090  1.00 20.00     0.009 C 
HETATM    4  C5  UNL     1     -34.029  15.903  -5.309  1.00 20.00     0.090 C 
HETATM    5  C6  UNL     1     -34.855  16.535  -2.544  1.00 20.00    -0.014 C 
HETATM    6  C7  UNL     1     -35.094  15.040  -4.616  1.00 20.00    -0.004 C 
HETATM    7  C8  UNL     1     -36.536  15.413  -4.987  1.00 20.00     0.011 C 
ENDROOT
BRANCH   4   8
HETATM    8  C1  UNL     1     -34.235  15.919  -6.814  1.00 20.00     0.177 C 
HETATM    9  O11 UNL     1     -34.394  17.063  -7.324  1.00 20.00    -0.648 OA
HETATM   10  O12 UNL     1     -34.221  14.781  -7.362  1.00 20.00    -0.648 OA
ENDBRANCH   4   8
BRANCH   5  11
HETATM   11  C10 UNL     1     -34.577  16.531  -1.041  1.00 20.00     0.000 C 
HETATM   12  C9  UNL     1     -33.666  17.646  -0.647  1.00 20.00     0.005 C 
ENDBRANCH   5  11
TORSDOF 2
ENDMDL
MODEL 9
REMARK VINA RESULT:      -4.3      2.710      4.573
REMARK  2 active torsions:
REMARK  status: ('A' for Active; 'I' for Inactive)
REMARK    1  A    between atoms: C1_1  and  C5_5 
REMARK    2  A    between atoms: C6_6  and  C10_10 
ROOT
HETATM    1  C2  UNL     1     -34.378  17.249  -4.566  1.00 20.00     0.016 C 
HETATM    2  C3  UNL     1     -34.808  16.724  -5.934  1.00 20.00     0.005 C 
HETATM    3  C4  UNL     1     -34.573  14.349  -5.089  1.00 20.00     0.009 C 
HETATM    4  C5  UNL     1     -34.726  16.257  -3.462  1.00 20.00     0.090 C 
HETATM    5  C6  UNL     1     -34.236  15.330  -6.224  1.00 20.00    -0.014 C 
HETATM    6  C7  UNL     1     -34.136  14.859  -3.703  1.00 20.00    -0.004 C 
HETATM    7  C8  UNL     1     -32.609  14.794  -3.556  1.00 20.00     0.011 C 
ENDROOT
BRANCH   4   8
HETATM    8  C1  UNL     1     -34.267  16.819  -2.128  1.00 20.00     0.177 C 
HETATM    9  O11 UNL     1     -34.650  16.177  -1.111  1.00 20.00    -0.648 OA
HETATM   10  O12 UNL     1     -33.558  17.862  -2.209  1.00 20.00    -0.648 OA
ENDBRANCH   4   8
BRANCH   5  11
HETATM   11  C10 UNL     1     -34.759  14.804  -7.561  1.00 20.00     0.000 C 
HETATM   12  C9  UNL     1     -36.252  14.810  -7.608  1.00 20.00     0.005 C 
ENDBRANCH   5  11
TORSDOF 2
ENDMDL
