MODEL 1
REMARK VINA RESULT:      -4.6      0.000      0.000
REMARK  3 active torsions:
REMARK  status: ('A' for Active; 'I' for Inactive)
REMARK    1  A    between atoms: C2_2  and  C9_9 
REMARK    2  A    between atoms: C3_3  and  C6_6 
REMARK    3  A    between atoms: C7_7  and  C9_9 
ROOT
HETATM    1  C4  UNL     1     -34.228  15.566  -2.645  1.00 20.00     0.016 C 
HETATM    2  C5  UNL     1     -34.882  16.748  -3.386  1.00 20.00     0.007 C 
HETATM    3  C6  UNL     1     -34.993  14.622  -3.601  1.00 20.00     0.091 C 
HETATM    4  C7  UNL     1     -35.059  15.810  -4.608  1.00 20.00     0.004 C 
ENDROOT
BRANCH   4   5
HETATM    5  C9  UNL     1     -33.977  15.935  -5.673  1.00 20.00     0.038 C 
BRANCH   5   6
HETATM    6  C2  UNL     1     -34.536  15.922  -7.075  1.00 20.00    -0.093 C 
HETATM    7  C1  UNL     1     -34.905  14.778  -7.671  1.00 20.00     0.014 C 
HETATM    8  C8  UNL     1     -34.625  17.240  -7.789  1.00 20.00     0.042 C 
ENDBRANCH   5   6
ENDBRANCH   4   5
BRANCH   3   9
HETATM    9  C3  UNL     1     -34.258  13.408  -4.045  1.00 20.00     0.177 C 
HETATM   10  O10 UNL     1     -33.067  13.319  -3.633  1.00 20.00    -0.648 OA
HETATM   11  O11 UNL     1     -34.923  12.624  -4.777  1.00 20.00    -0.648 OA
ENDBRANCH   3   9
TORSDOF 3
ENDMDL
MODEL 2
REMARK VINA RESULT:      -4.6      0.071      1.059
REMARK  3 active torsions:
REMARK  status: ('A' for Active; 'I' for Inactive)
REMARK    1  A    between atoms: C2_2  and  C9_9 
REMARK    2  A    between atoms: C3_3  and  C6_6 
REMARK    3  A    between atoms: C7_7  and  C9_9 
ROOT
HETATM    1  C4  UNL     1     -34.211  15.579  -2.672  1.00 20.00     0.016 C 
HETATM    2  C5  UNL     1     -34.871  16.752  -3.424  1.00 20.00     0.007 C 
HETATM    3  C6  UNL     1     -34.984  14.624  -3.612  1.00 20.00     0.091 C 
HETATM    4  C7  UNL     1     -35.057  15.800  -4.633  1.00 20.00     0.004 C 
ENDROOT
BRANCH   4   5
HETATM    5  C9  UNL     1     -33.983  15.912  -5.707  1.00 20.00     0.038 C 
BRANCH   5   6
HETATM    6  C2  UNL     1     -34.558  15.971  -7.101  1.00 20.00    -0.093 C 
HETATM    7  C1  UNL     1     -34.651  17.129  -7.772  1.00 20.00     0.014 C 
HETATM    8  C8  UNL     1     -35.058  14.684  -7.690  1.00 20.00     0.042 C 
ENDBRANCH   5   6
ENDBRANCH   4   5
BRANCH   3   9
HETATM    9  C3  UNL     1     -34.253  13.405  -4.047  1.00 20.00     0.177 C 
HETATM   10  O10 UNL     1     -33.067  13.308  -3.622  1.00 20.00    -0.648 OA
HETATM   11  O11 UNL     1     -34.916  12.624  -4.784  1.00 20.00    -0.648 OA
ENDBRANCH   3   9
TORSDOF 3
ENDMDL
MODEL 3
REMARK VINA RESULT:      -4.6      1.536      3.729
REMARK  3 active torsions:
REMARK  status: ('A' for Active; 'I' for Inactive)
REMARK    1  A    between atoms: C2_2  and  C9_9 
REMARK    2  A    between atoms: C3_3  and  C6_6 
REMARK    3  A    between atoms: C7_7  and  C9_9 
ROOT
HETATM    1  C4  UNL     1     -35.841  14.874  -5.588  1.00 20.00     0.016 C 
HETATM    2  C5  UNL     1     -35.694  16.367  -5.232  1.00 20.00     0.007 C 
HETATM    3  C6  UNL     1     -34.411  14.666  -5.036  1.00 20.00     0.091 C 
HETATM    4  C7  UNL     1     -34.627  15.955  -4.186  1.00 20.00     0.004 C 
ENDROOT
BRANCH   4   5
HETATM    5  C9  UNL     1     -35.146  15.819  -2.760  1.00 20.00     0.038 C 
BRANCH   5   6
HETATM    6  C2  UNL     1     -34.521  16.816  -1.816  1.00 20.00    -0.093 C 
HETATM    7  C1  UNL     1     -34.704  16.734  -0.489  1.00 20.00     0.014 C 
HETATM    8  C8  UNL     1     -33.719  17.928  -2.427  1.00 20.00     0.042 C 
ENDBRANCH   5   6
ENDBRANCH   4   5
BRANCH   3   9
HETATM    9  C3  UNL     1     -34.179  13.402  -4.289  1.00 20.00     0.177 C 
HETATM   10  O10 UNL     1     -35.141  12.583  -4.303  1.00 20.00    -0.648 OA
HETATM   11  O11 UNL     1     -33.047  13.312  -3.739  1.00 20.00    -0.648 OA
ENDBRANCH   3   9
TORSDOF 3
ENDMDL
MODEL 4
REMARK VINA RESULT:      -4.5      1.485      3.807
REMARK  3 active torsions:
REMARK  status: ('A' for Active; 'I' for Inactive)
REMARK    1  A    between atoms: C2_2  and  C9_9 
REMARK    2  A    between atoms: C3_3  and  C6_6 
REMARK    3  A    between atoms: C7_7  and  C9_9 
ROOT
HETATM    1  C4  UNL     1     -35.799  14.907  -5.638  1.00 20.00     0.016 C 
HETATM    2  C5  UNL     1     -35.597  16.399  -5.306  1.00 20.00     0.007 C 
HETATM    3  C6  UNL     1     -34.376  14.656  -5.089  1.00 20.00     0.091 C 
HETATM    4  C7  UNL     1     -34.541  15.964  -4.258  1.00 20.00     0.004 C 
ENDROOT
BRANCH   4   5
HETATM    5  C9  UNL     1     -35.058  15.869  -2.828  1.00 20.00     0.038 C 
BRANCH   5   6
HETATM    6  C2  UNL     1     -34.469  16.924  -1.925  1.00 20.00    -0.093 C 
HETATM    7  C1  UNL     1     -33.728  17.931  -2.413  1.00 20.00     0.014 C 
HETATM    8  C8  UNL     1     -34.715  16.778  -0.451  1.00 20.00     0.042 C 
ENDBRANCH   5   6
ENDBRANCH   4   5
BRANCH   3   9
HETATM    9  C3  UNL     1     -34.186  13.395  -4.323  1.00 20.00     0.177 C 
HETATM   10  O10 UNL     1     -35.177  12.612  -4.322  1.00 20.00    -0.648 OA
HETATM   11  O11 UNL     1     -33.056  13.274  -3.775  1.00 20.00    -0.648 OA
ENDBRANCH   3   9
TORSDOF 3
ENDMDL
MODEL 5
REMARK VINA RESULT:      -4.4      2.681      4.014
REMARK  3 active torsions:
REMARK  status: ('A' for Active; 'I' for Inactive)
REMARK    1  A    between atoms: C2_2  and  C9_9 
REMARK    2  A    between atoms: C3_3  and  C6_6 
REMARK    3  A    between atoms: C7_7  and  C9_9 
ROOT
HETATM    1  C4  UNL     1     -34.382  13.555  -4.938  1.00 20.00     0.016 C 
HETATM    2  C5  UNL     1     -33.295  13.825  -3.879  1.00 20.00     0.007 C 
HETATM    3  C6  UNL     1     -35.434  13.863  -3.847  1.00 20.00     0.091 C 
HETATM    4  C7  UNL     1     -34.332  14.689  -3.116  1.00 20.00     0.004 C 
ENDROOT
BRANCH   4   5
HETATM    5  C9  UNL     1     -34.236  16.186  -3.380  1.00 20.00     0.038 C 
BRANCH   5   6
HETATM    6  C2  UNL     1     -34.198  17.000  -2.109  1.00 20.00    -0.093 C 
HETATM    7  C1  UNL     1     -34.644  16.502  -0.945  1.00 20.00     0.014 C 
HETATM    8  C8  UNL     1     -33.677  18.404  -2.211  1.00 20.00     0.042 C 
ENDBRANCH   5   6
ENDBRANCH   4   5
BRANCH   3   9
HETATM    9  C3  UNL     1     -36.640  14.607  -4.296  1.00 20.00     0.177 C 
HETATM   10  O10 UNL     1     -36.563  15.110  -5.452  1.00 20.00    -0.648 OA
HETATM   11  O11 UNL     1     -37.586  14.635  -3.461  1.00 20.00    -0.648 OA
ENDBRANCH   3   9
TORSDOF 3
ENDMDL
MODEL 6
REMARK VINA RESULT:      -4.3      2.983      3.943
REMARK  3 active torsions:
REMARK  status: ('A' for Active; 'I' for Inactive)
REMARK    1  A    between atoms: C2_2  and  C9_9 
REMARK    2  A    between atoms: C3_3  and  C6_6 
REMARK    3  A    between atoms: C7_7  and  C9_9 
ROOT
HETATM    1  C4  UNL     1     -34.905  17.980  -1.649  1.00 20.00     0.016 C 
HETATM    2  C5  UNL     1     -34.688  16.672  -0.863  1.00 20.00     0.007 C 
HETATM    3  C6  UNL     1     -33.800  17.506  -2.622  1.00 20.00     0.091 C 
HETATM    4  C7  UNL     1     -34.119  16.050  -2.164  1.00 20.00     0.004 C 
ENDROOT
BRANCH   4   5
HETATM    5  C9  UNL     1     -35.115  15.226  -2.970  1.00 20.00     0.038 C 
BRANCH   5   6
HETATM    6  C2  UNL     1     -34.461  14.093  -3.721  1.00 20.00    -0.093 C 
HETATM    7  C1  UNL     1     -35.182  13.223  -4.445  1.00 20.00     0.014 C 
HETATM    8  C8  UNL     1     -32.971  13.956  -3.591  1.00 20.00     0.042 C 
ENDBRANCH   5   6
ENDBRANCH   4   5
BRANCH   3   9
HETATM    9  C3  UNL     1     -34.018  17.819  -4.059  1.00 20.00     0.177 C 
HETATM   10  O10 UNL     1     -33.119  17.403  -4.843  1.00 20.00    -0.648 OA
HETATM   11  O11 UNL     1     -35.076  18.460  -4.307  1.00 20.00    -0.648 OA
ENDBRANCH   3   9
TORSDOF 3
ENDMDL
MODEL 7
REMARK VINA RESULT:      -4.2      2.761      3.782
REMARK  3 active torsions:
REMARK  status: ('A' for Active; 'I' for Inactive)
REMARK    1  A    between atoms: C2_2  and  C9_9 
REMARK    2  A    between atoms: C3_3  and  C6_6 
REMARK    3  A    between atoms: C7_7  and  C9_9 
ROOT
HETATM    1  C4  UNL     1     -33.884  17.696  -1.587  1.00 20.00     0.016 C 
HETATM    2  C5  UNL     1     -34.650  16.566  -0.870  1.00 20.00     0.007 C 
HETATM    3  C6  UNL     1     -33.497  16.662  -2.670  1.00 20.00     0.091 C 
HETATM    4  C7  UNL     1     -34.752  15.844  -2.238  1.00 20.00     0.004 C 
ENDROOT
BRANCH   4   5
HETATM    5  C9  UNL     1     -36.065  16.061  -2.981  1.00 20.00     0.038 C 
BRANCH   5   6
HETATM    6  C2  UNL     1     -36.515  14.835  -3.737  1.00 20.00    -0.093 C 
HETATM    7  C1  UNL     1     -35.640  13.906  -4.150  1.00 20.00     0.014 C 
HETATM    8  C8  UNL     1     -37.980  14.719  -4.042  1.00 20.00     0.042 C 
ENDBRANCH   5   6
ENDBRANCH   4   5
BRANCH   3   9
HETATM    9  C3  UNL     1     -33.474  17.163  -4.070  1.00 20.00     0.177 C 
HETATM   10  O10 UNL     1     -34.013  18.291  -4.247  1.00 20.00    -0.648 OA
HETATM   11  O11 UNL     1     -32.915  16.392  -4.898  1.00 20.00    -0.648 OA
ENDBRANCH   3   9
TORSDOF 3
ENDMDL
MODEL 8
REMARK VINA RESULT:      -4.2      2.273      3.080
REMARK  3 active torsions:
REMARK  status: ('A' for Active; 'I' for Inactive)
REMARK    1  A    between atoms: C2_2  and  C9_9 
REMARK    2  A    between atoms: C3_3  and  C6_6 
REMARK    3  A    between atoms: C7_7  and  C9_9 
ROOT
HETATM    1  C4  UNL     1     -33.087  15.436  -3.555  1.00 20.00     0.016 C 
HETATM    2  C5  UNL     1     -33.848  16.266  -2.502  1.00 20.00     0.007 C 
HETATM    3  C6  UNL     1     -34.179  14.352  -3.399  1.00 20.00     0.091 C 
HETATM    4  C7  UNL     1     -35.127  15.479  -2.888  1.00 20.00     0.004 C 
ENDROOT
BRANCH   4   5
HETATM    5  C9  UNL     1     -36.037  16.185  -3.886  1.00 20.00     0.038 C 
BRANCH   5   6
HETATM    6  C2  UNL     1     -37.501  15.954  -3.603  1.00 20.00    -0.093 C 
HETATM    7  C1  UNL     1     -38.095  14.786  -3.894  1.00 20.00     0.014 C 
HETATM    8  C8  UNL     1     -38.274  17.099  -3.017  1.00 20.00     0.042 C 
ENDBRANCH   5   6
ENDBRANCH   4   5
BRANCH   3   9
HETATM    9  C3  UNL     1     -34.584  13.650  -4.646  1.00 20.00     0.177 C 
HETATM   10  O10 UNL     1     -34.283  14.244  -5.719  1.00 20.00    -0.648 OA
HETATM   11  O11 UNL     1     -35.176  12.550  -4.467  1.00 20.00    -0.648 OA
ENDBRANCH   3   9
TORSDOF 3
ENDMDL
MODEL 9
REMARK VINA RESULT:      -4.1      2.214      4.231
REMARK  3 active torsions:
REMARK  status: ('A' for Active; 'I' for Inactive)
REMARK    1  A    between atoms: C2_2  and  C9_9 
REMARK    2  A    between atoms: C3_3  and  C6_6 
REMARK    3  A    between atoms: C7_7  and  C9_9 
ROOT
HETATM    1  C4  UNL     1     -34.456  13.788  -5.218  1.00 20.00     0.016 C 
HETATM    2  C5  UNL     1     -34.567  13.437  -3.722  1.00 20.00     0.007 C 
HETATM    3  C6  UNL     1     -35.326  15.033  -4.928  1.00 20.00     0.091 C 
HETATM    4  C7  UNL     1     -34.845  14.938  -3.448  1.00 20.00     0.004 C 
ENDROOT
BRANCH   4   5
HETATM    5  C9  UNL     1     -33.627  15.746  -3.016  1.00 20.00     0.038 C 
BRANCH   5   6
HETATM    6  C2  UNL     1     -33.990  16.926  -2.148  1.00 20.00    -0.093 C 
HETATM    7  C1  UNL     1     -33.745  18.186  -2.541  1.00 20.00     0.014 C 
HETATM    8  C8  UNL     1     -34.602  16.629  -0.810  1.00 20.00     0.042 C 
ENDBRANCH   5   6
ENDBRANCH   4   5
BRANCH   3   9
HETATM    9  C3  UNL     1     -34.965  16.269  -5.671  1.00 20.00     0.177 C 
HETATM   10  O10 UNL     1     -33.949  16.171  -6.417  1.00 20.00    -0.648 OA
HETATM   11  O11 UNL     1     -35.723  17.255  -5.460  1.00 20.00    -0.648 OA
ENDBRANCH   3   9
TORSDOF 3
ENDMDL
