MODEL 1
REMARK VINA RESULT:      -5.1      0.000      0.000
REMARK  3 active torsions:
REMARK  status: ('A' for Active; 'I' for Inactive)
REMARK    1  A    between atoms: C3_3  and  C7_7 
REMARK    2  A    between atoms: C6_6  and  C8_8 
REMARK    3  A    between atoms: C7_7  and  C8_8 
ROOT
HETATM    1  C1  UNL     1     -32.191   8.341   1.717  1.00 20.00     0.012 C 
HETATM    2  C2  UNL     1     -32.199   7.604   2.665  1.00 20.00    -0.117 C 
HETATM    3  C6  UNL     1     -32.204   6.704   3.828  1.00 20.00     0.098 C 
ENDROOT
BRANCH   3   4
HETATM    4  C8  UNL     1     -33.361   5.681   3.818  1.00 20.00     0.006 C 
HETATM    5  C5  UNL     1     -34.031   5.641   2.435  1.00 20.00     0.011 C 
BRANCH   4   6
HETATM    6  C7  UNL     1     -34.410   5.906   4.932  1.00 20.00     0.087 C 
HETATM    7  C4  UNL     1     -33.849   6.625   6.160  1.00 20.00     0.021 C 
BRANCH   6   8
HETATM    8  C3  UNL     1     -34.977   4.583   5.491  1.00 20.00     0.177 C 
HETATM    9  O9  UNL     1     -35.113   3.642   4.661  1.00 20.00    -0.648 OA
HETATM   10  O10 UNL     1     -35.234   4.605   6.730  1.00 20.00    -0.648 OA
ENDBRANCH   6   8
ENDBRANCH   4   6
ENDBRANCH   3   4
TORSDOF 3
ENDMDL
MODEL 2
REMARK VINA RESULT:      -5.1     11.436     12.475
REMARK  3 active torsions:
REMARK  status: ('A' for Active; 'I' for Inactive)
REMARK    1  A    between atoms: C3_3  and  C7_7 
REMARK    2  A    between atoms: C6_6  and  C8_8 
REMARK    3  A    between atoms: C7_7  and  C8_8 
ROOT
HETATM    1  C1  UNL     1     -34.209  17.430  -0.350  1.00 20.00     0.012 C 
HETATM    2  C2  UNL     1     -34.472  16.676  -1.246  1.00 20.00    -0.117 C 
HETATM    3  C6  UNL     1     -34.799  15.749  -2.341  1.00 20.00     0.098 C 
ENDROOT
BRANCH   3   4
HETATM    4  C8  UNL     1     -33.827  15.835  -3.539  1.00 20.00     0.006 C 
HETATM    5  C5  UNL     1     -33.751  17.277  -4.067  1.00 20.00     0.011 C 
BRANCH   4   6
HETATM    6  C7  UNL     1     -34.150  14.846  -4.683  1.00 20.00     0.087 C 
HETATM    7  C4  UNL     1     -35.590  14.949  -5.188  1.00 20.00     0.021 C 
BRANCH   6   8
HETATM    8  C3  UNL     1     -34.004  13.370  -4.252  1.00 20.00     0.177 C 
HETATM    9  O9  UNL     1     -32.901  13.051  -3.726  1.00 20.00    -0.648 OA
HETATM   10  O10 UNL     1     -35.022  12.653  -4.479  1.00 20.00    -0.648 OA
ENDBRANCH   6   8
ENDBRANCH   4   6
ENDBRANCH   3   4
TORSDOF 3
ENDMDL
MODEL 3
REMARK VINA RESULT:      -4.9      1.272      2.071
REMARK  3 active torsions:
REMARK  status: ('A' for Active; 'I' for Inactive)
REMARK    1  A    between atoms: C3_3  and  C7_7 
REMARK    2  A    between atoms: C6_6  and  C8_8 
REMARK    3  A    between atoms: C7_7  and  C8_8 
ROOT
HETATM    1  C1  UNL     1     -32.103   7.961   2.346  1.00 20.00     0.012 C 
HETATM    2  C2  UNL     1     -32.391   7.160   3.192  1.00 20.00    -0.117 C 
HETATM    3  C6  UNL     1     -32.739   6.173   4.226  1.00 20.00     0.098 C 
ENDROOT
BRANCH   3   4
HETATM    4  C8  UNL     1     -33.806   6.671   5.226  1.00 20.00     0.006 C 
HETATM    5  C5  UNL     1     -33.136   7.290   6.464  1.00 20.00     0.011 C 
BRANCH   4   6
HETATM    6  C7  UNL     1     -34.835   5.592   5.639  1.00 20.00     0.087 C 
HETATM    7  C4  UNL     1     -34.258   4.527   6.572  1.00 20.00     0.021 C 
BRANCH   6   8
HETATM    8  C3  UNL     1     -35.371   4.790   4.432  1.00 20.00     0.177 C 
HETATM    9  O9  UNL     1     -35.910   5.466   3.511  1.00 20.00    -0.648 OA
HETATM   10  O10 UNL     1     -35.200   3.540   4.515  1.00 20.00    -0.648 OA
ENDBRANCH   6   8
ENDBRANCH   4   6
ENDBRANCH   3   4
TORSDOF 3
ENDMDL
MODEL 4
REMARK VINA RESULT:      -4.8     11.281     12.615
REMARK  3 active torsions:
REMARK  status: ('A' for Active; 'I' for Inactive)
REMARK    1  A    between atoms: C3_3  and  C7_7 
REMARK    2  A    between atoms: C6_6  and  C8_8 
REMARK    3  A    between atoms: C7_7  and  C8_8 
ROOT
HETATM    1  C1  UNL     1     -34.394  15.908  -7.105  1.00 20.00     0.012 C 
HETATM    2  C2  UNL     1     -33.949  16.067  -6.001  1.00 20.00    -0.117 C 
HETATM    3  C6  UNL     1     -33.399  16.264  -4.652  1.00 20.00     0.098 C 
ENDROOT
BRANCH   3   4
HETATM    4  C8  UNL     1     -34.341  15.796  -3.521  1.00 20.00     0.006 C 
HETATM    5  C5  UNL     1     -34.038  16.556  -2.219  1.00 20.00     0.011 C 
BRANCH   4   6
HETATM    6  C7  UNL     1     -34.328  14.268  -3.282  1.00 20.00     0.087 C 
HETATM    7  C4  UNL     1     -32.981  13.615  -3.598  1.00 20.00     0.021 C 
BRANCH   6   8
HETATM    8  C3  UNL     1     -35.334  13.517  -4.181  1.00 20.00     0.177 C 
HETATM    9  O9  UNL     1     -36.534  13.907  -4.117  1.00 20.00    -0.648 OA
HETATM   10  O10 UNL     1     -34.826  12.595  -4.882  1.00 20.00    -0.648 OA
ENDBRANCH   6   8
ENDBRANCH   4   6
ENDBRANCH   3   4
TORSDOF 3
ENDMDL
MODEL 5
REMARK VINA RESULT:      -4.8     11.572     12.587
REMARK  3 active torsions:
REMARK  status: ('A' for Active; 'I' for Inactive)
REMARK    1  A    between atoms: C3_3  and  C7_7 
REMARK    2  A    between atoms: C6_6  and  C8_8 
REMARK    3  A    between atoms: C7_7  and  C8_8 
ROOT
HETATM    1  C1  UNL     1     -34.755  16.913  -0.439  1.00 20.00     0.012 C 
HETATM    2  C2  UNL     1     -34.338  16.488  -1.482  1.00 20.00    -0.117 C 
HETATM    3  C6  UNL     1     -33.823  15.974  -2.760  1.00 20.00     0.098 C 
ENDROOT
BRANCH   3   4
HETATM    4  C8  UNL     1     -34.602  14.754  -3.298  1.00 20.00     0.006 C 
HETATM    5  C5  UNL     1     -33.633  13.706  -3.871  1.00 20.00     0.011 C 
BRANCH   4   6
HETATM    6  C7  UNL     1     -35.698  15.112  -4.330  1.00 20.00     0.087 C 
HETATM    7  C4  UNL     1     -35.490  16.476  -4.989  1.00 20.00     0.021 C 
BRANCH   6   8
HETATM    8  C3  UNL     1     -37.103  15.207  -3.695  1.00 20.00     0.177 C 
HETATM    9  O9  UNL     1     -37.793  14.149  -3.711  1.00 20.00    -0.648 OA
HETATM   10  O10 UNL     1     -37.392  16.347  -3.229  1.00 20.00    -0.648 OA
ENDBRANCH   6   8
ENDBRANCH   4   6
ENDBRANCH   3   4
TORSDOF 3
ENDMDL
MODEL 6
REMARK VINA RESULT:      -4.7      2.876      4.449
REMARK  3 active torsions:
REMARK  status: ('A' for Active; 'I' for Inactive)
REMARK    1  A    between atoms: C3_3  and  C7_7 
REMARK    2  A    between atoms: C6_6  and  C8_8 
REMARK    3  A    between atoms: C7_7  and  C8_8 
ROOT
HETATM    1  C1  UNL     1     -35.144   4.229   6.355  1.00 20.00     0.012 C 
HETATM    2  C2  UNL     1     -34.542   5.151   5.878  1.00 20.00    -0.117 C 
HETATM    3  C6  UNL     1     -33.801   6.283   5.299  1.00 20.00     0.098 C 
ENDROOT
BRANCH   3   4
HETATM    4  C8  UNL     1     -34.159   6.571   3.824  1.00 20.00     0.006 C 
HETATM    5  C5  UNL     1     -35.304   5.656   3.360  1.00 20.00     0.011 C 
BRANCH   4   6
HETATM    6  C7  UNL     1     -32.956   6.482   2.856  1.00 20.00     0.087 C 
HETATM    7  C4  UNL     1     -31.987   5.347   3.192  1.00 20.00     0.021 C 
BRANCH   6   8
HETATM    8  C3  UNL     1     -32.078   7.752   2.880  1.00 20.00     0.177 C 
HETATM    9  O9  UNL     1     -32.293   8.594   1.964  1.00 20.00    -0.648 OA
HETATM   10  O10 UNL     1     -31.243   7.794   3.830  1.00 20.00    -0.648 OA
ENDBRANCH   6   8
ENDBRANCH   4   6
ENDBRANCH   3   4
TORSDOF 3
ENDMDL
MODEL 7
REMARK VINA RESULT:      -4.7      3.100      4.634
REMARK  3 active torsions:
REMARK  status: ('A' for Active; 'I' for Inactive)
REMARK    1  A    between atoms: C3_3  and  C7_7 
REMARK    2  A    between atoms: C6_6  and  C8_8 
REMARK    3  A    between atoms: C7_7  and  C8_8 
ROOT
HETATM    1  C1  UNL     1     -35.054   4.396   5.666  1.00 20.00     0.012 C 
HETATM    2  C2  UNL     1     -34.403   5.346   5.328  1.00 20.00    -0.117 C 
HETATM    3  C6  UNL     1     -33.605   6.513   4.921  1.00 20.00     0.098 C 
ENDROOT
BRANCH   3   4
HETATM    4  C8  UNL     1     -33.500   6.690   3.390  1.00 20.00     0.006 C 
HETATM    5  C5  UNL     1     -33.906   5.393   2.670  1.00 20.00     0.011 C 
BRANCH   4   6
HETATM    6  C7  UNL     1     -32.114   7.178   2.907  1.00 20.00     0.087 C 
HETATM    7  C4  UNL     1     -31.213   7.671   4.040  1.00 20.00     0.021 C 
BRANCH   6   8
HETATM    8  C3  UNL     1     -32.210   8.383   1.945  1.00 20.00     0.177 C 
HETATM    9  O9  UNL     1     -31.473   8.337   0.921  1.00 20.00    -0.648 OA
HETATM   10  O10 UNL     1     -33.029   9.277   2.306  1.00 20.00    -0.648 OA
ENDBRANCH   6   8
ENDBRANCH   4   6
ENDBRANCH   3   4
TORSDOF 3
ENDMDL
MODEL 8
REMARK VINA RESULT:      -4.6     11.277     12.481
REMARK  3 active torsions:
REMARK  status: ('A' for Active; 'I' for Inactive)
REMARK    1  A    between atoms: C3_3  and  C7_7 
REMARK    2  A    between atoms: C6_6  and  C8_8 
REMARK    3  A    between atoms: C7_7  and  C8_8 
ROOT
HETATM    1  C1  UNL     1     -38.461  14.726  -3.956  1.00 20.00     0.012 C 
HETATM    2  C2  UNL     1     -37.488  15.393  -3.733  1.00 20.00    -0.117 C 
HETATM    3  C6  UNL     1     -36.299  16.215  -3.463  1.00 20.00     0.098 C 
ENDROOT
BRANCH   3   4
HETATM    4  C8  UNL     1     -35.147  15.440  -2.786  1.00 20.00     0.006 C 
HETATM    5  C5  UNL     1     -34.560  16.256  -1.622  1.00 20.00     0.011 C 
BRANCH   4   6
HETATM    6  C7  UNL     1     -34.033  14.990  -3.760  1.00 20.00     0.087 C 
HETATM    7  C4  UNL     1     -34.220  15.518  -5.183  1.00 20.00     0.021 C 
BRANCH   6   8
HETATM    8  C3  UNL     1     -33.975  13.456  -3.928  1.00 20.00     0.177 C 
HETATM    9  O9  UNL     1     -35.052  12.893  -4.271  1.00 20.00    -0.648 OA
HETATM   10  O10 UNL     1     -32.839  12.946  -3.703  1.00 20.00    -0.648 OA
ENDBRANCH   6   8
ENDBRANCH   4   6
ENDBRANCH   3   4
TORSDOF 3
ENDMDL
MODEL 9
REMARK VINA RESULT:      -4.6     11.736     12.475
REMARK  3 active torsions:
REMARK  status: ('A' for Active; 'I' for Inactive)
REMARK    1  A    between atoms: C3_3  and  C7_7 
REMARK    2  A    between atoms: C6_6  and  C8_8 
REMARK    3  A    between atoms: C7_7  and  C8_8 
ROOT
HETATM    1  C1  UNL     1     -34.050  17.386  -0.392  1.00 20.00     0.012 C 
HETATM    2  C2  UNL     1     -34.579  16.807  -1.301  1.00 20.00    -0.117 C 
HETATM    3  C6  UNL     1     -35.232  16.102  -2.414  1.00 20.00     0.098 C 
ENDROOT
BRANCH   3   4
HETATM    4  C8  UNL     1     -34.372  14.973  -3.024  1.00 20.00     0.006 C 
HETATM    5  C5  UNL     1     -33.268  15.562  -3.919  1.00 20.00     0.011 C 
BRANCH   4   6
HETATM    6  C7  UNL     1     -35.188  13.904  -3.788  1.00 20.00     0.087 C 
HETATM    7  C4  UNL     1     -34.446  13.316  -4.990  1.00 20.00     0.021 C 
BRANCH   6   8
HETATM    8  C3  UNL     1     -36.494  14.469  -4.388  1.00 20.00     0.177 C 
HETATM    9  O9  UNL     1     -36.370  15.165  -5.434  1.00 20.00    -0.648 OA
HETATM   10  O10 UNL     1     -37.542  14.158  -3.750  1.00 20.00    -0.648 OA
ENDBRANCH   6   8
ENDBRANCH   4   6
ENDBRANCH   3   4
TORSDOF 3
ENDMDL
