MODEL 1
REMARK VINA RESULT:      -4.3      0.000      0.000
REMARK  3 active torsions:
REMARK  status: ('A' for Active; 'I' for Inactive)
REMARK    1  A    between atoms: C6_6  and  C7_7 
REMARK    2  A    between atoms: C6_6  and  C8_8 
REMARK    3  A    between atoms: C7_7  and  N9_9 
ROOT
HETATM    1  C1  UNL     1     -34.417   5.781   6.208  1.00 20.00     0.029 C 
HETATM    2  C2  UNL     1     -34.721   4.555   5.343  1.00 20.00     0.023 C 
HETATM    3  C3  UNL     1     -33.668   6.886   5.470  1.00 20.00     0.235 C 
HETATM    4  C4  UNL     1     -33.774   5.690   3.263  1.00 20.00     0.254 C 
HETATM    5  C5  UNL     1     -34.940   4.906   3.874  1.00 20.00     0.108 C 
HETATM    6  N9  UNL     1     -32.885   6.294   4.332  1.00 20.00    -0.070 N 
HETATM    7 CL11 UNL     1     -36.471   5.824   3.685  1.00 20.00    -0.123 Cl
HETATM    8  H27 UNL     1     -32.318   5.520   4.719  1.00 20.00     0.279 HD
ENDROOT
BRANCH   6   9
HETATM    9  C7  UNL     1     -31.905   7.274   3.747  1.00 20.00     0.237 C 
BRANCH   9  10
HETATM   10  C6  UNL     1     -32.166   7.409   2.254  1.00 20.00     0.059 C 
BRANCH  10  11
HETATM   11  C8  UNL     1     -32.163   8.866   1.823  1.00 20.00     0.223 C 
HETATM   12  F10 UNL     1     -32.193   8.931   0.466  1.00 20.00    -0.255 F 
ENDBRANCH  10  11
ENDBRANCH   9  10
ENDBRANCH   6   9
TORSDOF 3
ENDMDL
MODEL 2
REMARK VINA RESULT:      -4.2     11.337     11.809
REMARK  3 active torsions:
REMARK  status: ('A' for Active; 'I' for Inactive)
REMARK    1  A    between atoms: C6_6  and  C7_7 
REMARK    2  A    between atoms: C6_6  and  C8_8 
REMARK    3  A    between atoms: C7_7  and  N9_9 
ROOT
HETATM    1  C1  UNL     1     -36.370  14.426  -3.829  1.00 20.00     0.029 C 
HETATM    2  C2  UNL     1     -35.317  13.409  -4.276  1.00 20.00     0.023 C 
HETATM    3  C3  UNL     1     -35.781  15.730  -3.300  1.00 20.00     0.235 C 
HETATM    4  C4  UNL     1     -33.423  15.065  -3.852  1.00 20.00     0.254 C 
HETATM    5  C5  UNL     1     -34.055  14.066  -4.827  1.00 20.00     0.108 C 
HETATM    6  N9  UNL     1     -34.397  15.482  -2.769  1.00 20.00    -0.070 N 
HETATM    7 CL11 UNL     1     -34.414  14.870  -6.391  1.00 20.00    -0.123 Cl
HETATM    8  H27 UNL     1     -34.460  14.691  -2.104  1.00 20.00     0.279 HD
ENDROOT
BRANCH   6   9
HETATM    9  C7  UNL     1     -33.876  16.650  -1.976  1.00 20.00     0.237 C 
BRANCH   9  10
HETATM   10  C6  UNL     1     -34.682  16.778  -0.691  1.00 20.00     0.059 C 
BRANCH  10  11
HETATM   11  C8  UNL     1     -34.139  17.890   0.190  1.00 20.00     0.223 C 
HETATM   12  F10 UNL     1     -32.828  18.094  -0.104  1.00 20.00    -0.255 F 
ENDBRANCH  10  11
ENDBRANCH   9  10
ENDBRANCH   6   9
TORSDOF 3
ENDMDL
MODEL 3
REMARK VINA RESULT:      -4.1     11.824     13.134
REMARK  3 active torsions:
REMARK  status: ('A' for Active; 'I' for Inactive)
REMARK    1  A    between atoms: C6_6  and  C7_7 
REMARK    2  A    between atoms: C6_6  and  C8_8 
REMARK    3  A    between atoms: C7_7  and  N9_9 
ROOT
HETATM    1  C1  UNL     1     -35.181  14.154  -6.576  1.00 20.00     0.029 C 
HETATM    2  C2  UNL     1     -34.543  15.150  -7.547  1.00 20.00     0.023 C 
HETATM    3  C3  UNL     1     -34.914  14.470  -5.107  1.00 20.00     0.235 C 
HETATM    4  C4  UNL     1     -33.726  16.620  -5.628  1.00 20.00     0.254 C 
HETATM    5  C5  UNL     1     -34.453  16.563  -6.976  1.00 20.00     0.108 C 
HETATM    6  N9  UNL     1     -33.637  15.253  -4.980  1.00 20.00    -0.070 N 
HETATM    7 CL11 UNL     1     -36.097  17.267  -6.822  1.00 20.00    -0.123 Cl
HETATM    8  H27 UNL     1     -32.904  14.729  -5.490  1.00 20.00     0.279 HD
ENDROOT
BRANCH   6   9
HETATM    9  C7  UNL     1     -33.168  15.346  -3.554  1.00 20.00     0.237 C 
BRANCH   9  10
HETATM   10  C6  UNL     1     -34.372  15.540  -2.645  1.00 20.00     0.059 C 
BRANCH  10  11
HETATM   11  C8  UNL     1     -34.121  16.636  -1.624  1.00 20.00     0.223 C 
HETATM   12  F10 UNL     1     -34.714  16.298  -0.449  1.00 20.00    -0.255 F 
ENDBRANCH  10  11
ENDBRANCH   9  10
ENDBRANCH   6   9
TORSDOF 3
ENDMDL
MODEL 4
REMARK VINA RESULT:      -4.1      1.331      2.061
REMARK  3 active torsions:
REMARK  status: ('A' for Active; 'I' for Inactive)
REMARK    1  A    between atoms: C6_6  and  C7_7 
REMARK    2  A    between atoms: C6_6  and  C8_8 
REMARK    3  A    between atoms: C7_7  and  N9_9 
ROOT
HETATM    1  C1  UNL     1     -34.750   5.046   2.894  1.00 20.00     0.029 C 
HETATM    2  C2  UNL     1     -35.560   5.517   4.104  1.00 20.00     0.023 C 
HETATM    3  C3  UNL     1     -33.311   5.554   2.881  1.00 20.00     0.235 C 
HETATM    4  C4  UNL     1     -33.516   6.646   5.133  1.00 20.00     0.254 C 
HETATM    5  C5  UNL     1     -34.705   5.704   5.354  1.00 20.00     0.108 C 
HETATM    6  N9  UNL     1     -33.220   6.836   3.660  1.00 20.00    -0.070 N 
HETATM    7 CL11 UNL     1     -34.131   4.111   5.949  1.00 20.00    -0.123 Cl
HETATM    8  H27 UNL     1     -33.947   7.473   3.289  1.00 20.00     0.279 HD
ENDROOT
BRANCH   6   9
HETATM    9  C7  UNL     1     -31.906   7.537   3.446  1.00 20.00     0.237 C 
BRANCH   9  10
HETATM   10  C6  UNL     1     -31.808   7.979   1.994  1.00 20.00     0.059 C 
BRANCH  10  11
HETATM   11  C8  UNL     1     -32.460   9.336   1.787  1.00 20.00     0.223 C 
HETATM   12  F10 UNL     1     -32.618   9.558   0.455  1.00 20.00    -0.255 F 
ENDBRANCH  10  11
ENDBRANCH   9  10
ENDBRANCH   6   9
TORSDOF 3
ENDMDL
MODEL 5
REMARK VINA RESULT:      -4.1     11.517     12.409
REMARK  3 active torsions:
REMARK  status: ('A' for Active; 'I' for Inactive)
REMARK    1  A    between atoms: C6_6  and  C7_7 
REMARK    2  A    between atoms: C6_6  and  C8_8 
REMARK    3  A    between atoms: C7_7  and  N9_9 
ROOT
HETATM    1  C1  UNL     1     -34.015  15.966  -6.036  1.00 20.00     0.029 C 
HETATM    2  C2  UNL     1     -35.426  15.385  -5.919  1.00 20.00     0.023 C 
HETATM    3  C3  UNL     1     -33.377  16.312  -4.694  1.00 20.00     0.235 C 
HETATM    4  C4  UNL     1     -35.294  15.372  -3.370  1.00 20.00     0.254 C 
HETATM    5  C5  UNL     1     -35.632  14.580  -4.639  1.00 20.00     0.108 C 
HETATM    6  N9  UNL     1     -34.451  16.592  -3.680  1.00 20.00    -0.070 N 
HETATM    7 CL11 UNL     1     -34.664  13.070  -4.702  1.00 20.00    -0.123 Cl
HETATM    8  H27 UNL     1     -35.088  17.296  -4.094  1.00 20.00     0.279 HD
ENDROOT
BRANCH   6   9
HETATM    9  C7  UNL     1     -33.900  17.216  -2.427  1.00 20.00     0.237 C 
BRANCH   9  10
HETATM   10  C6  UNL     1     -34.519  16.533  -1.217  1.00 20.00     0.059 C 
BRANCH  10  11
HETATM   11  C8  UNL     1     -34.516  17.450  -0.006  1.00 20.00     0.223 C 
HETATM   12  F10 UNL     1     -35.280  16.900   0.974  1.00 20.00    -0.255 F 
ENDBRANCH  10  11
ENDBRANCH   9  10
ENDBRANCH   6   9
TORSDOF 3
ENDMDL
MODEL 6
REMARK VINA RESULT:      -3.9     10.847     12.066
REMARK  3 active torsions:
REMARK  status: ('A' for Active; 'I' for Inactive)
REMARK    1  A    between atoms: C6_6  and  C7_7 
REMARK    2  A    between atoms: C6_6  and  C8_8 
REMARK    3  A    between atoms: C7_7  and  N9_9 
ROOT
HETATM    1  C1  UNL     1     -33.262  19.110  -1.143  1.00 20.00     0.029 C 
HETATM    2  C2  UNL     1     -33.518  18.316   0.140  1.00 20.00     0.023 C 
HETATM    3  C3  UNL     1     -33.666  18.370  -2.415  1.00 20.00     0.235 C 
HETATM    4  C4  UNL     1     -34.640  16.427  -1.157  1.00 20.00     0.254 C 
HETATM    5  C5  UNL     1     -34.725  17.388   0.034  1.00 20.00     0.108 C 
HETATM    6  N9  UNL     1     -33.617  16.887  -2.176  1.00 20.00    -0.070 N 
HETATM    7 CL11 UNL     1     -36.235  18.355  -0.056  1.00 20.00    -0.123 Cl
HETATM    8  H27 UNL     1     -32.685  16.670  -1.782  1.00 20.00     0.279 HD
ENDROOT
BRANCH   6   9
HETATM    9  C7  UNL     1     -33.720  16.103  -3.456  1.00 20.00     0.237 C 
BRANCH   9  10
HETATM   10  C6  UNL     1     -34.713  14.966  -3.265  1.00 20.00     0.059 C 
BRANCH  10  11
HETATM   11  C8  UNL     1     -34.097  13.628  -3.636  1.00 20.00     0.223 C 
HETATM   12  F10 UNL     1     -32.745  13.756  -3.682  1.00 20.00    -0.255 F 
ENDBRANCH  10  11
ENDBRANCH   9  10
ENDBRANCH   6   9
TORSDOF 3
ENDMDL
MODEL 7
REMARK VINA RESULT:      -3.9     11.332     12.994
REMARK  3 active torsions:
REMARK  status: ('A' for Active; 'I' for Inactive)
REMARK    1  A    between atoms: C6_6  and  C7_7 
REMARK    2  A    between atoms: C6_6  and  C8_8 
REMARK    3  A    between atoms: C7_7  and  N9_9 
ROOT
HETATM    1  C1  UNL     1     -32.991  15.033  -3.809  1.00 20.00     0.029 C 
HETATM    2  C2  UNL     1     -34.266  14.409  -3.238  1.00 20.00     0.023 C 
HETATM    3  C3  UNL     1     -33.224  16.354  -4.535  1.00 20.00     0.235 C 
HETATM    4  C4  UNL     1     -35.662  16.427  -3.936  1.00 20.00     0.254 C 
HETATM    5  C5  UNL     1     -35.297  15.450  -2.813  1.00 20.00     0.108 C 
HETATM    6  N9  UNL     1     -34.635  16.408  -5.050  1.00 20.00    -0.070 N 
HETATM    7 CL11 UNL     1     -34.705  16.350  -1.377  1.00 20.00    -0.123 Cl
HETATM    8  H27 UNL     1     -34.797  15.540  -5.590  1.00 20.00     0.279 HD
ENDROOT
BRANCH   6   9
HETATM    9  C7  UNL     1     -34.844  17.543  -6.015  1.00 20.00     0.237 C 
BRANCH   9  10
HETATM   10  C6  UNL     1     -34.567  17.052  -7.428  1.00 20.00     0.059 C 
BRANCH  10  11
HETATM   11  C8  UNL     1     -35.113  15.650  -7.641  1.00 20.00     0.223 C 
HETATM   12  F10 UNL     1     -34.086  14.760  -7.607  1.00 20.00    -0.255 F 
ENDBRANCH  10  11
ENDBRANCH   9  10
ENDBRANCH   6   9
TORSDOF 3
ENDMDL
MODEL 8
REMARK VINA RESULT:      -3.8     11.267     12.172
REMARK  3 active torsions:
REMARK  status: ('A' for Active; 'I' for Inactive)
REMARK    1  A    between atoms: C6_6  and  C7_7 
REMARK    2  A    between atoms: C6_6  and  C8_8 
REMARK    3  A    between atoms: C7_7  and  N9_9 
ROOT
HETATM    1  C1  UNL     1     -34.447  14.082  -3.472  1.00 20.00     0.029 C 
HETATM    2  C2  UNL     1     -33.068  14.562  -3.930  1.00 20.00     0.023 C 
HETATM    3  C3  UNL     1     -35.318  15.184  -2.878  1.00 20.00     0.235 C 
HETATM    4  C4  UNL     1     -33.649  16.989  -3.394  1.00 20.00     0.254 C 
HETATM    5  C5  UNL     1     -33.077  16.007  -4.423  1.00 20.00     0.108 C 
HETATM    6  N9  UNL     1     -34.446  16.274  -2.321  1.00 20.00    -0.070 N 
HETATM    7 CL11 UNL     1     -33.990  16.124  -5.964  1.00 20.00    -0.123 Cl
HETATM    8  H27 UNL     1     -33.760  15.825  -1.689  1.00 20.00     0.279 HD
ENDROOT
BRANCH   6   9
HETATM    9  C7  UNL     1     -35.222  17.243  -1.471  1.00 20.00     0.237 C 
BRANCH   9  10
HETATM   10  C6  UNL     1     -34.585  17.316  -0.091  1.00 20.00     0.059 C 
BRANCH  10  11
HETATM   11  C8  UNL     1     -35.585  17.782   0.953  1.00 20.00     0.223 C 
HETATM   12  F10 UNL     1     -35.438  17.033   2.078  1.00 20.00    -0.255 F 
ENDBRANCH  10  11
ENDBRANCH   9  10
ENDBRANCH   6   9
TORSDOF 3
ENDMDL
MODEL 9
REMARK VINA RESULT:      -3.8      9.743     10.965
REMARK  3 active torsions:
REMARK  status: ('A' for Active; 'I' for Inactive)
REMARK    1  A    between atoms: C6_6  and  C7_7 
REMARK    2  A    between atoms: C6_6  and  C8_8 
REMARK    3  A    between atoms: C7_7  and  N9_9 
ROOT
HETATM    1  C1  UNL     1     -41.216   6.754  -1.277  1.00 20.00     0.029 C 
HETATM    2  C2  UNL     1     -40.846   5.885  -0.073  1.00 20.00     0.023 C 
HETATM    3  C3  UNL     1     -42.191   6.087  -2.243  1.00 20.00     0.235 C 
HETATM    4  C4  UNL     1     -42.488   4.065  -0.783  1.00 20.00     0.254 C 
HETATM    5  C5  UNL     1     -41.977   4.953   0.356  1.00 20.00     0.108 C 
HETATM    6  N9  UNL     1     -42.064   4.593  -2.139  1.00 20.00    -0.070 N 
HETATM    7 CL11 UNL     1     -43.329   5.909   1.050  1.00 20.00    -0.123 Cl
HETATM    8  H27 UNL     1     -41.061   4.362  -2.248  1.00 20.00     0.279 HD
ENDROOT
BRANCH   6   9
HETATM    9  C7  UNL     1     -42.778   3.884  -3.257  1.00 20.00     0.237 C 
BRANCH   9  10
HETATM   10  C6  UNL     1     -42.607   2.382  -3.083  1.00 20.00     0.059 C 
BRANCH  10  11
HETATM   11  C8  UNL     1     -41.349   1.888  -3.775  1.00 20.00     0.223 C 
HETATM   12  F10 UNL     1     -41.337   0.528  -3.764  1.00 20.00    -0.255 F 
ENDBRANCH  10  11
ENDBRANCH   9  10
ENDBRANCH   6   9
TORSDOF 3
ENDMDL
