MODEL 1
REMARK VINA RESULT:      -5.2      0.000      0.000
REMARK  5 active torsions:
REMARK  status: ('A' for Active; 'I' for Inactive)
REMARK    1  A    between atoms: C1_1  and  C4_4 
REMARK    2  A    between atoms: C1_1  and  C8_8 
REMARK    3  A    between atoms: C4_4  and  C5_5 
REMARK    4  A    between atoms: C5_5  and  C6_6 
REMARK    5  A    between atoms: C6_6  and  C7_7 
ROOT
HETATM    1  C1  UNL     1     -34.670   5.609   3.888  1.00 20.00     0.130 C 
HETATM    2  O9  UNL     1     -35.882   5.677   3.684  1.00 20.00    -0.298 OA
ENDROOT
BRANCH   1   3
HETATM    3  C4  UNL     1     -33.655   5.846   2.776  1.00 20.00     0.079 C 
BRANCH   3   4
HETATM    4  C5  UNL     1     -32.223   6.018   3.283  1.00 20.00     0.010 C 
BRANCH   4   5
HETATM    5  C6  UNL     1     -31.786   7.486   3.309  1.00 20.00     0.032 C 
BRANCH   5   6
HETATM    6  C7  UNL     1     -32.309   8.243   2.100  1.00 20.00     0.222 C 
HETATM    7  F10 UNL     1     -31.342   8.281   1.144  1.00 20.00    -0.255 F 
ENDBRANCH   5   6
ENDBRANCH   4   5
ENDBRANCH   3   4
ENDBRANCH   1   3
BRANCH   1   8
HETATM    8  C8  UNL     1     -34.103   5.229   5.255  1.00 20.00     0.047 C 
HETATM    9  C2  UNL     1     -34.861   4.034   5.822  1.00 20.00     0.017 C 
HETATM   10  C3  UNL     1     -34.155   6.411   6.221  1.00 20.00     0.017 C 
ENDBRANCH   1   8
TORSDOF 5
ENDMDL
MODEL 2
REMARK VINA RESULT:      -5.2      1.093      1.617
REMARK  5 active torsions:
REMARK  status: ('A' for Active; 'I' for Inactive)
REMARK    1  A    between atoms: C1_1  and  C4_4 
REMARK    2  A    between atoms: C1_1  and  C8_8 
REMARK    3  A    between atoms: C4_4  and  C5_5 
REMARK    4  A    between atoms: C5_5  and  C6_6 
REMARK    5  A    between atoms: C6_6  and  C7_7 
ROOT
HETATM    1  C1  UNL     1     -34.214   5.692   3.993  1.00 20.00     0.130 C 
HETATM    2  O9  UNL     1     -34.648   5.210   2.946  1.00 20.00    -0.298 OA
ENDROOT
BRANCH   1   3
HETATM    3  C4  UNL     1     -32.948   6.539   4.022  1.00 20.00     0.079 C 
BRANCH   3   4
HETATM    4  C5  UNL     1     -32.372   6.824   2.636  1.00 20.00     0.010 C 
BRANCH   4   5
HETATM    5  C6  UNL     1     -31.851   8.258   2.504  1.00 20.00     0.032 C 
BRANCH   5   6
HETATM    6  C7  UNL     1     -32.048   8.793   1.095  1.00 20.00     0.222 C 
HETATM    7  F10 UNL     1     -32.157  10.148   1.144  1.00 20.00    -0.255 F 
ENDBRANCH   5   6
ENDBRANCH   4   5
ENDBRANCH   3   4
ENDBRANCH   1   3
BRANCH   1   8
HETATM    8  C8  UNL     1     -34.885   5.426   5.341  1.00 20.00     0.047 C 
HETATM    9  C2  UNL     1     -34.204   6.242   6.433  1.00 20.00     0.017 C 
HETATM   10  C3  UNL     1     -34.862   3.938   5.682  1.00 20.00     0.017 C 
ENDBRANCH   1   8
TORSDOF 5
ENDMDL
MODEL 3
REMARK VINA RESULT:      -4.8      1.539      1.979
REMARK  5 active torsions:
REMARK  status: ('A' for Active; 'I' for Inactive)
REMARK    1  A    between atoms: C1_1  and  C4_4 
REMARK    2  A    between atoms: C1_1  and  C8_8 
REMARK    3  A    between atoms: C4_4  and  C5_5 
REMARK    4  A    between atoms: C5_5  and  C6_6 
REMARK    5  A    between atoms: C6_6  and  C7_7 
ROOT
HETATM    1  C1  UNL     1     -33.526   6.138   4.501  1.00 20.00     0.130 C 
HETATM    2  O9  UNL     1     -33.313   6.859   5.475  1.00 20.00    -0.298 OA
ENDROOT
BRANCH   1   3
HETATM    3  C4  UNL     1     -32.755   6.302   3.197  1.00 20.00     0.079 C 
BRANCH   3   4
HETATM    4  C5  UNL     1     -31.978   7.616   3.108  1.00 20.00     0.010 C 
BRANCH   4   5
HETATM    5  C6  UNL     1     -31.826   8.107   1.665  1.00 20.00     0.032 C 
BRANCH   5   6
HETATM    6  C7  UNL     1     -32.450   9.480   1.478  1.00 20.00     0.222 C 
HETATM    7  F10 UNL     1     -32.822   9.627   0.178  1.00 20.00    -0.255 F 
ENDBRANCH   5   6
ENDBRANCH   4   5
ENDBRANCH   3   4
ENDBRANCH   1   3
BRANCH   1   8
HETATM    8  C8  UNL     1     -34.616   5.066   4.515  1.00 20.00     0.047 C 
HETATM    9  C2  UNL     1     -35.831   5.546   3.731  1.00 20.00     0.017 C 
HETATM   10  C3  UNL     1     -35.005   4.696   5.945  1.00 20.00     0.017 C 
ENDBRANCH   1   8
TORSDOF 5
ENDMDL
MODEL 4
REMARK VINA RESULT:      -4.6      1.544      1.951
REMARK  5 active torsions:
REMARK  status: ('A' for Active; 'I' for Inactive)
REMARK    1  A    between atoms: C1_1  and  C4_4 
REMARK    2  A    between atoms: C1_1  and  C8_8 
REMARK    3  A    between atoms: C4_4  and  C5_5 
REMARK    4  A    between atoms: C5_5  and  C6_6 
REMARK    5  A    between atoms: C6_6  and  C7_7 
ROOT
HETATM    1  C1  UNL     1     -33.611   6.247   5.050  1.00 20.00     0.130 C 
HETATM    2  O9  UNL     1     -33.199   6.906   6.005  1.00 20.00    -0.298 OA
ENDROOT
BRANCH   1   3
HETATM    3  C4  UNL     1     -32.848   6.182   3.732  1.00 20.00     0.079 C 
BRANCH   3   4
HETATM    4  C5  UNL     1     -32.014   7.430   3.447  1.00 20.00     0.010 C 
BRANCH   4   5
HETATM    5  C6  UNL     1     -32.123   7.884   1.988  1.00 20.00     0.032 C 
BRANCH   5   6
HETATM    6  C7  UNL     1     -32.498   9.353   1.891  1.00 20.00     0.222 C 
HETATM    7  F10 UNL     1     -32.540   9.717   0.581  1.00 20.00    -0.255 F 
ENDBRANCH   5   6
ENDBRANCH   4   5
ENDBRANCH   3   4
ENDBRANCH   1   3
BRANCH   1   8
HETATM    8  C8  UNL     1     -34.941   5.497   5.103  1.00 20.00     0.047 C 
HETATM    9  C2  UNL     1     -34.750   4.140   5.770  1.00 20.00     0.017 C 
HETATM   10  C3  UNL     1     -35.537   5.334   3.706  1.00 20.00     0.017 C 
ENDBRANCH   1   8
TORSDOF 5
ENDMDL
MODEL 5
REMARK VINA RESULT:      -4.5      1.329      1.929
REMARK  5 active torsions:
REMARK  status: ('A' for Active; 'I' for Inactive)
REMARK    1  A    between atoms: C1_1  and  C4_4 
REMARK    2  A    between atoms: C1_1  and  C8_8 
REMARK    3  A    between atoms: C4_4  and  C5_5 
REMARK    4  A    between atoms: C5_5  and  C6_6 
REMARK    5  A    between atoms: C6_6  and  C7_7 
ROOT
HETATM    1  C1  UNL     1     -35.013   4.895   4.822  1.00 20.00     0.130 C 
HETATM    2  O9  UNL     1     -35.473   3.796   4.511  1.00 20.00    -0.298 OA
ENDROOT
BRANCH   1   3
HETATM    3  C4  UNL     1     -34.748   5.976   3.781  1.00 20.00     0.079 C 
BRANCH   3   4
HETATM    4  C5  UNL     1     -33.734   5.563   2.715  1.00 20.00     0.010 C 
BRANCH   4   5
HETATM    5  C6  UNL     1     -32.302   5.954   3.090  1.00 20.00     0.032 C 
BRANCH   5   6
HETATM    6  C7  UNL     1     -32.069   7.446   2.914  1.00 20.00     0.222 C 
HETATM    7  F10 UNL     1     -31.241   7.888   3.899  1.00 20.00    -0.255 F 
ENDBRANCH   5   6
ENDBRANCH   4   5
ENDBRANCH   3   4
ENDBRANCH   1   3
BRANCH   1   8
HETATM    8  C8  UNL     1     -34.623   5.227   6.262  1.00 20.00     0.047 C 
HETATM    9  C2  UNL     1     -34.025   6.627   6.331  1.00 20.00     0.017 C 
HETATM   10  C3  UNL     1     -33.649   4.193   6.821  1.00 20.00     0.017 C 
ENDBRANCH   1   8
TORSDOF 5
ENDMDL
MODEL 6
REMARK VINA RESULT:      -4.5      2.889      5.036
REMARK  5 active torsions:
REMARK  status: ('A' for Active; 'I' for Inactive)
REMARK    1  A    between atoms: C1_1  and  C4_4 
REMARK    2  A    between atoms: C1_1  and  C8_8 
REMARK    3  A    between atoms: C4_4  and  C5_5 
REMARK    4  A    between atoms: C5_5  and  C6_6 
REMARK    5  A    between atoms: C6_6  and  C7_7 
ROOT
HETATM    1  C1  UNL     1     -32.186   7.555   2.879  1.00 20.00     0.130 C 
HETATM    2  O9  UNL     1     -31.235   7.793   3.625  1.00 20.00    -0.298 OA
ENDROOT
BRANCH   1   3
HETATM    3  C4  UNL     1     -33.039   6.303   3.040  1.00 20.00     0.079 C 
BRANCH   3   4
HETATM    4  C5  UNL     1     -34.049   6.396   4.183  1.00 20.00     0.010 C 
BRANCH   4   5
HETATM    5  C6  UNL     1     -34.905   5.131   4.310  1.00 20.00     0.032 C 
BRANCH   5   6
HETATM    6  C7  UNL     1     -34.983   4.656   5.751  1.00 20.00     0.222 C 
HETATM    7  F10 UNL     1     -34.837   5.723   6.582  1.00 20.00    -0.255 F 
ENDBRANCH   5   6
ENDBRANCH   4   5
ENDBRANCH   3   4
ENDBRANCH   1   3
BRANCH   1   8
HETATM    8  C8  UNL     1     -32.539   8.471   1.707  1.00 20.00     0.047 C 
HETATM    9  C2  UNL     1     -31.454   8.396   0.639  1.00 20.00     0.017 C 
HETATM   10  C3  UNL     1     -32.740   9.911   2.175  1.00 20.00     0.017 C 
ENDBRANCH   1   8
TORSDOF 5
ENDMDL
MODEL 7
REMARK VINA RESULT:      -4.2     11.342     12.373
REMARK  5 active torsions:
REMARK  status: ('A' for Active; 'I' for Inactive)
REMARK    1  A    between atoms: C1_1  and  C4_4 
REMARK    2  A    between atoms: C1_1  and  C8_8 
REMARK    3  A    between atoms: C4_4  and  C5_5 
REMARK    4  A    between atoms: C5_5  and  C6_6 
REMARK    5  A    between atoms: C6_6  and  C7_7 
ROOT
HETATM    1  C1  UNL     1     -34.560  13.741  -4.874  1.00 20.00     0.130 C 
HETATM    2  O9  UNL     1     -34.929  12.595  -4.618  1.00 20.00    -0.298 OA
ENDROOT
BRANCH   1   3
HETATM    3  C4  UNL     1     -33.649  14.520  -3.934  1.00 20.00     0.079 C 
BRANCH   3   4
HETATM    4  C5  UNL     1     -34.398  15.235  -2.810  1.00 20.00     0.010 C 
BRANCH   4   5
HETATM    5  C6  UNL     1     -33.932  16.683  -2.629  1.00 20.00     0.032 C 
BRANCH   5   6
HETATM    6  C7  UNL     1     -33.942  17.090  -1.165  1.00 20.00     0.222 C 
HETATM    7  F10 UNL     1     -34.774  16.263  -0.477  1.00 20.00    -0.255 F 
ENDBRANCH   5   6
ENDBRANCH   4   5
ENDBRANCH   3   4
ENDBRANCH   1   3
BRANCH   1   8
HETATM    8  C8  UNL     1     -35.037  14.480  -6.125  1.00 20.00     0.047 C 
HETATM    9  C2  UNL     1     -34.040  15.570  -6.500  1.00 20.00     0.017 C 
HETATM   10  C3  UNL     1     -36.431  15.067  -5.919  1.00 20.00     0.017 C 
ENDBRANCH   1   8
TORSDOF 5
ENDMDL
MODEL 8
REMARK VINA RESULT:      -4.2      2.648      4.533
REMARK  5 active torsions:
REMARK  status: ('A' for Active; 'I' for Inactive)
REMARK    1  A    between atoms: C1_1  and  C4_4 
REMARK    2  A    between atoms: C1_1  and  C8_8 
REMARK    3  A    between atoms: C4_4  and  C5_5 
REMARK    4  A    between atoms: C5_5  and  C6_6 
REMARK    5  A    between atoms: C6_6  and  C7_7 
ROOT
HETATM    1  C1  UNL     1     -32.930   6.189   2.988  1.00 20.00     0.130 C 
HETATM    2  O9  UNL     1     -33.010   5.230   2.220  1.00 20.00    -0.298 OA
ENDROOT
BRANCH   1   3
HETATM    3  C4  UNL     1     -33.969   6.433   4.076  1.00 20.00     0.079 C 
BRANCH   3   4
HETATM    4  C5  UNL     1     -35.200   5.535   3.959  1.00 20.00     0.010 C 
BRANCH   4   5
HETATM    5  C6  UNL     1     -35.179   4.382   4.967  1.00 20.00     0.032 C 
BRANCH   5   6
HETATM    6  C7  UNL     1     -34.382   4.744   6.209  1.00 20.00     0.222 C 
HETATM    7  F10 UNL     1     -35.016   5.750   6.870  1.00 20.00    -0.255 F 
ENDBRANCH   5   6
ENDBRANCH   4   5
ENDBRANCH   3   4
ENDBRANCH   1   3
BRANCH   1   8
HETATM    8  C8  UNL     1     -31.817   7.228   2.867  1.00 20.00     0.047 C 
HETATM    9  C2  UNL     1     -31.459   7.775   4.243  1.00 20.00     0.017 C 
HETATM   10  C3  UNL     1     -32.220   8.359   1.923  1.00 20.00     0.017 C 
ENDBRANCH   1   8
TORSDOF 5
ENDMDL
MODEL 9
REMARK VINA RESULT:      -4.1     11.259     12.548
REMARK  5 active torsions:
REMARK  status: ('A' for Active; 'I' for Inactive)
REMARK    1  A    between atoms: C1_1  and  C4_4 
REMARK    2  A    between atoms: C1_1  and  C8_8 
REMARK    3  A    between atoms: C4_4  and  C5_5 
REMARK    4  A    between atoms: C5_5  and  C6_6 
REMARK    5  A    between atoms: C6_6  and  C7_7 
ROOT
HETATM    1  C1  UNL     1     -34.977  13.723  -4.390  1.00 20.00     0.130 C 
HETATM    2  O9  UNL     1     -34.869  12.520  -4.627  1.00 20.00    -0.298 OA
ENDROOT
BRANCH   1   3
HETATM    3  C4  UNL     1     -35.836  14.637  -5.256  1.00 20.00     0.079 C 
BRANCH   3   4
HETATM    4  C5  UNL     1     -35.434  14.637  -6.730  1.00 20.00     0.010 C 
BRANCH   4   5
HETATM    5  C6  UNL     1     -34.221  15.531  -7.005  1.00 20.00     0.032 C 
BRANCH   5   6
HETATM    6  C7  UNL     1     -34.377  16.895  -6.354  1.00 20.00     0.222 C 
HETATM    7  F10 UNL     1     -33.231  17.208  -5.692  1.00 20.00    -0.255 F 
ENDBRANCH   5   6
ENDBRANCH   4   5
ENDBRANCH   3   4
ENDBRANCH   1   3
BRANCH   1   8
HETATM    8  C8  UNL     1     -34.213  14.391  -3.248  1.00 20.00     0.047 C 
HETATM    9  C2  UNL     1     -34.925  15.668  -2.818  1.00 20.00     0.017 C 
HETATM   10  C3  UNL     1     -32.769  14.686  -3.649  1.00 20.00     0.017 C 
ENDBRANCH   1   8
TORSDOF 5
ENDMDL
