MODEL 1
REMARK VINA RESULT:      -4.8      0.000      0.000
REMARK  3 active torsions:
REMARK  status: ('A' for Active; 'I' for Inactive)
REMARK    1  A    between atoms: C6_6  and  C7_7 
REMARK    2  A    between atoms: C6_6  and  C8_8 
REMARK    3  A    between atoms: C7_7  and  N9_9 
ROOT
HETATM    1  C1  UNL     1     -35.487   5.202   4.089  1.00 20.00     0.050 C 
HETATM    2  C2  UNL     1     -34.228   6.331   5.943  1.00 20.00     0.050 C 
HETATM    3  C3  UNL     1     -34.268   5.418   3.185  1.00 20.00     0.274 C 
HETATM    4  C4  UNL     1     -33.051   6.510   4.979  1.00 20.00     0.274 C 
HETATM    5  C5  UNL     1     -35.116   5.144   5.571  1.00 20.00     0.085 C 
HETATM    6  N9  UNL     1     -33.516   6.614   3.589  1.00 20.00     0.088 N 
HETATM    7 CL11 UNL     1     -34.286   3.601   5.947  1.00 20.00    -0.125 Cl
ENDROOT
BRANCH   6   8
HETATM    8  C7  UNL     1     -32.386   6.837   2.686  1.00 20.00     0.275 C 
BRANCH   8   9
HETATM    9  C6  UNL     1     -32.095   8.332   2.561  1.00 20.00     0.061 C 
BRANCH   9  10
HETATM   10  C8  UNL     1     -32.048   8.769   1.106  1.00 20.00     0.223 C 
HETATM   11  F10 UNL     1     -32.085  10.126   1.045  1.00 20.00    -0.255 F 
ENDBRANCH   9  10
ENDBRANCH   8   9
ENDBRANCH   6   8
TORSDOF 3
ENDMDL
MODEL 2
REMARK VINA RESULT:      -4.4     11.196     11.762
REMARK  3 active torsions:
REMARK  status: ('A' for Active; 'I' for Inactive)
REMARK    1  A    between atoms: C6_6  and  C7_7 
REMARK    2  A    between atoms: C6_6  and  C8_8 
REMARK    3  A    between atoms: C7_7  and  N9_9 
ROOT
HETATM    1  C1  UNL     1     -36.110  14.188  -4.025  1.00 20.00     0.050 C 
HETATM    2  C2  UNL     1     -33.687  13.536  -4.078  1.00 20.00     0.050 C 
HETATM    3  C3  UNL     1     -35.692  15.539  -3.433  1.00 20.00     0.274 C 
HETATM    4  C4  UNL     1     -33.348  14.907  -3.485  1.00 20.00     0.274 C 
HETATM    5  C5  UNL     1     -35.003  13.543  -4.858  1.00 20.00     0.085 C 
HETATM    6  N9  UNL     1     -34.451  15.413  -2.656  1.00 20.00     0.088 N 
HETATM    7 CL11 UNL     1     -34.802  14.412  -6.412  1.00 20.00    -0.125 Cl
ENDROOT
BRANCH   6   8
HETATM    8  C7  UNL     1     -34.092  16.698  -2.054  1.00 20.00     0.275 C 
BRANCH   8   9
HETATM    9  C6  UNL     1     -34.616  16.776  -0.621  1.00 20.00     0.061 C 
BRANCH   9  10
HETATM   10  C8  UNL     1     -34.022  17.960   0.124  1.00 20.00     0.223 C 
HETATM   11  F10 UNL     1     -32.711  18.087  -0.210  1.00 20.00    -0.255 F 
ENDBRANCH   9  10
ENDBRANCH   8   9
ENDBRANCH   6   8
TORSDOF 3
ENDMDL
MODEL 3
REMARK VINA RESULT:      -4.1     11.641     12.523
REMARK  3 active torsions:
REMARK  status: ('A' for Active; 'I' for Inactive)
REMARK    1  A    between atoms: C6_6  and  C7_7 
REMARK    2  A    between atoms: C6_6  and  C8_8 
REMARK    3  A    between atoms: C7_7  and  N9_9 
ROOT
HETATM    1  C1  UNL     1     -34.940  13.504  -5.293  1.00 20.00     0.050 C 
HETATM    2  C2  UNL     1     -34.163  15.502  -6.598  1.00 20.00     0.050 C 
HETATM    3  C3  UNL     1     -34.732  14.314  -4.008  1.00 20.00     0.274 C 
HETATM    4  C4  UNL     1     -33.981  16.245  -5.271  1.00 20.00     0.274 C 
HETATM    5  C5  UNL     1     -35.209  14.390  -6.509  1.00 20.00     0.085 C 
HETATM    6  N9  UNL     1     -33.669  15.313  -4.180  1.00 20.00     0.088 N 
HETATM    7 CL11 UNL     1     -36.857  15.089  -6.420  1.00 20.00    -0.125 Cl
ENDROOT
BRANCH   6   8
HETATM    8  C7  UNL     1     -33.446  16.042  -2.931  1.00 20.00     0.275 C 
BRANCH   8   9
HETATM    9  C6  UNL     1     -34.704  16.006  -2.064  1.00 20.00     0.061 C 
BRANCH   9  10
HETATM   10  C8  UNL     1     -34.694  17.114  -1.023  1.00 20.00     0.223 C 
HETATM   11  F10 UNL     1     -34.889  16.573   0.208  1.00 20.00    -0.255 F 
ENDBRANCH   9  10
ENDBRANCH   8   9
ENDBRANCH   6   8
TORSDOF 3
ENDMDL
MODEL 4
REMARK VINA RESULT:      -4.0     11.500     12.404
REMARK  3 active torsions:
REMARK  status: ('A' for Active; 'I' for Inactive)
REMARK    1  A    between atoms: C6_6  and  C7_7 
REMARK    2  A    between atoms: C6_6  and  C8_8 
REMARK    3  A    between atoms: C7_7  and  N9_9 
ROOT
HETATM    1  C1  UNL     1     -34.271  14.093  -4.100  1.00 20.00     0.050 C 
HETATM    2  C2  UNL     1     -33.596  16.016  -5.562  1.00 20.00     0.050 C 
HETATM    3  C3  UNL     1     -34.487  15.090  -2.956  1.00 20.00     0.274 C 
HETATM    4  C4  UNL     1     -33.834  16.951  -4.372  1.00 20.00     0.274 C 
HETATM    5  C5  UNL     1     -34.426  14.735  -5.478  1.00 20.00     0.085 C 
HETATM    6  N9  UNL     1     -33.603  16.256  -3.099  1.00 20.00     0.088 N 
HETATM    7 CL11 UNL     1     -36.151  15.085  -5.814  1.00 20.00    -0.125 Cl
ENDROOT
BRANCH   6   8
HETATM    8  C7  UNL     1     -33.783  17.174  -1.973  1.00 20.00     0.275 C 
BRANCH   8   9
HETATM    9  C6  UNL     1     -34.662  16.532  -0.901  1.00 20.00     0.061 C 
BRANCH   9  10
HETATM   10  C8  UNL     1     -34.926  17.491   0.248  1.00 20.00     0.223 C 
HETATM   11  F10 UNL     1     -33.742  17.857   0.806  1.00 20.00    -0.255 F 
ENDBRANCH   9  10
ENDBRANCH   8   9
ENDBRANCH   6   8
TORSDOF 3
ENDMDL
MODEL 5
REMARK VINA RESULT:      -4.0     11.487     12.277
REMARK  3 active torsions:
REMARK  status: ('A' for Active; 'I' for Inactive)
REMARK    1  A    between atoms: C6_6  and  C7_7 
REMARK    2  A    between atoms: C6_6  and  C8_8 
REMARK    3  A    between atoms: C7_7  and  N9_9 
ROOT
HETATM    1  C1  UNL     1     -34.157  15.599  -5.715  1.00 20.00     0.050 C 
HETATM    2  C2  UNL     1     -36.269  15.173  -4.431  1.00 20.00     0.050 C 
HETATM    3  C3  UNL     1     -33.511  16.084  -4.413  1.00 20.00     0.274 C 
HETATM    4  C4  UNL     1     -35.556  15.672  -3.171  1.00 20.00     0.274 C 
HETATM    5  C5  UNL     1     -35.300  14.614  -5.474  1.00 20.00     0.085 C 
HETATM    6  N9  UNL     1     -34.517  16.654  -3.505  1.00 20.00     0.088 N 
HETATM    7 CL11 UNL     1     -34.657  13.028  -4.942  1.00 20.00    -0.125 Cl
ENDROOT
BRANCH   6   8
HETATM    8  C7  UNL     1     -33.879  17.161  -2.289  1.00 20.00     0.275 C 
BRANCH   8   9
HETATM    9  C6  UNL     1     -34.531  16.543  -1.053  1.00 20.00     0.061 C 
BRANCH   9  10
HETATM   10  C8  UNL     1     -34.672  17.560   0.068  1.00 20.00     0.223 C 
HETATM   11  F10 UNL     1     -35.243  16.961   1.146  1.00 20.00    -0.255 F 
ENDBRANCH   9  10
ENDBRANCH   8   9
ENDBRANCH   6   8
TORSDOF 3
ENDMDL
MODEL 6
REMARK VINA RESULT:      -4.0     11.385     12.275
REMARK  3 active torsions:
REMARK  status: ('A' for Active; 'I' for Inactive)
REMARK    1  A    between atoms: C6_6  and  C7_7 
REMARK    2  A    between atoms: C6_6  and  C8_8 
REMARK    3  A    between atoms: C7_7  and  N9_9 
ROOT
HETATM    1  C1  UNL     1     -33.736  18.638  -2.092  1.00 20.00     0.050 C 
HETATM    2  C2  UNL     1     -34.625  16.691  -0.784  1.00 20.00     0.050 C 
HETATM    3  C3  UNL     1     -33.781  17.763  -3.349  1.00 20.00     0.274 C 
HETATM    4  C4  UNL     1     -34.641  15.879  -2.083  1.00 20.00     0.274 C 
HETATM    5  C5  UNL     1     -34.742  18.196  -1.030  1.00 20.00     0.085 C 
HETATM    6  N9  UNL     1     -33.602  16.344  -3.011  1.00 20.00     0.088 N 
HETATM    7 CL11 UNL     1     -36.409  18.619  -1.534  1.00 20.00    -0.125 Cl
ENDROOT
BRANCH   6   8
HETATM    8  C7  UNL     1     -33.595  15.526  -4.224  1.00 20.00     0.275 C 
BRANCH   8   9
HETATM    9  C6  UNL     1     -33.543  14.042  -3.862  1.00 20.00     0.061 C 
BRANCH   9  10
HETATM   10  C8  UNL     1     -34.448  13.218  -4.764  1.00 20.00     0.223 C 
HETATM   11  F10 UNL     1     -35.657  13.064  -4.163  1.00 20.00    -0.255 F 
ENDBRANCH   9  10
ENDBRANCH   8   9
ENDBRANCH   6   8
TORSDOF 3
ENDMDL
MODEL 7
REMARK VINA RESULT:      -4.0     11.278     12.835
REMARK  3 active torsions:
REMARK  status: ('A' for Active; 'I' for Inactive)
REMARK    1  A    between atoms: C6_6  and  C7_7 
REMARK    2  A    between atoms: C6_6  and  C8_8 
REMARK    3  A    between atoms: C7_7  and  N9_9 
ROOT
HETATM    1  C1  UNL     1     -33.168  16.130  -4.625  1.00 20.00     0.050 C 
HETATM    2  C2  UNL     1     -33.544  13.761  -3.891  1.00 20.00     0.050 C 
HETATM    3  C3  UNL     1     -34.292  15.948  -5.652  1.00 20.00     0.274 C 
HETATM    4  C4  UNL     1     -34.655  13.656  -4.941  1.00 20.00     0.274 C 
HETATM    5  C5  UNL     1     -33.313  15.198  -3.423  1.00 20.00     0.085 C 
HETATM    6  N9  UNL     1     -34.393  14.546  -6.080  1.00 20.00     0.088 N 
HETATM    7 CL11 UNL     1     -34.661  15.737  -2.372  1.00 20.00    -0.125 Cl
ENDROOT
BRANCH   6   8
HETATM    8  C7  UNL     1     -35.434  14.396  -7.098  1.00 20.00     0.275 C 
BRANCH   8   9
HETATM    9  C6  UNL     1     -36.335  15.630  -7.119  1.00 20.00     0.061 C 
BRANCH   9  10
HETATM   10  C8  UNL     1     -37.745  15.297  -6.661  1.00 20.00     0.223 C 
HETATM   11  F10 UNL     1     -37.728  15.016  -5.331  1.00 20.00    -0.255 F 
ENDBRANCH   9  10
ENDBRANCH   8   9
ENDBRANCH   6   8
TORSDOF 3
ENDMDL
MODEL 8
REMARK VINA RESULT:      -4.0      9.740     10.571
REMARK  3 active torsions:
REMARK  status: ('A' for Active; 'I' for Inactive)
REMARK    1  A    between atoms: C6_6  and  C7_7 
REMARK    2  A    between atoms: C6_6  and  C8_8 
REMARK    3  A    between atoms: C7_7  and  N9_9 
ROOT
HETATM    1  C1  UNL     1     -40.628   6.155  -0.327  1.00 20.00     0.050 C 
HETATM    2  C2  UNL     1     -41.597   4.544  -1.989  1.00 20.00     0.050 C 
HETATM    3  C3  UNL     1     -41.555   7.236  -0.896  1.00 20.00     0.274 C 
HETATM    4  C4  UNL     1     -42.492   5.676  -2.503  1.00 20.00     0.274 C 
HETATM    5  C5  UNL     1     -41.176   4.743  -0.532  1.00 20.00     0.085 C 
HETATM    6  N9  UNL     1     -41.852   6.984  -2.313  1.00 20.00     0.088 N 
HETATM    7 CL11 UNL     1     -42.561   4.445   0.565  1.00 20.00    -0.125 Cl
ENDROOT
BRANCH   6   8
HETATM    8  C7  UNL     1     -42.694   8.051  -2.856  1.00 20.00     0.275 C 
BRANCH   8   9
HETATM    9  C6  UNL     1     -42.730   7.973  -4.381  1.00 20.00     0.061 C 
BRANCH   9  10
HETATM   10  C8  UNL     1     -42.125   9.215  -5.016  1.00 20.00     0.223 C 
HETATM   11  F10 UNL     1     -41.024   8.861  -5.729  1.00 20.00    -0.255 F 
ENDBRANCH   9  10
ENDBRANCH   8   9
ENDBRANCH   6   8
TORSDOF 3
ENDMDL
MODEL 9
REMARK VINA RESULT:      -3.8     10.020     11.213
REMARK  3 active torsions:
REMARK  status: ('A' for Active; 'I' for Inactive)
REMARK    1  A    between atoms: C6_6  and  C7_7 
REMARK    2  A    between atoms: C6_6  and  C8_8 
REMARK    3  A    between atoms: C7_7  and  N9_9 
ROOT
HETATM    1  C1  UNL     1     -41.932   6.963  -2.676  1.00 20.00     0.050 C 
HETATM    2  C2  UNL     1     -41.030   6.347  -0.417  1.00 20.00     0.050 C 
HETATM    3  C3  UNL     1     -42.630   5.599  -2.724  1.00 20.00     0.274 C 
HETATM    4  C4  UNL     1     -41.757   5.004  -0.539  1.00 20.00     0.274 C 
HETATM    5  C5  UNL     1     -41.690   7.449  -1.248  1.00 20.00     0.085 C 
HETATM    6  N9  UNL     1     -41.888   4.599  -1.944  1.00 20.00     0.088 N 
HETATM    7 CL11 UNL     1     -43.231   7.963  -0.491  1.00 20.00    -0.125 Cl
ENDROOT
BRANCH   6   8
HETATM    8  C7  UNL     1     -42.536   3.290  -2.042  1.00 20.00     0.275 C 
BRANCH   8   9
HETATM    9  C6  UNL     1     -42.660   2.869  -3.506  1.00 20.00     0.061 C 
BRANCH   9  10
HETATM   10  C8  UNL     1     -41.839   1.623  -3.797  1.00 20.00     0.223 C 
HETATM   11  F10 UNL     1     -40.573   1.989  -4.126  1.00 20.00    -0.255 F 
ENDBRANCH   9  10
ENDBRANCH   8   9
ENDBRANCH   6   8
TORSDOF 3
ENDMDL
