MODEL 1
REMARK VINA RESULT:      -4.3      0.000      0.000
REMARK  0 active torsions:
REMARK  status: ('A' for Active; 'I' for Inactive)
ROOT
HETATM    1  C1  UNL     1     -34.414  13.210  -4.852  1.00 20.00     0.006 C 
HETATM    2  C2  UNL     1     -35.737  13.851  -4.400  1.00 20.00     0.038 C 
HETATM    3  C3  UNL     1     -33.720  13.983  -3.716  1.00 20.00     0.038 C 
HETATM    4  C4  UNL     1     -33.569  17.148  -2.704  1.00 20.00     0.046 C 
HETATM    5  C5  UNL     1     -35.455  15.472  -2.415  1.00 20.00     0.058 C 
HETATM    6  C6  UNL     1     -33.738  17.111  -4.222  1.00 20.00     0.170 C 
HETATM    7  C7  UNL     1     -34.896  16.845  -2.020  1.00 20.00     0.087 C 
HETATM    8  C8  UNL     1     -34.903  15.005  -3.769  1.00 20.00     0.062 C 
HETATM    9  O9  UNL     1     -34.701  16.144  -4.641  1.00 20.00    -0.380 OA
HETATM   10 CL10 UNL     1     -34.719  16.958  -0.247  1.00 20.00    -0.125 Cl
ENDROOT
TORSDOF 0
ENDMDL
MODEL 2
REMARK VINA RESULT:      -4.2      2.177      2.978
REMARK  0 active torsions:
REMARK  status: ('A' for Active; 'I' for Inactive)
ROOT
HETATM    1  C1  UNL     1     -35.852  14.590  -7.468  1.00 20.00     0.006 C 
HETATM    2  C2  UNL     1     -34.374  15.006  -7.378  1.00 20.00     0.038 C 
HETATM    3  C3  UNL     1     -36.056  15.230  -6.084  1.00 20.00     0.038 C 
HETATM    4  C4  UNL     1     -34.626  14.991  -3.090  1.00 20.00     0.046 C 
HETATM    5  C5  UNL     1     -33.787  16.191  -5.165  1.00 20.00     0.058 C 
HETATM    6  C6  UNL     1     -34.531  13.644  -3.804  1.00 20.00     0.170 C 
HETATM    7  C7  UNL     1     -33.598  15.961  -3.660  1.00 20.00     0.087 C 
HETATM    8  C8  UNL     1     -34.528  15.022  -5.828  1.00 20.00     0.062 C 
HETATM    9  O9  UNL     1     -34.170  13.777  -5.179  1.00 20.00    -0.380 OA
HETATM   10 CL10 UNL     1     -33.658  17.513  -2.780  1.00 20.00    -0.125 Cl
ENDROOT
TORSDOF 0
ENDMDL
MODEL 3
REMARK VINA RESULT:      -4.1      2.690      3.956
REMARK  0 active torsions:
REMARK  status: ('A' for Active; 'I' for Inactive)
ROOT
HETATM    1  C1  UNL     1     -34.434  16.333  -1.543  1.00 20.00     0.006 C 
HETATM    2  C2  UNL     1     -35.633  16.834  -2.366  1.00 20.00     0.038 C 
HETATM    3  C3  UNL     1     -33.772  15.919  -2.868  1.00 20.00     0.038 C 
HETATM    4  C4  UNL     1     -34.625  14.092  -5.514  1.00 20.00     0.046 C 
HETATM    5  C5  UNL     1     -35.359  16.444  -4.899  1.00 20.00     0.058 C 
HETATM    6  C6  UNL     1     -35.310  13.529  -4.270  1.00 20.00     0.170 C 
HETATM    7  C7  UNL     1     -35.338  15.355  -5.980  1.00 20.00     0.087 C 
HETATM    8  C8  UNL     1     -35.204  15.849  -3.493  1.00 20.00     0.062 C 
HETATM    9  O9  UNL     1     -35.846  14.552  -3.431  1.00 20.00    -0.380 OA
HETATM   10 CL10 UNL     1     -34.584  15.976  -7.475  1.00 20.00    -0.125 Cl
ENDROOT
TORSDOF 0
ENDMDL
MODEL 4
REMARK VINA RESULT:      -4.1      2.242      4.076
REMARK  0 active torsions:
REMARK  status: ('A' for Active; 'I' for Inactive)
ROOT
HETATM    1  C1  UNL     1     -34.217  18.028  -0.006  1.00 20.00     0.006 C 
HETATM    2  C2  UNL     1     -33.340  18.019  -1.269  1.00 20.00     0.038 C 
HETATM    3  C3  UNL     1     -34.777  16.668  -0.455  1.00 20.00     0.038 C 
HETATM    4  C4  UNL     1     -36.161  15.431  -3.216  1.00 20.00     0.046 C 
HETATM    5  C5  UNL     1     -33.717  15.943  -2.751  1.00 20.00     0.058 C 
HETATM    6  C6  UNL     1     -36.519  16.910  -3.092  1.00 20.00     0.170 C 
HETATM    7  C7  UNL     1     -34.724  15.276  -3.698  1.00 20.00     0.087 C 
HETATM    8  C8  UNL     1     -34.375  17.051  -1.917  1.00 20.00     0.062 C 
HETATM    9  O9  UNL     1     -35.405  17.710  -2.692  1.00 20.00    -0.380 OA
HETATM   10 CL10 UNL     1     -34.326  13.548  -3.912  1.00 20.00    -0.125 Cl
ENDROOT
TORSDOF 0
ENDMDL
MODEL 5
REMARK VINA RESULT:      -4.1      2.346      3.694
REMARK  0 active torsions:
REMARK  status: ('A' for Active; 'I' for Inactive)
ROOT
HETATM    1  C1  UNL     1     -35.584  17.660  -1.373  1.00 20.00     0.006 C 
HETATM    2  C2  UNL     1     -34.565  16.535  -1.121  1.00 20.00     0.038 C 
HETATM    3  C3  UNL     1     -35.936  16.964  -2.699  1.00 20.00     0.038 C 
HETATM    4  C4  UNL     1     -34.262  15.856  -5.352  1.00 20.00     0.046 C 
HETATM    5  C5  UNL     1     -34.454  14.818  -3.041  1.00 20.00     0.058 C 
HETATM    6  C6  UNL     1     -33.541  17.070  -4.771  1.00 20.00     0.170 C 
HETATM    7  C7  UNL     1     -33.995  14.626  -4.493  1.00 20.00     0.087 C 
HETATM    8  C8  UNL     1     -34.519  16.304  -2.661  1.00 20.00     0.062 C 
HETATM    9  O9  UNL     1     -33.474  17.036  -3.345  1.00 20.00    -0.380 OA
HETATM   10 CL10 UNL     1     -34.779  13.189  -5.208  1.00 20.00    -0.125 Cl
ENDROOT
TORSDOF 0
ENDMDL
MODEL 6
REMARK VINA RESULT:      -4.1      1.474      1.969
REMARK  0 active torsions:
REMARK  status: ('A' for Active; 'I' for Inactive)
ROOT
HETATM    1  C1  UNL     1     -34.879  14.033  -6.106  1.00 20.00     0.006 C 
HETATM    2  C2  UNL     1     -34.593  13.392  -4.737  1.00 20.00     0.038 C 
HETATM    3  C3  UNL     1     -34.692  15.405  -5.436  1.00 20.00     0.038 C 
HETATM    4  C4  UNL     1     -35.928  16.971  -2.774  1.00 20.00     0.046 C 
HETATM    5  C5  UNL     1     -34.189  15.122  -2.870  1.00 20.00     0.058 C 
HETATM    6  C6  UNL     1     -36.990  16.033  -3.346  1.00 20.00     0.170 C 
HETATM    7  C7  UNL     1     -34.887  16.175  -1.998  1.00 20.00     0.087 C 
HETATM    8  C8  UNL     1     -35.052  14.725  -4.075  1.00 20.00     0.062 C 
HETATM    9  O9  UNL     1     -36.454  14.761  -3.714  1.00 20.00    -0.380 OA
HETATM   10 CL10 UNL     1     -33.684  17.275  -1.268  1.00 20.00    -0.125 Cl
ENDROOT
TORSDOF 0
ENDMDL
MODEL 7
REMARK VINA RESULT:      -4.1      1.596      3.045
REMARK  0 active torsions:
REMARK  status: ('A' for Active; 'I' for Inactive)
ROOT
HETATM    1  C1  UNL     1     -34.425  17.648  -6.631  1.00 20.00     0.006 C 
HETATM    2  C2  UNL     1     -33.546  18.417  -5.629  1.00 20.00     0.038 C 
HETATM    3  C3  UNL     1     -35.074  16.940  -5.428  1.00 20.00     0.038 C 
HETATM    4  C4  UNL     1     -34.004  15.238  -2.777  1.00 20.00     0.046 C 
HETATM    5  C5  UNL     1     -33.976  17.746  -3.178  1.00 20.00     0.058 C 
HETATM    6  C6  UNL     1     -33.039  15.019  -3.941  1.00 20.00     0.170 C 
HETATM    7  C7  UNL     1     -33.781  16.613  -2.161  1.00 20.00     0.087 C 
HETATM    8  C8  UNL     1     -33.774  17.254  -4.617  1.00 20.00     0.062 C 
HETATM    9  O9  UNL     1     -32.756  16.225  -4.651  1.00 20.00    -0.380 OA
HETATM   10 CL10 UNL     1     -34.858  16.845  -0.756  1.00 20.00    -0.125 Cl
ENDROOT
TORSDOF 0
ENDMDL
MODEL 8
REMARK VINA RESULT:      -4.0      2.022      2.625
REMARK  0 active torsions:
REMARK  status: ('A' for Active; 'I' for Inactive)
ROOT
HETATM    1  C1  UNL     1     -35.056  13.271  -4.244  1.00 20.00     0.006 C 
HETATM    2  C2  UNL     1     -33.636  13.768  -3.924  1.00 20.00     0.038 C 
HETATM    3  C3  UNL     1     -35.397  14.706  -4.682  1.00 20.00     0.038 C 
HETATM    4  C4  UNL     1     -35.152  17.747  -3.354  1.00 20.00     0.046 C 
HETATM    5  C5  UNL     1     -33.324  16.292  -4.351  1.00 20.00     0.058 C 
HETATM    6  C6  UNL     1     -35.388  16.727  -2.241  1.00 20.00     0.170 C 
HETATM    7  C7  UNL     1     -33.706  17.683  -3.827  1.00 20.00     0.087 C 
HETATM    8  C8  UNL     1     -34.230  15.200  -3.765  1.00 20.00     0.062 C 
HETATM    9  O9  UNL     1     -34.607  15.543  -2.410  1.00 20.00    -0.380 OA
HETATM   10 CL10 UNL     1     -33.408  18.922  -5.079  1.00 20.00    -0.125 Cl
ENDROOT
TORSDOF 0
ENDMDL
MODEL 9
REMARK VINA RESULT:      -4.0      2.356      3.739
REMARK  0 active torsions:
REMARK  status: ('A' for Active; 'I' for Inactive)
ROOT
HETATM    1  C1  UNL     1     -33.542  17.002  -1.921  1.00 20.00     0.006 C 
HETATM    2  C2  UNL     1     -34.789  16.239  -1.442  1.00 20.00     0.038 C 
HETATM    3  C3  UNL     1     -34.099  16.895  -3.351  1.00 20.00     0.038 C 
HETATM    4  C4  UNL     1     -35.198  14.455  -5.328  1.00 20.00     0.046 C 
HETATM    5  C5  UNL     1     -36.368  15.564  -3.364  1.00 20.00     0.058 C 
HETATM    6  C6  UNL     1     -34.116  13.905  -4.401  1.00 20.00     0.170 C 
HETATM    7  C7  UNL     1     -36.508  14.621  -4.566  1.00 20.00     0.087 C 
HETATM    8  C8  UNL     1     -34.915  15.648  -2.878  1.00 20.00     0.062 C 
HETATM    9  O9  UNL     1     -34.258  14.370  -3.058  1.00 20.00    -0.380 OA
HETATM   10 CL10 UNL     1     -37.794  15.196  -5.663  1.00 20.00    -0.125 Cl
ENDROOT
TORSDOF 0
ENDMDL
