MODEL 1
REMARK VINA RESULT:      -4.5      0.000      0.000
REMARK  1 active torsions:
REMARK  status: ('A' for Active; 'I' for Inactive)
REMARK    1  A    between atoms: C4_4  and  C8_8 
ROOT
HETATM    1  C1  UNL     1     -34.783  13.739  -4.752  1.00 20.00     0.136 C 
HETATM    2  C2  UNL     1     -34.777  14.419  -6.134  1.00 20.00     0.084 C 
HETATM    3  C3  UNL     1     -34.765  15.782  -5.389  1.00 20.00     0.004 C 
HETATM    4  C4  UNL     1     -34.377  15.066  -4.035  1.00 20.00     0.020 C 
HETATM    5  C5  UNL     1     -33.834  16.838  -5.963  1.00 20.00     0.011 C 
HETATM    6  C6  UNL     1     -32.909  15.084  -3.618  1.00 20.00     0.024 C 
HETATM    7  O9  UNL     1     -35.008  12.608  -4.378  1.00 20.00    -0.297 OA
ENDROOT
BRANCH   4   8
HETATM    8  C8  UNL     1     -35.294  15.441  -2.873  1.00 20.00     0.013 C 
HETATM    9  C7  UNL     1     -34.553  16.166  -1.797  1.00 20.00     0.006 C 
ENDBRANCH   4   8
TORSDOF 1
ENDMDL
MODEL 2
REMARK VINA RESULT:      -4.2      1.271      1.433
REMARK  1 active torsions:
REMARK  status: ('A' for Active; 'I' for Inactive)
REMARK    1  A    between atoms: C4_4  and  C8_8 
ROOT
HETATM    1  C1  UNL     1     -33.848  13.762  -4.102  1.00 20.00     0.136 C 
HETATM    2  C2  UNL     1     -34.855  13.569  -5.251  1.00 20.00     0.084 C 
HETATM    3  C3  UNL     1     -35.532  14.889  -4.789  1.00 20.00     0.004 C 
HETATM    4  C4  UNL     1     -34.278  15.249  -3.899  1.00 20.00     0.020 C 
HETATM    5  C5  UNL     1     -35.951  15.838  -5.900  1.00 20.00     0.011 C 
HETATM    6  C6  UNL     1     -33.264  16.239  -4.469  1.00 20.00     0.024 C 
HETATM    7  O9  UNL     1     -33.034  13.035  -3.573  1.00 20.00    -0.297 OA
ENDROOT
BRANCH   4   8
HETATM    8  C8  UNL     1     -34.643  15.592  -2.456  1.00 20.00     0.013 C 
HETATM    9  C7  UNL     1     -33.855  16.755  -1.948  1.00 20.00     0.006 C 
ENDBRANCH   4   8
TORSDOF 1
ENDMDL
MODEL 3
REMARK VINA RESULT:      -4.2      2.433      3.262
REMARK  1 active torsions:
REMARK  status: ('A' for Active; 'I' for Inactive)
REMARK    1  A    between atoms: C4_4  and  C8_8 
ROOT
HETATM    1  C1  UNL     1     -33.914  17.293  -4.098  1.00 20.00     0.136 C 
HETATM    2  C2  UNL     1     -33.210  16.192  -4.913  1.00 20.00     0.084 C 
HETATM    3  C3  UNL     1     -33.112  15.373  -3.596  1.00 20.00     0.004 C 
HETATM    4  C4  UNL     1     -34.163  16.326  -2.898  1.00 20.00     0.020 C 
HETATM    5  C5  UNL     1     -33.421  13.890  -3.717  1.00 20.00     0.011 C 
HETATM    6  C6  UNL     1     -35.610  15.847  -2.818  1.00 20.00     0.024 C 
HETATM    7  O9  UNL     1     -34.175  18.457  -4.318  1.00 20.00    -0.297 OA
ENDROOT
BRANCH   4   8
HETATM    8  C8  UNL     1     -33.679  16.874  -1.557  1.00 20.00     0.013 C 
HETATM    9  C7  UNL     1     -34.743  16.789  -0.511  1.00 20.00     0.006 C 
ENDBRANCH   4   8
TORSDOF 1
ENDMDL
MODEL 4
REMARK VINA RESULT:      -4.1      1.426      3.130
REMARK  1 active torsions:
REMARK  status: ('A' for Active; 'I' for Inactive)
REMARK    1  A    between atoms: C4_4  and  C8_8 
ROOT
HETATM    1  C1  UNL     1     -34.392  13.764  -4.752  1.00 20.00     0.136 C 
HETATM    2  C2  UNL     1     -33.507  14.585  -3.796  1.00 20.00     0.084 C 
HETATM    3  C3  UNL     1     -33.510  15.711  -4.867  1.00 20.00     0.004 C 
HETATM    4  C4  UNL     1     -34.712  15.019  -5.625  1.00 20.00     0.020 C 
HETATM    5  C5  UNL     1     -33.683  17.124  -4.336  1.00 20.00     0.011 C 
HETATM    6  C6  UNL     1     -36.115  15.566  -5.377  1.00 20.00     0.024 C 
HETATM    7  O9  UNL     1     -34.715  12.596  -4.796  1.00 20.00    -0.297 OA
ENDROOT
BRANCH   4   8
HETATM    8  C8  UNL     1     -34.445  14.815  -7.114  1.00 20.00     0.013 C 
HETATM    9  C7  UNL     1     -35.714  14.632  -7.881  1.00 20.00     0.006 C 
ENDBRANCH   4   8
TORSDOF 1
ENDMDL
MODEL 5
REMARK VINA RESULT:      -4.0     12.355     13.417
REMARK  1 active torsions:
REMARK  status: ('A' for Active; 'I' for Inactive)
REMARK    1  A    between atoms: C4_4  and  C8_8 
ROOT
HETATM    1  C1  UNL     1     -34.760   4.523   5.039  1.00 20.00     0.136 C 
HETATM    2  C2  UNL     1     -34.675   4.927   6.522  1.00 20.00     0.084 C 
HETATM    3  C3  UNL     1     -33.647   6.012   6.098  1.00 20.00     0.004 C 
HETATM    4  C4  UNL     1     -34.053   5.837   4.581  1.00 20.00     0.020 C 
HETATM    5  C5  UNL     1     -33.814   7.371   6.759  1.00 20.00     0.011 C 
HETATM    6  C6  UNL     1     -35.025   6.852   3.985  1.00 20.00     0.024 C 
HETATM    7  O9  UNL     1     -35.213   3.557   4.460  1.00 20.00    -0.297 OA
ENDROOT
BRANCH   4   8
HETATM    8  C8  UNL     1     -32.856   5.603   3.662  1.00 20.00     0.013 C 
HETATM    9  C7  UNL     1     -32.445   6.856   2.960  1.00 20.00     0.006 C 
ENDBRANCH   4   8
TORSDOF 1
ENDMDL
MODEL 6
REMARK VINA RESULT:      -4.0      1.588      1.686
REMARK  1 active torsions:
REMARK  status: ('A' for Active; 'I' for Inactive)
REMARK    1  A    between atoms: C4_4  and  C8_8 
ROOT
HETATM    1  C1  UNL     1     -36.802  14.697  -4.269  1.00 20.00     0.136 C 
HETATM    2  C2  UNL     1     -36.480  15.023  -5.740  1.00 20.00     0.084 C 
HETATM    3  C3  UNL     1     -35.358  15.961  -5.216  1.00 20.00     0.004 C 
HETATM    4  C4  UNL     1     -35.453  15.313  -3.778  1.00 20.00     0.020 C 
HETATM    5  C5  UNL     1     -34.041  15.898  -5.973  1.00 20.00     0.011 C 
HETATM    6  C6  UNL     1     -34.420  14.251  -3.409  1.00 20.00     0.024 C 
HETATM    7  O9  UNL     1     -37.739  14.161  -3.718  1.00 20.00    -0.297 OA
ENDROOT
BRANCH   4   8
HETATM    8  C8  UNL     1     -35.618  16.344  -2.664  1.00 20.00     0.013 C 
HETATM    9  C7  UNL     1     -34.550  16.213  -1.628  1.00 20.00     0.006 C 
ENDBRANCH   4   8
TORSDOF 1
ENDMDL
MODEL 7
REMARK VINA RESULT:      -3.9      1.567      3.428
REMARK  1 active torsions:
REMARK  status: ('A' for Active; 'I' for Inactive)
REMARK    1  A    between atoms: C4_4  and  C8_8 
ROOT
HETATM    1  C1  UNL     1     -33.453  15.005  -3.668  1.00 20.00     0.136 C 
HETATM    2  C2  UNL     1     -34.533  15.442  -2.661  1.00 20.00     0.084 C 
HETATM    3  C3  UNL     1     -35.517  15.538  -3.859  1.00 20.00     0.004 C 
HETATM    4  C4  UNL     1     -34.518  14.724  -4.775  1.00 20.00     0.020 C 
HETATM    5  C5  UNL     1     -36.912  14.987  -3.612  1.00 20.00     0.011 C 
HETATM    6  C6  UNL     1     -34.787  13.234  -4.969  1.00 20.00     0.024 C 
HETATM    7  O9  UNL     1     -32.245  14.910  -3.609  1.00 20.00    -0.297 OA
ENDROOT
BRANCH   4   8
HETATM    8  C8  UNL     1     -34.220  15.416  -6.103  1.00 20.00     0.013 C 
HETATM    9  C7  UNL     1     -34.815  14.676  -7.256  1.00 20.00     0.006 C 
ENDBRANCH   4   8
TORSDOF 1
ENDMDL
MODEL 8
REMARK VINA RESULT:      -3.9      1.598      2.375
REMARK  1 active torsions:
REMARK  status: ('A' for Active; 'I' for Inactive)
REMARK    1  A    between atoms: C4_4  and  C8_8 
ROOT
HETATM    1  C1  UNL     1     -36.100  14.348  -3.855  1.00 20.00     0.136 C 
HETATM    2  C2  UNL     1     -34.902  13.424  -4.145  1.00 20.00     0.084 C 
HETATM    3  C3  UNL     1     -34.040  14.705  -4.314  1.00 20.00     0.004 C 
HETATM    4  C4  UNL     1     -35.168  15.582  -3.638  1.00 20.00     0.020 C 
HETATM    5  C5  UNL     1     -32.659  14.658  -3.682  1.00 20.00     0.011 C 
HETATM    6  C6  UNL     1     -35.000  15.940  -2.163  1.00 20.00     0.024 C 
HETATM    7  O9  UNL     1     -37.299  14.171  -3.808  1.00 20.00    -0.297 OA
ENDROOT
BRANCH   4   8
HETATM    8  C8  UNL     1     -35.561  16.801  -4.469  1.00 20.00     0.013 C 
HETATM    9  C7  UNL     1     -35.424  18.068  -3.689  1.00 20.00     0.006 C 
ENDBRANCH   4   8
TORSDOF 1
ENDMDL
MODEL 9
REMARK VINA RESULT:      -3.7      1.605      2.209
REMARK  1 active torsions:
REMARK  status: ('A' for Active; 'I' for Inactive)
REMARK    1  A    between atoms: C4_4  and  C8_8 
ROOT
HETATM    1  C1  UNL     1     -36.612  14.731  -4.473  1.00 20.00     0.136 C 
HETATM    2  C2  UNL     1     -36.830  15.160  -5.936  1.00 20.00     0.084 C 
HETATM    3  C3  UNL     1     -35.302  15.432  -6.014  1.00 20.00     0.004 C 
HETATM    4  C4  UNL     1     -35.067  14.628  -4.674  1.00 20.00     0.020 C 
HETATM    5  C5  UNL     1     -34.615  14.969  -7.288  1.00 20.00     0.011 C 
HETATM    6  C6  UNL     1     -34.583  13.184  -4.789  1.00 20.00     0.024 C 
HETATM    7  O9  UNL     1     -37.360  14.541  -3.538  1.00 20.00    -0.297 OA
ENDROOT
BRANCH   4   8
HETATM    8  C8  UNL     1     -34.259  15.408  -3.639  1.00 20.00     0.013 C 
HETATM    9  C7  UNL     1     -32.848  14.924  -3.562  1.00 20.00     0.006 C 
ENDBRANCH   4   8
TORSDOF 1
ENDMDL
