MODEL 1
REMARK VINA RESULT:      -4.6      0.000      0.000
REMARK  1 active torsions:
REMARK  status: ('A' for Active; 'I' for Inactive)
REMARK    1  A    between atoms: C5_5  and  C9_9 
ROOT
HETATM    1  C1  UNL     1     -35.288  17.518  -3.170  1.00 20.00     0.036 C 
HETATM    2  C2  UNL     1     -34.789  16.644  -0.771  1.00 20.00     0.016 A 
HETATM    3  C3  UNL     1     -34.006  15.373  -2.906  1.00 20.00     0.041 C 
HETATM    4  C4  UNL     1     -36.412  16.684  -3.777  1.00 20.00     0.169 C 
HETATM    5  C5  UNL     1     -33.514  17.293  -1.239  1.00 20.00     0.009 A 
HETATM    6  C6  UNL     1     -35.212  14.656  -3.520  1.00 20.00     0.118 C 
HETATM    7  C7  UNL     1     -34.455  16.659  -2.247  1.00 20.00    -0.031 A 
HETATM    8  C8  UNL     1     -34.778  13.418  -4.293  1.00 20.00     0.039 C 
HETATM    9  O10 UNL     1     -35.882  15.532  -4.438  1.00 20.00    -0.386 OA
ENDROOT
BRANCH   5  10
HETATM   10  C9  UNL     1     -33.335  18.768  -1.123  1.00 20.00     0.120 C 
HETATM   11 CL11 UNL     1     -32.012  19.174   0.005  1.00 20.00    -0.130 Cl
ENDBRANCH   5  10
TORSDOF 1
ENDMDL
MODEL 2
REMARK VINA RESULT:      -4.5      2.057      3.038
REMARK  1 active torsions:
REMARK  status: ('A' for Active; 'I' for Inactive)
REMARK    1  A    between atoms: C5_5  and  C9_9 
ROOT
HETATM    1  C1  UNL     1     -35.063  14.134  -3.714  1.00 20.00     0.036 C 
HETATM    2  C2  UNL     1     -33.004  15.702  -3.445  1.00 20.00     0.016 A 
HETATM    3  C3  UNL     1     -34.713  15.972  -5.393  1.00 20.00     0.041 C 
HETATM    4  C4  UNL     1     -34.791  13.150  -4.847  1.00 20.00     0.169 C 
HETATM    5  C5  UNL     1     -34.176  16.479  -2.910  1.00 20.00     0.009 A 
HETATM    6  C6  UNL     1     -34.449  14.879  -6.432  1.00 20.00     0.118 C 
HETATM    7  C7  UNL     1     -34.386  15.453  -4.009  1.00 20.00    -0.031 A 
HETATM    8  C8  UNL     1     -34.879  15.328  -7.821  1.00 20.00     0.039 C 
HETATM    9  O10 UNL     1     -35.199  13.702  -6.101  1.00 20.00    -0.386 OA
ENDROOT
BRANCH   5  10
HETATM   10  C9  UNL     1     -34.645  16.265  -1.511  1.00 20.00     0.120 C 
HETATM   11 CL11 UNL     1     -33.968  17.494  -0.407  1.00 20.00    -0.130 Cl
ENDBRANCH   5  10
TORSDOF 1
ENDMDL
MODEL 3
REMARK VINA RESULT:      -4.4      1.513      1.641
REMARK  1 active torsions:
REMARK  status: ('A' for Active; 'I' for Inactive)
REMARK    1  A    between atoms: C5_5  and  C9_9 
ROOT
HETATM    1  C1  UNL     1     -33.588  17.141  -3.689  1.00 20.00     0.036 C 
HETATM    2  C2  UNL     1     -35.617  16.888  -2.081  1.00 20.00     0.016 A 
HETATM    3  C3  UNL     1     -34.378  14.832  -3.093  1.00 20.00     0.041 C 
HETATM    4  C4  UNL     1     -34.046  16.849  -5.114  1.00 20.00     0.169 C 
HETATM    5  C5  UNL     1     -34.397  16.637  -1.235  1.00 20.00     0.009 A 
HETATM    6  C6  UNL     1     -34.804  14.673  -4.555  1.00 20.00     0.118 C 
HETATM    7  C7  UNL     1     -34.376  16.297  -2.715  1.00 20.00    -0.031 A 
HETATM    8  C8  UNL     1     -34.703  13.222  -5.001  1.00 20.00     0.039 C 
HETATM    9  O10 UNL     1     -33.943  15.451  -5.398  1.00 20.00    -0.386 OA
ENDROOT
BRANCH   5  10
HETATM   10  C9  UNL     1     -33.631  17.780  -0.663  1.00 20.00     0.120 C 
HETATM   11 CL11 UNL     1     -34.163  18.148   1.001  1.00 20.00    -0.130 Cl
ENDBRANCH   5  10
TORSDOF 1
ENDMDL
MODEL 4
REMARK VINA RESULT:      -4.4      2.938      4.479
REMARK  1 active torsions:
REMARK  status: ('A' for Active; 'I' for Inactive)
REMARK    1  A    between atoms: C5_5  and  C9_9 
ROOT
HETATM    1  C1  UNL     1     -34.849  17.203  -3.799  1.00 20.00     0.036 C 
HETATM    2  C2  UNL     1     -33.429  15.056  -3.420  1.00 20.00     0.016 A 
HETATM    3  C3  UNL     1     -34.546  16.351  -1.454  1.00 20.00     0.041 C 
HETATM    4  C4  UNL     1     -34.027  18.419  -3.382  1.00 20.00     0.169 C 
HETATM    5  C5  UNL     1     -34.865  14.610  -3.346  1.00 20.00     0.009 A 
HETATM    6  C6  UNL     1     -33.729  17.615  -1.173  1.00 20.00     0.118 C 
HETATM    7  C7  UNL     1     -34.488  16.020  -2.930  1.00 20.00    -0.031 A 
HETATM    8  C8  UNL     1     -33.863  18.041   0.282  1.00 20.00     0.039 C 
HETATM    9  O10 UNL     1     -34.205  18.693  -1.990  1.00 20.00    -0.386 OA
ENDROOT
BRANCH   5  10
HETATM   10  C9  UNL     1     -35.627  14.317  -4.593  1.00 20.00     0.120 C 
HETATM   11 CL11 UNL     1     -34.551  14.294  -6.018  1.00 20.00    -0.130 Cl
ENDBRANCH   5  10
TORSDOF 1
ENDMDL
MODEL 5
REMARK VINA RESULT:      -4.2      3.064      4.512
REMARK  1 active torsions:
REMARK  status: ('A' for Active; 'I' for Inactive)
REMARK    1  A    between atoms: C5_5  and  C9_9 
ROOT
HETATM    1  C1  UNL     1     -36.170  17.146  -2.659  1.00 20.00     0.036 C 
HETATM    2  C2  UNL     1     -33.773  16.322  -3.246  1.00 20.00     0.016 A 
HETATM    3  C3  UNL     1     -34.600  16.560  -0.786  1.00 20.00     0.041 C 
HETATM    4  C4  UNL     1     -36.092  18.590  -2.172  1.00 20.00     0.169 C 
HETATM    5  C5  UNL     1     -34.557  15.081  -2.913  1.00 20.00     0.009 A 
HETATM    6  C6  UNL     1     -34.601  18.045  -0.411  1.00 20.00     0.118 C 
HETATM    7  C7  UNL     1     -34.917  16.402  -2.258  1.00 20.00    -0.031 A 
HETATM    8  C8  UNL     1     -34.402  18.232   1.086  1.00 20.00     0.039 C 
HETATM    9  O10 UNL     1     -35.862  18.632  -0.761  1.00 20.00    -0.386 OA
ENDROOT
BRANCH   5  10
HETATM   10  C9  UNL     1     -35.417  14.436  -3.944  1.00 20.00     0.120 C 
HETATM   11 CL11 UNL     1     -34.538  13.139  -4.800  1.00 20.00    -0.130 Cl
ENDBRANCH   5  10
TORSDOF 1
ENDMDL
MODEL 6
REMARK VINA RESULT:      -4.1      2.021      2.182
REMARK  1 active torsions:
REMARK  status: ('A' for Active; 'I' for Inactive)
REMARK    1  A    between atoms: C5_5  and  C9_9 
ROOT
HETATM    1  C1  UNL     1     -35.507  17.503  -3.922  1.00 20.00     0.036 C 
HETATM    2  C2  UNL     1     -34.889  15.400  -2.519  1.00 20.00     0.016 A 
HETATM    3  C3  UNL     1     -33.940  15.805  -4.911  1.00 20.00     0.041 C 
HETATM    4  C4  UNL     1     -36.505  17.100  -5.003  1.00 20.00     0.169 C 
HETATM    5  C5  UNL     1     -33.717  16.335  -2.385  1.00 20.00     0.009 A 
HETATM    6  C6  UNL     1     -35.035  15.490  -5.934  1.00 20.00     0.118 C 
HETATM    7  C7  UNL     1     -34.562  16.356  -3.646  1.00 20.00    -0.031 A 
HETATM    8  C8  UNL     1     -34.436  15.045  -7.260  1.00 20.00     0.039 C 
HETATM    9  O10 UNL     1     -35.821  16.664  -6.181  1.00 20.00    -0.386 OA
ENDROOT
BRANCH   5  10
HETATM   10  C9  UNL     1     -33.744  17.436  -1.382  1.00 20.00     0.120 C 
HETATM   11 CL11 UNL     1     -34.824  17.041  -0.016  1.00 20.00    -0.130 Cl
ENDBRANCH   5  10
TORSDOF 1
ENDMDL
MODEL 7
REMARK VINA RESULT:      -4.1      3.342      4.759
REMARK  1 active torsions:
REMARK  status: ('A' for Active; 'I' for Inactive)
REMARK    1  A    between atoms: C5_5  and  C9_9 
ROOT
HETATM    1  C1  UNL     1     -34.732  17.113  -4.862  1.00 20.00     0.036 C 
HETATM    2  C2  UNL     1     -34.176  14.572  -4.836  1.00 20.00     0.016 A 
HETATM    3  C3  UNL     1     -35.311  15.768  -2.819  1.00 20.00     0.041 C 
HETATM    4  C4  UNL     1     -33.717  17.852  -3.996  1.00 20.00     0.169 C 
HETATM    5  C5  UNL     1     -35.648  14.660  -5.136  1.00 20.00     0.009 A 
HETATM    6  C6  UNL     1     -34.250  16.578  -2.069  1.00 20.00     0.118 C 
HETATM    7  C7  UNL     1     -34.981  15.734  -4.296  1.00 20.00    -0.031 A 
HETATM    8  C8  UNL     1     -34.616  16.732  -0.599  1.00 20.00     0.039 C 
HETATM    9  O10 UNL     1     -34.153  17.893  -2.635  1.00 20.00    -0.386 OA
ENDROOT
BRANCH   5  10
HETATM   10  C9  UNL     1     -36.117  14.907  -6.529  1.00 20.00     0.120 C 
HETATM   11 CL11 UNL     1     -34.786  14.721  -7.704  1.00 20.00    -0.130 Cl
ENDBRANCH   5  10
TORSDOF 1
ENDMDL
MODEL 8
REMARK VINA RESULT:      -4.0     13.116     14.976
REMARK  1 active torsions:
REMARK  status: ('A' for Active; 'I' for Inactive)
REMARK    1  A    between atoms: C5_5  and  C9_9 
ROOT
HETATM    1  C1  UNL     1     -40.800   4.267  -1.549  1.00 20.00     0.036 C 
HETATM    2  C2  UNL     1     -43.142   3.182  -1.882  1.00 20.00     0.016 A 
HETATM    3  C3  UNL     1     -42.598   5.597  -2.696  1.00 20.00     0.041 C 
HETATM    4  C4  UNL     1     -40.881   5.281  -0.412  1.00 20.00     0.169 C 
HETATM    5  C5  UNL     1     -42.448   3.063  -3.212  1.00 20.00     0.009 A 
HETATM    6  C6  UNL     1     -42.586   6.532  -1.484  1.00 20.00     0.118 C 
HETATM    7  C7  UNL     1     -42.119   4.221  -2.288  1.00 20.00    -0.031 A 
HETATM    8  C8  UNL     1     -42.950   7.954  -1.885  1.00 20.00     0.039 C 
HETATM    9  O10 UNL     1     -41.272   6.563  -0.909  1.00 20.00    -0.386 OA
ENDROOT
BRANCH   5  10
HETATM   10  C9  UNL     1     -41.498   1.943  -3.467  1.00 20.00     0.120 C 
HETATM   11 CL11 UNL     1     -42.326   0.362  -3.391  1.00 20.00    -0.130 Cl
ENDBRANCH   5  10
TORSDOF 1
ENDMDL
MODEL 9
REMARK VINA RESULT:      -3.9     11.594     12.529
REMARK  1 active torsions:
REMARK  status: ('A' for Active; 'I' for Inactive)
REMARK    1  A    between atoms: C5_5  and  C9_9 
ROOT
HETATM    1  C1  UNL     1     -33.260   7.470   5.107  1.00 20.00     0.036 C 
HETATM    2  C2  UNL     1     -31.800   6.138   3.415  1.00 20.00     0.016 A 
HETATM    3  C3  UNL     1     -34.285   5.521   3.895  1.00 20.00     0.041 C 
HETATM    4  C4  UNL     1     -33.404   6.653   6.387  1.00 20.00     0.169 C 
HETATM    5  C5  UNL     1     -32.658   7.048   2.579  1.00 20.00     0.009 A 
HETATM    6  C6  UNL     1     -34.361   4.807   5.248  1.00 20.00     0.118 C 
HETATM    7  C7  UNL     1     -33.169   6.543   3.916  1.00 20.00    -0.031 A 
HETATM    8  C8  UNL     1     -35.549   3.856   5.299  1.00 20.00     0.039 C 
HETATM    9  O10 UNL     1     -34.527   5.771   6.297  1.00 20.00    -0.386 OA
ENDROOT
BRANCH   5  10
HETATM   10  C9  UNL     1     -32.256   8.466   2.356  1.00 20.00     0.120 C 
HETATM   11 CL11 UNL     1     -32.130   8.837   0.614  1.00 20.00    -0.130 Cl
ENDBRANCH   5  10
TORSDOF 1
ENDMDL
