MODEL 1
REMARK VINA RESULT:      -4.8      0.000      0.000
REMARK  1 active torsions:
REMARK  status: ('A' for Active; 'I' for Inactive)
REMARK    1  A    between atoms: C5_5  and  C10_10 
ROOT
HETATM    1  C1  UNL     1     -33.673  17.408  -1.247  1.00 20.00     0.017 A 
HETATM    2  C2  UNL     1     -34.864  15.327  -2.300  1.00 20.00     0.020 C 
HETATM    3  C3  UNL     1     -35.952  17.625  -2.491  1.00 20.00     0.083 C 
HETATM    4  C4  UNL     1     -35.509  16.012  -4.672  1.00 20.00     0.082 C 
HETATM    5  C5  UNL     1     -34.729  16.932  -0.292  1.00 20.00     0.009 A 
HETATM    6  C6  UNL     1     -34.931  16.761  -1.795  1.00 20.00    -0.026 A 
HETATM    7  C7  UNL     1     -34.529  15.195  -3.805  1.00 20.00    -0.038 C 
HETATM    8  C8  UNL     1     -33.067  15.604  -4.084  1.00 20.00     0.015 C 
HETATM    9  C9  UNL     1     -34.675  13.707  -4.195  1.00 20.00     0.015 C 
HETATM   10  S11 UNL     1     -35.570  17.780  -4.251  1.00 20.00    -0.168 SA
ENDROOT
BRANCH   5  11
HETATM   11  C10 UNL     1     -35.496  17.913   0.528  1.00 20.00     0.120 C 
HETATM   12 CL12 UNL     1     -35.424  17.499   2.264  1.00 20.00    -0.130 Cl
ENDBRANCH   5  11
TORSDOF 1
ENDMDL
MODEL 2
REMARK VINA RESULT:      -4.6      2.880      4.750
REMARK  1 active torsions:
REMARK  status: ('A' for Active; 'I' for Inactive)
REMARK    1  A    between atoms: C5_5  and  C10_10 
ROOT
HETATM    1  C1  UNL     1     -36.031  15.345  -4.011  1.00 20.00     0.017 A 
HETATM    2  C2  UNL     1     -34.653  15.892  -1.853  1.00 20.00     0.020 C 
HETATM    3  C3  UNL     1     -33.637  16.363  -4.144  1.00 20.00     0.083 C 
HETATM    4  C4  UNL     1     -33.771  18.268  -2.166  1.00 20.00     0.082 C 
HETATM    5  C5  UNL     1     -35.071  14.218  -3.762  1.00 20.00     0.009 A 
HETATM    6  C6  UNL     1     -34.696  15.639  -3.352  1.00 20.00    -0.026 A 
HETATM    7  C7  UNL     1     -34.811  17.379  -1.451  1.00 20.00    -0.038 C 
HETATM    8  C8  UNL     1     -36.246  17.875  -1.725  1.00 20.00     0.015 C 
HETATM    9  C9  UNL     1     -34.567  17.489   0.069  1.00 20.00     0.015 C 
HETATM   10  S11 UNL     1     -33.824  18.154  -3.980  1.00 20.00    -0.168 SA
ENDROOT
BRANCH   5  11
HETATM   11  C10 UNL     1     -34.439  13.503  -4.907  1.00 20.00     0.120 C 
HETATM   12 CL12 UNL     1     -35.140  14.029  -6.463  1.00 20.00    -0.130 Cl
ENDBRANCH   5  11
TORSDOF 1
ENDMDL
MODEL 3
REMARK VINA RESULT:      -4.3      1.648      2.313
REMARK  1 active torsions:
REMARK  status: ('A' for Active; 'I' for Inactive)
REMARK    1  A    between atoms: C5_5  and  C10_10 
ROOT
HETATM    1  C1  UNL     1     -33.651  15.545  -2.861  1.00 20.00     0.017 A 
HETATM    2  C2  UNL     1     -35.921  15.964  -4.099  1.00 20.00     0.020 C 
HETATM    3  C3  UNL     1     -34.222  17.857  -3.919  1.00 20.00     0.083 C 
HETATM    4  C4  UNL     1     -35.317  17.076  -6.316  1.00 20.00     0.082 C 
HETATM    5  C5  UNL     1     -34.591  16.231  -1.912  1.00 20.00     0.009 A 
HETATM    6  C6  UNL     1     -34.682  16.516  -3.408  1.00 20.00    -0.026 A 
HETATM    7  C7  UNL     1     -35.767  15.770  -5.627  1.00 20.00    -0.038 C 
HETATM    8  C8  UNL     1     -34.796  14.613  -5.942  1.00 20.00     0.015 C 
HETATM    9  C9  UNL     1     -37.149  15.383  -6.198  1.00 20.00     0.015 C 
HETATM   10  S11 UNL     1     -33.762  17.757  -5.664  1.00 20.00    -0.168 SA
ENDROOT
BRANCH   5  11
HETATM   11  C10 UNL     1     -34.071  17.218  -0.923  1.00 20.00     0.120 C 
HETATM   12 CL12 UNL     1     -35.059  17.226   0.564  1.00 20.00    -0.130 Cl
ENDBRANCH   5  11
TORSDOF 1
ENDMDL
MODEL 4
REMARK VINA RESULT:      -4.3      2.033      3.181
REMARK  1 active torsions:
REMARK  status: ('A' for Active; 'I' for Inactive)
REMARK    1  A    between atoms: C5_5  and  C10_10 
ROOT
HETATM    1  C1  UNL     1     -35.794  16.592  -2.901  1.00 20.00     0.017 A 
HETATM    2  C2  UNL     1     -34.546  16.457  -5.199  1.00 20.00     0.020 C 
HETATM    3  C3  UNL     1     -34.086  14.693  -3.417  1.00 20.00     0.083 C 
HETATM    4  C4  UNL     1     -34.793  14.043  -5.993  1.00 20.00     0.082 C 
HETATM    5  C5  UNL     1     -34.426  17.188  -2.735  1.00 20.00     0.009 A 
HETATM    6  C6  UNL     1     -34.644  16.056  -3.735  1.00 20.00    -0.026 A 
HETATM    7  C7  UNL     1     -35.273  15.499  -6.174  1.00 20.00    -0.038 C 
HETATM    8  C8  UNL     1     -36.804  15.602  -6.011  1.00 20.00     0.015 C 
HETATM    9  C9  UNL     1     -34.930  15.937  -7.615  1.00 20.00     0.015 C 
HETATM   10  S11 UNL     1     -34.994  13.404  -4.302  1.00 20.00    -0.168 SA
ENDROOT
BRANCH   5  11
HETATM   11  C10 UNL     1     -33.683  17.015  -1.455  1.00 20.00     0.120 C 
HETATM   12 CL12 UNL     1     -34.794  17.012  -0.057  1.00 20.00    -0.130 Cl
ENDBRANCH   5  11
TORSDOF 1
ENDMDL
MODEL 5
REMARK VINA RESULT:      -4.3      2.763      4.645
REMARK  1 active torsions:
REMARK  status: ('A' for Active; 'I' for Inactive)
REMARK    1  A    between atoms: C5_5  and  C10_10 
ROOT
HETATM    1  C1  UNL     1     -35.073  15.296  -2.463  1.00 20.00     0.017 A 
HETATM    2  C2  UNL     1     -33.405  17.151  -1.665  1.00 20.00     0.020 C 
HETATM    3  C3  UNL     1     -35.042  17.664  -3.551  1.00 20.00     0.083 C 
HETATM    4  C4  UNL     1     -34.807  19.257  -1.323  1.00 20.00     0.082 C 
HETATM    5  C5  UNL     1     -33.903  15.321  -3.404  1.00 20.00     0.009 A 
HETATM    6  C6  UNL     1     -34.355  16.609  -2.721  1.00 20.00    -0.026 A 
HETATM    7  C7  UNL     1     -34.070  18.092  -0.630  1.00 20.00    -0.038 C 
HETATM    8  C8  UNL     1     -35.021  17.308   0.299  1.00 20.00     0.015 C 
HETATM    9  C9  UNL     1     -32.953  18.692   0.252  1.00 20.00     0.015 C 
HETATM   10  S11 UNL     1     -36.074  18.726  -2.514  1.00 20.00    -0.168 SA
ENDROOT
BRANCH   5  11
HETATM   11  C10 UNL     1     -34.103  15.053  -4.857  1.00 20.00     0.120 C 
HETATM   12 CL12 UNL     1     -34.842  13.449  -5.122  1.00 20.00    -0.130 Cl
ENDBRANCH   5  11
TORSDOF 1
ENDMDL
MODEL 6
REMARK VINA RESULT:      -4.1     13.196     14.831
REMARK  1 active torsions:
REMARK  status: ('A' for Active; 'I' for Inactive)
REMARK    1  A    between atoms: C5_5  and  C10_10 
ROOT
HETATM    1  C1  UNL     1     -41.143   3.653  -2.187  1.00 20.00     0.017 A 
HETATM    2  C2  UNL     1     -42.919   5.561  -2.436  1.00 20.00     0.020 C 
HETATM    3  C3  UNL     1     -43.287   3.723  -0.708  1.00 20.00     0.083 C 
HETATM    4  C4  UNL     1     -43.392   6.395  -0.070  1.00 20.00     0.082 C 
HETATM    5  C5  UNL     1     -42.270   3.146  -3.040  1.00 20.00     0.009 A 
HETATM    6  C6  UNL     1     -42.549   4.170  -1.944  1.00 20.00    -0.026 A 
HETATM    7  C7  UNL     1     -42.675   6.690  -1.405  1.00 20.00    -0.038 C 
HETATM    8  C8  UNL     1     -41.165   6.919  -1.184  1.00 20.00     0.015 C 
HETATM    9  C9  UNL     1     -43.261   7.997  -1.982  1.00 20.00     0.015 C 
HETATM   10  S11 UNL     1     -42.920   4.811   0.688  1.00 20.00    -0.168 SA
ENDROOT
BRANCH   5  11
HETATM   11  C10 UNL     1     -42.693   1.719  -2.952  1.00 20.00     0.120 C 
HETATM   12 CL12 UNL     1     -41.553   0.652  -3.818  1.00 20.00    -0.130 Cl
ENDBRANCH   5  11
TORSDOF 1
ENDMDL
MODEL 7
REMARK VINA RESULT:      -4.1      1.946      2.501
REMARK  1 active torsions:
REMARK  status: ('A' for Active; 'I' for Inactive)
REMARK    1  A    between atoms: C5_5  and  C10_10 
ROOT
HETATM    1  C1  UNL     1     -33.687  17.022  -3.553  1.00 20.00     0.017 A 
HETATM    2  C2  UNL     1     -34.945  15.124  -4.845  1.00 20.00     0.020 C 
HETATM    3  C3  UNL     1     -36.288  16.965  -3.701  1.00 20.00     0.083 C 
HETATM    4  C4  UNL     1     -36.643  16.301  -6.345  1.00 20.00     0.082 C 
HETATM    5  C5  UNL     1     -34.151  15.997  -2.559  1.00 20.00     0.009 A 
HETATM    6  C6  UNL     1     -34.966  16.251  -3.824  1.00 20.00    -0.026 A 
HETATM    7  C7  UNL     1     -35.288  15.564  -6.289  1.00 20.00    -0.038 C 
HETATM    8  C8  UNL     1     -34.160  16.433  -6.885  1.00 20.00     0.015 C 
HETATM    9  C9  UNL     1     -35.401  14.294  -7.159  1.00 20.00     0.015 C 
HETATM   10  S11 UNL     1     -36.737  17.759  -5.262  1.00 20.00    -0.168 SA
ENDROOT
BRANCH   5  11
HETATM   11  C10 UNL     1     -34.598  16.418  -1.201  1.00 20.00     0.120 C 
HETATM   12 CL12 UNL     1     -33.627  17.790  -0.596  1.00 20.00    -0.130 Cl
ENDBRANCH   5  11
TORSDOF 1
ENDMDL
MODEL 8
REMARK VINA RESULT:      -4.1      3.520      4.653
REMARK  1 active torsions:
REMARK  status: ('A' for Active; 'I' for Inactive)
REMARK    1  A    between atoms: C5_5  and  C10_10 
ROOT
HETATM    1  C1  UNL     1     -37.804  15.797  -3.416  1.00 20.00     0.017 A 
HETATM    2  C2  UNL     1     -35.924  14.130  -4.153  1.00 20.00     0.020 C 
HETATM    3  C3  UNL     1     -36.764  15.882  -5.803  1.00 20.00     0.083 C 
HETATM    4  C4  UNL     1     -34.097  15.557  -5.220  1.00 20.00     0.082 C 
HETATM    5  C5  UNL     1     -38.437  14.684  -4.200  1.00 20.00     0.009 A 
HETATM    6  C6  UNL     1     -37.012  15.126  -4.524  1.00 20.00    -0.026 A 
HETATM    7  C7  UNL     1     -34.520  14.755  -3.971  1.00 20.00    -0.038 C 
HETATM    8  C8  UNL     1     -34.466  15.634  -2.704  1.00 20.00     0.015 C 
HETATM    9  C9  UNL     1     -33.508  13.605  -3.780  1.00 20.00     0.015 C 
HETATM   10  S11 UNL     1     -35.260  16.878  -5.679  1.00 20.00    -0.168 SA
ENDROOT
BRANCH   5  11
HETATM   11  C10 UNL     1     -39.600  14.960  -5.090  1.00 20.00     0.120 C 
HETATM   12 CL12 UNL     1     -40.733  13.580  -5.120  1.00 20.00    -0.130 Cl
ENDBRANCH   5  11
TORSDOF 1
ENDMDL
MODEL 9
REMARK VINA RESULT:      -4.0      2.237      3.451
REMARK  1 active torsions:
REMARK  status: ('A' for Active; 'I' for Inactive)
REMARK    1  A    between atoms: C5_5  and  C10_10 
ROOT
HETATM    1  C1  UNL     1     -33.792  15.017  -4.427  1.00 20.00     0.017 A 
HETATM    2  C2  UNL     1     -36.260  15.529  -5.138  1.00 20.00     0.020 C 
HETATM    3  C3  UNL     1     -34.559  17.426  -5.059  1.00 20.00     0.083 C 
HETATM    4  C4  UNL     1     -36.103  16.916  -7.275  1.00 20.00     0.082 C 
HETATM    5  C5  UNL     1     -34.527  15.560  -3.236  1.00 20.00     0.009 A 
HETATM    6  C6  UNL     1     -34.910  16.021  -4.639  1.00 20.00    -0.026 A 
HETATM    7  C7  UNL     1     -36.410  15.526  -6.679  1.00 20.00    -0.038 C 
HETATM    8  C8  UNL     1     -35.520  14.439  -7.318  1.00 20.00     0.015 C 
HETATM    9  C9  UNL     1     -37.877  15.177  -7.013  1.00 20.00     0.015 C 
HETATM   10  S11 UNL     1     -34.450  17.550  -6.860  1.00 20.00    -0.168 SA
ENDROOT
BRANCH   5  11
HETATM   11  C10 UNL     1     -33.822  16.431  -2.253  1.00 20.00     0.120 C 
HETATM   12 CL12 UNL     1     -34.719  16.524  -0.712  1.00 20.00    -0.130 Cl
ENDBRANCH   5  11
TORSDOF 1
ENDMDL
