MODEL 1
REMARK VINA RESULT:      -5.0      0.000      0.000
REMARK  1 active torsions:
REMARK  status: ('A' for Active; 'I' for Inactive)
REMARK    1  A    between atoms: C5_5  and  C10_10 
ROOT
HETATM    1  C1  UNL     1     -34.757  16.837  -0.433  1.00 20.00     0.017 A 
HETATM    2  C2  UNL     1     -34.530  15.380  -2.549  1.00 20.00     0.020 C 
HETATM    3  C3  UNL     1     -35.643  17.711  -2.702  1.00 20.00     0.083 C 
HETATM    4  C4  UNL     1     -35.724  15.908  -4.775  1.00 20.00     0.082 C 
HETATM    5  C5  UNL     1     -33.561  17.358  -1.172  1.00 20.00     0.005 A 
HETATM    6  C6  UNL     1     -34.733  16.766  -1.950  1.00 20.00    -0.026 A 
HETATM    7  C7  UNL     1     -34.440  15.367  -4.092  1.00 20.00    -0.038 C 
HETATM    8  C8  UNL     1     -33.210  16.173  -4.563  1.00 20.00     0.015 C 
HETATM    9  C9  UNL     1     -34.226  13.905  -4.544  1.00 20.00     0.015 C 
HETATM   10  S11 UNL     1     -36.865  16.838  -3.697  1.00 20.00    -0.168 SA
ENDROOT
BRANCH   5  11
HETATM   11  C10 UNL     1     -33.257  18.818  -1.161  1.00 20.00     0.090 C 
HETATM   12 BR12 UNL     1     -32.075  19.258   0.329  1.00 20.00    -0.096 Br
ENDBRANCH   5  11
TORSDOF 1
ENDMDL
MODEL 2
REMARK VINA RESULT:      -4.7      1.759      1.759
REMARK  1 active torsions:
REMARK  status: ('A' for Active; 'I' for Inactive)
REMARK    1  A    between atoms: C5_5  and  C10_10 
ROOT
HETATM    1  C1  UNL     1     -34.620  16.555  -1.084  1.00 20.00     0.017 A 
HETATM    2  C2  UNL     1     -34.583  14.859  -3.027  1.00 20.00     0.020 C 
HETATM    3  C3  UNL     1     -36.303  16.793  -3.036  1.00 20.00     0.083 C 
HETATM    4  C4  UNL     1     -36.441  14.700  -4.812  1.00 20.00     0.082 C 
HETATM    5  C5  UNL     1     -33.869  17.216  -2.200  1.00 20.00     0.005 A 
HETATM    6  C6  UNL     1     -34.995  16.236  -2.521  1.00 20.00    -0.026 A 
HETATM    7  C7  UNL     1     -34.921  14.608  -4.515  1.00 20.00    -0.038 C 
HETATM    8  C8  UNL     1     -34.145  15.595  -5.414  1.00 20.00     0.015 C 
HETATM    9  C9  UNL     1     -34.438  13.186  -4.879  1.00 20.00     0.015 C 
HETATM   10  S11 UNL     1     -37.455  15.496  -3.521  1.00 20.00    -0.168 SA
ENDROOT
BRANCH   5  11
HETATM   11  C10 UNL     1     -33.996  18.686  -2.415  1.00 20.00     0.090 C 
HETATM   12 BR12 UNL     1     -33.510  19.153  -4.247  1.00 20.00    -0.096 Br
ENDBRANCH   5  11
TORSDOF 1
ENDMDL
MODEL 3
REMARK VINA RESULT:      -4.6      1.415      1.516
REMARK  1 active torsions:
REMARK  status: ('A' for Active; 'I' for Inactive)
REMARK    1  A    between atoms: C5_5  and  C10_10 
ROOT
HETATM    1  C1  UNL     1     -35.660  17.250  -1.549  1.00 20.00     0.017 A 
HETATM    2  C2  UNL     1     -35.035  15.310  -3.129  1.00 20.00     0.020 C 
HETATM    3  C3  UNL     1     -34.198  17.705  -3.636  1.00 20.00     0.083 C 
HETATM    4  C4  UNL     1     -33.961  15.655  -5.450  1.00 20.00     0.082 C 
HETATM    5  C5  UNL     1     -34.266  16.842  -1.177  1.00 20.00     0.005 A 
HETATM    6  C6  UNL     1     -34.731  16.715  -2.625  1.00 20.00    -0.026 A 
HETATM    7  C7  UNL     1     -34.022  14.780  -4.169  1.00 20.00    -0.038 C 
HETATM    8  C8  UNL     1     -32.617  14.666  -3.539  1.00 20.00     0.015 C 
HETATM    9  C9  UNL     1     -34.456  13.353  -4.572  1.00 20.00     0.015 C 
HETATM   10  S11 UNL     1     -34.713  17.310  -5.317  1.00 20.00    -0.168 SA
ENDROOT
BRANCH   5  11
HETATM   11  C10 UNL     1     -33.282  17.870  -0.734  1.00 20.00     0.090 C 
HETATM   12 BR12 UNL     1     -33.763  18.562   1.027  1.00 20.00    -0.096 Br
ENDBRANCH   5  11
TORSDOF 1
ENDMDL
MODEL 4
REMARK VINA RESULT:      -4.6     13.080     14.271
REMARK  1 active torsions:
REMARK  status: ('A' for Active; 'I' for Inactive)
REMARK    1  A    between atoms: C5_5  and  C10_10 
ROOT
HETATM    1  C1  UNL     1     -40.624   6.204  -0.018  1.00 20.00     0.017 A 
HETATM    2  C2  UNL     1     -41.204   4.244  -1.591  1.00 20.00     0.020 C 
HETATM    3  C3  UNL     1     -43.029   5.247  -0.055  1.00 20.00     0.083 C 
HETATM    4  C4  UNL     1     -43.408   2.908  -1.447  1.00 20.00     0.082 C 
HETATM    5  C5  UNL     1     -41.295   6.812  -1.213  1.00 20.00     0.005 A 
HETATM    6  C6  UNL     1     -41.696   5.414  -0.750  1.00 20.00    -0.026 A 
HETATM    7  C7  UNL     1     -42.321   3.516  -2.374  1.00 20.00    -0.038 C 
HETATM    8  C8  UNL     1     -42.972   4.475  -3.394  1.00 20.00     0.015 C 
HETATM    9  C9  UNL     1     -41.669   2.370  -3.179  1.00 20.00     0.015 C 
HETATM   10  S11 UNL     1     -43.417   3.518   0.271  1.00 20.00    -0.168 SA
ENDROOT
BRANCH   5  11
HETATM   11  C10 UNL     1     -42.179   8.001  -1.045  1.00 20.00     0.090 C 
HETATM   12 BR12 UNL     1     -43.373   8.184  -2.579  1.00 20.00    -0.096 Br
ENDBRANCH   5  11
TORSDOF 1
ENDMDL
MODEL 5
REMARK VINA RESULT:      -4.3      1.802      2.233
REMARK  1 active torsions:
REMARK  status: ('A' for Active; 'I' for Inactive)
REMARK    1  A    between atoms: C5_5  and  C10_10 
ROOT
HETATM    1  C1  UNL     1     -36.150  17.496  -2.266  1.00 20.00     0.017 A 
HETATM    2  C2  UNL     1     -35.478  15.736  -4.028  1.00 20.00     0.020 C 
HETATM    3  C3  UNL     1     -33.902  17.727  -3.529  1.00 20.00     0.083 C 
HETATM    4  C4  UNL     1     -33.502  16.040  -5.661  1.00 20.00     0.082 C 
HETATM    5  C5  UNL     1     -35.193  16.566  -1.583  1.00 20.00     0.005 A 
HETATM    6  C6  UNL     1     -35.043  16.844  -3.077  1.00 20.00    -0.026 A 
HETATM    7  C7  UNL     1     -34.310  15.053  -4.777  1.00 20.00    -0.038 C 
HETATM    8  C8  UNL     1     -33.370  14.350  -3.774  1.00 20.00     0.015 C 
HETATM    9  C9  UNL     1     -34.905  13.956  -5.687  1.00 20.00     0.015 C 
HETATM   10  S11 UNL     1     -33.773  17.812  -5.324  1.00 20.00    -0.168 SA
ENDROOT
BRANCH   5  11
HETATM   11  C10 UNL     1     -34.239  17.095  -0.566  1.00 20.00     0.090 C 
HETATM   12 BR12 UNL     1     -35.196  17.654   1.040  1.00 20.00    -0.096 Br
ENDBRANCH   5  11
TORSDOF 1
ENDMDL
MODEL 6
REMARK VINA RESULT:      -4.3      3.043      4.674
REMARK  1 active torsions:
REMARK  status: ('A' for Active; 'I' for Inactive)
REMARK    1  A    between atoms: C5_5  and  C10_10 
ROOT
HETATM    1  C1  UNL     1     -35.358  13.909  -4.128  1.00 20.00     0.017 A 
HETATM    2  C2  UNL     1     -34.555  15.721  -2.479  1.00 20.00     0.020 C 
HETATM    3  C3  UNL     1     -35.115  16.360  -4.923  1.00 20.00     0.083 C 
HETATM    4  C4  UNL     1     -33.857  18.098  -3.206  1.00 20.00     0.082 C 
HETATM    5  C5  UNL     1     -36.591  14.621  -3.659  1.00 20.00     0.005 A 
HETATM    6  C6  UNL     1     -35.274  15.384  -3.779  1.00 20.00    -0.026 A 
HETATM    7  C7  UNL     1     -34.558  17.227  -2.129  1.00 20.00    -0.038 C 
HETATM    8  C8  UNL     1     -36.004  17.722  -1.907  1.00 20.00     0.015 C 
HETATM    9  C9  UNL     1     -33.806  17.406  -0.791  1.00 20.00     0.015 C 
HETATM   10  S11 UNL     1     -33.577  17.293  -4.818  1.00 20.00    -0.168 SA
ENDROOT
BRANCH   5  11
HETATM   11  C10 UNL     1     -37.732  14.831  -4.596  1.00 20.00     0.090 C 
HETATM   12 BR12 UNL     1     -39.299  15.475  -3.627  1.00 20.00    -0.096 Br
ENDBRANCH   5  11
TORSDOF 1
ENDMDL
MODEL 7
REMARK VINA RESULT:      -4.3      2.894      4.759
REMARK  1 active torsions:
REMARK  status: ('A' for Active; 'I' for Inactive)
REMARK    1  A    between atoms: C5_5  and  C10_10 
ROOT
HETATM    1  C1  UNL     1     -33.628  15.850  -2.743  1.00 20.00     0.017 A 
HETATM    2  C2  UNL     1     -34.573  16.786  -0.533  1.00 20.00     0.020 C 
HETATM    3  C3  UNL     1     -33.711  18.408  -2.355  1.00 20.00     0.083 C 
HETATM    4  C4  UNL     1     -34.339  19.255   0.183  1.00 20.00     0.082 C 
HETATM    5  C5  UNL     1     -35.037  16.269  -3.036  1.00 20.00     0.005 A 
HETATM    6  C6  UNL     1     -34.222  17.032  -1.995  1.00 20.00    -0.026 A 
HETATM    7  C7  UNL     1     -35.242  17.992   0.166  1.00 20.00    -0.038 C 
HETATM    8  C8  UNL     1     -36.594  18.318  -0.504  1.00 20.00     0.015 C 
HETATM    9  C9  UNL     1     -35.544  17.589   1.626  1.00 20.00     0.015 C 
HETATM   10  S11 UNL     1     -32.919  19.230  -0.961  1.00 20.00    -0.168 SA
ENDROOT
BRANCH   5  11
HETATM   11  C10 UNL     1     -35.381  16.844  -4.368  1.00 20.00     0.090 C 
HETATM   12 BR12 UNL     1     -34.115  16.232  -5.722  1.00 20.00    -0.096 Br
ENDBRANCH   5  11
TORSDOF 1
ENDMDL
MODEL 8
REMARK VINA RESULT:      -4.2      2.860      4.522
REMARK  1 active torsions:
REMARK  status: ('A' for Active; 'I' for Inactive)
REMARK    1  A    between atoms: C5_5  and  C10_10 
ROOT
HETATM    1  C1  UNL     1     -33.430  14.399  -3.838  1.00 20.00     0.017 A 
HETATM    2  C2  UNL     1     -33.664  16.464  -2.312  1.00 20.00     0.020 C 
HETATM    3  C3  UNL     1     -34.393  16.604  -4.791  1.00 20.00     0.083 C 
HETATM    4  C4  UNL     1     -34.197  18.831  -3.193  1.00 20.00     0.082 C 
HETATM    5  C5  UNL     1     -34.867  14.442  -3.413  1.00 20.00     0.005 A 
HETATM    6  C6  UNL     1     -34.089  15.744  -3.585  1.00 20.00    -0.026 A 
HETATM    7  C7  UNL     1     -34.414  17.793  -2.060  1.00 20.00    -0.038 C 
HETATM    8  C8  UNL     1     -35.922  17.528  -1.866  1.00 20.00     0.015 C 
HETATM    9  C9  UNL     1     -33.885  18.394  -0.739  1.00 20.00     0.015 C 
HETATM   10  S11 UNL     1     -33.512  18.175  -4.750  1.00 20.00    -0.168 SA
ENDROOT
BRANCH   5  11
HETATM   11  C10 UNL     1     -35.936  14.012  -4.358  1.00 20.00     0.090 C 
HETATM   12 BR12 UNL     1     -37.645  14.817  -3.866  1.00 20.00    -0.096 Br
ENDBRANCH   5  11
TORSDOF 1
ENDMDL
MODEL 9
REMARK VINA RESULT:      -4.2      2.669      4.427
REMARK  1 active torsions:
REMARK  status: ('A' for Active; 'I' for Inactive)
REMARK    1  A    between atoms: C5_5  and  C10_10 
ROOT
HETATM    1  C1  UNL     1     -33.592  17.562  -5.640  1.00 20.00     0.017 A 
HETATM    2  C2  UNL     1     -33.727  17.928  -3.091  1.00 20.00     0.020 C 
HETATM    3  C3  UNL     1     -35.880  17.432  -4.438  1.00 20.00     0.083 C 
HETATM    4  C4  UNL     1     -35.948  18.254  -1.817  1.00 20.00     0.082 C 
HETATM    5  C5  UNL     1     -33.661  16.196  -5.026  1.00 20.00     0.005 A 
HETATM    6  C6  UNL     1     -34.372  17.367  -4.352  1.00 20.00    -0.026 A 
HETATM    7  C7  UNL     1     -34.521  17.643  -1.796  1.00 20.00    -0.038 C 
HETATM    8  C8  UNL     1     -34.601  16.122  -1.541  1.00 20.00     0.015 C 
HETATM    9  C9  UNL     1     -33.743  18.261  -0.613  1.00 20.00     0.015 C 
HETATM   10  S11 UNL     1     -36.564  18.776  -3.452  1.00 20.00    -0.168 SA
ENDROOT
BRANCH   5  11
HETATM   11  C10 UNL     1     -34.395  15.102  -5.724  1.00 20.00     0.090 C 
HETATM   12 BR12 UNL     1     -34.552  13.539  -4.565  1.00 20.00    -0.096 Br
ENDBRANCH   5  11
TORSDOF 1
ENDMDL
