MODEL 1
REMARK VINA RESULT:      -4.4      0.000      0.000
REMARK  2 active torsions:
REMARK  status: ('A' for Active; 'I' for Inactive)
REMARK    1  A    between atoms: C3_3  and  O9_9 
REMARK    2  A    between atoms: C4_4  and  C8_8 
ROOT
HETATM    1  C1  UNL     1     -34.839  14.214  -5.924  1.00 20.00     0.037 C 
HETATM    2  C2  UNL     1     -34.566  15.625  -5.352  1.00 20.00    -0.006 C 
HETATM    3  C3  UNL     1     -34.529  13.640  -4.523  1.00 20.00     0.127 C 
HETATM    4  C4  UNL     1     -34.899  15.043  -3.930  1.00 20.00    -0.015 C 
HETATM    5  C5  UNL     1     -35.402  16.756  -5.923  1.00 20.00     0.011 C 
HETATM    6  C6  UNL     1     -36.351  15.176  -3.463  1.00 20.00     0.018 C 
ENDROOT
BRANCH   4   7
HETATM    7  C8  UNL     1     -33.936  15.517  -2.843  1.00 20.00     0.007 C 
HETATM    8  C7  UNL     1     -34.659  16.187  -1.721  1.00 20.00     0.006 C 
ENDBRANCH   4   7
BRANCH   3   9
HETATM    9  O9  UNL     1     -35.334  12.526  -4.096  1.00 20.00    -0.395 OA
HETATM   10  H25 UNL     1     -36.103  12.911  -3.655  1.00 20.00     0.210 HD
ENDBRANCH   3   9
TORSDOF 2
ENDMDL
MODEL 2
REMARK VINA RESULT:      -4.0      1.445      2.824
REMARK  2 active torsions:
REMARK  status: ('A' for Active; 'I' for Inactive)
REMARK    1  A    between atoms: C3_3  and  O9_9 
REMARK    2  A    between atoms: C4_4  and  C8_8 
ROOT
HETATM    1  C1  UNL     1     -33.798  14.634  -3.655  1.00 20.00     0.037 C 
HETATM    2  C2  UNL     1     -34.328  15.886  -4.395  1.00 20.00    -0.006 C 
HETATM    3  C3  UNL     1     -35.167  13.964  -3.913  1.00 20.00     0.127 C 
HETATM    4  C4  UNL     1     -35.353  14.942  -5.123  1.00 20.00    -0.015 C 
HETATM    5  C5  UNL     1     -33.310  16.669  -5.204  1.00 20.00     0.011 C 
HETATM    6  C6  UNL     1     -34.913  14.375  -6.476  1.00 20.00     0.018 C 
ENDROOT
BRANCH   4   7
HETATM    7  C8  UNL     1     -36.758  15.534  -5.217  1.00 20.00     0.007 C 
HETATM    8  C7  UNL     1     -37.330  15.381  -6.587  1.00 20.00     0.006 C 
ENDBRANCH   4   7
BRANCH   3   9
HETATM    9  O9  UNL     1     -35.142  12.557  -4.217  1.00 20.00    -0.395 OA
HETATM   10  H25 UNL     1     -35.168  12.496  -5.181  1.00 20.00     0.210 HD
ENDBRANCH   3   9
TORSDOF 2
ENDMDL
MODEL 3
REMARK VINA RESULT:      -4.0      1.753      3.323
REMARK  2 active torsions:
REMARK  status: ('A' for Active; 'I' for Inactive)
REMARK    1  A    between atoms: C3_3  and  O9_9 
REMARK    2  A    between atoms: C4_4  and  C8_8 
ROOT
HETATM    1  C1  UNL     1     -34.163  15.481  -2.701  1.00 20.00     0.037 C 
HETATM    2  C2  UNL     1     -35.266  15.674  -3.768  1.00 20.00    -0.006 C 
HETATM    3  C3  UNL     1     -33.407  14.592  -3.714  1.00 20.00     0.127 C 
HETATM    4  C4  UNL     1     -34.184  15.334  -4.856  1.00 20.00    -0.015 C 
HETATM    5  C5  UNL     1     -35.959  17.024  -3.783  1.00 20.00     0.011 C 
HETATM    6  C6  UNL     1     -33.437  16.523  -5.468  1.00 20.00     0.018 C 
ENDROOT
BRANCH   4   7
HETATM    7  C8  UNL     1     -34.699  14.398  -5.948  1.00 20.00     0.007 C 
HETATM    8  C7  UNL     1     -34.505  14.981  -7.309  1.00 20.00     0.006 C 
ENDBRANCH   4   7
BRANCH   3   9
HETATM    9  O9  UNL     1     -31.973  14.713  -3.725  1.00 20.00    -0.395 OA
HETATM   10  H25 UNL     1     -31.762  15.272  -4.484  1.00 20.00     0.210 HD
ENDBRANCH   3   9
TORSDOF 2
ENDMDL
MODEL 4
REMARK VINA RESULT:      -4.0      1.415      3.338
REMARK  2 active torsions:
REMARK  status: ('A' for Active; 'I' for Inactive)
REMARK    1  A    between atoms: C3_3  and  O9_9 
REMARK    2  A    between atoms: C4_4  and  C8_8 
ROOT
HETATM    1  C1  UNL     1     -34.750  15.652  -2.499  1.00 20.00     0.037 C 
HETATM    2  C2  UNL     1     -33.832  15.528  -3.739  1.00 20.00    -0.006 C 
HETATM    3  C3  UNL     1     -35.963  15.636  -3.458  1.00 20.00     0.127 C 
HETATM    4  C4  UNL     1     -35.054  14.899  -4.501  1.00 20.00    -0.015 C 
HETATM    5  C5  UNL     1     -32.558  14.723  -3.553  1.00 20.00     0.011 C 
HETATM    6  C6  UNL     1     -35.161  13.372  -4.474  1.00 20.00     0.018 C 
ENDROOT
BRANCH   4   7
HETATM    7  C8  UNL     1     -35.212  15.427  -5.926  1.00 20.00     0.007 C 
HETATM    8  C7  UNL     1     -35.286  14.316  -6.920  1.00 20.00     0.006 C 
ENDBRANCH   4   7
BRANCH   3   9
HETATM    9  O9  UNL     1     -37.129  14.927  -3.002  1.00 20.00    -0.395 OA
HETATM   10  H25 UNL     1     -37.044  14.873  -2.041  1.00 20.00     0.210 HD
ENDBRANCH   3   9
TORSDOF 2
ENDMDL
MODEL 5
REMARK VINA RESULT:      -3.9      1.858      2.067
REMARK  2 active torsions:
REMARK  status: ('A' for Active; 'I' for Inactive)
REMARK    1  A    between atoms: C3_3  and  O9_9 
REMARK    2  A    between atoms: C4_4  and  C8_8 
ROOT
HETATM    1  C1  UNL     1     -33.332  16.246  -5.141  1.00 20.00     0.037 C 
HETATM    2  C2  UNL     1     -34.020  17.328  -4.275  1.00 20.00    -0.006 C 
HETATM    3  C3  UNL     1     -32.853  15.575  -3.833  1.00 20.00     0.127 C 
HETATM    4  C4  UNL     1     -34.045  16.282  -3.102  1.00 20.00    -0.015 C 
HETATM    5  C5  UNL     1     -35.320  17.895  -4.815  1.00 20.00     0.011 C 
HETATM    6  C6  UNL     1     -35.312  15.431  -2.977  1.00 20.00     0.018 C 
ENDROOT
BRANCH   4   7
HETATM    7  C8  UNL     1     -33.660  16.881  -1.751  1.00 20.00     0.007 C 
HETATM    8  C7  UNL     1     -34.718  16.646  -0.723  1.00 20.00     0.006 C 
ENDBRANCH   4   7
BRANCH   3   9
HETATM    9  O9  UNL     1     -32.847  14.136  -3.818  1.00 20.00    -0.395 OA
HETATM   10  H25 UNL     1     -32.144  13.869  -4.424  1.00 20.00     0.210 HD
ENDBRANCH   3   9
TORSDOF 2
ENDMDL
MODEL 6
REMARK VINA RESULT:      -3.9      2.034      3.462
REMARK  2 active torsions:
REMARK  status: ('A' for Active; 'I' for Inactive)
REMARK    1  A    between atoms: C3_3  and  O9_9 
REMARK    2  A    between atoms: C4_4  and  C8_8 
ROOT
HETATM    1  C1  UNL     1     -33.788  17.586  -3.128  1.00 20.00     0.037 C 
HETATM    2  C2  UNL     1     -33.895  16.357  -2.194  1.00 20.00    -0.006 C 
HETATM    3  C3  UNL     1     -33.864  16.617  -4.329  1.00 20.00     0.127 C 
HETATM    4  C4  UNL     1     -34.580  15.593  -3.383  1.00 20.00    -0.015 C 
HETATM    5  C5  UNL     1     -34.647  16.566  -0.892  1.00 20.00     0.011 C 
HETATM    6  C6  UNL     1     -36.110  15.640  -3.432  1.00 20.00     0.018 C 
ENDROOT
BRANCH   4   7
HETATM    7  C8  UNL     1     -34.079  14.159  -3.548  1.00 20.00     0.007 C 
HETATM    8  C7  UNL     1     -35.081  13.302  -4.248  1.00 20.00     0.006 C 
ENDBRANCH   4   7
BRANCH   3   9
HETATM    9  O9  UNL     1     -34.611  17.073  -5.472  1.00 20.00    -0.395 OA
HETATM   10  H25 UNL     1     -35.459  17.381  -5.126  1.00 20.00     0.210 HD
ENDBRANCH   3   9
TORSDOF 2
ENDMDL
MODEL 7
REMARK VINA RESULT:      -3.8     11.780     13.010
REMARK  2 active torsions:
REMARK  status: ('A' for Active; 'I' for Inactive)
REMARK    1  A    between atoms: C3_3  and  O9_9 
REMARK    2  A    between atoms: C4_4  and  C8_8 
ROOT
HETATM    1  C1  UNL     1     -41.623   6.069   0.220  1.00 20.00     0.037 C 
HETATM    2  C2  UNL     1     -42.035   4.590   0.023  1.00 20.00    -0.006 C 
HETATM    3  C3  UNL     1     -40.836   5.974  -1.107  1.00 20.00     0.127 C 
HETATM    4  C4  UNL     1     -41.780   4.791  -1.514  1.00 20.00    -0.015 C 
HETATM    5  C5  UNL     1     -43.417   4.207   0.519  1.00 20.00     0.011 C 
HETATM    6  C6  UNL     1     -42.990   5.201  -2.357  1.00 20.00     0.018 C 
ENDROOT
BRANCH   4   7
HETATM    7  C8  UNL     1     -41.042   3.620  -2.161  1.00 20.00     0.007 C 
HETATM    8  C7  UNL     1     -41.946   2.814  -3.035  1.00 20.00     0.006 C 
ENDBRANCH   4   7
BRANCH   3   9
HETATM    9  O9  UNL     1     -40.862   7.140  -1.950  1.00 20.00    -0.395 OA
HETATM   10  H25 UNL     1     -39.954   7.470  -1.970  1.00 20.00     0.210 HD
ENDBRANCH   3   9
TORSDOF 2
ENDMDL
MODEL 8
REMARK VINA RESULT:      -3.8      1.895      2.193
REMARK  2 active torsions:
REMARK  status: ('A' for Active; 'I' for Inactive)
REMARK    1  A    between atoms: C3_3  and  O9_9 
REMARK    2  A    between atoms: C4_4  and  C8_8 
ROOT
HETATM    1  C1  UNL     1     -34.166  15.856  -5.973  1.00 20.00     0.037 C 
HETATM    2  C2  UNL     1     -35.456  16.127  -5.161  1.00 20.00    -0.006 C 
HETATM    3  C3  UNL     1     -33.354  16.265  -4.723  1.00 20.00     0.127 C 
HETATM    4  C4  UNL     1     -34.608  15.896  -3.858  1.00 20.00    -0.015 C 
HETATM    5  C5  UNL     1     -36.641  15.228  -5.463  1.00 20.00     0.011 C 
HETATM    6  C6  UNL     1     -34.599  14.472  -3.296  1.00 20.00     0.018 C 
ENDROOT
BRANCH   4   7
HETATM    7  C8  UNL     1     -34.906  16.911  -2.756  1.00 20.00     0.007 C 
HETATM    8  C7  UNL     1     -34.604  16.358  -1.402  1.00 20.00     0.006 C 
ENDBRANCH   4   7
BRANCH   3   9
HETATM    9  O9  UNL     1     -32.151  15.516  -4.469  1.00 20.00    -0.395 OA
HETATM   10  H25 UNL     1     -32.261  14.677  -4.935  1.00 20.00     0.210 HD
ENDBRANCH   3   9
TORSDOF 2
ENDMDL
MODEL 9
REMARK VINA RESULT:      -3.8      2.070      2.814
REMARK  2 active torsions:
REMARK  status: ('A' for Active; 'I' for Inactive)
REMARK    1  A    between atoms: C3_3  and  O9_9 
REMARK    2  A    between atoms: C4_4  and  C8_8 
ROOT
HETATM    1  C1  UNL     1     -34.348  15.404  -6.085  1.00 20.00     0.037 C 
HETATM    2  C2  UNL     1     -35.026  14.594  -4.954  1.00 20.00    -0.006 C 
HETATM    3  C3  UNL     1     -34.271  16.603  -5.113  1.00 20.00     0.127 C 
HETATM    4  C4  UNL     1     -34.347  15.575  -3.932  1.00 20.00    -0.015 C 
HETATM    5  C5  UNL     1     -34.710  13.110  -4.907  1.00 20.00     0.011 C 
HETATM    6  C6  UNL     1     -32.988  15.143  -3.374  1.00 20.00     0.018 C 
ENDROOT
BRANCH   4   7
HETATM    7  C8  UNL     1     -35.279  16.013  -2.804  1.00 20.00     0.007 C 
HETATM    8  C7  UNL     1     -34.527  16.297  -1.546  1.00 20.00     0.006 C 
ENDBRANCH   4   7
BRANCH   3   9
HETATM    9  O9  UNL     1     -33.084  17.413  -5.190  1.00 20.00    -0.395 OA
HETATM   10  H25 UNL     1     -32.819  17.578  -4.275  1.00 20.00     0.210 HD
ENDBRANCH   3   9
TORSDOF 2
ENDMDL
