MODEL 1
REMARK VINA RESULT:      -4.5      0.000      0.000
REMARK  2 active torsions:
REMARK  status: ('A' for Active; 'I' for Inactive)
REMARK    1  A    between atoms: C4_4  and  C8_8 
REMARK    2  A    between atoms: C8_8  and  O9_9 
ROOT
HETATM    1  C1  UNL     1     -36.308  15.045  -3.409  1.00 20.00     0.018 A 
HETATM    2  C2  UNL     1     -33.872  15.699  -2.763  1.00 20.00     0.025 C 
HETATM    3  C3  UNL     1     -35.274  17.354  -4.014  1.00 20.00     0.084 C 
HETATM    4  C4  UNL     1     -35.494  14.853  -4.654  1.00 20.00     0.019 A 
HETATM    5  C5  UNL     1     -33.760  16.900  -1.830  1.00 20.00     0.044 C 
HETATM    6  C6  UNL     1     -35.082  15.907  -3.639  1.00 20.00    -0.025 A 
HETATM    7  C7  UNL     1     -34.708  16.819  -0.639  1.00 20.00     0.021 C 
HETATM    8  S10 UNL     1     -34.203  18.304  -2.892  1.00 20.00    -0.164 SA
ENDROOT
BRANCH   4   9
HETATM    9  C8  UNL     1     -34.719  13.596  -4.855  1.00 20.00     0.169 C 
BRANCH   9  10
HETATM   10  O9  UNL     1     -35.360  12.517  -4.174  1.00 20.00    -0.400 OA
HETATM   11  H24 UNL     1     -36.303  12.736  -4.142  1.00 20.00     0.209 HD
ENDBRANCH   9  10
ENDBRANCH   4   9
TORSDOF 2
ENDMDL
MODEL 2
REMARK VINA RESULT:      -4.3      1.194      2.384
REMARK  2 active torsions:
REMARK  status: ('A' for Active; 'I' for Inactive)
REMARK    1  A    between atoms: C4_4  and  C8_8 
REMARK    2  A    between atoms: C8_8  and  O9_9 
ROOT
HETATM    1  C1  UNL     1     -32.717  15.137  -3.733  1.00 20.00     0.018 A 
HETATM    2  C2  UNL     1     -34.897  16.371  -4.441  1.00 20.00     0.025 C 
HETATM    3  C3  UNL     1     -34.340  16.206  -2.005  1.00 20.00     0.084 C 
HETATM    4  C4  UNL     1     -33.830  14.157  -3.505  1.00 20.00     0.019 A 
HETATM    5  C5  UNL     1     -34.949  17.846  -4.056  1.00 20.00     0.044 C 
HETATM    6  C6  UNL     1     -34.101  15.647  -3.383  1.00 20.00    -0.025 A 
HETATM    7  C7  UNL     1     -33.675  18.600  -4.417  1.00 20.00     0.021 C 
HETATM    8  S10 UNL     1     -35.167  17.806  -2.254  1.00 20.00    -0.164 SA
ENDROOT
BRANCH   4   9
HETATM    9  C8  UNL     1     -34.353  13.341  -4.638  1.00 20.00     0.169 C 
BRANCH   9  10
HETATM   10  O9  UNL     1     -35.443  12.534  -4.192  1.00 20.00    -0.400 OA
HETATM   11  H24 UNL     1     -35.931  12.270  -4.987  1.00 20.00     0.209 HD
ENDBRANCH   9  10
ENDBRANCH   4   9
TORSDOF 2
ENDMDL
MODEL 3
REMARK VINA RESULT:      -3.9      1.684      2.787
REMARK  2 active torsions:
REMARK  status: ('A' for Active; 'I' for Inactive)
REMARK    1  A    between atoms: C4_4  and  C8_8 
REMARK    2  A    between atoms: C8_8  and  O9_9 
ROOT
HETATM    1  C1  UNL     1     -33.436  15.706  -3.302  1.00 20.00     0.018 A 
HETATM    2  C2  UNL     1     -34.627  16.104  -5.584  1.00 20.00     0.025 C 
HETATM    3  C3  UNL     1     -35.740  16.900  -3.486  1.00 20.00     0.084 C 
HETATM    4  C4  UNL     1     -34.483  14.636  -3.405  1.00 20.00     0.019 A 
HETATM    5  C5  UNL     1     -34.848  17.570  -5.940  1.00 20.00     0.044 C 
HETATM    6  C6  UNL     1     -34.708  15.979  -4.083  1.00 20.00    -0.025 A 
HETATM    7  C7  UNL     1     -33.602  18.425  -5.744  1.00 20.00     0.021 C 
HETATM    8  S10 UNL     1     -36.155  18.092  -4.795  1.00 20.00    -0.164 SA
ENDROOT
BRANCH   4   9
HETATM    9  C8  UNL     1     -34.207  13.391  -4.177  1.00 20.00     0.169 C 
BRANCH   9  10
HETATM   10  O9  UNL     1     -35.355  12.542  -4.154  1.00 20.00    -0.400 OA
HETATM   11  H24 UNL     1     -35.901  12.802  -4.911  1.00 20.00     0.209 HD
ENDBRANCH   9  10
ENDBRANCH   4   9
TORSDOF 2
ENDMDL
MODEL 4
REMARK VINA RESULT:      -3.8     12.570     13.613
REMARK  2 active torsions:
REMARK  status: ('A' for Active; 'I' for Inactive)
REMARK    1  A    between atoms: C4_4  and  C8_8 
REMARK    2  A    between atoms: C8_8  and  O9_9 
ROOT
HETATM    1  C1  UNL     1     -43.414   3.283  -2.102  1.00 20.00     0.018 A 
HETATM    2  C2  UNL     1     -41.038   4.270  -1.702  1.00 20.00     0.025 C 
HETATM    3  C3  UNL     1     -42.736   5.662  -2.906  1.00 20.00     0.084 C 
HETATM    4  C4  UNL     1     -42.684   3.120  -3.402  1.00 20.00     0.019 A 
HETATM    5  C5  UNL     1     -41.007   5.528  -0.842  1.00 20.00     0.044 C 
HETATM    6  C6  UNL     1     -42.331   4.275  -2.479  1.00 20.00    -0.025 A 
HETATM    7  C7  UNL     1     -41.838   5.402   0.429  1.00 20.00     0.021 C 
HETATM    8  S10 UNL     1     -41.709   6.801  -1.929  1.00 20.00    -0.164 SA
ENDROOT
BRANCH   4   9
HETATM    9  C8  UNL     1     -41.773   1.958  -3.608  1.00 20.00     0.169 C 
BRANCH   9  10
HETATM   10  O9  UNL     1     -41.867   1.501  -4.957  1.00 20.00    -0.400 OA
HETATM   11  H24 UNL     1     -42.592   1.998  -5.364  1.00 20.00     0.209 HD
ENDBRANCH   9  10
ENDBRANCH   4   9
TORSDOF 2
ENDMDL
MODEL 5
REMARK VINA RESULT:      -3.8      2.754      3.720
REMARK  2 active torsions:
REMARK  status: ('A' for Active; 'I' for Inactive)
REMARK    1  A    between atoms: C4_4  and  C8_8 
REMARK    2  A    between atoms: C8_8  and  O9_9 
ROOT
HETATM    1  C1  UNL     1     -35.160  13.392  -4.265  1.00 20.00     0.018 A 
HETATM    2  C2  UNL     1     -36.232  15.760  -4.106  1.00 20.00     0.025 C 
HETATM    3  C3  UNL     1     -35.985  14.696  -6.360  1.00 20.00     0.084 C 
HETATM    4  C4  UNL     1     -34.074  14.355  -4.643  1.00 20.00     0.019 A 
HETATM    5  C5  UNL     1     -37.673  15.842  -4.598  1.00 20.00     0.044 C 
HETATM    6  C6  UNL     1     -35.525  14.708  -4.924  1.00 20.00    -0.025 A 
HETATM    7  C7  UNL     1     -38.556  14.732  -4.040  1.00 20.00     0.021 C 
HETATM    8  S10 UNL     1     -37.516  15.676  -6.398  1.00 20.00    -0.164 SA
ENDROOT
BRANCH   4   9
HETATM    9  C8  UNL     1     -33.278  15.040  -3.585  1.00 20.00     0.169 C 
BRANCH   9  10
HETATM   10  O9  UNL     1     -31.903  14.671  -3.698  1.00 20.00    -0.400 OA
HETATM   11  H24 UNL     1     -31.770  13.926  -3.093  1.00 20.00     0.209 HD
ENDBRANCH   9  10
ENDBRANCH   4   9
TORSDOF 2
ENDMDL
MODEL 6
REMARK VINA RESULT:      -3.7      2.522      3.446
REMARK  2 active torsions:
REMARK  status: ('A' for Active; 'I' for Inactive)
REMARK    1  A    between atoms: C4_4  and  C8_8 
REMARK    2  A    between atoms: C8_8  and  O9_9 
ROOT
HETATM    1  C1  UNL     1     -36.802  15.237  -5.415  1.00 20.00     0.018 A 
HETATM    2  C2  UNL     1     -35.234  15.878  -3.437  1.00 20.00     0.025 C 
HETATM    3  C3  UNL     1     -35.244  13.510  -4.251  1.00 20.00     0.084 C 
HETATM    4  C4  UNL     1     -37.505  14.773  -4.173  1.00 20.00     0.019 A 
HETATM    5  C5  UNL     1     -33.747  15.687  -3.715  1.00 20.00     0.044 C 
HETATM    6  C6  UNL     1     -35.986  14.821  -4.207  1.00 20.00    -0.025 A 
HETATM    7  C7  UNL     1     -33.312  16.270  -5.054  1.00 20.00     0.021 C 
HETATM    8  S10 UNL     1     -33.546  13.883  -3.719  1.00 20.00    -0.164 SA
ENDROOT
BRANCH   4   9
HETATM    9  C8  UNL     1     -38.315  15.731  -3.368  1.00 20.00     0.169 C 
BRANCH   9  10
HETATM   10  O9  UNL     1     -39.153  15.015  -2.461  1.00 20.00    -0.400 OA
HETATM   11  H24 UNL     1     -39.660  15.682  -1.974  1.00 20.00     0.209 HD
ENDBRANCH   9  10
ENDBRANCH   4   9
TORSDOF 2
ENDMDL
MODEL 7
REMARK VINA RESULT:      -3.7      2.579      4.016
REMARK  2 active torsions:
REMARK  status: ('A' for Active; 'I' for Inactive)
REMARK    1  A    between atoms: C4_4  and  C8_8 
REMARK    2  A    between atoms: C8_8  and  O9_9 
ROOT
HETATM    1  C1  UNL     1     -33.294  15.130  -3.441  1.00 20.00     0.018 A 
HETATM    2  C2  UNL     1     -35.521  15.891  -4.553  1.00 20.00     0.025 C 
HETATM    3  C3  UNL     1     -33.410  17.115  -5.118  1.00 20.00     0.084 C 
HETATM    4  C4  UNL     1     -33.741  16.336  -2.669  1.00 20.00     0.019 A 
HETATM    5  C5  UNL     1     -35.546  15.777  -6.074  1.00 20.00     0.044 C 
HETATM    6  C6  UNL     1     -34.105  16.204  -4.139  1.00 20.00    -0.025 A 
HETATM    7  C7  UNL     1     -35.040  14.431  -6.578  1.00 20.00     0.021 C 
HETATM    8  S10 UNL     1     -34.439  17.109  -6.617  1.00 20.00    -0.164 SA
ENDROOT
BRANCH   4   9
HETATM    9  C8  UNL     1     -34.751  16.197  -1.582  1.00 20.00     0.169 C 
BRANCH   9  10
HETATM   10  O9  UNL     1     -34.336  16.940  -0.435  1.00 20.00    -0.400 OA
HETATM   11  H24 UNL     1     -34.553  16.395   0.336  1.00 20.00     0.209 HD
ENDBRANCH   9  10
ENDBRANCH   4   9
TORSDOF 2
ENDMDL
MODEL 8
REMARK VINA RESULT:      -3.7      2.281      3.556
REMARK  2 active torsions:
REMARK  status: ('A' for Active; 'I' for Inactive)
REMARK    1  A    between atoms: C4_4  and  C8_8 
REMARK    2  A    between atoms: C8_8  and  O9_9 
ROOT
HETATM    1  C1  UNL     1     -33.483  15.830  -4.579  1.00 20.00     0.018 A 
HETATM    2  C2  UNL     1     -35.242  15.527  -6.475  1.00 20.00     0.025 C 
HETATM    3  C3  UNL     1     -35.857  16.889  -4.466  1.00 20.00     0.084 C 
HETATM    4  C4  UNL     1     -34.422  14.764  -4.095  1.00 20.00     0.019 A 
HETATM    5  C5  UNL     1     -35.677  16.821  -7.154  1.00 20.00     0.044 C 
HETATM    6  C6  UNL     1     -34.930  15.846  -5.034  1.00 20.00    -0.025 A 
HETATM    7  C7  UNL     1     -34.503  17.710  -7.546  1.00 20.00     0.021 C 
HETATM    8  S10 UNL     1     -36.694  17.640  -5.894  1.00 20.00    -0.164 SA
ENDROOT
BRANCH   4   9
HETATM    9  C8  UNL     1     -34.239  13.351  -4.532  1.00 20.00     0.169 C 
BRANCH   9  10
HETATM   10  O9  UNL     1     -35.342  12.559  -4.088  1.00 20.00    -0.400 OA
HETATM   11  H24 UNL     1     -34.988  11.675  -3.909  1.00 20.00     0.209 HD
ENDBRANCH   9  10
ENDBRANCH   4   9
TORSDOF 2
ENDMDL
MODEL 9
REMARK VINA RESULT:      -3.6      2.164      2.990
REMARK  2 active torsions:
REMARK  status: ('A' for Active; 'I' for Inactive)
REMARK    1  A    between atoms: C4_4  and  C8_8 
REMARK    2  A    between atoms: C8_8  and  O9_9 
ROOT
HETATM    1  C1  UNL     1     -34.519  14.748  -5.981  1.00 20.00     0.018 A 
HETATM    2  C2  UNL     1     -35.667  16.510  -4.445  1.00 20.00     0.025 C 
HETATM    3  C3  UNL     1     -33.388  17.006  -5.357  1.00 20.00     0.084 C 
HETATM    4  C4  UNL     1     -33.897  14.573  -4.627  1.00 20.00     0.019 A 
HETATM    5  C5  UNL     1     -35.933  17.857  -5.109  1.00 20.00     0.044 C 
HETATM    6  C6  UNL     1     -34.408  15.940  -5.050  1.00 20.00    -0.025 A 
HETATM    7  C7  UNL     1     -36.583  17.727  -6.481  1.00 20.00     0.021 C 
HETATM    8  S10 UNL     1     -34.279  18.588  -5.263  1.00 20.00    -0.164 SA
ENDROOT
BRANCH   4   9
HETATM    9  C8  UNL     1     -34.583  13.752  -3.589  1.00 20.00     0.169 C 
BRANCH   9  10
HETATM   10  O9  UNL     1     -35.169  12.598  -4.191  1.00 20.00    -0.400 OA
HETATM   11  H24 UNL     1     -34.629  11.842  -3.914  1.00 20.00     0.209 HD
ENDBRANCH   9  10
ENDBRANCH   4   9
TORSDOF 2
ENDMDL
