MODEL 1
REMARK VINA RESULT:      -4.0      0.000      0.000
REMARK  2 active torsions:
REMARK  status: ('A' for Active; 'I' for Inactive)
REMARK    1  A    between atoms: C4_4  and  C6_6 
REMARK    2  A    between atoms: C7_7  and  C8_8 
ROOT
HETATM    1  C1  UNL     1     -34.413  16.128  -1.814  1.00 20.00     0.034 A 
HETATM    2  C2  UNL     1     -34.112  17.468  -1.880  1.00 20.00     0.142 A 
HETATM    3  C3  UNL     1     -33.586  16.635  -3.823  1.00 20.00     0.148 A 
HETATM    4  C4  UNL     1     -34.072  15.586  -3.077  1.00 20.00    -0.029 A 
HETATM    5  O9  UNL     1     -33.607  17.786  -3.100  1.00 20.00    -0.334 OA
ENDROOT
BRANCH   4   6
HETATM    6  C6  UNL     1     -34.212  14.122  -3.526  1.00 20.00     0.026 A 
HETATM    7  C5  UNL     1     -34.360  13.833  -5.005  1.00 20.00     0.016 A 
HETATM    8  C7  UNL     1     -35.525  13.608  -4.089  1.00 20.00     0.005 A 
BRANCH   8   9
HETATM    9  C8  UNL     1     -36.738  14.468  -4.200  1.00 20.00     0.090 C 
HETATM   10 BR10 UNL     1     -36.783  15.362  -5.934  1.00 20.00    -0.096 Br
ENDBRANCH   8   9
ENDBRANCH   4   6
TORSDOF 2
ENDMDL
MODEL 2
REMARK VINA RESULT:      -4.0      2.069      3.741
REMARK  2 active torsions:
REMARK  status: ('A' for Active; 'I' for Inactive)
REMARK    1  A    between atoms: C4_4  and  C6_6 
REMARK    2  A    between atoms: C7_7  and  C8_8 
ROOT
HETATM    1  C1  UNL     1     -35.530  14.390  -3.804  1.00 20.00     0.034 A 
HETATM    2  C2  UNL     1     -35.212  13.292  -4.568  1.00 20.00     0.142 A 
HETATM    3  C3  UNL     1     -33.348  13.950  -3.652  1.00 20.00     0.148 A 
HETATM    4  C4  UNL     1     -34.319  14.818  -3.208  1.00 20.00    -0.029 A 
HETATM    5  O9  UNL     1     -33.884  13.017  -4.482  1.00 20.00    -0.334 OA
ENDROOT
BRANCH   4   6
HETATM    6  C6  UNL     1     -34.124  16.013  -2.259  1.00 20.00     0.026 A 
HETATM    7  C5  UNL     1     -35.203  17.073  -2.202  1.00 20.00     0.016 A 
HETATM    8  C7  UNL     1     -33.873  17.404  -2.810  1.00 20.00     0.005 A 
BRANCH   8   9
HETATM    9  C8  UNL     1     -33.769  17.679  -4.272  1.00 20.00     0.090 C 
HETATM   10 BR10 UNL     1     -35.490  18.268  -4.979  1.00 20.00    -0.096 Br
ENDBRANCH   8   9
ENDBRANCH   4   6
TORSDOF 2
ENDMDL
MODEL 3
REMARK VINA RESULT:      -3.9      2.734      4.008
REMARK  2 active torsions:
REMARK  status: ('A' for Active; 'I' for Inactive)
REMARK    1  A    between atoms: C4_4  and  C6_6 
REMARK    2  A    between atoms: C7_7  and  C8_8 
ROOT
HETATM    1  C1  UNL     1     -34.328  15.125  -7.333  1.00 20.00     0.034 A 
HETATM    2  C2  UNL     1     -35.102  16.141  -7.844  1.00 20.00     0.142 A 
HETATM    3  C3  UNL     1     -36.139  15.429  -6.066  1.00 20.00     0.148 A 
HETATM    4  C4  UNL     1     -35.001  14.663  -6.177  1.00 20.00    -0.029 A 
HETATM    5  O9  UNL     1     -36.207  16.332  -7.079  1.00 20.00    -0.334 OA
ENDROOT
BRANCH   4   6
HETATM    6  C6  UNL     1     -34.557  13.530  -5.235  1.00 20.00     0.026 A 
HETATM    7  C5  UNL     1     -35.110  13.506  -3.826  1.00 20.00     0.016 A 
HETATM    8  C7  UNL     1     -33.661  13.822  -4.046  1.00 20.00     0.005 A 
BRANCH   8   9
HETATM    9  C8  UNL     1     -33.141  15.189  -3.751  1.00 20.00     0.090 C 
HETATM   10 BR10 UNL     1     -34.265  16.072  -2.422  1.00 20.00    -0.096 Br
ENDBRANCH   8   9
ENDBRANCH   4   6
TORSDOF 2
ENDMDL
MODEL 4
REMARK VINA RESULT:      -3.9      3.594      4.713
REMARK  2 active torsions:
REMARK  status: ('A' for Active; 'I' for Inactive)
REMARK    1  A    between atoms: C4_4  and  C6_6 
REMARK    2  A    between atoms: C7_7  and  C8_8 
ROOT
HETATM    1  C1  UNL     1     -34.227  17.460  -3.923  1.00 20.00     0.034 A 
HETATM    2  C2  UNL     1     -33.476  17.103  -5.018  1.00 20.00     0.142 A 
HETATM    3  C3  UNL     1     -32.966  15.682  -3.447  1.00 20.00     0.148 A 
HETATM    4  C4  UNL     1     -33.896  16.537  -2.902  1.00 20.00    -0.029 A 
HETATM    5  O9  UNL     1     -32.705  16.021  -4.737  1.00 20.00    -0.334 OA
ENDROOT
BRANCH   4   6
HETATM    6  C6  UNL     1     -34.458  16.496  -1.470  1.00 20.00     0.026 A 
HETATM    7  C5  UNL     1     -35.411  17.590  -1.038  1.00 20.00     0.016 A 
HETATM    8  C7  UNL     1     -34.035  17.533  -0.445  1.00 20.00     0.005 A 
BRANCH   8   9
HETATM    9  C8  UNL     1     -33.045  18.604  -0.752  1.00 20.00     0.090 C 
HETATM   10 BR10 UNL     1     -31.942  18.981   0.814  1.00 20.00    -0.096 Br
ENDBRANCH   8   9
ENDBRANCH   4   6
TORSDOF 2
ENDMDL
MODEL 5
REMARK VINA RESULT:      -3.8      2.937      4.232
REMARK  2 active torsions:
REMARK  status: ('A' for Active; 'I' for Inactive)
REMARK    1  A    between atoms: C4_4  and  C6_6 
REMARK    2  A    between atoms: C7_7  and  C8_8 
ROOT
HETATM    1  C1  UNL     1     -33.506  14.580  -3.896  1.00 20.00     0.034 A 
HETATM    2  C2  UNL     1     -33.692  13.231  -4.092  1.00 20.00     0.142 A 
HETATM    3  C3  UNL     1     -35.684  14.110  -4.008  1.00 20.00     0.148 A 
HETATM    4  C4  UNL     1     -34.799  15.152  -3.843  1.00 20.00    -0.029 A 
HETATM    5  O9  UNL     1     -35.016  12.936  -4.160  1.00 20.00    -0.334 OA
ENDROOT
BRANCH   4   6
HETATM    6  C6  UNL     1     -35.150  16.635  -3.638  1.00 20.00     0.026 A 
HETATM    7  C5  UNL     1     -34.032  17.601  -3.305  1.00 20.00     0.016 A 
HETATM    8  C7  UNL     1     -35.056  17.268  -2.262  1.00 20.00     0.005 A 
BRANCH   8   9
HETATM    9  C8  UNL     1     -34.662  16.494  -1.050  1.00 20.00     0.090 C 
HETATM   10 BR10 UNL     1     -35.011  17.532   0.566  1.00 20.00    -0.096 Br
ENDBRANCH   8   9
ENDBRANCH   4   6
TORSDOF 2
ENDMDL
MODEL 6
REMARK VINA RESULT:      -3.8      1.653      2.114
REMARK  2 active torsions:
REMARK  status: ('A' for Active; 'I' for Inactive)
REMARK    1  A    between atoms: C4_4  and  C6_6 
REMARK    2  A    between atoms: C7_7  and  C8_8 
ROOT
HETATM    1  C1  UNL     1     -34.710  16.008  -2.292  1.00 20.00     0.034 A 
HETATM    2  C2  UNL     1     -35.471  17.121  -2.020  1.00 20.00     0.142 A 
HETATM    3  C3  UNL     1     -36.659  15.893  -3.371  1.00 20.00     0.148 A 
HETATM    4  C4  UNL     1     -35.482  15.210  -3.170  1.00 20.00    -0.029 A 
HETATM    5  O9  UNL     1     -36.660  17.060  -2.674  1.00 20.00    -0.334 OA
ENDROOT
BRANCH   4   6
HETATM    6  C6  UNL     1     -35.087  13.854  -3.780  1.00 20.00     0.026 A 
HETATM    7  C5  UNL     1     -33.618  13.562  -3.997  1.00 20.00     0.016 A 
HETATM    8  C7  UNL     1     -34.512  13.776  -5.182  1.00 20.00     0.005 A 
BRANCH   8   9
HETATM    9  C8  UNL     1     -34.335  14.981  -6.043  1.00 20.00     0.090 C 
HETATM   10 BR10 UNL     1     -35.299  14.763  -7.726  1.00 20.00    -0.096 Br
ENDBRANCH   8   9
ENDBRANCH   4   6
TORSDOF 2
ENDMDL
MODEL 7
REMARK VINA RESULT:      -3.8      0.622      1.175
REMARK  2 active torsions:
REMARK  status: ('A' for Active; 'I' for Inactive)
REMARK    1  A    between atoms: C4_4  and  C6_6 
REMARK    2  A    between atoms: C7_7  and  C8_8 
ROOT
HETATM    1  C1  UNL     1     -33.710  16.776  -3.788  1.00 20.00     0.034 A 
HETATM    2  C2  UNL     1     -33.807  17.870  -2.960  1.00 20.00     0.142 A 
HETATM    3  C3  UNL     1     -34.466  16.160  -1.782  1.00 20.00     0.148 A 
HETATM    4  C4  UNL     1     -34.138  15.665  -3.023  1.00 20.00    -0.029 A 
HETATM    5  O9  UNL     1     -34.267  17.504  -1.736  1.00 20.00    -0.334 OA
ENDROOT
BRANCH   4   6
HETATM    6  C6  UNL     1     -34.223  14.200  -3.483  1.00 20.00     0.026 A 
HETATM    7  C5  UNL     1     -34.329  13.915  -4.966  1.00 20.00     0.016 A 
HETATM    8  C7  UNL     1     -35.507  13.650  -4.077  1.00 20.00     0.005 A 
BRANCH   8   9
HETATM    9  C8  UNL     1     -36.743  14.473  -4.211  1.00 20.00     0.090 C 
HETATM   10 BR10 UNL     1     -36.794  15.345  -5.957  1.00 20.00    -0.096 Br
ENDBRANCH   8   9
ENDBRANCH   4   6
TORSDOF 2
ENDMDL
MODEL 8
REMARK VINA RESULT:      -3.8     10.947     11.810
REMARK  2 active torsions:
REMARK  status: ('A' for Active; 'I' for Inactive)
REMARK    1  A    between atoms: C4_4  and  C6_6 
REMARK    2  A    between atoms: C7_7  and  C8_8 
ROOT
HETATM    1  C1  UNL     1     -34.452   5.373   3.100  1.00 20.00     0.034 A 
HETATM    2  C2  UNL     1     -35.502   5.234   3.977  1.00 20.00     0.142 A 
HETATM    3  C3  UNL     1     -33.881   6.143   5.114  1.00 20.00     0.148 A 
HETATM    4  C4  UNL     1     -33.399   5.964   3.838  1.00 20.00    -0.029 A 
HETATM    5  O9  UNL     1     -35.162   5.700   5.207  1.00 20.00    -0.334 OA
ENDROOT
BRANCH   4   6
HETATM    6  C6  UNL     1     -31.996   6.331   3.322  1.00 20.00     0.026 A 
HETATM    7  C5  UNL     1     -31.294   7.525   3.932  1.00 20.00     0.016 A 
HETATM    8  C7  UNL     1     -31.777   7.597   2.514  1.00 20.00     0.005 A 
BRANCH   8   9
HETATM    9  C8  UNL     1     -32.893   8.518   2.151  1.00 20.00     0.090 C 
HETATM   10 BR10 UNL     1     -32.449   9.521   0.537  1.00 20.00    -0.096 Br
ENDBRANCH   8   9
ENDBRANCH   4   6
TORSDOF 2
ENDMDL
MODEL 9
REMARK VINA RESULT:      -3.8      2.726      3.683
REMARK  2 active torsions:
REMARK  status: ('A' for Active; 'I' for Inactive)
REMARK    1  A    between atoms: C4_4  and  C6_6 
REMARK    2  A    between atoms: C7_7  and  C8_8 
ROOT
HETATM    1  C1  UNL     1     -35.394  14.860  -6.972  1.00 20.00     0.034 A 
HETATM    2  C2  UNL     1     -35.361  15.985  -7.763  1.00 20.00     0.142 A 
HETATM    3  C3  UNL     1     -33.871  16.299  -6.205  1.00 20.00     0.148 A 
HETATM    4  C4  UNL     1     -34.426  15.063  -5.960  1.00 20.00    -0.029 A 
HETATM    5  O9  UNL     1     -34.437  16.867  -7.302  1.00 20.00    -0.334 OA
ENDROOT
BRANCH   4   6
HETATM    6  C6  UNL     1     -34.065  14.102  -4.814  1.00 20.00     0.026 A 
HETATM    7  C5  UNL     1     -35.159  13.232  -4.232  1.00 20.00     0.016 A 
HETATM    8  C7  UNL     1     -34.584  14.346  -3.409  1.00 20.00     0.005 A 
BRANCH   8   9
HETATM    9  C8  UNL     1     -35.426  15.527  -3.060  1.00 20.00     0.090 C 
HETATM   10 BR10 UNL     1     -34.664  16.481  -1.538  1.00 20.00    -0.096 Br
ENDBRANCH   8   9
ENDBRANCH   4   6
TORSDOF 2
ENDMDL
