MODEL 1
REMARK VINA RESULT:      -4.3      0.000      0.000
REMARK  0 active torsions:
REMARK  status: ('A' for Active; 'I' for Inactive)
ROOT
HETATM    1  C1  UNL     1     -35.962  14.809  -7.284  1.00 20.00     0.006 C 
HETATM    2  C2  UNL     1     -34.932  14.205  -6.314  1.00 20.00     0.038 C 
HETATM    3  C3  UNL     1     -36.732  15.324  -6.057  1.00 20.00     0.038 C 
HETATM    4  C4  UNL     1     -33.081  15.294  -3.785  1.00 20.00     0.042 C 
HETATM    5  C5  UNL     1     -35.582  14.756  -3.823  1.00 20.00     0.053 C 
HETATM    6  C6  UNL     1     -33.305  16.437  -4.775  1.00 20.00     0.170 C 
HETATM    7  C7  UNL     1     -34.327  14.969  -2.971  1.00 20.00     0.062 C 
HETATM    8  C8  UNL     1     -35.395  15.261  -5.257  1.00 20.00     0.062 C 
HETATM    9  O9  UNL     1     -34.649  16.502  -5.248  1.00 20.00    -0.380 OA
HETATM   10 BR10 UNL     1     -34.644  16.420  -1.678  1.00 20.00    -0.091 Br
ENDROOT
TORSDOF 0
ENDMDL
MODEL 2
REMARK VINA RESULT:      -4.3      1.779      2.523
REMARK  0 active torsions:
REMARK  status: ('A' for Active; 'I' for Inactive)
ROOT
HETATM    1  C1  UNL     1     -34.817  13.663  -5.584  1.00 20.00     0.006 C 
HETATM    2  C2  UNL     1     -34.512  15.162  -5.414  1.00 20.00     0.038 C 
HETATM    3  C3  UNL     1     -34.368  13.465  -4.127  1.00 20.00     0.038 C 
HETATM    4  C4  UNL     1     -35.361  17.564  -3.290  1.00 20.00     0.042 C 
HETATM    5  C5  UNL     1     -33.683  15.661  -2.966  1.00 20.00     0.053 C 
HETATM    6  C6  UNL     1     -36.502  16.552  -3.388  1.00 20.00     0.170 C 
HETATM    7  C7  UNL     1     -34.172  17.035  -2.499  1.00 20.00     0.062 C 
HETATM    8  C8  UNL     1     -34.703  14.967  -3.875  1.00 20.00     0.062 C 
HETATM    9  O9  UNL     1     -36.043  15.201  -3.378  1.00 20.00    -0.380 OA
HETATM   10 BR10 UNL     1     -34.656  16.953  -0.593  1.00 20.00    -0.091 Br
ENDROOT
TORSDOF 0
ENDMDL
MODEL 3
REMARK VINA RESULT:      -4.2      2.463      3.969
REMARK  0 active torsions:
REMARK  status: ('A' for Active; 'I' for Inactive)
ROOT
HETATM    1  C1  UNL     1     -34.269  18.032  -1.099  1.00 20.00     0.006 C 
HETATM    2  C2  UNL     1     -34.884  17.957  -2.507  1.00 20.00     0.038 C 
HETATM    3  C3  UNL     1     -34.590  16.537  -0.941  1.00 20.00     0.038 C 
HETATM    4  C4  UNL     1     -34.472  16.085  -5.215  1.00 20.00     0.042 C 
HETATM    5  C5  UNL     1     -35.677  15.502  -3.035  1.00 20.00     0.053 C 
HETATM    6  C6  UNL     1     -33.145  16.184  -4.463  1.00 20.00     0.170 C 
HETATM    7  C7  UNL     1     -35.476  15.177  -4.517  1.00 20.00     0.062 C 
HETATM    8  C8  UNL     1     -34.577  16.424  -2.495  1.00 20.00     0.062 C 
HETATM    9  O9  UNL     1     -33.297  16.039  -3.053  1.00 20.00    -0.380 OA
HETATM   10 BR10 UNL     1     -34.890  13.307  -4.711  1.00 20.00    -0.091 Br
ENDROOT
TORSDOF 0
ENDMDL
MODEL 4
REMARK VINA RESULT:      -4.1      2.440      3.875
REMARK  0 active torsions:
REMARK  status: ('A' for Active; 'I' for Inactive)
ROOT
HETATM    1  C1  UNL     1     -34.529  16.433  -1.485  1.00 20.00     0.006 C 
HETATM    2  C2  UNL     1     -33.779  15.930  -2.730  1.00 20.00     0.038 C 
HETATM    3  C3  UNL     1     -35.587  17.023  -2.431  1.00 20.00     0.038 C 
HETATM    4  C4  UNL     1     -34.510  14.115  -5.409  1.00 20.00     0.042 C 
HETATM    5  C5  UNL     1     -35.105  16.554  -4.917  1.00 20.00     0.053 C 
HETATM    6  C6  UNL     1     -35.381  13.659  -4.239  1.00 20.00     0.170 C 
HETATM    7  C7  UNL     1     -34.946  15.460  -5.977  1.00 20.00     0.062 C 
HETATM    8  C8  UNL     1     -35.140  15.978  -3.498  1.00 20.00     0.062 C 
HETATM    9  O9  UNL     1     -35.907  14.750  -3.485  1.00 20.00    -0.380 OA
HETATM   10 BR10 UNL     1     -36.643  15.226  -6.947  1.00 20.00    -0.091 Br
ENDROOT
TORSDOF 0
ENDMDL
MODEL 5
REMARK VINA RESULT:      -4.1      2.785      4.134
REMARK  0 active torsions:
REMARK  status: ('A' for Active; 'I' for Inactive)
ROOT
HETATM    1  C1  UNL     1     -35.112  17.348  -0.604  1.00 20.00     0.006 C 
HETATM    2  C2  UNL     1     -33.816  16.915  -1.310  1.00 20.00     0.038 C 
HETATM    3  C3  UNL     1     -35.631  17.823  -1.972  1.00 20.00     0.038 C 
HETATM    4  C4  UNL     1     -33.009  15.021  -3.911  1.00 20.00     0.042 C 
HETATM    5  C5  UNL     1     -33.973  17.391  -3.895  1.00 20.00     0.053 C 
HETATM    6  C6  UNL     1     -34.293  14.487  -3.278  1.00 20.00     0.170 C 
HETATM    7  C7  UNL     1     -33.230  16.312  -4.689  1.00 20.00     0.062 C 
HETATM    8  C8  UNL     1     -34.638  16.822  -2.637  1.00 20.00     0.062 C 
HETATM    9  O9  UNL     1     -35.208  15.523  -2.927  1.00 20.00    -0.380 OA
HETATM   10 BR10 UNL     1     -34.224  15.903  -6.339  1.00 20.00    -0.091 Br
ENDROOT
TORSDOF 0
ENDMDL
MODEL 6
REMARK VINA RESULT:      -4.0      2.663      4.484
REMARK  0 active torsions:
REMARK  status: ('A' for Active; 'I' for Inactive)
ROOT
HETATM    1  C1  UNL     1     -34.242  18.004  -0.347  1.00 20.00     0.006 C 
HETATM    2  C2  UNL     1     -34.677  16.577  -0.723  1.00 20.00     0.038 C 
HETATM    3  C3  UNL     1     -33.387  18.019  -1.625  1.00 20.00     0.038 C 
HETATM    4  C4  UNL     1     -35.997  15.084  -3.375  1.00 20.00     0.042 C 
HETATM    5  C5  UNL     1     -33.585  15.854  -3.007  1.00 20.00     0.053 C 
HETATM    6  C6  UNL     1     -36.476  16.535  -3.323  1.00 20.00     0.170 C 
HETATM    7  C7  UNL     1     -34.540  14.961  -3.804  1.00 20.00     0.062 C 
HETATM    8  C8  UNL     1     -34.334  16.926  -2.208  1.00 20.00     0.062 C 
HETATM    9  O9  UNL     1     -35.431  17.449  -2.995  1.00 20.00    -0.380 OA
HETATM   10 BR10 UNL     1     -34.399  15.386  -5.721  1.00 20.00    -0.091 Br
ENDROOT
TORSDOF 0
ENDMDL
MODEL 7
REMARK VINA RESULT:      -4.0      1.177      1.428
REMARK  0 active torsions:
REMARK  status: ('A' for Active; 'I' for Inactive)
ROOT
HETATM    1  C1  UNL     1     -34.525  15.365  -7.582  1.00 20.00     0.006 C 
HETATM    2  C2  UNL     1     -34.959  14.471  -6.408  1.00 20.00     0.038 C 
HETATM    3  C3  UNL     1     -34.900  16.582  -6.721  1.00 20.00     0.038 C 
HETATM    4  C4  UNL     1     -34.254  14.239  -3.174  1.00 20.00     0.042 C 
HETATM    5  C5  UNL     1     -35.739  15.945  -4.370  1.00 20.00     0.053 C 
HETATM    6  C6  UNL     1     -33.031  14.771  -3.920  1.00 20.00     0.170 C 
HETATM    7  C7  UNL     1     -35.361  15.278  -3.045  1.00 20.00     0.062 C 
HETATM    8  C8  UNL     1     -34.694  15.688  -5.461  1.00 20.00     0.062 C 
HETATM    9  O9  UNL     1     -33.364  15.758  -4.894  1.00 20.00    -0.380 OA
HETATM   10 BR10 UNL     1     -34.801  16.651  -1.749  1.00 20.00    -0.091 Br
ENDROOT
TORSDOF 0
ENDMDL
MODEL 8
REMARK VINA RESULT:      -3.9      1.929      3.078
REMARK  0 active torsions:
REMARK  status: ('A' for Active; 'I' for Inactive)
ROOT
HETATM    1  C1  UNL     1     -34.686  13.269  -4.584  1.00 20.00     0.006 C 
HETATM    2  C2  UNL     1     -34.598  14.265  -5.753  1.00 20.00     0.038 C 
HETATM    3  C3  UNL     1     -33.808  14.233  -3.770  1.00 20.00     0.038 C 
HETATM    4  C4  UNL     1     -35.182  17.499  -6.206  1.00 20.00     0.042 C 
HETATM    5  C5  UNL     1     -33.191  16.378  -5.056  1.00 20.00     0.053 C 
HETATM    6  C6  UNL     1     -36.118  16.965  -5.123  1.00 20.00     0.170 C 
HETATM    7  C7  UNL     1     -33.745  17.640  -5.724  1.00 20.00     0.062 C 
HETATM    8  C8  UNL     1     -34.301  15.383  -4.701  1.00 20.00     0.062 C 
HETATM    9  O9  UNL     1     -35.459  16.096  -4.204  1.00 20.00    -0.380 OA
HETATM   10 BR10 UNL     1     -33.636  19.154  -4.470  1.00 20.00    -0.091 Br
ENDROOT
TORSDOF 0
ENDMDL
MODEL 9
REMARK VINA RESULT:      -3.9      2.357      3.938
REMARK  0 active torsions:
REMARK  status: ('A' for Active; 'I' for Inactive)
ROOT
HETATM    1  C1  UNL     1     -34.059  16.476  -1.977  1.00 20.00     0.006 C 
HETATM    2  C2  UNL     1     -33.622  15.494  -3.078  1.00 20.00     0.038 C 
HETATM    3  C3  UNL     1     -34.150  17.563  -3.061  1.00 20.00     0.038 C 
HETATM    4  C4  UNL     1     -34.784  14.516  -6.027  1.00 20.00     0.042 C 
HETATM    5  C5  UNL     1     -33.590  16.695  -5.421  1.00 20.00     0.053 C 
HETATM    6  C6  UNL     1     -35.957  14.899  -5.125  1.00 20.00     0.170 C 
HETATM    7  C7  UNL     1     -34.010  15.727  -6.530  1.00 20.00     0.062 C 
HETATM    8  C8  UNL     1     -34.338  16.426  -4.110  1.00 20.00     0.062 C 
HETATM    9  O9  UNL     1     -35.720  16.099  -4.392  1.00 20.00    -0.380 OA
HETATM   10 BR10 UNL     1     -35.104  16.679  -7.861  1.00 20.00    -0.091 Br
ENDROOT
TORSDOF 0
ENDMDL
