MODEL 1
REMARK VINA RESULT:      -4.2      0.000      0.000
REMARK  3 active torsions:
REMARK  status: ('A' for Active; 'I' for Inactive)
REMARK    1  A    between atoms: C3_3  and  O10_10 
REMARK    2  A    between atoms: C4_4  and  C8_8 
REMARK    3  A    between atoms: C4_4  and  C9_9 
ROOT
HETATM    1  C1  UNL     1     -33.221  13.936  -3.638  1.00 20.00     0.037 C 
HETATM    2  C2  UNL     1     -33.508  15.443  -3.851  1.00 20.00    -0.005 C 
HETATM    3  C3  UNL     1     -34.688  13.634  -4.005  1.00 20.00     0.127 C 
HETATM    4  C4  UNL     1     -34.750  15.024  -4.720  1.00 20.00    -0.012 C 
HETATM    5  C5  UNL     1     -33.724  16.231  -2.565  1.00 20.00     0.011 C 
ENDROOT
BRANCH   4   6
HETATM    6  C8  UNL     1     -36.057  15.775  -4.473  1.00 20.00     0.008 C 
HETATM    7  C6  UNL     1     -37.181  15.200  -5.269  1.00 20.00     0.006 C 
ENDBRANCH   4   6
BRANCH   4   8
HETATM    8  C9  UNL     1     -34.426  14.996  -6.219  1.00 20.00     0.008 C 
HETATM    9  C7  UNL     1     -34.322  16.373  -6.780  1.00 20.00     0.006 C 
ENDBRANCH   4   8
BRANCH   3  10
HETATM   10  O10 UNL     1     -34.909  12.472  -4.824  1.00 20.00    -0.395 OA
HETATM   11  H28 UNL     1     -34.043  12.059  -4.932  1.00 20.00     0.210 HD
ENDBRANCH   3  10
TORSDOF 3
ENDMDL
MODEL 2
REMARK VINA RESULT:      -4.2      1.917      3.415
REMARK  3 active torsions:
REMARK  status: ('A' for Active; 'I' for Inactive)
REMARK    1  A    between atoms: C3_3  and  O10_10 
REMARK    2  A    between atoms: C4_4  and  C8_8 
REMARK    3  A    between atoms: C4_4  and  C9_9 
ROOT
HETATM    1  C1  UNL     1     -33.996  13.799  -3.698  1.00 20.00     0.037 C 
HETATM    2  C2  UNL     1     -35.216  14.687  -3.348  1.00 20.00    -0.005 C 
HETATM    3  C3  UNL     1     -33.313  15.035  -4.321  1.00 20.00     0.127 C 
HETATM    4  C4  UNL     1     -34.269  15.936  -3.473  1.00 20.00    -0.012 C 
HETATM    5  C5  UNL     1     -36.395  14.540  -4.301  1.00 20.00     0.011 C 
ENDROOT
BRANCH   4   6
HETATM    6  C8  UNL     1     -34.807  17.141  -4.244  1.00 20.00     0.008 C 
HETATM    7  C6  UNL     1     -33.782  18.220  -4.363  1.00 20.00     0.006 C 
ENDBRANCH   4   6
BRANCH   4   8
HETATM    8  C9  UNL     1     -33.708  16.378  -2.116  1.00 20.00     0.008 C 
HETATM    9  C7  UNL     1     -34.793  16.835  -1.201  1.00 20.00     0.006 C 
ENDBRANCH   4   8
BRANCH   3  10
HETATM   10  O10 UNL     1     -31.902  15.170  -4.072  1.00 20.00    -0.395 OA
HETATM   11  H28 UNL     1     -31.664  14.425  -3.504  1.00 20.00     0.210 HD
ENDBRANCH   3  10
TORSDOF 3
ENDMDL
MODEL 3
REMARK VINA RESULT:      -4.1      1.148      2.792
REMARK  3 active torsions:
REMARK  status: ('A' for Active; 'I' for Inactive)
REMARK    1  A    between atoms: C3_3  and  O10_10 
REMARK    2  A    between atoms: C4_4  and  C8_8 
REMARK    3  A    between atoms: C4_4  and  C9_9 
ROOT
HETATM    1  C1  UNL     1     -34.737  14.403  -5.853  1.00 20.00     0.037 C 
HETATM    2  C2  UNL     1     -34.711  15.844  -5.287  1.00 20.00    -0.005 C 
HETATM    3  C3  UNL     1     -34.348  13.878  -4.455  1.00 20.00     0.127 C 
HETATM    4  C4  UNL     1     -34.875  15.222  -3.853  1.00 20.00    -0.012 C 
HETATM    5  C5  UNL     1     -33.450  16.630  -5.625  1.00 20.00     0.011 C 
ENDROOT
BRANCH   4   6
HETATM    6  C8  UNL     1     -33.982  15.781  -2.746  1.00 20.00     0.008 C 
HETATM    7  C6  UNL     1     -34.778  16.198  -1.554  1.00 20.00     0.006 C 
ENDBRANCH   4   6
BRANCH   4   8
HETATM    8  C9  UNL     1     -36.339  15.197  -3.395  1.00 20.00     0.008 C 
HETATM    9  C7  UNL     1     -37.095  16.369  -3.922  1.00 20.00     0.006 C 
ENDBRANCH   4   8
BRANCH   3  10
HETATM   10  O10 UNL     1     -35.005  12.672  -4.027  1.00 20.00    -0.395 OA
HETATM   11  H28 UNL     1     -35.927  12.763  -4.303  1.00 20.00     0.210 HD
ENDBRANCH   3  10
TORSDOF 3
ENDMDL
MODEL 4
REMARK VINA RESULT:      -4.1      1.047      3.274
REMARK  3 active torsions:
REMARK  status: ('A' for Active; 'I' for Inactive)
REMARK    1  A    between atoms: C3_3  and  O10_10 
REMARK    2  A    between atoms: C4_4  and  C8_8 
REMARK    3  A    between atoms: C4_4  and  C9_9 
ROOT
HETATM    1  C1  UNL     1     -35.771  14.458  -5.882  1.00 20.00     0.037 C 
HETATM    2  C2  UNL     1     -35.192  15.839  -5.489  1.00 20.00    -0.005 C 
HETATM    3  C3  UNL     1     -34.702  13.789  -4.994  1.00 20.00     0.127 C 
HETATM    4  C4  UNL     1     -34.548  15.147  -4.233  1.00 20.00    -0.012 C 
HETATM    5  C5  UNL     1     -34.290  16.467  -6.545  1.00 20.00     0.011 C 
ENDROOT
BRANCH   4   6
HETATM    6  C8  UNL     1     -33.096  15.499  -3.913  1.00 20.00     0.008 C 
HETATM    7  C6  UNL     1     -32.337  14.312  -3.421  1.00 20.00     0.006 C 
ENDBRANCH   4   6
BRANCH   4   8
HETATM    8  C9  UNL     1     -35.420  15.291  -2.980  1.00 20.00     0.008 C 
HETATM    9  C7  UNL     1     -34.785  16.189  -1.974  1.00 20.00     0.006 C 
ENDBRANCH   4   8
BRANCH   3  10
HETATM   10  O10 UNL     1     -35.140  12.658  -4.220  1.00 20.00    -0.395 OA
HETATM   11  H28 UNL     1     -34.369  12.082  -4.138  1.00 20.00     0.210 HD
ENDBRANCH   3  10
TORSDOF 3
ENDMDL
MODEL 5
REMARK VINA RESULT:      -3.9      1.668      3.671
REMARK  3 active torsions:
REMARK  status: ('A' for Active; 'I' for Inactive)
REMARK    1  A    between atoms: C3_3  and  O10_10 
REMARK    2  A    between atoms: C4_4  and  C8_8 
REMARK    3  A    between atoms: C4_4  and  C9_9 
ROOT
HETATM    1  C1  UNL     1     -36.974  15.348  -5.329  1.00 20.00     0.037 C 
HETATM    2  C2  UNL     1     -35.436  15.389  -5.499  1.00 20.00    -0.005 C 
HETATM    3  C3  UNL     1     -36.779  14.559  -4.018  1.00 20.00     0.127 C 
HETATM    4  C4  UNL     1     -35.315  15.108  -3.957  1.00 20.00    -0.012 C 
HETATM    5  C5  UNL     1     -34.885  14.373  -6.493  1.00 20.00     0.011 C 
ENDROOT
BRANCH   4   6
HETATM    6  C8  UNL     1     -34.294  14.060  -3.519  1.00 20.00     0.008 C 
HETATM    7  C6  UNL     1     -32.895  14.556  -3.672  1.00 20.00     0.006 C 
ENDBRANCH   4   6
BRANCH   4   8
HETATM    8  C9  UNL     1     -35.140  16.397  -3.144  1.00 20.00     0.008 C 
HETATM    9  C7  UNL     1     -34.744  16.103  -1.737  1.00 20.00     0.006 C 
ENDBRANCH   4   8
BRANCH   3  10
HETATM   10  O10 UNL     1     -37.651  14.914  -2.930  1.00 20.00    -0.395 OA
HETATM   11  H28 UNL     1     -37.600  15.876  -2.856  1.00 20.00     0.210 HD
ENDBRANCH   3  10
TORSDOF 3
ENDMDL
MODEL 6
REMARK VINA RESULT:      -3.9      1.864      2.857
REMARK  3 active torsions:
REMARK  status: ('A' for Active; 'I' for Inactive)
REMARK    1  A    between atoms: C3_3  and  O10_10 
REMARK    2  A    between atoms: C4_4  and  C8_8 
REMARK    3  A    between atoms: C4_4  and  C9_9 
ROOT
HETATM    1  C1  UNL     1     -33.720  17.463  -3.407  1.00 20.00     0.037 C 
HETATM    2  C2  UNL     1     -34.917  16.697  -2.792  1.00 20.00    -0.005 C 
HETATM    3  C3  UNL     1     -33.261  16.152  -4.077  1.00 20.00     0.127 C 
HETATM    4  C4  UNL     1     -34.718  15.608  -3.909  1.00 20.00    -0.012 C 
HETATM    5  C5  UNL     1     -34.734  16.313  -1.329  1.00 20.00     0.011 C 
ENDROOT
BRANCH   4   6
HETATM    6  C8  UNL     1     -34.771  14.145  -3.471  1.00 20.00     0.008 C 
HETATM    7  C6  UNL     1     -34.407  13.222  -4.587  1.00 20.00     0.006 C 
ENDBRANCH   4   6
BRANCH   4   8
HETATM    8  C9  UNL     1     -35.638  15.837  -5.114  1.00 20.00     0.008 C 
HETATM    9  C7  UNL     1     -37.027  15.372  -4.836  1.00 20.00     0.006 C 
ENDBRANCH   4   8
BRANCH   3  10
HETATM   10  O10 UNL     1     -32.763  16.269  -5.421  1.00 20.00    -0.395 OA
HETATM   11  H28 UNL     1     -32.883  15.399  -5.823  1.00 20.00     0.210 HD
ENDBRANCH   3  10
TORSDOF 3
ENDMDL
MODEL 7
REMARK VINA RESULT:      -3.9      1.836      2.738
REMARK  3 active torsions:
REMARK  status: ('A' for Active; 'I' for Inactive)
REMARK    1  A    between atoms: C3_3  and  O10_10 
REMARK    2  A    between atoms: C4_4  and  C8_8 
REMARK    3  A    between atoms: C4_4  and  C9_9 
ROOT
HETATM    1  C1  UNL     1     -33.740  17.529  -4.901  1.00 20.00     0.037 C 
HETATM    2  C2  UNL     1     -35.158  17.129  -5.376  1.00 20.00    -0.005 C 
HETATM    3  C3  UNL     1     -33.556  16.103  -4.342  1.00 20.00     0.127 C 
HETATM    4  C4  UNL     1     -34.697  15.628  -5.300  1.00 20.00    -0.012 C 
HETATM    5  C5  UNL     1     -36.284  17.615  -4.471  1.00 20.00     0.011 C 
ENDROOT
BRANCH   4   6
HETATM    6  C8  UNL     1     -35.660  14.637  -4.648  1.00 20.00     0.008 C 
HETATM    7  C6  UNL     1     -34.983  13.350  -4.312  1.00 20.00     0.006 C 
ENDBRANCH   4   6
BRANCH   4   8
HETATM    8  C9  UNL     1     -34.223  15.096  -6.659  1.00 20.00     0.008 C 
HETATM    9  C7  UNL     1     -35.364  14.588  -7.473  1.00 20.00     0.006 C 
ENDBRANCH   4   8
BRANCH   3  10
HETATM   10  O10 UNL     1     -32.259  15.511  -4.533  1.00 20.00    -0.395 OA
HETATM   11  H28 UNL     1     -32.045  15.073  -3.699  1.00 20.00     0.210 HD
ENDBRANCH   3  10
TORSDOF 3
ENDMDL
MODEL 8
REMARK VINA RESULT:      -3.9      1.677      2.440
REMARK  3 active torsions:
REMARK  status: ('A' for Active; 'I' for Inactive)
REMARK    1  A    between atoms: C3_3  and  O10_10 
REMARK    2  A    between atoms: C4_4  and  C8_8 
REMARK    3  A    between atoms: C4_4  and  C9_9 
ROOT
HETATM    1  C1  UNL     1     -34.031  15.577  -2.634  1.00 20.00     0.037 C 
HETATM    2  C2  UNL     1     -35.166  15.897  -3.637  1.00 20.00    -0.005 C 
HETATM    3  C3  UNL     1     -33.387  14.664  -3.698  1.00 20.00     0.127 C 
HETATM    4  C4  UNL     1     -34.199  15.437  -4.789  1.00 20.00    -0.012 C 
HETATM    5  C5  UNL     1     -36.459  15.129  -3.391  1.00 20.00     0.011 C 
ENDROOT
BRANCH   4   6
HETATM    6  C8  UNL     1     -34.785  14.526  -5.866  1.00 20.00     0.008 C 
HETATM    7  C6  UNL     1     -34.394  14.971  -7.236  1.00 20.00     0.006 C 
ENDBRANCH   4   6
BRANCH   4   8
HETATM    8  C9  UNL     1     -33.460  16.617  -5.432  1.00 20.00     0.008 C 
HETATM    9  C7  UNL     1     -34.339  17.817  -5.541  1.00 20.00     0.006 C 
ENDBRANCH   4   8
BRANCH   3  10
HETATM   10  O10 UNL     1     -31.953  14.720  -3.795  1.00 20.00    -0.395 OA
HETATM   11  H28 UNL     1     -31.761  15.374  -4.480  1.00 20.00     0.210 HD
ENDBRANCH   3  10
TORSDOF 3
ENDMDL
MODEL 9
REMARK VINA RESULT:      -3.8      1.634      2.716
REMARK  3 active torsions:
REMARK  status: ('A' for Active; 'I' for Inactive)
REMARK    1  A    between atoms: C3_3  and  O10_10 
REMARK    2  A    between atoms: C4_4  and  C8_8 
REMARK    3  A    between atoms: C4_4  and  C9_9 
ROOT
HETATM    1  C1  UNL     1     -35.361  16.278  -2.164  1.00 20.00     0.037 C 
HETATM    2  C2  UNL     1     -34.112  16.239  -3.079  1.00 20.00    -0.005 C 
HETATM    3  C3  UNL     1     -36.215  15.800  -3.356  1.00 20.00     0.127 C 
HETATM    4  C4  UNL     1     -34.906  15.261  -4.021  1.00 20.00    -0.012 C 
HETATM    5  C5  UNL     1     -33.677  17.600  -3.607  1.00 20.00     0.011 C 
ENDROOT
BRANCH   4   6
HETATM    6  C8  UNL     1     -34.834  15.532  -5.523  1.00 20.00     0.008 C 
HETATM    7  C6  UNL     1     -35.261  14.343  -6.318  1.00 20.00     0.006 C 
ENDBRANCH   4   6
BRANCH   4   8
HETATM    8  C9  UNL     1     -34.590  13.789  -3.729  1.00 20.00     0.008 C 
HETATM    9  C7  UNL     1     -33.119  13.545  -3.690  1.00 20.00     0.006 C 
ENDBRANCH   4   8
BRANCH   3  10
HETATM   10  O10 UNL     1     -37.237  14.833  -3.055  1.00 20.00    -0.395 OA
HETATM   11  H28 UNL     1     -37.173  14.671  -2.105  1.00 20.00     0.210 HD
ENDBRANCH   3  10
TORSDOF 3
ENDMDL
