MODEL 1
REMARK VINA RESULT:      -4.7      0.000      0.000
REMARK  2 active torsions:
REMARK  status: ('A' for Active; 'I' for Inactive)
REMARK    1  A    between atoms: C6_6  and  C8_8 
REMARK    2  A    between atoms: C8_8  and  O9_9 
ROOT
HETATM    1  C1  UNL     1     -33.671  17.662  -1.757  1.00 20.00     0.011 C 
HETATM    2  C2  UNL     1     -34.251  16.263  -1.946  1.00 20.00     0.011 C 
HETATM    3  C3  UNL     1     -32.646  15.007  -3.569  1.00 20.00     0.018 A 
HETATM    4  C4  UNL     1     -34.236  18.673  -2.748  1.00 20.00     0.074 C 
HETATM    5  C5  UNL     1     -34.561  16.529  -4.453  1.00 20.00     0.083 C 
HETATM    6  C6  UNL     1     -33.909  14.198  -3.451  1.00 20.00     0.019 A 
HETATM    7  C7  UNL     1     -33.966  15.715  -3.332  1.00 20.00    -0.026 A 
HETATM    8  S10 UNL     1     -33.864  18.203  -4.465  1.00 20.00    -0.168 SA
ENDROOT
BRANCH   6   9
HETATM    9  C8  UNL     1     -34.436  13.454  -4.629  1.00 20.00     0.169 C 
BRANCH   9  10
HETATM   10  O9  UNL     1     -35.445  12.535  -4.213  1.00 20.00    -0.400 OA
HETATM   11  H24 UNL     1     -34.991  11.833  -3.721  1.00 20.00     0.209 HD
ENDBRANCH   9  10
ENDBRANCH   6   9
TORSDOF 2
ENDMDL
MODEL 2
REMARK VINA RESULT:      -4.1      2.023      3.123
REMARK  2 active torsions:
REMARK  status: ('A' for Active; 'I' for Inactive)
REMARK    1  A    between atoms: C6_6  and  C8_8 
REMARK    2  A    between atoms: C8_8  and  O9_9 
ROOT
HETATM    1  C1  UNL     1     -34.660  17.830  -7.153  1.00 20.00     0.011 C 
HETATM    2  C2  UNL     1     -34.403  16.326  -7.171  1.00 20.00     0.011 C 
HETATM    3  C3  UNL     1     -35.874  15.298  -5.283  1.00 20.00     0.018 A 
HETATM    4  C4  UNL     1     -33.672  18.587  -6.272  1.00 20.00     0.074 C 
HETATM    5  C5  UNL     1     -33.509  16.262  -4.794  1.00 20.00     0.083 C 
HETATM    6  C6  UNL     1     -34.896  14.246  -5.729  1.00 20.00     0.019 A 
HETATM    7  C7  UNL     1     -34.506  15.717  -5.785  1.00 20.00    -0.026 A 
HETATM    8  S10 UNL     1     -33.768  18.040  -4.541  1.00 20.00    -0.168 SA
ENDROOT
BRANCH   6   9
HETATM    9  C8  UNL     1     -34.320  13.289  -4.743  1.00 20.00     0.169 C 
BRANCH   9  10
HETATM   10  O9  UNL     1     -35.365  12.535  -4.130  1.00 20.00    -0.400 OA
HETATM   11  H24 UNL     1     -34.933  11.887  -3.552  1.00 20.00     0.209 HD
ENDBRANCH   9  10
ENDBRANCH   6   9
TORSDOF 2
ENDMDL
MODEL 3
REMARK VINA RESULT:      -4.1      1.405      1.458
REMARK  2 active torsions:
REMARK  status: ('A' for Active; 'I' for Inactive)
REMARK    1  A    between atoms: C6_6  and  C8_8 
REMARK    2  A    between atoms: C8_8  and  O9_9 
ROOT
HETATM    1  C1  UNL     1     -33.658  17.612  -0.856  1.00 20.00     0.011 C 
HETATM    2  C2  UNL     1     -34.645  16.496  -1.188  1.00 20.00     0.011 C 
HETATM    3  C3  UNL     1     -33.705  15.273  -3.287  1.00 20.00     0.018 A 
HETATM    4  C4  UNL     1     -34.021  18.936  -1.519  1.00 20.00     0.074 C 
HETATM    5  C5  UNL     1     -35.181  17.404  -3.499  1.00 20.00     0.083 C 
HETATM    6  C6  UNL     1     -35.124  14.817  -3.085  1.00 20.00     0.019 A 
HETATM    7  C7  UNL     1     -34.715  16.227  -2.679  1.00 20.00    -0.026 A 
HETATM    8  S10 UNL     1     -34.028  18.794  -3.331  1.00 20.00    -0.168 SA
ENDROOT
BRANCH   6   9
HETATM    9  C8  UNL     1     -35.994  14.529  -4.259  1.00 20.00     0.169 C 
BRANCH   9  10
HETATM   10  O9  UNL     1     -37.288  14.120  -3.818  1.00 20.00    -0.400 OA
HETATM   11  H24 UNL     1     -37.674  14.881  -3.357  1.00 20.00     0.209 HD
ENDBRANCH   9  10
ENDBRANCH   6   9
TORSDOF 2
ENDMDL
MODEL 4
REMARK VINA RESULT:      -4.1     11.471     12.606
REMARK  2 active torsions:
REMARK  status: ('A' for Active; 'I' for Inactive)
REMARK    1  A    between atoms: C6_6  and  C8_8 
REMARK    2  A    between atoms: C8_8  and  O9_9 
ROOT
HETATM    1  C1  UNL     1     -34.981   4.313   4.487  1.00 20.00     0.011 C 
HETATM    2  C2  UNL     1     -34.714   5.346   3.396  1.00 20.00     0.011 C 
HETATM    3  C3  UNL     1     -32.133   5.685   3.308  1.00 20.00     0.018 A 
HETATM    4  C4  UNL     1     -35.238   4.949   5.849  1.00 20.00     0.074 C 
HETATM    5  C5  UNL     1     -33.624   7.010   4.976  1.00 20.00     0.083 C 
HETATM    6  C6  UNL     1     -32.769   6.789   2.510  1.00 20.00     0.019 A 
HETATM    7  C7  UNL     1     -33.501   6.201   3.709  1.00 20.00    -0.026 A 
HETATM    8  S10 UNL     1     -33.808   5.918   6.413  1.00 20.00    -0.168 SA
ENDROOT
BRANCH   6   9
HETATM    9  C8  UNL     1     -32.174   8.155   2.510  1.00 20.00     0.169 C 
BRANCH   9  10
HETATM   10  O9  UNL     1     -31.785   8.516   1.185  1.00 20.00    -0.400 OA
HETATM   11  H24 UNL     1     -31.312   7.752   0.820  1.00 20.00     0.209 HD
ENDBRANCH   9  10
ENDBRANCH   6   9
TORSDOF 2
ENDMDL
MODEL 5
REMARK VINA RESULT:      -4.0      2.779      4.246
REMARK  2 active torsions:
REMARK  status: ('A' for Active; 'I' for Inactive)
REMARK    1  A    between atoms: C6_6  and  C8_8 
REMARK    2  A    between atoms: C8_8  and  O9_9 
ROOT
HETATM    1  C1  UNL     1     -34.097  13.600  -3.791  1.00 20.00     0.011 C 
HETATM    2  C2  UNL     1     -33.291  14.847  -3.440  1.00 20.00     0.011 C 
HETATM    3  C3  UNL     1     -34.676  16.151  -1.660  1.00 20.00     0.018 A 
HETATM    4  C4  UNL     1     -35.021  13.813  -4.985  1.00 20.00     0.074 C 
HETATM    5  C5  UNL     1     -35.098  16.459  -4.208  1.00 20.00     0.083 C 
HETATM    6  C6  UNL     1     -33.587  17.063  -2.154  1.00 20.00     0.019 A 
HETATM    7  C7  UNL     1     -34.186  16.020  -3.089  1.00 20.00    -0.026 A 
HETATM    8  S10 UNL     1     -36.238  15.123  -4.661  1.00 20.00    -0.168 SA
ENDROOT
BRANCH   6   9
HETATM    9  C8  UNL     1     -33.839  18.524  -2.297  1.00 20.00     0.169 C 
BRANCH   9  10
HETATM   10  O9  UNL     1     -32.797  19.263  -1.661  1.00 20.00    -0.400 OA
HETATM   11  H24 UNL     1     -32.313  19.717  -2.367  1.00 20.00     0.209 HD
ENDBRANCH   9  10
ENDBRANCH   6   9
TORSDOF 2
ENDMDL
MODEL 6
REMARK VINA RESULT:      -4.0      1.138      1.138
REMARK  2 active torsions:
REMARK  status: ('A' for Active; 'I' for Inactive)
REMARK    1  A    between atoms: C6_6  and  C8_8 
REMARK    2  A    between atoms: C8_8  and  O9_9 
ROOT
HETATM    1  C1  UNL     1     -33.709  17.533  -1.035  1.00 20.00     0.011 C 
HETATM    2  C2  UNL     1     -34.469  16.290  -1.491  1.00 20.00     0.011 C 
HETATM    3  C3  UNL     1     -33.109  15.269  -3.463  1.00 20.00     0.018 A 
HETATM    4  C4  UNL     1     -34.183  18.802  -1.732  1.00 20.00     0.074 C 
HETATM    5  C5  UNL     1     -34.851  17.160  -3.847  1.00 20.00     0.083 C 
HETATM    6  C6  UNL     1     -34.457  14.603  -3.440  1.00 20.00     0.019 A 
HETATM    7  C7  UNL     1     -34.317  16.048  -2.980  1.00 20.00    -0.026 A 
HETATM    8  S10 UNL     1     -33.949  18.702  -3.532  1.00 20.00    -0.168 SA
ENDROOT
BRANCH   6   9
HETATM    9  C8  UNL     1     -35.125  14.216  -4.714  1.00 20.00     0.169 C 
BRANCH   9  10
HETATM   10  O9  UNL     1     -34.181  14.231  -5.784  1.00 20.00    -0.400 OA
HETATM   11  H24 UNL     1     -33.724  13.376  -5.759  1.00 20.00     0.209 HD
ENDBRANCH   9  10
ENDBRANCH   6   9
TORSDOF 2
ENDMDL
MODEL 7
REMARK VINA RESULT:      -4.0      1.321      2.167
REMARK  2 active torsions:
REMARK  status: ('A' for Active; 'I' for Inactive)
REMARK    1  A    between atoms: C6_6  and  C8_8 
REMARK    2  A    between atoms: C8_8  and  O9_9 
ROOT
HETATM    1  C1  UNL     1     -33.813  18.397  -5.102  1.00 20.00     0.011 C 
HETATM    2  C2  UNL     1     -33.362  16.954  -5.315  1.00 20.00     0.011 C 
HETATM    3  C3  UNL     1     -35.453  15.454  -4.912  1.00 20.00     0.018 A 
HETATM    4  C4  UNL     1     -33.607  18.872  -3.668  1.00 20.00     0.074 C 
HETATM    5  C5  UNL     1     -33.933  16.228  -2.949  1.00 20.00     0.083 C 
HETATM    6  C6  UNL     1     -34.243  14.560  -4.944  1.00 20.00     0.019 A 
HETATM    7  C7  UNL     1     -34.119  15.986  -4.426  1.00 20.00    -0.026 A 
HETATM    8  S10 UNL     1     -34.558  17.868  -2.488  1.00 20.00    -0.168 SA
ENDROOT
BRANCH   6   9
HETATM    9  C8  UNL     1     -34.170  13.363  -4.060  1.00 20.00     0.169 C 
BRANCH   9  10
HETATM   10  O9  UNL     1     -35.383  12.617  -4.149  1.00 20.00    -0.400 OA
HETATM   11  H24 UNL     1     -35.982  12.987  -3.483  1.00 20.00     0.209 HD
ENDBRANCH   9  10
ENDBRANCH   6   9
TORSDOF 2
ENDMDL
MODEL 8
REMARK VINA RESULT:      -3.9      2.519      4.017
REMARK  2 active torsions:
REMARK  status: ('A' for Active; 'I' for Inactive)
REMARK    1  A    between atoms: C6_6  and  C8_8 
REMARK    2  A    between atoms: C8_8  and  O9_9 
ROOT
HETATM    1  C1  UNL     1     -35.164  13.764  -4.681  1.00 20.00     0.011 C 
HETATM    2  C2  UNL     1     -34.492  14.166  -3.371  1.00 20.00     0.011 C 
HETATM    3  C3  UNL     1     -35.718  16.307  -2.534  1.00 20.00     0.018 A 
HETATM    4  C4  UNL     1     -34.480  14.368  -5.903  1.00 20.00     0.074 C 
HETATM    5  C5  UNL     1     -33.752  16.439  -4.232  1.00 20.00     0.083 C 
HETATM    6  C6  UNL     1     -34.459  16.151  -1.726  1.00 20.00     0.019 A 
HETATM    7  C7  UNL     1     -34.497  15.670  -3.170  1.00 20.00    -0.026 A 
HETATM    8  S10 UNL     1     -34.516  16.184  -5.857  1.00 20.00    -0.168 SA
ENDROOT
BRANCH   6   9
HETATM    9  C8  UNL     1     -33.694  17.353  -1.289  1.00 20.00     0.169 C 
BRANCH   9  10
HETATM   10  O9  UNL     1     -34.022  17.674   0.062  1.00 20.00    -0.400 OA
HETATM   11  H24 UNL     1     -34.330  18.594   0.058  1.00 20.00     0.209 HD
ENDBRANCH   9  10
ENDBRANCH   6   9
TORSDOF 2
ENDMDL
MODEL 9
REMARK VINA RESULT:      -3.8      1.258      1.670
REMARK  2 active torsions:
REMARK  status: ('A' for Active; 'I' for Inactive)
REMARK    1  A    between atoms: C6_6  and  C8_8 
REMARK    2  A    between atoms: C8_8  and  O9_9 
ROOT
HETATM    1  C1  UNL     1     -35.845  18.555  -3.452  1.00 20.00     0.011 C 
HETATM    2  C2  UNL     1     -36.117  17.056  -3.537  1.00 20.00     0.011 C 
HETATM    3  C3  UNL     1     -33.992  15.861  -2.619  1.00 20.00     0.018 A 
HETATM    4  C4  UNL     1     -35.241  19.118  -4.733  1.00 20.00     0.074 C 
HETATM    5  C5  UNL     1     -34.170  16.603  -5.105  1.00 20.00     0.083 C 
HETATM    6  C6  UNL     1     -34.844  14.826  -3.302  1.00 20.00     0.019 A 
HETATM    7  C7  UNL     1     -34.850  16.264  -3.802  1.00 20.00    -0.026 A 
HETATM    8  S10 UNL     1     -33.645  18.339  -5.117  1.00 20.00    -0.168 SA
ENDROOT
BRANCH   6   9
HETATM    9  C8  UNL     1     -34.208  13.707  -4.052  1.00 20.00     0.169 C 
BRANCH   9  10
HETATM   10  O9  UNL     1     -35.113  12.608  -4.146  1.00 20.00    -0.400 OA
HETATM   11  H24 UNL     1     -35.796  12.757  -3.475  1.00 20.00     0.209 HD
ENDBRANCH   9  10
ENDBRANCH   6   9
TORSDOF 2
ENDMDL
