MODEL 1
REMARK VINA RESULT:      -4.5      0.000      0.000
REMARK  1 active torsions:
REMARK  status: ('A' for Active; 'I' for Inactive)
REMARK    1  A    between atoms: C4_4  and  C10_10 
ROOT
HETATM    1  C1  UNL     1     -35.492  15.696  -3.003  1.00 20.00     0.007 C 
HETATM    2  C2  UNL     1     -36.174  15.337  -4.321  1.00 20.00     0.009 C 
HETATM    3  C3  UNL     1     -33.943  15.568  -5.510  1.00 20.00     0.013 C 
HETATM    4  C4  UNL     1     -34.296  16.630  -3.226  1.00 20.00     0.003 C 
HETATM    5  C5  UNL     1     -33.262  16.026  -4.203  1.00 20.00    -0.013 C 
HETATM    6  C6  UNL     1     -35.222  14.707  -5.359  1.00 20.00    -0.047 C 
HETATM    7  C7  UNL     1     -32.373  14.942  -3.587  1.00 20.00     0.010 C 
HETATM    8  C8  UNL     1     -34.894  13.253  -4.980  1.00 20.00     0.015 C 
HETATM    9  C9  UNL     1     -35.940  14.666  -6.726  1.00 20.00     0.015 C 
ENDROOT
BRANCH   4  10
HETATM   10  C10 UNL     1     -33.682  17.047  -1.888  1.00 20.00     0.119 C 
HETATM   11 CL11 UNL     1     -34.747  16.564  -0.559  1.00 20.00    -0.130 Cl
ENDBRANCH   4  10
TORSDOF 1
ENDMDL
MODEL 2
REMARK VINA RESULT:      -4.5      1.097      2.496
REMARK  1 active torsions:
REMARK  status: ('A' for Active; 'I' for Inactive)
REMARK    1  A    between atoms: C4_4  and  C10_10 
ROOT
HETATM    1  C1  UNL     1     -33.323  15.980  -2.907  1.00 20.00     0.007 C 
HETATM    2  C2  UNL     1     -33.382  14.658  -3.669  1.00 20.00     0.009 C 
HETATM    3  C3  UNL     1     -35.917  14.789  -3.652  1.00 20.00     0.013 C 
HETATM    4  C4  UNL     1     -34.551  16.163  -2.005  1.00 20.00     0.003 C 
HETATM    5  C5  UNL     1     -35.873  16.074  -2.799  1.00 20.00    -0.013 C 
HETATM    6  C6  UNL     1     -34.664  14.485  -4.510  1.00 20.00    -0.047 C 
HETATM    7  C7  UNL     1     -36.208  17.332  -3.605  1.00 20.00     0.010 C 
HETATM    8  C8  UNL     1     -34.605  15.361  -5.773  1.00 20.00     0.015 C 
HETATM    9  C9  UNL     1     -34.748  13.017  -4.984  1.00 20.00     0.015 C 
ENDROOT
BRANCH   4  10
HETATM   10  C10 UNL     1     -34.430  17.450  -1.186  1.00 20.00     0.119 C 
HETATM   11 CL11 UNL     1     -35.029  17.178   0.457  1.00 20.00    -0.130 Cl
ENDBRANCH   4  10
TORSDOF 1
ENDMDL
MODEL 3
REMARK VINA RESULT:      -4.4     11.692     13.181
REMARK  1 active torsions:
REMARK  status: ('A' for Active; 'I' for Inactive)
REMARK    1  A    between atoms: C4_4  and  C10_10 
ROOT
HETATM    1  C1  UNL     1     -42.961   6.032  -2.406  1.00 20.00     0.007 C 
HETATM    2  C2  UNL     1     -42.851   4.733  -3.202  1.00 20.00     0.009 C 
HETATM    3  C3  UNL     1     -40.958   3.991  -1.682  1.00 20.00     0.013 C 
HETATM    4  C4  UNL     1     -41.605   6.447  -1.820  1.00 20.00     0.003 C 
HETATM    5  C5  UNL     1     -40.993   5.339  -0.933  1.00 20.00    -0.013 C 
HETATM    6  C6  UNL     1     -42.265   3.559  -2.391  1.00 20.00    -0.047 C 
HETATM    7  C7  UNL     1     -41.625   5.227   0.458  1.00 20.00     0.010 C 
HETATM    8  C8  UNL     1     -43.306   3.016  -1.396  1.00 20.00     0.015 C 
HETATM    9  C9  UNL     1     -41.929   2.407  -3.364  1.00 20.00     0.015 C 
ENDROOT
BRANCH   4  10
HETATM   10  C10 UNL     1     -41.719   7.793  -1.102  1.00 20.00     0.119 C 
HETATM   11 CL11 UNL     1     -43.417   8.149  -0.752  1.00 20.00    -0.130 Cl
ENDBRANCH   4  10
TORSDOF 1
ENDMDL
MODEL 4
REMARK VINA RESULT:      -4.2      2.532      4.130
REMARK  1 active torsions:
REMARK  status: ('A' for Active; 'I' for Inactive)
REMARK    1  A    between atoms: C4_4  and  C10_10 
ROOT
HETATM    1  C1  UNL     1     -35.690  15.021  -4.979  1.00 20.00     0.007 C 
HETATM    2  C2  UNL     1     -35.596  15.143  -3.459  1.00 20.00     0.009 C 
HETATM    3  C3  UNL     1     -33.539  16.606  -3.728  1.00 20.00     0.013 C 
HETATM    4  C4  UNL     1     -34.306  15.108  -5.635  1.00 20.00     0.003 C 
HETATM    5  C5  UNL     1     -33.565  16.411  -5.259  1.00 20.00    -0.013 C 
HETATM    6  C6  UNL     1     -34.885  16.427  -2.984  1.00 20.00    -0.047 C 
HETATM    7  C7  UNL     1     -34.060  17.653  -6.005  1.00 20.00     0.010 C 
HETATM    8  C8  UNL     1     -35.804  17.649  -3.157  1.00 20.00     0.015 C 
HETATM    9  C9  UNL     1     -34.589  16.296  -1.474  1.00 20.00     0.015 C 
ENDROOT
BRANCH   4  10
HETATM   10  C10 UNL     1     -34.413  14.897  -7.147  1.00 20.00     0.119 C 
HETATM   11 CL11 UNL     1     -36.107  14.659  -7.604  1.00 20.00    -0.130 Cl
ENDBRANCH   4  10
TORSDOF 1
ENDMDL
MODEL 5
REMARK VINA RESULT:      -4.1      1.765      3.606
REMARK  1 active torsions:
REMARK  status: ('A' for Active; 'I' for Inactive)
REMARK    1  A    between atoms: C4_4  and  C10_10 
ROOT
HETATM    1  C1  UNL     1     -35.956  15.761  -3.040  1.00 20.00     0.007 C 
HETATM    2  C2  UNL     1     -34.484  15.493  -2.734  1.00 20.00     0.009 C 
HETATM    3  C3  UNL     1     -34.336  14.063  -4.827  1.00 20.00     0.013 C 
HETATM    4  C4  UNL     1     -36.597  14.584  -3.787  1.00 20.00     0.003 C 
HETATM    5  C5  UNL     1     -35.844  14.247  -5.094  1.00 20.00    -0.013 C 
HETATM    6  C6  UNL     1     -33.643  15.163  -3.985  1.00 20.00    -0.047 C 
HETATM    7  C7  UNL     1     -36.129  15.210  -6.250  1.00 20.00     0.010 C 
HETATM    8  C8  UNL     1     -33.377  16.435  -4.809  1.00 20.00     0.015 C 
HETATM    9  C9  UNL     1     -32.268  14.626  -3.527  1.00 20.00     0.015 C 
ENDROOT
BRANCH   4  10
HETATM   10  C10 UNL     1     -38.091  14.836  -4.006  1.00 20.00     0.119 C 
HETATM   11 CL11 UNL     1     -38.485  16.514  -3.602  1.00 20.00    -0.130 Cl
ENDBRANCH   4  10
TORSDOF 1
ENDMDL
MODEL 6
REMARK VINA RESULT:      -4.1      1.288      1.534
REMARK  1 active torsions:
REMARK  status: ('A' for Active; 'I' for Inactive)
REMARK    1  A    between atoms: C4_4  and  C10_10 
ROOT
HETATM    1  C1  UNL     1     -35.338  14.742  -3.494  1.00 20.00     0.007 C 
HETATM    2  C2  UNL     1     -36.489  14.575  -4.484  1.00 20.00     0.009 C 
HETATM    3  C3  UNL     1     -35.769  16.715  -5.644  1.00 20.00     0.013 C 
HETATM    4  C4  UNL     1     -35.001  16.222  -3.271  1.00 20.00     0.003 C 
HETATM    5  C5  UNL     1     -34.664  16.947  -4.593  1.00 20.00    -0.013 C 
HETATM    6  C6  UNL     1     -36.236  15.252  -5.847  1.00 20.00    -0.047 C 
HETATM    7  C7  UNL     1     -33.262  16.651  -5.133  1.00 20.00     0.010 C 
HETATM    8  C8  UNL     1     -35.229  14.438  -6.677  1.00 20.00     0.015 C 
HETATM    9  C9  UNL     1     -37.562  15.274  -6.640  1.00 20.00     0.015 C 
ENDROOT
BRANCH   4  10
HETATM   10  C10 UNL     1     -33.907  16.371  -2.212  1.00 20.00     0.119 C 
HETATM   11 CL11 UNL     1     -34.638  16.635  -0.621  1.00 20.00    -0.130 Cl
ENDBRANCH   4  10
TORSDOF 1
ENDMDL
MODEL 7
REMARK VINA RESULT:      -4.1      2.389      3.996
REMARK  1 active torsions:
REMARK  status: ('A' for Active; 'I' for Inactive)
REMARK    1  A    between atoms: C4_4  and  C10_10 
ROOT
HETATM    1  C1  UNL     1     -36.088  15.701  -4.575  1.00 20.00     0.007 C 
HETATM    2  C2  UNL     1     -36.579  16.721  -3.549  1.00 20.00     0.009 C 
HETATM    3  C3  UNL     1     -34.683  16.040  -2.004  1.00 20.00     0.013 C 
HETATM    4  C4  UNL     1     -35.409  14.505  -3.897  1.00 20.00     0.003 C 
HETATM    5  C5  UNL     1     -34.237  14.940  -2.989  1.00 20.00    -0.013 C 
HETATM    6  C6  UNL     1     -35.470  17.231  -2.605  1.00 20.00    -0.047 C 
HETATM    7  C7  UNL     1     -32.958  15.308  -3.748  1.00 20.00     0.010 C 
HETATM    8  C8  UNL     1     -34.545  18.218  -3.340  1.00 20.00     0.015 C 
HETATM    9  C9  UNL     1     -36.129  18.009  -1.445  1.00 20.00     0.015 C 
ENDROOT
BRANCH   4  10
HETATM   10  C10 UNL     1     -35.005  13.456  -4.935  1.00 20.00     0.119 C 
HETATM   11 CL11 UNL     1     -35.195  14.118  -6.566  1.00 20.00    -0.130 Cl
ENDBRANCH   4  10
TORSDOF 1
ENDMDL
MODEL 8
REMARK VINA RESULT:      -4.0      2.173      4.426
REMARK  1 active torsions:
REMARK  status: ('A' for Active; 'I' for Inactive)
REMARK    1  A    between atoms: C4_4  and  C10_10 
ROOT
HETATM    1  C1  UNL     1     -34.857  15.620  -2.234  1.00 20.00     0.007 C 
HETATM    2  C2  UNL     1     -34.695  16.501  -0.996  1.00 20.00     0.009 C 
HETATM    3  C3  UNL     1     -33.654  18.304  -2.449  1.00 20.00     0.013 C 
HETATM    4  C4  UNL     1     -33.761  15.900  -3.270  1.00 20.00     0.003 C 
HETATM    5  C5  UNL     1     -33.723  17.387  -3.687  1.00 20.00    -0.013 C 
HETATM    6  C6  UNL     1     -34.664  18.011  -1.312  1.00 20.00    -0.047 C 
HETATM    7  C7  UNL     1     -34.830  17.794  -4.664  1.00 20.00     0.010 C 
HETATM    8  C8  UNL     1     -36.075  18.521  -1.653  1.00 20.00     0.015 C 
HETATM    9  C9  UNL     1     -34.203  18.770  -0.048  1.00 20.00     0.015 C 
ENDROOT
BRANCH   4  10
HETATM   10  C10 UNL     1     -33.891  14.947  -4.460  1.00 20.00     0.119 C 
HETATM   11 CL11 UNL     1     -34.808  13.509  -3.985  1.00 20.00    -0.130 Cl
ENDBRANCH   4  10
TORSDOF 1
ENDMDL
MODEL 9
REMARK VINA RESULT:      -4.0      2.285      3.868
REMARK  1 active torsions:
REMARK  status: ('A' for Active; 'I' for Inactive)
REMARK    1  A    between atoms: C4_4  and  C10_10 
ROOT
HETATM    1  C1  UNL     1     -36.408  14.270  -4.052  1.00 20.00     0.007 C 
HETATM    2  C2  UNL     1     -34.932  13.980  -3.780  1.00 20.00     0.009 C 
HETATM    3  C3  UNL     1     -34.329  16.223  -4.806  1.00 20.00     0.013 C 
HETATM    4  C4  UNL     1     -36.586  15.157  -5.292  1.00 20.00     0.003 C 
HETATM    5  C5  UNL     1     -35.804  16.484  -5.173  1.00 20.00    -0.013 C 
HETATM    6  C6  UNL     1     -34.070  15.250  -3.628  1.00 20.00    -0.047 C 
HETATM    7  C7  UNL     1     -36.466  17.524  -4.264  1.00 20.00     0.010 C 
HETATM    8  C8  UNL     1     -34.326  15.918  -2.265  1.00 20.00     0.015 C 
HETATM    9  C9  UNL     1     -32.581  14.842  -3.657  1.00 20.00     0.015 C 
ENDROOT
BRANCH   4  10
HETATM   10  C10 UNL     1     -38.071  15.362  -5.596  1.00 20.00     0.119 C 
HETATM   11 CL11 UNL     1     -39.056  14.607  -4.334  1.00 20.00    -0.130 Cl
ENDBRANCH   4  10
TORSDOF 1
ENDMDL
