MODEL 1
REMARK VINA RESULT:      -4.5      0.000      0.000
REMARK  1 active torsions:
REMARK  status: ('A' for Active; 'I' for Inactive)
REMARK    1  A    between atoms: C4_4  and  C10_10 
ROOT
HETATM    1  C1  UNL     1     -34.326  16.362  -2.051  1.00 20.00     0.006 C 
HETATM    2  C2  UNL     1     -34.971  15.091  -2.599  1.00 20.00     0.009 C 
HETATM    3  C3  UNL     1     -34.198  15.700  -4.922  1.00 20.00     0.013 C 
HETATM    4  C4  UNL     1     -34.259  17.478  -3.107  1.00 20.00    -0.001 C 
HETATM    5  C5  UNL     1     -33.542  16.988  -4.387  1.00 20.00    -0.013 C 
HETATM    6  C6  UNL     1     -34.293  14.564  -3.880  1.00 20.00    -0.047 C 
HETATM    7  C7  UNL     1     -33.538  18.047  -5.495  1.00 20.00     0.010 C 
HETATM    8  C8  UNL     1     -35.146  13.421  -4.462  1.00 20.00     0.015 C 
HETATM    9  C9  UNL     1     -32.896  13.996  -3.563  1.00 20.00     0.015 C 
ENDROOT
BRANCH   4  10
HETATM   10  C10 UNL     1     -33.588  18.712  -2.495  1.00 20.00     0.090 C 
HETATM   11 BR11 UNL     1     -33.238  18.386  -0.617  1.00 20.00    -0.096 Br
ENDBRANCH   4  10
TORSDOF 1
ENDMDL
MODEL 2
REMARK VINA RESULT:      -4.3      2.437      4.181
REMARK  1 active torsions:
REMARK  status: ('A' for Active; 'I' for Inactive)
REMARK    1  A    between atoms: C4_4  and  C10_10 
ROOT
HETATM    1  C1  UNL     1     -34.036  18.373  -3.507  1.00 20.00     0.006 C 
HETATM    2  C2  UNL     1     -34.872  18.660  -2.261  1.00 20.00     0.009 C 
HETATM    3  C3  UNL     1     -34.685  16.238  -1.581  1.00 20.00     0.013 C 
HETATM    4  C4  UNL     1     -34.178  16.917  -3.977  1.00 20.00    -0.001 C 
HETATM    5  C5  UNL     1     -33.841  15.930  -2.833  1.00 20.00    -0.013 C 
HETATM    6  C6  UNL     1     -34.575  17.699  -1.092  1.00 20.00    -0.047 C 
HETATM    7  C7  UNL     1     -34.061  14.469  -3.240  1.00 20.00     0.010 C 
HETATM    8  C8  UNL     1     -35.613  17.934   0.022  1.00 20.00     0.015 C 
HETATM    9  C9  UNL     1     -33.179  17.973  -0.502  1.00 20.00     0.015 C 
ENDROOT
BRANCH   4  10
HETATM   10  C10 UNL     1     -33.304  16.698  -5.215  1.00 20.00     0.090 C 
HETATM   11 BR11 UNL     1     -34.410  16.076  -6.679  1.00 20.00    -0.096 Br
ENDBRANCH   4  10
TORSDOF 1
ENDMDL
MODEL 3
REMARK VINA RESULT:      -4.3      2.679      4.180
REMARK  1 active torsions:
REMARK  status: ('A' for Active; 'I' for Inactive)
REMARK    1  A    between atoms: C4_4  and  C10_10 
ROOT
HETATM    1  C1  UNL     1     -36.433  16.634  -4.428  1.00 20.00     0.006 C 
HETATM    2  C2  UNL     1     -36.189  16.868  -2.939  1.00 20.00     0.009 C 
HETATM    3  C3  UNL     1     -34.461  15.030  -2.935  1.00 20.00     0.013 C 
HETATM    4  C4  UNL     1     -36.132  15.186  -4.844  1.00 20.00    -0.001 C 
HETATM    5  C5  UNL     1     -34.695  14.780  -4.437  1.00 20.00    -0.013 C 
HETATM    6  C6  UNL     1     -34.770  16.474  -2.483  1.00 20.00    -0.047 C 
HETATM    7  C7  UNL     1     -34.393  13.311  -4.755  1.00 20.00     0.010 C 
HETATM    8  C8  UNL     1     -34.702  16.543  -0.945  1.00 20.00     0.015 C 
HETATM    9  C9  UNL     1     -33.724  17.457  -3.045  1.00 20.00     0.015 C 
ENDROOT
BRANCH   4  10
HETATM   10  C10 UNL     1     -36.382  15.029  -6.347  1.00 20.00     0.090 C 
HETATM   11 BR11 UNL     1     -35.057  16.047  -7.327  1.00 20.00    -0.096 Br
ENDBRANCH   4  10
TORSDOF 1
ENDMDL
MODEL 4
REMARK VINA RESULT:      -4.3      1.414      2.591
REMARK  1 active torsions:
REMARK  status: ('A' for Active; 'I' for Inactive)
REMARK    1  A    between atoms: C4_4  and  C10_10 
ROOT
HETATM    1  C1  UNL     1     -33.537  15.616  -2.832  1.00 20.00     0.006 C 
HETATM    2  C2  UNL     1     -33.632  15.042  -4.244  1.00 20.00     0.009 C 
HETATM    3  C3  UNL     1     -35.722  16.395  -4.651  1.00 20.00     0.013 C 
HETATM    4  C4  UNL     1     -34.914  16.009  -2.273  1.00 20.00    -0.001 C 
HETATM    5  C5  UNL     1     -35.642  16.983  -3.229  1.00 20.00    -0.013 C 
HETATM    6  C6  UNL     1     -34.355  15.976  -5.235  1.00 20.00    -0.047 C 
HETATM    7  C7  UNL     1     -37.057  17.324  -2.747  1.00 20.00     0.010 C 
HETATM    8  C8  UNL     1     -34.586  15.218  -6.557  1.00 20.00     0.015 C 
HETATM    9  C9  UNL     1     -33.492  17.214  -5.547  1.00 20.00     0.015 C 
ENDROOT
BRANCH   4  10
HETATM   10  C10 UNL     1     -34.741  16.589  -0.866  1.00 20.00     0.090 C 
HETATM   11 BR11 UNL     1     -33.529  18.099  -0.939  1.00 20.00    -0.096 Br
ENDBRANCH   4  10
TORSDOF 1
ENDMDL
MODEL 5
REMARK VINA RESULT:      -4.2      1.580      2.749
REMARK  1 active torsions:
REMARK  status: ('A' for Active; 'I' for Inactive)
REMARK    1  A    between atoms: C4_4  and  C10_10 
ROOT
HETATM    1  C1  UNL     1     -34.203  17.018  -5.094  1.00 20.00     0.006 C 
HETATM    2  C2  UNL     1     -34.048  15.540  -5.450  1.00 20.00     0.009 C 
HETATM    3  C3  UNL     1     -34.573  14.913  -3.063  1.00 20.00     0.013 C 
HETATM    4  C4  UNL     1     -33.880  17.295  -3.617  1.00 20.00    -0.001 C 
HETATM    5  C5  UNL     1     -34.732  16.399  -2.687  1.00 20.00    -0.013 C 
HETATM    6  C6  UNL     1     -34.877  14.605  -4.546  1.00 20.00    -0.047 C 
HETATM    7  C7  UNL     1     -34.370  16.584  -1.209  1.00 20.00     0.010 C 
HETATM    8  C8  UNL     1     -34.483  13.146  -4.844  1.00 20.00     0.015 C 
HETATM    9  C9  UNL     1     -36.382  14.757  -4.838  1.00 20.00     0.015 C 
ENDROOT
BRANCH   4  10
HETATM   10  C10 UNL     1     -34.071  18.787  -3.330  1.00 20.00     0.090 C 
HETATM   11 BR11 UNL     1     -35.927  19.263  -3.616  1.00 20.00    -0.096 Br
ENDBRANCH   4  10
TORSDOF 1
ENDMDL
MODEL 6
REMARK VINA RESULT:      -4.2      2.819      4.026
REMARK  1 active torsions:
REMARK  status: ('A' for Active; 'I' for Inactive)
REMARK    1  A    between atoms: C4_4  and  C10_10 
ROOT
HETATM    1  C1  UNL     1     -34.754  14.248  -4.924  1.00 20.00     0.006 C 
HETATM    2  C2  UNL     1     -34.546  14.558  -3.443  1.00 20.00     0.009 C 
HETATM    3  C3  UNL     1     -34.490  17.025  -3.968  1.00 20.00     0.013 C 
HETATM    4  C4  UNL     1     -34.150  15.332  -5.832  1.00 20.00    -0.001 C 
HETATM    5  C5  UNL     1     -34.698  16.731  -5.466  1.00 20.00    -0.013 C 
HETATM    6  C6  UNL     1     -35.074  15.947  -3.029  1.00 20.00    -0.047 C 
HETATM    7  C7  UNL     1     -34.048  17.846  -6.292  1.00 20.00     0.010 C 
HETATM    8  C8  UNL     1     -34.623  16.242  -1.586  1.00 20.00     0.015 C 
HETATM    9  C9  UNL     1     -36.614  15.975  -3.057  1.00 20.00     0.015 C 
ENDROOT
BRANCH   4  10
HETATM   10  C10 UNL     1     -34.409  14.965  -7.297  1.00 20.00     0.090 C 
HETATM   11 BR11 UNL     1     -36.318  14.948  -7.625  1.00 20.00    -0.096 Br
ENDBRANCH   4  10
TORSDOF 1
ENDMDL
MODEL 7
REMARK VINA RESULT:      -4.1      2.008      3.342
REMARK  1 active torsions:
REMARK  status: ('A' for Active; 'I' for Inactive)
REMARK    1  A    between atoms: C4_4  and  C10_10 
ROOT
HETATM    1  C1  UNL     1     -34.638  16.995  -5.010  1.00 20.00     0.006 C 
HETATM    2  C2  UNL     1     -35.020  16.536  -6.415  1.00 20.00     0.009 C 
HETATM    3  C3  UNL     1     -34.717  14.132  -5.711  1.00 20.00     0.013 C 
HETATM    4  C4  UNL     1     -33.707  15.995  -4.307  1.00 20.00    -0.001 C 
HETATM    5  C5  UNL     1     -34.328  14.578  -4.288  1.00 20.00    -0.013 C 
HETATM    6  C6  UNL     1     -35.641  15.125  -6.450  1.00 20.00    -0.047 C 
HETATM    7  C7  UNL     1     -33.385  13.536  -3.676  1.00 20.00     0.010 C 
HETATM    8  C8  UNL     1     -35.785  14.679  -7.917  1.00 20.00     0.015 C 
HETATM    9  C9  UNL     1     -37.047  15.133  -5.819  1.00 20.00     0.015 C 
ENDROOT
BRANCH   4  10
HETATM   10  C10 UNL     1     -33.379  16.510  -2.902  1.00 20.00     0.090 C 
HETATM   11 BR11 UNL     1     -34.973  16.431  -1.803  1.00 20.00    -0.096 Br
ENDBRANCH   4  10
TORSDOF 1
ENDMDL
MODEL 8
REMARK VINA RESULT:      -4.1      2.804      3.762
REMARK  1 active torsions:
REMARK  status: ('A' for Active; 'I' for Inactive)
REMARK    1  A    between atoms: C4_4  and  C10_10 
ROOT
HETATM    1  C1  UNL     1     -36.265  14.190  -4.141  1.00 20.00     0.006 C 
HETATM    2  C2  UNL     1     -34.811  13.860  -3.809  1.00 20.00     0.009 C 
HETATM    3  C3  UNL     1     -34.070  15.986  -4.947  1.00 20.00     0.013 C 
HETATM    4  C4  UNL     1     -36.389  15.052  -5.407  1.00 20.00    -0.001 C 
HETATM    5  C5  UNL     1     -35.532  16.335  -5.291  1.00 20.00    -0.013 C 
HETATM    6  C6  UNL     1     -33.914  15.108  -3.686  1.00 20.00    -0.047 C 
HETATM    7  C7  UNL     1     -35.559  17.173  -6.574  1.00 20.00     0.010 C 
HETATM    8  C8  UNL     1     -32.446  14.657  -3.569  1.00 20.00     0.015 C 
HETATM    9  C9  UNL     1     -34.264  15.908  -2.417  1.00 20.00     0.015 C 
ENDROOT
BRANCH   4  10
HETATM   10  C10 UNL     1     -37.867  15.357  -5.669  1.00 20.00     0.090 C 
HETATM   11 BR11 UNL     1     -38.902  14.911  -4.092  1.00 20.00    -0.096 Br
ENDBRANCH   4  10
TORSDOF 1
ENDMDL
MODEL 9
REMARK VINA RESULT:      -4.1      1.432      1.650
REMARK  1 active torsions:
REMARK  status: ('A' for Active; 'I' for Inactive)
REMARK    1  A    between atoms: C4_4  and  C10_10 
ROOT
HETATM    1  C1  UNL     1     -36.156  15.657  -3.119  1.00 20.00     0.006 C 
HETATM    2  C2  UNL     1     -36.199  14.790  -4.375  1.00 20.00     0.009 C 
HETATM    3  C3  UNL     1     -34.232  16.059  -5.317  1.00 20.00     0.013 C 
HETATM    4  C4  UNL     1     -35.570  17.051  -3.397  1.00 20.00    -0.001 C 
HETATM    5  C5  UNL     1     -34.175  16.944  -4.057  1.00 20.00    -0.013 C 
HETATM    6  C6  UNL     1     -34.830  14.656  -5.072  1.00 20.00    -0.047 C 
HETATM    7  C7  UNL     1     -33.601  18.315  -4.432  1.00 20.00     0.010 C 
HETATM    8  C8  UNL     1     -35.028  13.952  -6.429  1.00 20.00     0.015 C 
HETATM    9  C9  UNL     1     -33.871  13.793  -4.230  1.00 20.00     0.015 C 
ENDROOT
BRANCH   4  10
HETATM   10  C10 UNL     1     -35.542  17.856  -2.095  1.00 20.00     0.090 C 
HETATM   11 BR11 UNL     1     -34.585  16.854  -0.741  1.00 20.00    -0.096 Br
ENDBRANCH   4  10
TORSDOF 1
ENDMDL
