MODEL 1
REMARK VINA RESULT:      -5.1      0.000      0.000
REMARK  1 active torsions:
REMARK  status: ('A' for Active; 'I' for Inactive)
REMARK    1  A    between atoms: C6_6  and  C8_8 
ROOT
HETATM    1  C1  UNL     1     -33.927   5.750   6.246  1.00 20.00     0.027 C 
HETATM    2  C2  UNL     1     -33.557   6.767   5.169  1.00 20.00     0.014 C 
HETATM    3  C3  UNL     1     -32.232   5.586   3.269  1.00 20.00     0.018 A 
HETATM    4  C4  UNL     1     -35.194   4.996   5.862  1.00 20.00     0.167 C 
HETATM    5  C5  UNL     1     -34.801   5.298   3.542  1.00 20.00     0.177 C 
HETATM    6  C6  UNL     1     -32.889   6.778   2.625  1.00 20.00     0.011 A 
HETATM    7  C7  UNL     1     -33.549   6.100   3.813  1.00 20.00    -0.014 A 
HETATM    8  O9  UNL     1     -35.026   4.357   4.595  1.00 20.00    -0.390 OA
ENDROOT
BRANCH   6   9
HETATM    9  C8  UNL     1     -32.259   8.124   2.717  1.00 20.00     0.120 C 
HETATM   10 CL10 UNL     1     -31.924   8.794   1.096  1.00 20.00    -0.130 Cl
ENDBRANCH   6   9
TORSDOF 1
ENDMDL
MODEL 2
REMARK VINA RESULT:      -4.3     11.471     12.288
REMARK  1 active torsions:
REMARK  status: ('A' for Active; 'I' for Inactive)
REMARK    1  A    between atoms: C6_6  and  C8_8 
ROOT
HETATM    1  C1  UNL     1     -36.199  14.298  -4.147  1.00 20.00     0.027 C 
HETATM    2  C2  UNL     1     -35.567  15.688  -4.120  1.00 20.00     0.014 C 
HETATM    3  C3  UNL     1     -34.540  16.134  -1.774  1.00 20.00     0.018 A 
HETATM    4  C4  UNL     1     -35.147  13.233  -4.431  1.00 20.00     0.167 C 
HETATM    5  C5  UNL     1     -33.408  14.547  -3.494  1.00 20.00     0.177 C 
HETATM    6  C6  UNL     1     -33.755  16.993  -2.730  1.00 20.00     0.011 A 
HETATM    7  C7  UNL     1     -34.361  15.685  -3.209  1.00 20.00    -0.014 A 
HETATM    8  O9  UNL     1     -34.102  13.297  -3.458  1.00 20.00    -0.390 OA
ENDROOT
BRANCH   6   9
HETATM    9  C8  UNL     1     -34.280  18.322  -3.150  1.00 20.00     0.120 C 
HETATM   10 CL10 UNL     1     -33.487  18.889  -4.646  1.00 20.00    -0.130 Cl
ENDBRANCH   6   9
TORSDOF 1
ENDMDL
MODEL 3
REMARK VINA RESULT:      -4.1     11.761     13.013
REMARK  1 active torsions:
REMARK  status: ('A' for Active; 'I' for Inactive)
REMARK    1  A    between atoms: C6_6  and  C8_8 
ROOT
HETATM    1  C1  UNL     1     -34.711  16.373  -6.586  1.00 20.00     0.027 C 
HETATM    2  C2  UNL     1     -34.154  16.481  -5.169  1.00 20.00     0.014 C 
HETATM    3  C3  UNL     1     -35.863  15.490  -3.479  1.00 20.00     0.018 A 
HETATM    4  C4  UNL     1     -34.447  14.989  -7.166  1.00 20.00     0.167 C 
HETATM    5  C5  UNL     1     -34.413  13.979  -5.020  1.00 20.00     0.177 C 
HETATM    6  C6  UNL     1     -34.514  15.343  -2.826  1.00 20.00     0.011 A 
HETATM    7  C7  UNL     1     -34.629  15.310  -4.340  1.00 20.00    -0.014 A 
HETATM    8  O9  UNL     1     -35.008  13.983  -6.321  1.00 20.00    -0.390 OA
ENDROOT
BRANCH   6   9
HETATM    9  C8  UNL     1     -33.907  16.487  -2.091  1.00 20.00     0.120 C 
HETATM   10 CL10 UNL     1     -34.649  16.689  -0.479  1.00 20.00    -0.130 Cl
ENDBRANCH   6   9
TORSDOF 1
ENDMDL
MODEL 4
REMARK VINA RESULT:      -4.1     11.816     12.560
REMARK  1 active torsions:
REMARK  status: ('A' for Active; 'I' for Inactive)
REMARK    1  A    between atoms: C6_6  and  C8_8 
ROOT
HETATM    1  C1  UNL     1     -35.026  13.315  -5.010  1.00 20.00     0.027 C 
HETATM    2  C2  UNL     1     -35.188  14.279  -3.837  1.00 20.00     0.014 C 
HETATM    3  C3  UNL     1     -32.923  15.460  -3.357  1.00 20.00     0.018 A 
HETATM    4  C4  UNL     1     -35.155  14.053  -6.336  1.00 20.00     0.167 C 
HETATM    5  C5  UNL     1     -34.403  16.097  -5.396  1.00 20.00     0.177 C 
HETATM    6  C6  UNL     1     -33.986  16.406  -2.863  1.00 20.00     0.011 A 
HETATM    7  C7  UNL     1     -34.282  15.474  -4.026  1.00 20.00    -0.014 A 
HETATM    8  O9  UNL     1     -34.197  15.111  -6.411  1.00 20.00    -0.390 OA
ENDROOT
BRANCH   6   9
HETATM    9  C8  UNL     1     -34.588  16.222  -1.513  1.00 20.00     0.120 C 
HETATM   10 CL10 UNL     1     -34.057  17.503  -0.388  1.00 20.00    -0.130 Cl
ENDBRANCH   6   9
TORSDOF 1
ENDMDL
MODEL 5
REMARK VINA RESULT:      -3.9     11.811     12.402
REMARK  1 active torsions:
REMARK  status: ('A' for Active; 'I' for Inactive)
REMARK    1  A    between atoms: C6_6  and  C8_8 
ROOT
HETATM    1  C1  UNL     1     -34.804  17.031  -0.205  1.00 20.00     0.027 C 
HETATM    2  C2  UNL     1     -34.083  16.711  -1.513  1.00 20.00     0.014 C 
HETATM    3  C3  UNL     1     -35.638  15.296  -3.043  1.00 20.00     0.018 A 
HETATM    4  C4  UNL     1     -35.708  18.246  -0.371  1.00 20.00     0.167 C 
HETATM    5  C5  UNL     1     -36.000  17.846  -2.691  1.00 20.00     0.177 C 
HETATM    6  C6  UNL     1     -34.699  16.017  -3.974  1.00 20.00     0.011 A 
HETATM    7  C7  UNL     1     -35.081  16.648  -2.646  1.00 20.00    -0.014 A 
HETATM    8  O9  UNL     1     -36.645  18.025  -1.427  1.00 20.00    -0.390 OA
ENDROOT
BRANCH   6   9
HETATM    9  C8  UNL     1     -33.339  15.470  -4.242  1.00 20.00     0.120 C 
HETATM   10 CL10 UNL     1     -33.222  13.757  -3.753  1.00 20.00    -0.130 Cl
ENDBRANCH   6   9
TORSDOF 1
ENDMDL
MODEL 6
REMARK VINA RESULT:      -3.8     11.380     13.074
REMARK  1 active torsions:
REMARK  status: ('A' for Active; 'I' for Inactive)
REMARK    1  A    between atoms: C6_6  and  C8_8 
ROOT
HETATM    1  C1  UNL     1     -33.145  15.326  -4.020  1.00 20.00     0.027 C 
HETATM    2  C2  UNL     1     -34.407  15.808  -4.734  1.00 20.00     0.014 C 
HETATM    3  C3  UNL     1     -34.448  14.878  -7.161  1.00 20.00     0.018 A 
HETATM    4  C4  UNL     1     -33.347  13.925  -3.456  1.00 20.00     0.167 C 
HETATM    5  C5  UNL     1     -34.965  13.378  -5.102  1.00 20.00     0.177 C 
HETATM    6  C6  UNL     1     -35.889  15.106  -6.789  1.00 20.00     0.011 A 
HETATM    7  C7  UNL     1     -34.876  14.756  -5.713  1.00 20.00    -0.014 A 
HETATM    8  O9  UNL     1     -33.719  13.020  -4.498  1.00 20.00    -0.390 OA
ENDROOT
BRANCH   6   9
HETATM    9  C8  UNL     1     -36.493  16.461  -6.915  1.00 20.00     0.120 C 
HETATM   10 CL10 UNL     1     -37.977  16.603  -5.931  1.00 20.00    -0.130 Cl
ENDBRANCH   6   9
TORSDOF 1
ENDMDL
MODEL 7
REMARK VINA RESULT:      -3.8     11.534     13.218
REMARK  1 active torsions:
REMARK  status: ('A' for Active; 'I' for Inactive)
REMARK    1  A    between atoms: C6_6  and  C8_8 
ROOT
HETATM    1  C1  UNL     1     -32.993  15.120  -4.025  1.00 20.00     0.027 C 
HETATM    2  C2  UNL     1     -34.144  15.832  -4.733  1.00 20.00     0.014 C 
HETATM    3  C3  UNL     1     -34.300  15.004  -7.193  1.00 20.00     0.018 A 
HETATM    4  C4  UNL     1     -33.436  13.755  -3.514  1.00 20.00     0.167 C 
HETATM    5  C5  UNL     1     -35.096  13.544  -5.195  1.00 20.00     0.177 C 
HETATM    6  C6  UNL     1     -35.689  15.459  -6.828  1.00 20.00     0.011 A 
HETATM    7  C7  UNL     1     -34.766  14.908  -5.754  1.00 20.00    -0.014 A 
HETATM    8  O9  UNL     1     -33.938  12.962  -4.591  1.00 20.00    -0.390 OA
ENDROOT
BRANCH   6   9
HETATM    9  C8  UNL     1     -36.054  16.900  -6.911  1.00 20.00     0.120 C 
HETATM   10 CL10 UNL     1     -34.880  17.811  -7.901  1.00 20.00    -0.130 Cl
ENDBRANCH   6   9
TORSDOF 1
ENDMDL
MODEL 8
REMARK VINA RESULT:      -3.8     11.534     12.952
REMARK  1 active torsions:
REMARK  status: ('A' for Active; 'I' for Inactive)
REMARK    1  A    between atoms: C6_6  and  C8_8 
ROOT
HETATM    1  C1  UNL     1     -37.094  15.519  -5.430  1.00 20.00     0.027 C 
HETATM    2  C2  UNL     1     -36.035  16.241  -4.599  1.00 20.00     0.014 C 
HETATM    3  C3  UNL     1     -34.589  14.498  -3.323  1.00 20.00     0.018 A 
HETATM    4  C4  UNL     1     -36.513  15.059  -6.761  1.00 20.00     0.167 C 
HETATM    5  C5  UNL     1     -34.318  14.907  -5.875  1.00 20.00     0.177 C 
HETATM    6  C6  UNL     1     -33.709  15.708  -3.493  1.00 20.00     0.011 A 
HETATM    7  C7  UNL     1     -34.781  15.400  -4.524  1.00 20.00    -0.014 A 
HETATM    8  O9  UNL     1     -35.378  14.218  -6.543  1.00 20.00    -0.390 OA
ENDROOT
BRANCH   6   9
HETATM    9  C8  UNL     1     -33.812  16.852  -2.545  1.00 20.00     0.120 C 
HETATM   10 CL10 UNL     1     -34.647  16.374  -1.041  1.00 20.00    -0.130 Cl
ENDBRANCH   6   9
TORSDOF 1
ENDMDL
MODEL 9
REMARK VINA RESULT:      -3.8     12.070     13.029
REMARK  1 active torsions:
REMARK  status: ('A' for Active; 'I' for Inactive)
REMARK    1  A    between atoms: C6_6  and  C8_8 
ROOT
HETATM    1  C1  UNL     1     -33.798  15.832  -2.813  1.00 20.00     0.027 C 
HETATM    2  C2  UNL     1     -34.549  16.275  -1.559  1.00 20.00     0.014 C 
HETATM    3  C3  UNL     1     -33.153  18.063  -0.289  1.00 20.00     0.018 A 
HETATM    4  C4  UNL     1     -34.043  16.805  -3.959  1.00 20.00     0.167 C 
HETATM    5  C5  UNL     1     -34.436  18.618  -2.480  1.00 20.00     0.177 C 
HETATM    6  C6  UNL     1     -34.588  18.328   0.085  1.00 20.00     0.011 A 
HETATM    7  C7  UNL     1     -34.257  17.730  -1.272  1.00 20.00    -0.014 A 
HETATM    8  O9  UNL     1     -33.660  18.128  -3.577  1.00 20.00    -0.390 OA
ENDROOT
BRANCH   6   9
HETATM    9  C8  UNL     1     -35.239  17.544   1.171  1.00 20.00     0.120 C 
HETATM   10 CL10 UNL     1     -34.579  17.983   2.771  1.00 20.00    -0.130 Cl
ENDBRANCH   6   9
TORSDOF 1
ENDMDL
