MODEL 1
REMARK VINA RESULT:      -5.2      0.000      0.000
REMARK  3 active torsions:
REMARK  status: ('A' for Active; 'I' for Inactive)
REMARK    1  A    between atoms: C1_1  and  C5_5 
REMARK    2  A    between atoms: C5_5  and  C7_7 
REMARK    3  A    between atoms: C6_6  and  C7_7 
ROOT
HETATM    1  C5  UNL     1     -32.775   6.050   3.435  1.00 20.00     0.274 C 
HETATM    2  F10 UNL     1     -33.112   5.570   2.202  1.00 20.00    -0.238 F 
ENDROOT
BRANCH   1   3
HETATM    3  C1  UNL     1     -32.030   7.352   3.141  1.00 20.00     0.208 C 
HETATM    4  O8  UNL     1     -31.237   7.726   4.053  1.00 20.00    -0.646 OA
HETATM    5  O9  UNL     1     -32.286   7.888   2.027  1.00 20.00    -0.646 OA
ENDBRANCH   1   3
BRANCH   1   6
HETATM    6  C7  UNL     1     -34.063   6.217   4.255  1.00 20.00     0.029 C 
HETATM    7  C4  UNL     1     -35.217   5.511   3.528  1.00 20.00     0.014 C 
BRANCH   6   8
HETATM    8  C6  UNL     1     -33.900   5.761   5.734  1.00 20.00    -0.016 C 
HETATM    9  C2  UNL     1     -33.848   6.955   6.696  1.00 20.00     0.010 C 
HETATM   10  C3  UNL     1     -34.970   4.771   6.203  1.00 20.00     0.010 C 
ENDBRANCH   6   8
ENDBRANCH   1   6
TORSDOF 3
ENDMDL
MODEL 2
REMARK VINA RESULT:      -4.6     11.027     12.095
REMARK  3 active torsions:
REMARK  status: ('A' for Active; 'I' for Inactive)
REMARK    1  A    between atoms: C1_1  and  C5_5 
REMARK    2  A    between atoms: C5_5  and  C7_7 
REMARK    3  A    between atoms: C6_6  and  C7_7 
ROOT
HETATM    1  C5  UNL     1     -34.651  14.860  -3.465  1.00 20.00     0.274 C 
HETATM    2  F10 UNL     1     -35.463  15.272  -4.483  1.00 20.00    -0.238 F 
ENDROOT
BRANCH   1   3
HETATM    3  C1  UNL     1     -34.240  13.442  -3.863  1.00 20.00     0.208 C 
HETATM    4  O8  UNL     1     -33.020  13.171  -3.674  1.00 20.00    -0.646 OA
HETATM    5  O9  UNL     1     -35.165  12.713  -4.318  1.00 20.00    -0.646 OA
ENDBRANCH   1   3
BRANCH   1   6
HETATM    6  C7  UNL     1     -33.487  15.856  -3.345  1.00 20.00     0.029 C 
HETATM    7  C4  UNL     1     -33.296  16.570  -4.691  1.00 20.00     0.014 C 
BRANCH   6   8
HETATM    8  C6  UNL     1     -33.655  16.836  -2.148  1.00 20.00    -0.016 C 
HETATM    9  C2  UNL     1     -33.904  18.274  -2.621  1.00 20.00     0.010 C 
HETATM   10  C3  UNL     1     -34.747  16.427  -1.155  1.00 20.00     0.010 C 
ENDBRANCH   6   8
ENDBRANCH   1   6
TORSDOF 3
ENDMDL
MODEL 3
REMARK VINA RESULT:      -4.5     11.480     12.105
REMARK  3 active torsions:
REMARK  status: ('A' for Active; 'I' for Inactive)
REMARK    1  A    between atoms: C1_1  and  C5_5 
REMARK    2  A    between atoms: C5_5  and  C7_7 
REMARK    3  A    between atoms: C6_6  and  C7_7 
ROOT
HETATM    1  C5  UNL     1     -34.864  15.047  -4.154  1.00 20.00     0.274 C 
HETATM    2  F10 UNL     1     -34.230  14.988  -5.361  1.00 20.00    -0.238 F 
ENDROOT
BRANCH   1   3
HETATM    3  C1  UNL     1     -35.733  13.789  -4.124  1.00 20.00     0.208 C 
HETATM    4  O8  UNL     1     -36.953  13.995  -3.868  1.00 20.00    -0.646 OA
HETATM    5  O9  UNL     1     -35.133  12.706  -4.368  1.00 20.00    -0.646 OA
ENDBRANCH   1   3
BRANCH   1   6
HETATM    6  C7  UNL     1     -33.795  15.116  -3.052  1.00 20.00     0.029 C 
HETATM    7  C4  UNL     1     -32.429  14.758  -3.654  1.00 20.00     0.014 C 
BRANCH   6   8
HETATM    8  C6  UNL     1     -33.796  16.477  -2.297  1.00 20.00    -0.016 C 
HETATM    9  C2  UNL     1     -34.143  17.645  -3.229  1.00 20.00     0.010 C 
HETATM   10  C3  UNL     1     -34.713  16.510  -1.071  1.00 20.00     0.010 C 
ENDBRANCH   6   8
ENDBRANCH   1   6
TORSDOF 3
ENDMDL
MODEL 4
REMARK VINA RESULT:      -4.4     10.974     11.986
REMARK  3 active torsions:
REMARK  status: ('A' for Active; 'I' for Inactive)
REMARK    1  A    between atoms: C1_1  and  C5_5 
REMARK    2  A    between atoms: C5_5  and  C7_7 
REMARK    3  A    between atoms: C6_6  and  C7_7 
ROOT
HETATM    1  C5  UNL     1     -34.193  14.939  -3.800  1.00 20.00     0.274 C 
HETATM    2  F10 UNL     1     -32.989  15.398  -3.348  1.00 20.00    -0.238 F 
ENDROOT
BRANCH   1   3
HETATM    3  C1  UNL     1     -33.988  13.431  -3.946  1.00 20.00     0.208 C 
HETATM    4  O8  UNL     1     -35.010  12.793  -4.332  1.00 20.00    -0.646 OA
HETATM    5  O9  UNL     1     -32.829  13.009  -3.678  1.00 20.00    -0.646 OA
ENDBRANCH   1   3
BRANCH   1   6
HETATM    6  C7  UNL     1     -35.274  15.346  -2.787  1.00 20.00     0.029 C 
HETATM    7  C4  UNL     1     -34.641  16.234  -1.706  1.00 20.00     0.014 C 
BRANCH   6   8
HETATM    8  C6  UNL     1     -36.519  15.992  -3.462  1.00 20.00    -0.016 C 
HETATM    9  C2  UNL     1     -36.153  16.697  -4.774  1.00 20.00     0.010 C 
HETATM   10  C3  UNL     1     -37.672  15.015  -3.709  1.00 20.00     0.010 C 
ENDBRANCH   6   8
ENDBRANCH   1   6
TORSDOF 3
ENDMDL
MODEL 5
REMARK VINA RESULT:      -4.3     11.358     12.024
REMARK  3 active torsions:
REMARK  status: ('A' for Active; 'I' for Inactive)
REMARK    1  A    between atoms: C1_1  and  C5_5 
REMARK    2  A    between atoms: C5_5  and  C7_7 
REMARK    3  A    between atoms: C6_6  and  C7_7 
ROOT
HETATM    1  C5  UNL     1     -33.893  14.485  -3.956  1.00 20.00     0.274 C 
HETATM    2  F10 UNL     1     -33.951  13.591  -2.926  1.00 20.00    -0.238 F 
ENDROOT
BRANCH   1   3
HETATM    3  C1  UNL     1     -34.488  13.729  -5.144  1.00 20.00     0.208 C 
HETATM    4  O8  UNL     1     -34.847  12.543  -4.891  1.00 20.00    -0.646 OA
HETATM    5  O9  UNL     1     -34.560  14.379  -6.224  1.00 20.00    -0.646 OA
ENDBRANCH   1   3
BRANCH   1   6
HETATM    6  C7  UNL     1     -34.667  15.746  -3.543  1.00 20.00     0.029 C 
HETATM    7  C4  UNL     1     -36.108  15.356  -3.183  1.00 20.00     0.014 C 
BRANCH   6   8
HETATM    8  C6  UNL     1     -33.951  16.552  -2.421  1.00 20.00    -0.016 C 
HETATM    9  C2  UNL     1     -33.752  18.022  -2.814  1.00 20.00     0.010 C 
HETATM   10  C3  UNL     1     -34.645  16.475  -1.058  1.00 20.00     0.010 C 
ENDBRANCH   6   8
ENDBRANCH   1   6
TORSDOF 3
ENDMDL
MODEL 6
REMARK VINA RESULT:      -4.1     11.284     12.857
REMARK  3 active torsions:
REMARK  status: ('A' for Active; 'I' for Inactive)
REMARK    1  A    between atoms: C1_1  and  C5_5 
REMARK    2  A    between atoms: C5_5  and  C7_7 
REMARK    3  A    between atoms: C6_6  and  C7_7 
ROOT
HETATM    1  C5  UNL     1     -34.533  14.963  -3.860  1.00 20.00     0.274 C 
HETATM    2  F10 UNL     1     -35.118  15.099  -2.633  1.00 20.00    -0.238 F 
ENDROOT
BRANCH   1   3
HETATM    3  C1  UNL     1     -34.183  13.478  -3.947  1.00 20.00     0.208 C 
HETATM    4  O8  UNL     1     -32.998  13.193  -3.612  1.00 20.00    -0.646 OA
HETATM    5  O9  UNL     1     -35.117  12.719  -4.329  1.00 20.00    -0.646 OA
ENDBRANCH   1   3
BRANCH   1   6
HETATM    6  C7  UNL     1     -35.528  15.453  -4.923  1.00 20.00     0.029 C 
HETATM    7  C4  UNL     1     -36.567  16.368  -4.257  1.00 20.00     0.014 C 
BRANCH   6   8
HETATM    8  C6  UNL     1     -34.826  16.111  -6.147  1.00 20.00    -0.016 C 
HETATM    9  C2  UNL     1     -33.646  16.992  -5.720  1.00 20.00     0.010 C 
HETATM   10  C3  UNL     1     -34.362  15.111  -7.211  1.00 20.00     0.010 C 
ENDBRANCH   6   8
ENDBRANCH   1   6
TORSDOF 3
ENDMDL
MODEL 7
REMARK VINA RESULT:      -4.1     11.290     12.586
REMARK  3 active torsions:
REMARK  status: ('A' for Active; 'I' for Inactive)
REMARK    1  A    between atoms: C1_1  and  C5_5 
REMARK    2  A    between atoms: C5_5  and  C7_7 
REMARK    3  A    between atoms: C6_6  and  C7_7 
ROOT
HETATM    1  C5  UNL     1     -34.433  14.750  -3.982  1.00 20.00     0.274 C 
HETATM    2  F10 UNL     1     -33.522  14.217  -3.116  1.00 20.00    -0.238 F 
ENDROOT
BRANCH   1   3
HETATM    3  C1  UNL     1     -35.477  13.646  -4.155  1.00 20.00     0.208 C 
HETATM    4  O8  UNL     1     -36.660  13.985  -3.866  1.00 20.00    -0.646 OA
HETATM    5  O9  UNL     1     -35.036  12.540  -4.575  1.00 20.00    -0.646 OA
ENDBRANCH   1   3
BRANCH   1   6
HETATM    6  C7  UNL     1     -34.972  16.053  -3.372  1.00 20.00     0.029 C 
HETATM    7  C4  UNL     1     -34.652  16.075  -1.870  1.00 20.00     0.014 C 
BRANCH   6   8
HETATM    8  C6  UNL     1     -34.474  17.321  -4.124  1.00 20.00    -0.016 C 
HETATM    9  C2  UNL     1     -33.871  18.353  -3.163  1.00 20.00     0.010 C 
HETATM   10  C3  UNL     1     -33.479  17.027  -5.251  1.00 20.00     0.010 C 
ENDBRANCH   6   8
ENDBRANCH   1   6
TORSDOF 3
ENDMDL
MODEL 8
REMARK VINA RESULT:      -4.1     11.374     12.861
REMARK  3 active torsions:
REMARK  status: ('A' for Active; 'I' for Inactive)
REMARK    1  A    between atoms: C1_1  and  C5_5 
REMARK    2  A    between atoms: C5_5  and  C7_7 
REMARK    3  A    between atoms: C6_6  and  C7_7 
ROOT
HETATM    1  C5  UNL     1     -35.636  14.265  -4.557  1.00 20.00     0.274 C 
HETATM    2  F10 UNL     1     -35.594  12.948  -4.202  1.00 20.00    -0.238 F 
ENDROOT
BRANCH   1   3
HETATM    3  C1  UNL     1     -36.793  14.839  -3.739  1.00 20.00     0.208 C 
HETATM    4  O8  UNL     1     -36.532  15.921  -3.140  1.00 20.00    -0.646 OA
HETATM    5  O9  UNL     1     -37.865  14.173  -3.769  1.00 20.00    -0.646 OA
ENDBRANCH   1   3
BRANCH   1   6
HETATM    6  C7  UNL     1     -34.264  14.889  -4.256  1.00 20.00     0.029 C 
HETATM    7  C4  UNL     1     -33.323  13.798  -3.723  1.00 20.00     0.014 C 
BRANCH   6   8
HETATM    8  C6  UNL     1     -33.677  15.668  -5.468  1.00 20.00    -0.016 C 
HETATM    9  C2  UNL     1     -34.400  15.318  -6.774  1.00 20.00     0.010 C 
HETATM   10  C3  UNL     1     -33.661  17.189  -5.283  1.00 20.00     0.010 C 
ENDBRANCH   6   8
ENDBRANCH   1   6
TORSDOF 3
ENDMDL
MODEL 9
REMARK VINA RESULT:      -4.1     11.820     12.472
REMARK  3 active torsions:
REMARK  status: ('A' for Active; 'I' for Inactive)
REMARK    1  A    between atoms: C1_1  and  C5_5 
REMARK    2  A    between atoms: C5_5  and  C7_7 
REMARK    3  A    between atoms: C6_6  and  C7_7 
ROOT
HETATM    1  C5  UNL     1     -36.150  15.208  -4.417  1.00 20.00     0.274 C 
HETATM    2  F10 UNL     1     -36.379  14.564  -5.599  1.00 20.00    -0.238 F 
ENDROOT
BRANCH   1   3
HETATM    3  C1  UNL     1     -37.518  15.242  -3.736  1.00 20.00     0.208 C 
HETATM    4  O8  UNL     1     -37.839  16.364  -3.250  1.00 20.00    -0.646 OA
HETATM    5  O9  UNL     1     -38.163  14.157  -3.753  1.00 20.00    -0.646 OA
ENDBRANCH   1   3
BRANCH   1   6
HETATM    6  C7  UNL     1     -35.069  14.432  -3.648  1.00 20.00     0.029 C 
HETATM    7  C4  UNL     1     -34.511  13.321  -4.551  1.00 20.00     0.014 C 
BRANCH   6   8
HETATM    8  C6  UNL     1     -33.965  15.358  -3.061  1.00 20.00    -0.016 C 
HETATM    9  C2  UNL     1     -33.355  16.268  -4.135  1.00 20.00     0.010 C 
HETATM   10  C3  UNL     1     -34.430  16.207  -1.874  1.00 20.00     0.010 C 
ENDBRANCH   6   8
ENDBRANCH   1   6
TORSDOF 3
ENDMDL
