MODEL 1
REMARK VINA RESULT:      -4.6      0.000      0.000
REMARK  2 active torsions:
REMARK  status: ('A' for Active; 'I' for Inactive)
REMARK    1  A    between atoms: C3_3  and  C6_6 
REMARK    2  A    between atoms: C7_7  and  C9_9 
ROOT
HETATM    1  C1  UNL     1     -34.316  13.913  -3.651  1.00 20.00     0.016 A 
HETATM    2  C2  UNL     1     -34.703  13.398  -4.922  1.00 20.00     0.015 A 
HETATM    3  C3  UNL     1     -34.175  15.282  -3.669  1.00 20.00    -0.013 A 
HETATM    4  C4  UNL     1     -34.844  14.394  -5.863  1.00 20.00    -0.021 A 
HETATM    5  C8  UNL     1     -35.233  14.269  -7.285  1.00 20.00     0.056 C 
HETATM    6  S10 UNL     1     -34.508  15.943  -5.214  1.00 20.00    -0.099 SA
ENDROOT
BRANCH   3   7
HETATM    7  C6  UNL     1     -33.776  16.112  -2.471  1.00 20.00     0.031 A 
HETATM    8  C5  UNL     1     -33.842  17.623  -2.532  1.00 20.00     0.016 A 
HETATM    9  C7  UNL     1     -34.830  16.869  -1.691  1.00 20.00     0.009 A 
BRANCH   9  10
HETATM   10  C9  UNL     1     -34.754  16.938  -0.205  1.00 20.00     0.120 C 
HETATM   11 CL11 UNL     1     -33.650  18.236   0.328  1.00 20.00    -0.130 Cl
ENDBRANCH   9  10
ENDBRANCH   3   7
TORSDOF 2
ENDMDL
MODEL 2
REMARK VINA RESULT:      -4.4      1.239      1.540
REMARK  2 active torsions:
REMARK  status: ('A' for Active; 'I' for Inactive)
REMARK    1  A    between atoms: C3_3  and  C6_6 
REMARK    2  A    between atoms: C7_7  and  C9_9 
ROOT
HETATM    1  C1  UNL     1     -34.541  14.883  -3.159  1.00 20.00     0.016 A 
HETATM    2  C2  UNL     1     -34.444  14.258  -4.436  1.00 20.00     0.015 A 
HETATM    3  C3  UNL     1     -34.639  16.252  -3.260  1.00 20.00    -0.013 A 
HETATM    4  C4  UNL     1     -34.473  15.174  -5.464  1.00 20.00    -0.021 A 
HETATM    5  C8  UNL     1     -34.400  14.925  -6.920  1.00 20.00     0.056 C 
HETATM    6  S10 UNL     1     -34.615  16.781  -4.889  1.00 20.00    -0.099 SA
ENDROOT
BRANCH   3   7
HETATM    7  C6  UNL     1     -34.759  17.186  -2.078  1.00 20.00     0.031 A 
HETATM    8  C5  UNL     1     -34.640  16.650  -0.667  1.00 20.00     0.016 A 
HETATM    9  C7  UNL     1     -33.540  17.498  -1.234  1.00 20.00     0.009 A 
BRANCH   9  10
HETATM   10  C9  UNL     1     -33.320  18.880  -0.722  1.00 20.00     0.120 C 
HETATM   11 CL11 UNL     1     -31.845  18.971   0.279  1.00 20.00    -0.130 Cl
ENDBRANCH   9  10
ENDBRANCH   3   7
TORSDOF 2
ENDMDL
MODEL 3
REMARK VINA RESULT:      -4.1      1.401      2.116
REMARK  2 active torsions:
REMARK  status: ('A' for Active; 'I' for Inactive)
REMARK    1  A    between atoms: C3_3  and  C6_6 
REMARK    2  A    between atoms: C7_7  and  C9_9 
ROOT
HETATM    1  C1  UNL     1     -34.579  14.467  -6.033  1.00 20.00     0.016 A 
HETATM    2  C2  UNL     1     -35.373  14.556  -7.213  1.00 20.00     0.015 A 
HETATM    3  C3  UNL     1     -35.274  14.859  -4.911  1.00 20.00    -0.013 A 
HETATM    4  C4  UNL     1     -36.645  15.012  -6.947  1.00 20.00    -0.021 A 
HETATM    5  C8  UNL     1     -37.759  15.236  -7.894  1.00 20.00     0.056 C 
HETATM    6  S10 UNL     1     -36.878  15.332  -5.281  1.00 20.00    -0.099 SA
ENDROOT
BRANCH   3   7
HETATM    7  C6  UNL     1     -34.697  14.870  -3.515  1.00 20.00     0.031 A 
HETATM    8  C5  UNL     1     -33.268  15.311  -3.282  1.00 20.00     0.016 A 
HETATM    9  C7  UNL     1     -34.399  16.187  -2.829  1.00 20.00     0.009 A 
BRANCH   9  10
HETATM   10  C9  UNL     1     -34.682  16.354  -1.376  1.00 20.00     0.120 C 
HETATM   11 CL11 UNL     1     -33.618  17.589  -0.648  1.00 20.00    -0.130 Cl
ENDBRANCH   9  10
ENDBRANCH   3   7
TORSDOF 2
ENDMDL
MODEL 4
REMARK VINA RESULT:      -4.1      2.907      5.302
REMARK  2 active torsions:
REMARK  status: ('A' for Active; 'I' for Inactive)
REMARK    1  A    between atoms: C3_3  and  C6_6 
REMARK    2  A    between atoms: C7_7  and  C9_9 
ROOT
HETATM    1  C1  UNL     1     -34.890  16.319  -1.697  1.00 20.00     0.016 A 
HETATM    2  C2  UNL     1     -34.597  16.873  -0.418  1.00 20.00     0.015 A 
HETATM    3  C3  UNL     1     -34.427  17.111  -2.723  1.00 20.00    -0.013 A 
HETATM    4  C4  UNL     1     -33.921  18.069  -0.515  1.00 20.00    -0.021 A 
HETATM    5  C8  UNL     1     -33.439  18.945   0.575  1.00 20.00     0.056 C 
HETATM    6  S10 UNL     1     -33.641  18.519  -2.144  1.00 20.00    -0.099 SA
ENDROOT
BRANCH   3   7
HETATM    7  C6  UNL     1     -34.585  16.783  -4.189  1.00 20.00     0.031 A 
HETATM    8  C5  UNL     1     -33.478  17.109  -5.169  1.00 20.00     0.016 A 
HETATM    9  C7  UNL     1     -33.756  15.679  -4.811  1.00 20.00     0.009 A 
BRANCH   9  10
HETATM   10  C9  UNL     1     -34.365  14.761  -5.814  1.00 20.00     0.120 C 
HETATM   11 CL11 UNL     1     -34.802  13.195  -5.077  1.00 20.00    -0.130 Cl
ENDBRANCH   9  10
ENDBRANCH   3   7
TORSDOF 2
ENDMDL
MODEL 5
REMARK VINA RESULT:      -4.1      1.557      1.893
REMARK  2 active torsions:
REMARK  status: ('A' for Active; 'I' for Inactive)
REMARK    1  A    between atoms: C3_3  and  C6_6 
REMARK    2  A    between atoms: C7_7  and  C9_9 
ROOT
HETATM    1  C1  UNL     1     -33.454  15.854  -3.181  1.00 20.00     0.016 A 
HETATM    2  C2  UNL     1     -33.742  15.367  -4.489  1.00 20.00     0.015 A 
HETATM    3  C3  UNL     1     -34.594  16.002  -2.423  1.00 20.00    -0.013 A 
HETATM    4  C4  UNL     1     -35.090  15.161  -4.680  1.00 20.00    -0.021 A 
HETATM    5  C8  UNL     1     -35.783  14.664  -5.888  1.00 20.00     0.056 C 
HETATM    6  S10 UNL     1     -36.004  15.555  -3.285  1.00 20.00    -0.099 SA
ENDROOT
BRANCH   3   7
HETATM    7  C6  UNL     1     -34.606  16.497  -0.995  1.00 20.00     0.031 A 
HETATM    8  C5  UNL     1     -33.691  17.625  -0.570  1.00 20.00     0.016 A 
HETATM    9  C7  UNL     1     -35.168  17.866  -0.673  1.00 20.00     0.009 A 
BRANCH   9  10
HETATM   10  C9  UNL     1     -35.982  18.069   0.558  1.00 20.00     0.120 C 
HETATM   11 CL11 UNL     1     -34.944  18.232   2.000  1.00 20.00    -0.130 Cl
ENDBRANCH   9  10
ENDBRANCH   3   7
TORSDOF 2
ENDMDL
MODEL 6
REMARK VINA RESULT:      -4.0     13.452     15.058
REMARK  2 active torsions:
REMARK  status: ('A' for Active; 'I' for Inactive)
REMARK    1  A    between atoms: C3_3  and  C6_6 
REMARK    2  A    between atoms: C7_7  and  C9_9 
ROOT
HETATM    1  C1  UNL     1     -40.923   4.166  -1.258  1.00 20.00     0.016 A 
HETATM    2  C2  UNL     1     -40.734   5.520  -0.857  1.00 20.00     0.015 A 
HETATM    3  C3  UNL     1     -42.006   4.020  -2.095  1.00 20.00    -0.013 A 
HETATM    4  C4  UNL     1     -41.679   6.358  -1.405  1.00 20.00    -0.021 A 
HETATM    5  C8  UNL     1     -41.821   7.821  -1.236  1.00 20.00     0.056 C 
HETATM    6  S10 UNL     1     -42.790   5.513  -2.397  1.00 20.00    -0.099 SA
ENDROOT
BRANCH   3   7
HETATM    7  C6  UNL     1     -42.454   2.703  -2.685  1.00 20.00     0.031 A 
HETATM    8  C5  UNL     1     -43.083   2.658  -4.061  1.00 20.00     0.016 A 
HETATM    9  C7  UNL     1     -41.703   2.106  -3.858  1.00 20.00     0.009 A 
BRANCH   9  10
HETATM   10  C9  UNL     1     -41.467   0.636  -3.923  1.00 20.00     0.120 C 
HETATM   11 CL11 UNL     1     -42.440  -0.118  -5.216  1.00 20.00    -0.130 Cl
ENDBRANCH   9  10
ENDBRANCH   3   7
TORSDOF 2
ENDMDL
MODEL 7
REMARK VINA RESULT:      -4.0      3.315      6.138
REMARK  2 active torsions:
REMARK  status: ('A' for Active; 'I' for Inactive)
REMARK    1  A    between atoms: C3_3  and  C6_6 
REMARK    2  A    between atoms: C7_7  and  C9_9 
ROOT
HETATM    1  C1  UNL     1     -33.014  18.395  -0.420  1.00 20.00     0.016 A 
HETATM    2  C2  UNL     1     -32.857  18.757   0.948  1.00 20.00     0.015 A 
HETATM    3  C3  UNL     1     -34.217  17.768  -0.655  1.00 20.00    -0.013 A 
HETATM    4  C4  UNL     1     -33.946  18.394   1.708  1.00 20.00    -0.021 A 
HETATM    5  C8  UNL     1     -34.167  18.596   3.157  1.00 20.00     0.056 C 
HETATM    6  S10 UNL     1     -35.153  17.618   0.772  1.00 20.00    -0.099 SA
ENDROOT
BRANCH   3   7
HETATM    7  C6  UNL     1     -34.667  17.271  -2.009  1.00 20.00     0.031 A 
HETATM    8  C5  UNL     1     -33.648  16.868  -3.052  1.00 20.00     0.016 A 
HETATM    9  C7  UNL     1     -34.479  15.815  -2.381  1.00 20.00     0.009 A 
BRANCH   9  10
HETATM   10  C9  UNL     1     -35.537  15.096  -3.146  1.00 20.00     0.120 C 
HETATM   11 CL11 UNL     1     -34.910  13.583  -3.853  1.00 20.00    -0.130 Cl
ENDBRANCH   9  10
ENDBRANCH   3   7
TORSDOF 2
ENDMDL
MODEL 8
REMARK VINA RESULT:      -3.9      2.849      5.191
REMARK  2 active torsions:
REMARK  status: ('A' for Active; 'I' for Inactive)
REMARK    1  A    between atoms: C3_3  and  C6_6 
REMARK    2  A    between atoms: C7_7  and  C9_9 
ROOT
HETATM    1  C1  UNL     1     -34.478  15.519  -2.329  1.00 20.00     0.016 A 
HETATM    2  C2  UNL     1     -34.331  16.670  -1.502  1.00 20.00     0.015 A 
HETATM    3  C3  UNL     1     -34.143  15.778  -3.639  1.00 20.00    -0.013 A 
HETATM    4  C4  UNL     1     -33.889  17.764  -2.211  1.00 20.00    -0.021 A 
HETATM    5  C8  UNL     1     -33.612  19.131  -1.717  1.00 20.00     0.056 C 
HETATM    6  S10 UNL     1     -33.653  17.403  -3.869  1.00 20.00    -0.099 SA
ENDROOT
BRANCH   3   7
HETATM    7  C6  UNL     1     -34.195  14.753  -4.749  1.00 20.00     0.031 A 
HETATM    8  C5  UNL     1     -35.018  13.493  -4.586  1.00 20.00     0.016 A 
HETATM    9  C7  UNL     1     -35.473  14.559  -5.539  1.00 20.00     0.009 A 
BRANCH   9  10
HETATM   10  C9  UNL     1     -35.413  14.323  -7.009  1.00 20.00     0.120 C 
HETATM   11 CL11 UNL     1     -35.653  15.841  -7.918  1.00 20.00    -0.130 Cl
ENDBRANCH   9  10
ENDBRANCH   3   7
TORSDOF 2
ENDMDL
MODEL 9
REMARK VINA RESULT:      -3.9      3.172      5.343
REMARK  2 active torsions:
REMARK  status: ('A' for Active; 'I' for Inactive)
REMARK    1  A    between atoms: C3_3  and  C6_6 
REMARK    2  A    between atoms: C7_7  and  C9_9 
ROOT
HETATM    1  C1  UNL     1     -33.424  15.638  -4.418  1.00 20.00     0.016 A 
HETATM    2  C2  UNL     1     -33.293  15.783  -3.007  1.00 20.00     0.015 A 
HETATM    3  C3  UNL     1     -34.674  16.006  -4.863  1.00 20.00    -0.013 A 
HETATM    4  C4  UNL     1     -34.449  16.256  -2.426  1.00 20.00    -0.021 A 
HETATM    5  C8  UNL     1     -34.713  16.540  -0.999  1.00 20.00     0.056 C 
HETATM    6  S10 UNL     1     -35.685  16.523  -3.581  1.00 20.00    -0.099 SA
ENDROOT
BRANCH   3   7
HETATM    7  C6  UNL     1     -35.108  15.964  -6.309  1.00 20.00     0.031 A 
HETATM    8  C5  UNL     1     -34.476  14.977  -7.268  1.00 20.00     0.016 A 
HETATM    9  C7  UNL     1     -35.897  14.780  -6.828  1.00 20.00     0.009 A 
BRANCH   9  10
HETATM   10  C9  UNL     1     -37.015  14.991  -7.790  1.00 20.00     0.120 C 
HETATM   11 CL11 UNL     1     -38.578  15.148  -6.943  1.00 20.00    -0.130 Cl
ENDBRANCH   9  10
ENDBRANCH   3   7
TORSDOF 2
ENDMDL
