MODEL 1
REMARK VINA RESULT:      -4.2      0.000      0.000
REMARK  1 active torsions:
REMARK  status: ('A' for Active; 'I' for Inactive)
REMARK    1  A    between atoms: C4_4  and  C8_8 
ROOT
HETATM    1  C1  UNL     1     -34.806  16.631  -0.776  1.00 20.00     0.017 A 
HETATM    2  C2  UNL     1     -34.144  15.237  -2.869  1.00 20.00     0.025 C 
HETATM    3  C3  UNL     1     -35.411  17.356  -3.199  1.00 20.00     0.084 C 
HETATM    4  C4  UNL     1     -33.559  17.256  -1.339  1.00 20.00     0.009 A 
HETATM    5  C5  UNL     1     -35.396  14.671  -3.528  1.00 20.00     0.044 C 
HETATM    6  C6  UNL     1     -34.539  16.560  -2.266  1.00 20.00    -0.026 A 
HETATM    7  C7  UNL     1     -35.088  13.596  -4.555  1.00 20.00     0.021 C 
HETATM    8  S9  UNL     1     -36.184  16.121  -4.293  1.00 20.00    -0.164 SA
ENDROOT
BRANCH   4   9
HETATM    9  C8  UNL     1     -33.395  18.737  -1.324  1.00 20.00     0.120 C 
HETATM   10 CL10 UNL     1     -32.155  19.238  -0.142  1.00 20.00    -0.130 Cl
ENDBRANCH   4   9
TORSDOF 1
ENDMDL
MODEL 2
REMARK VINA RESULT:      -4.2      3.325      4.586
REMARK  1 active torsions:
REMARK  status: ('A' for Active; 'I' for Inactive)
REMARK    1  A    between atoms: C4_4  and  C8_8 
ROOT
HETATM    1  C1  UNL     1     -32.897  15.131  -3.665  1.00 20.00     0.017 A 
HETATM    2  C2  UNL     1     -34.687  15.990  -1.986  1.00 20.00     0.025 C 
HETATM    3  C3  UNL     1     -33.762  17.583  -3.662  1.00 20.00     0.084 C 
HETATM    4  C4  UNL     1     -34.218  15.099  -4.382  1.00 20.00     0.009 A 
HETATM    5  C5  UNL     1     -34.058  17.002  -1.036  1.00 20.00     0.044 C 
HETATM    6  C6  UNL     1     -33.971  16.136  -3.303  1.00 20.00    -0.026 A 
HETATM    7  C7  UNL     1     -34.937  17.312   0.163  1.00 20.00     0.021 C 
HETATM    8  S9  UNL     1     -33.799  18.475  -2.073  1.00 20.00    -0.164 SA
ENDROOT
BRANCH   4   9
HETATM    9  C8  UNL     1     -34.291  15.457  -5.827  1.00 20.00     0.120 C 
HETATM   10 CL10 UNL     1     -35.220  14.244  -6.749  1.00 20.00    -0.130 Cl
ENDBRANCH   4   9
TORSDOF 1
ENDMDL
MODEL 3
REMARK VINA RESULT:      -4.0      2.129      2.706
REMARK  1 active torsions:
REMARK  status: ('A' for Active; 'I' for Inactive)
REMARK    1  A    between atoms: C4_4  and  C8_8 
ROOT
HETATM    1  C1  UNL     1     -34.415  14.706  -3.170  1.00 20.00     0.017 A 
HETATM    2  C2  UNL     1     -34.318  15.161  -5.729  1.00 20.00     0.025 C 
HETATM    3  C3  UNL     1     -36.085  16.287  -4.383  1.00 20.00     0.084 C 
HETATM    4  C4  UNL     1     -33.685  16.008  -3.354  1.00 20.00     0.009 A 
HETATM    5  C5  UNL     1     -35.549  14.571  -6.404  1.00 20.00     0.044 C 
HETATM    6  C6  UNL     1     -34.750  15.593  -4.351  1.00 20.00    -0.026 A 
HETATM    7  C7  UNL     1     -35.422  14.509  -7.915  1.00 20.00     0.021 C 
HETATM    8  S9  UNL     1     -36.902  15.674  -5.891  1.00 20.00    -0.164 SA
ENDROOT
BRANCH   4   9
HETATM    9  C8  UNL     1     -33.893  17.122  -2.386  1.00 20.00     0.120 C 
HETATM   10 CL10 UNL     1     -34.560  16.522  -0.843  1.00 20.00    -0.130 Cl
ENDBRANCH   4   9
TORSDOF 1
ENDMDL
MODEL 4
REMARK VINA RESULT:      -3.9      1.979      2.743
REMARK  1 active torsions:
REMARK  status: ('A' for Active; 'I' for Inactive)
REMARK    1  A    between atoms: C4_4  and  C8_8 
ROOT
HETATM    1  C1  UNL     1     -33.375  16.482  -3.508  1.00 20.00     0.017 A 
HETATM    2  C2  UNL     1     -35.225  15.784  -5.197  1.00 20.00     0.025 C 
HETATM    3  C3  UNL     1     -34.525  14.151  -3.452  1.00 20.00     0.084 C 
HETATM    4  C4  UNL     1     -34.695  16.694  -2.820  1.00 20.00     0.009 A 
HETATM    5  C5  UNL     1     -34.705  14.673  -6.101  1.00 20.00     0.044 C 
HETATM    6  C6  UNL     1     -34.554  15.599  -3.861  1.00 20.00    -0.026 A 
HETATM    7  C7  UNL     1     -35.593  14.429  -7.308  1.00 20.00     0.021 C 
HETATM    8  S9  UNL     1     -34.641  13.216  -5.013  1.00 20.00    -0.164 SA
ENDROOT
BRANCH   4   9
HETATM    9  C8  UNL     1     -34.835  16.396  -1.367  1.00 20.00     0.120 C 
HETATM   10 CL10 UNL     1     -33.890  17.543  -0.378  1.00 20.00    -0.130 Cl
ENDBRANCH   4   9
TORSDOF 1
ENDMDL
MODEL 5
REMARK VINA RESULT:      -3.8     11.715     12.333
REMARK  1 active torsions:
REMARK  status: ('A' for Active; 'I' for Inactive)
REMARK    1  A    between atoms: C4_4  and  C8_8 
ROOT
HETATM    1  C1  UNL     1     -31.759   6.116   3.205  1.00 20.00     0.017 A 
HETATM    2  C2  UNL     1     -34.182   5.426   3.852  1.00 20.00     0.025 C 
HETATM    3  C3  UNL     1     -33.113   7.316   5.072  1.00 20.00     0.084 C 
HETATM    4  C4  UNL     1     -32.687   7.062   2.493  1.00 20.00     0.009 A 
HETATM    5  C5  UNL     1     -34.193   4.842   5.259  1.00 20.00     0.044 C 
HETATM    6  C6  UNL     1     -33.094   6.469   3.829  1.00 20.00    -0.026 A 
HETATM    7  C7  UNL     1     -35.490   4.129   5.593  1.00 20.00     0.021 C 
HETATM    8  S9  UNL     1     -33.928   6.286   6.335  1.00 20.00    -0.164 SA
ENDROOT
BRANCH   4   9
HETATM    9  C8  UNL     1     -32.315   8.497   2.342  1.00 20.00     0.120 C 
HETATM   10 CL10 UNL     1     -32.125   8.938   0.623  1.00 20.00    -0.130 Cl
ENDBRANCH   4   9
TORSDOF 1
ENDMDL
MODEL 6
REMARK VINA RESULT:      -3.7      3.103      4.640
REMARK  1 active torsions:
REMARK  status: ('A' for Active; 'I' for Inactive)
REMARK    1  A    between atoms: C4_4  and  C8_8 
ROOT
HETATM    1  C1  UNL     1     -33.757  16.995  -2.390  1.00 20.00     0.017 A 
HETATM    2  C2  UNL     1     -34.790  17.055  -0.004  1.00 20.00     0.025 C 
HETATM    3  C3  UNL     1     -36.205  17.746  -1.934  1.00 20.00     0.084 C 
HETATM    4  C4  UNL     1     -34.549  15.727  -2.226  1.00 20.00     0.009 A 
HETATM    5  C5  UNL     1     -35.066  18.497   0.402  1.00 20.00     0.044 C 
HETATM    6  C6  UNL     1     -34.981  16.986  -1.497  1.00 20.00    -0.026 A 
HETATM    7  C7  UNL     1     -35.367  18.647   1.882  1.00 20.00     0.021 C 
HETATM    8  S9  UNL     1     -36.492  18.976  -0.622  1.00 20.00    -0.164 SA
ENDROOT
BRANCH   4   9
HETATM    9  C8  UNL     1     -35.316  15.174  -3.378  1.00 20.00     0.120 C 
HETATM   10 CL10 UNL     1     -34.730  13.548  -3.824  1.00 20.00    -0.130 Cl
ENDBRANCH   4   9
TORSDOF 1
ENDMDL
MODEL 7
REMARK VINA RESULT:      -3.7      3.459      4.957
REMARK  1 active torsions:
REMARK  status: ('A' for Active; 'I' for Inactive)
REMARK    1  A    between atoms: C4_4  and  C8_8 
ROOT
HETATM    1  C1  UNL     1     -34.295  14.233  -5.055  1.00 20.00     0.017 A 
HETATM    2  C2  UNL     1     -35.290  15.399  -2.954  1.00 20.00     0.025 C 
HETATM    3  C3  UNL     1     -34.537  16.815  -4.859  1.00 20.00     0.084 C 
HETATM    4  C4  UNL     1     -35.736  14.534  -5.365  1.00 20.00     0.009 A 
HETATM    5  C5  UNL     1     -34.204  16.199  -2.246  1.00 20.00     0.044 C 
HETATM    6  C6  UNL     1     -34.962  15.438  -4.424  1.00 20.00    -0.026 A 
HETATM    7  C7  UNL     1     -34.612  16.646  -0.854  1.00 20.00     0.021 C 
HETATM    8  S9  UNL     1     -33.918  17.620  -3.346  1.00 20.00    -0.164 SA
ENDROOT
BRANCH   4   9
HETATM    9  C8  UNL     1     -36.129  14.963  -6.736  1.00 20.00     0.120 C 
HETATM   10 CL10 UNL     1     -37.890  15.236  -6.849  1.00 20.00    -0.130 Cl
ENDBRANCH   4   9
TORSDOF 1
ENDMDL
MODEL 8
REMARK VINA RESULT:      -3.7     13.164     15.076
REMARK  1 active torsions:
REMARK  status: ('A' for Active; 'I' for Inactive)
REMARK    1  A    between atoms: C4_4  and  C8_8 
ROOT
HETATM    1  C1  UNL     1     -43.093   3.139  -1.766  1.00 20.00     0.017 A 
HETATM    2  C2  UNL     1     -42.722   5.671  -2.232  1.00 20.00     0.025 C 
HETATM    3  C3  UNL     1     -40.834   4.340  -1.300  1.00 20.00     0.084 C 
HETATM    4  C4  UNL     1     -42.401   3.240  -3.098  1.00 20.00     0.009 A 
HETATM    5  C5  UNL     1     -42.529   6.414  -0.916  1.00 20.00     0.044 C 
HETATM    6  C6  UNL     1     -42.147   4.292  -2.034  1.00 20.00    -0.026 A 
HETATM    7  C7  UNL     1     -42.624   7.921  -1.069  1.00 20.00     0.021 C 
HETATM    8  S9  UNL     1     -40.873   5.902  -0.362  1.00 20.00    -0.164 SA
ENDROOT
BRANCH   4   9
HETATM    9  C8  UNL     1     -41.372   2.233  -3.481  1.00 20.00     0.120 C 
HETATM   10 CL10 UNL     1     -42.064   0.589  -3.533  1.00 20.00    -0.130 Cl
ENDBRANCH   4   9
TORSDOF 1
ENDMDL
MODEL 9
REMARK VINA RESULT:      -3.7     14.030     15.976
REMARK  1 active torsions:
REMARK  status: ('A' for Active; 'I' for Inactive)
REMARK    1  A    between atoms: C4_4  and  C8_8 
ROOT
HETATM    1  C1  UNL     1     -43.075   3.592  -3.485  1.00 20.00     0.017 A 
HETATM    2  C2  UNL     1     -41.276   4.317  -1.753  1.00 20.00     0.025 C 
HETATM    3  C3  UNL     1     -43.400   3.318  -0.920  1.00 20.00     0.084 C 
HETATM    4  C4  UNL     1     -42.311   2.353  -3.106  1.00 20.00     0.009 A 
HETATM    5  C5  UNL     1     -41.793   5.495  -0.936  1.00 20.00     0.044 C 
HETATM    6  C6  UNL     1     -42.477   3.475  -2.098  1.00 20.00    -0.026 A 
HETATM    7  C7  UNL     1     -40.703   6.179  -0.131  1.00 20.00     0.021 C 
HETATM    8  S9  UNL     1     -43.058   4.758   0.144  1.00 20.00    -0.164 SA
ENDROOT
BRANCH   4   9
HETATM    9  C8  UNL     1     -43.022   1.051  -2.970  1.00 20.00     0.120 C 
HETATM   10 CL10 UNL     1     -42.021  -0.299  -3.570  1.00 20.00    -0.130 Cl
ENDBRANCH   4   9
TORSDOF 1
ENDMDL
