MODEL 1
REMARK VINA RESULT:      -5.0      0.000      0.000
REMARK  2 active torsions:
REMARK  status: ('A' for Active; 'I' for Inactive)
REMARK    1  A    between atoms: C2_2  and  C6_6 
REMARK    2  A    between atoms: C3_3  and  C7_7 
ROOT
HETATM    1  C1  UNL     1     -34.421   5.115   2.880  1.00 20.00     0.011 A 
HETATM    2  C2  UNL     1     -33.559   6.341   3.032  1.00 20.00     0.004 A 
HETATM    3  C3  UNL     1     -34.549   5.973   4.112  1.00 20.00    -0.006 A 
ENDROOT
BRANCH   3   4
HETATM    4  C7  UNL     1     -34.125   5.447   5.440  1.00 20.00    -0.018 C 
HETATM    5  C4  UNL     1     -34.071   6.559   6.506  1.00 20.00     0.010 C 
HETATM    6  C5  UNL     1     -35.049   4.318   5.932  1.00 20.00     0.010 C 
ENDBRANCH   3   4
BRANCH   2   7
HETATM    7  C6  UNL     1     -32.086   6.207   3.217  1.00 20.00     0.119 C 
HETATM    8 CL8  UNL     1     -31.352   7.756   3.713  1.00 20.00    -0.130 Cl
ENDBRANCH   2   7
TORSDOF 2
ENDMDL
MODEL 2
REMARK VINA RESULT:      -4.2      1.836      2.826
REMARK  2 active torsions:
REMARK  status: ('A' for Active; 'I' for Inactive)
REMARK    1  A    between atoms: C2_2  and  C6_6 
REMARK    2  A    between atoms: C3_3  and  C7_7 
ROOT
HETATM    1  C1  UNL     1     -31.473   7.273   3.872  1.00 20.00     0.011 A 
HETATM    2  C2  UNL     1     -32.054   7.482   2.498  1.00 20.00     0.004 A 
HETATM    3  C3  UNL     1     -32.602   6.397   3.395  1.00 20.00    -0.006 A 
ENDROOT
BRANCH   3   4
HETATM    4  C7  UNL     1     -33.945   6.489   4.033  1.00 20.00    -0.018 C 
HETATM    5  C4  UNL     1     -34.896   5.385   3.531  1.00 20.00     0.010 C 
HETATM    6  C5  UNL     1     -33.857   6.421   5.569  1.00 20.00     0.010 C 
ENDBRANCH   3   4
BRANCH   2   7
HETATM    7  C6  UNL     1     -32.817   8.723   2.186  1.00 20.00     0.119 C 
HETATM    8 CL8  UNL     1     -32.331   9.403   0.608  1.00 20.00    -0.130 Cl
ENDBRANCH   2   7
TORSDOF 2
ENDMDL
MODEL 3
REMARK VINA RESULT:      -4.1      2.261      3.925
REMARK  2 active torsions:
REMARK  status: ('A' for Active; 'I' for Inactive)
REMARK    1  A    between atoms: C2_2  and  C6_6 
REMARK    2  A    between atoms: C3_3  and  C7_7 
ROOT
HETATM    1  C1  UNL     1     -33.357   6.981   6.397  1.00 20.00     0.011 A 
HETATM    2  C2  UNL     1     -34.476   5.994   6.190  1.00 20.00     0.004 A 
HETATM    3  C3  UNL     1     -33.927   6.773   5.018  1.00 20.00    -0.006 A 
ENDROOT
BRANCH   3   4
HETATM    4  C7  UNL     1     -33.101   6.139   3.952  1.00 20.00    -0.018 C 
HETATM    5  C4  UNL     1     -33.965   5.643   2.776  1.00 20.00     0.010 C 
HETATM    6  C5  UNL     1     -32.020   7.096   3.418  1.00 20.00     0.010 C 
ENDBRANCH   3   4
BRANCH   2   7
HETATM    7  C6  UNL     1     -34.233   4.534   6.365  1.00 20.00     0.119 C 
HETATM    8 CL8  UNL     1     -35.191   3.574   5.204  1.00 20.00    -0.130 Cl
ENDBRANCH   2   7
TORSDOF 2
ENDMDL
MODEL 4
REMARK VINA RESULT:      -3.9     11.556     12.427
REMARK  2 active torsions:
REMARK  status: ('A' for Active; 'I' for Inactive)
REMARK    1  A    between atoms: C2_2  and  C6_6 
REMARK    2  A    between atoms: C3_3  and  C7_7 
ROOT
HETATM    1  C1  UNL     1     -33.538  16.226  -4.368  1.00 20.00     0.011 A 
HETATM    2  C2  UNL     1     -32.933  15.019  -3.699  1.00 20.00     0.004 A 
HETATM    3  C3  UNL     1     -33.495  16.146  -2.864  1.00 20.00    -0.006 A 
ENDROOT
BRANCH   3   4
HETATM    4  C7  UNL     1     -34.757  16.011  -2.083  1.00 20.00    -0.018 C 
HETATM    5  C4  UNL     1     -34.651  16.686  -0.701  1.00 20.00     0.010 C 
HETATM    6  C5  UNL     1     -35.965  16.592  -2.839  1.00 20.00     0.010 C 
ENDBRANCH   3   4
BRANCH   2   7
HETATM    7  C6  UNL     1     -33.599  13.690  -3.801  1.00 20.00     0.119 C 
HETATM    8 CL8  UNL     1     -34.695  13.621  -5.207  1.00 20.00    -0.130 Cl
ENDBRANCH   2   7
TORSDOF 2
ENDMDL
MODEL 5
REMARK VINA RESULT:      -3.8      1.427      3.202
REMARK  2 active torsions:
REMARK  status: ('A' for Active; 'I' for Inactive)
REMARK    1  A    between atoms: C2_2  and  C6_6 
REMARK    2  A    between atoms: C3_3  and  C7_7 
ROOT
HETATM    1  C1  UNL     1     -35.220   4.422   5.484  1.00 20.00     0.011 A 
HETATM    2  C2  UNL     1     -34.199   5.189   6.283  1.00 20.00     0.004 A 
HETATM    3  C3  UNL     1     -33.937   4.869   4.830  1.00 20.00    -0.006 A 
ENDROOT
BRANCH   3   4
HETATM    4  C7  UNL     1     -33.961   5.909   3.764  1.00 20.00    -0.018 C 
HETATM    5  C4  UNL     1     -32.547   6.432   3.442  1.00 20.00     0.010 C 
HETATM    6  C5  UNL     1     -34.615   5.391   2.470  1.00 20.00     0.010 C 
ENDBRANCH   3   4
BRANCH   2   7
HETATM    7  C6  UNL     1     -34.498   6.570   6.756  1.00 20.00     0.119 C 
HETATM    8 CL8  UNL     1     -33.005   7.533   6.927  1.00 20.00    -0.130 Cl
ENDBRANCH   2   7
TORSDOF 2
ENDMDL
MODEL 6
REMARK VINA RESULT:      -3.7      2.293      3.771
REMARK  2 active torsions:
REMARK  status: ('A' for Active; 'I' for Inactive)
REMARK    1  A    between atoms: C2_2  and  C6_6 
REMARK    2  A    between atoms: C3_3  and  C7_7 
ROOT
HETATM    1  C1  UNL     1     -34.086   5.724   2.746  1.00 20.00     0.011 A 
HETATM    2  C2  UNL     1     -33.543   5.467   4.128  1.00 20.00     0.004 A 
HETATM    3  C3  UNL     1     -32.674   6.127   3.084  1.00 20.00    -0.006 A 
ENDROOT
BRANCH   3   4
HETATM    4  C7  UNL     1     -32.300   7.568   3.149  1.00 20.00    -0.018 C 
HETATM    5  C4  UNL     1     -31.053   7.797   4.025  1.00 20.00     0.010 C 
HETATM    6  C5  UNL     1     -32.051   8.161   1.750  1.00 20.00     0.010 C 
ENDBRANCH   3   4
BRANCH   2   7
HETATM    7  C6  UNL     1     -34.087   6.207   5.301  1.00 20.00     0.119 C 
HETATM    8 CL8  UNL     1     -34.936   5.108   6.422  1.00 20.00    -0.130 Cl
ENDBRANCH   2   7
TORSDOF 2
ENDMDL
MODEL 7
REMARK VINA RESULT:      -3.7      1.991      3.441
REMARK  2 active torsions:
REMARK  status: ('A' for Active; 'I' for Inactive)
REMARK    1  A    between atoms: C2_2  and  C6_6 
REMARK    2  A    between atoms: C3_3  and  C7_7 
ROOT
HETATM    1  C1  UNL     1     -35.699   5.781   3.964  1.00 20.00     0.011 A 
HETATM    2  C2  UNL     1     -35.048   4.504   4.429  1.00 20.00     0.004 A 
HETATM    3  C3  UNL     1     -34.388   5.344   3.362  1.00 20.00    -0.006 A 
ENDROOT
BRANCH   3   4
HETATM    4  C7  UNL     1     -33.147   6.130   3.615  1.00 20.00    -0.018 C 
HETATM    5  C4  UNL     1     -31.912   5.473   2.970  1.00 20.00     0.010 C 
HETATM    6  C5  UNL     1     -33.272   7.579   3.110  1.00 20.00     0.010 C 
ENDBRANCH   3   4
BRANCH   2   7
HETATM    7  C6  UNL     1     -34.506   4.397   5.813  1.00 20.00     0.119 C 
HETATM    8 CL8  UNL     1     -34.571   5.968   6.657  1.00 20.00    -0.130 Cl
ENDBRANCH   2   7
TORSDOF 2
ENDMDL
MODEL 8
REMARK VINA RESULT:      -3.6     11.636     13.075
REMARK  2 active torsions:
REMARK  status: ('A' for Active; 'I' for Inactive)
REMARK    1  A    between atoms: C2_2  and  C6_6 
REMARK    2  A    between atoms: C3_3  and  C7_7 
ROOT
HETATM    1  C1  UNL     1     -35.053  13.482  -3.956  1.00 20.00     0.011 A 
HETATM    2  C2  UNL     1     -33.654  14.037  -4.011  1.00 20.00     0.004 A 
HETATM    3  C3  UNL     1     -34.450  13.864  -5.283  1.00 20.00    -0.006 A 
ENDROOT
BRANCH   3   4
HETATM    4  C7  UNL     1     -34.994  15.020  -6.050  1.00 20.00    -0.018 C 
HETATM    5  C4  UNL     1     -34.643  14.931  -7.547  1.00 20.00     0.010 C 
HETATM    6  C5  UNL     1     -36.521  15.144  -5.895  1.00 20.00     0.010 C 
ENDBRANCH   3   4
BRANCH   2   7
HETATM    7  C6  UNL     1     -33.352  15.376  -3.432  1.00 20.00     0.119 C 
HETATM    8 CL8  UNL     1     -34.532  15.815  -2.166  1.00 20.00    -0.130 Cl
ENDBRANCH   2   7
TORSDOF 2
ENDMDL
MODEL 9
REMARK VINA RESULT:      -3.6     11.899     12.851
REMARK  2 active torsions:
REMARK  status: ('A' for Active; 'I' for Inactive)
REMARK    1  A    between atoms: C2_2  and  C6_6 
REMARK    2  A    between atoms: C3_3  and  C7_7 
ROOT
HETATM    1  C1  UNL     1     -32.751  14.763  -3.479  1.00 20.00     0.011 A 
HETATM    2  C2  UNL     1     -33.599  15.979  -3.208  1.00 20.00     0.004 A 
HETATM    3  C3  UNL     1     -33.494  15.426  -4.610  1.00 20.00    -0.006 A 
ENDROOT
BRANCH   3   4
HETATM    4  C7  UNL     1     -34.625  14.724  -5.280  1.00 20.00    -0.018 C 
HETATM    5  C4  UNL     1     -34.586  14.903  -6.810  1.00 20.00     0.010 C 
HETATM    6  C5  UNL     1     -34.645  13.221  -4.947  1.00 20.00     0.010 C 
ENDBRANCH   3   4
BRANCH   2   7
HETATM    7  C6  UNL     1     -34.841  15.864  -2.393  1.00 20.00     0.119 C 
HETATM    8 CL8  UNL     1     -34.611  16.551  -0.762  1.00 20.00    -0.130 Cl
ENDBRANCH   2   7
TORSDOF 2
ENDMDL
