MODEL 1
REMARK VINA RESULT:      -4.4      0.000      0.000
REMARK  2 active torsions:
REMARK  status: ('A' for Active; 'I' for Inactive)
REMARK    1  A    between atoms: C4_4  and  C6_6 
REMARK    2  A    between atoms: C7_7  and  C8_8 
ROOT
HETATM    1  C1  UNL     1     -35.467  14.376  -3.843  1.00 20.00     0.034 A 
HETATM    2  C2  UNL     1     -35.029  13.187  -4.379  1.00 20.00     0.142 A 
HETATM    3  C3  UNL     1     -33.254  14.200  -3.624  1.00 20.00     0.148 A 
HETATM    4  C4  UNL     1     -34.313  15.034  -3.353  1.00 20.00    -0.029 A 
HETATM    5  O9  UNL     1     -33.682  13.072  -4.250  1.00 20.00    -0.334 OA
ENDROOT
BRANCH   4   6
HETATM    6  C6  UNL     1     -34.254  16.380  -2.670  1.00 20.00     0.026 A 
HETATM    7  C5  UNL     1     -35.522  17.172  -2.436  1.00 20.00     0.016 A 
HETATM    8  C7  UNL     1     -34.813  16.544  -1.273  1.00 20.00     0.005 A 
BRANCH   8   9
HETATM    9  C8  UNL     1     -34.103  17.396  -0.279  1.00 20.00     0.090 C 
HETATM   10 BR10 UNL     1     -35.237  17.720   1.277  1.00 20.00    -0.096 Br
ENDBRANCH   8   9
ENDBRANCH   4   6
TORSDOF 2
ENDMDL
MODEL 2
REMARK VINA RESULT:      -4.4     11.050     11.689
REMARK  2 active torsions:
REMARK  status: ('A' for Active; 'I' for Inactive)
REMARK    1  A    between atoms: C4_4  and  C6_6 
REMARK    2  A    between atoms: C7_7  and  C8_8 
ROOT
HETATM    1  C1  UNL     1     -34.130   5.747   5.970  1.00 20.00     0.034 A 
HETATM    2  C2  UNL     1     -35.261   4.964   5.979  1.00 20.00     0.142 A 
HETATM    3  C3  UNL     1     -34.763   5.282   3.882  1.00 20.00     0.148 A 
HETATM    4  C4  UNL     1     -33.806   5.953   4.607  1.00 20.00    -0.029 A 
HETATM    5  O9  UNL     1     -35.654   4.677   4.711  1.00 20.00    -0.334 OA
ENDROOT
BRANCH   4   6
HETATM    6  C6  UNL     1     -32.647   6.749   4.057  1.00 20.00     0.026 A 
HETATM    7  C5  UNL     1     -31.775   6.171   2.964  1.00 20.00     0.016 A 
HETATM    8  C7  UNL     1     -32.709   7.301   2.649  1.00 20.00     0.005 A 
BRANCH   8   9
HETATM    9  C8  UNL     1     -32.170   8.658   2.353  1.00 20.00     0.090 C 
HETATM   10 BR10 UNL     1     -32.420   9.097   0.467  1.00 20.00    -0.096 Br
ENDBRANCH   8   9
ENDBRANCH   4   6
TORSDOF 2
ENDMDL
MODEL 3
REMARK VINA RESULT:      -4.4      1.292      1.376
REMARK  2 active torsions:
REMARK  status: ('A' for Active; 'I' for Inactive)
REMARK    1  A    between atoms: C4_4  and  C6_6 
REMARK    2  A    between atoms: C7_7  and  C8_8 
ROOT
HETATM    1  C1  UNL     1     -34.625  15.008  -5.118  1.00 20.00     0.034 A 
HETATM    2  C2  UNL     1     -34.913  13.782  -5.670  1.00 20.00     0.142 A 
HETATM    3  C3  UNL     1     -34.239  13.387  -3.636  1.00 20.00     0.148 A 
HETATM    4  C4  UNL     1     -34.188  14.752  -3.797  1.00 20.00    -0.029 A 
HETATM    5  O9  UNL     1     -34.680  12.788  -4.774  1.00 20.00    -0.334 OA
ENDROOT
BRANCH   4   6
HETATM    6  C6  UNL     1     -33.751  15.769  -2.769  1.00 20.00     0.026 A 
HETATM    7  C5  UNL     1     -33.959  17.247  -3.023  1.00 20.00     0.016 A 
HETATM    8  C7  UNL     1     -34.788  16.547  -1.988  1.00 20.00     0.005 A 
BRANCH   8   9
HETATM    9  C8  UNL     1     -34.577  16.830  -0.540  1.00 20.00     0.090 C 
HETATM   10 BR10 UNL     1     -33.390  18.364  -0.311  1.00 20.00    -0.096 Br
ENDBRANCH   8   9
ENDBRANCH   4   6
TORSDOF 2
ENDMDL
MODEL 4
REMARK VINA RESULT:      -4.2      1.539      1.698
REMARK  2 active torsions:
REMARK  status: ('A' for Active; 'I' for Inactive)
REMARK    1  A    between atoms: C4_4  and  C6_6 
REMARK    2  A    between atoms: C7_7  and  C8_8 
ROOT
HETATM    1  C1  UNL     1     -35.255  14.719  -3.131  1.00 20.00     0.034 A 
HETATM    2  C2  UNL     1     -34.609  13.771  -3.889  1.00 20.00     0.142 A 
HETATM    3  C3  UNL     1     -33.143  15.334  -3.496  1.00 20.00     0.148 A 
HETATM    4  C4  UNL     1     -34.303  15.734  -2.875  1.00 20.00    -0.029 A 
HETATM    5  O9  UNL     1     -33.321  14.138  -4.117  1.00 20.00    -0.334 OA
ENDROOT
BRANCH   4   6
HETATM    6  C6  UNL     1     -34.515  17.002  -2.083  1.00 20.00     0.026 A 
HETATM    7  C5  UNL     1     -34.839  16.933  -0.606  1.00 20.00     0.016 A 
HETATM    8  C7  UNL     1     -33.494  17.427  -1.049  1.00 20.00     0.005 A 
BRANCH   8   9
HETATM    9  C8  UNL     1     -33.137  18.866  -0.898  1.00 20.00     0.090 C 
HETATM   10 BR10 UNL     1     -31.926  19.114   0.613  1.00 20.00    -0.096 Br
ENDBRANCH   8   9
ENDBRANCH   4   6
TORSDOF 2
ENDMDL
MODEL 5
REMARK VINA RESULT:      -3.9      3.732      5.081
REMARK  2 active torsions:
REMARK  status: ('A' for Active; 'I' for Inactive)
REMARK    1  A    between atoms: C4_4  and  C6_6 
REMARK    2  A    between atoms: C7_7  and  C8_8 
ROOT
HETATM    1  C1  UNL     1     -34.831  17.006  -0.144  1.00 20.00     0.034 A 
HETATM    2  C2  UNL     1     -34.741  18.099   0.686  1.00 20.00     0.142 A 
HETATM    3  C3  UNL     1     -33.315  18.443  -0.926  1.00 20.00     0.148 A 
HETATM    4  C4  UNL     1     -33.904  17.230  -1.191  1.00 20.00    -0.029 A 
HETATM    5  O9  UNL     1     -33.819  18.980   0.217  1.00 20.00    -0.334 OA
ENDROOT
BRANCH   4   6
HETATM    6  C6  UNL     1     -33.618  16.320  -2.363  1.00 20.00     0.026 A 
HETATM    7  C5  UNL     1     -34.730  15.500  -2.980  1.00 20.00     0.016 A 
HETATM    8  C7  UNL     1     -34.159  16.663  -3.735  1.00 20.00     0.005 A 
BRANCH   8   9
HETATM    9  C8  UNL     1     -33.323  16.433  -4.946  1.00 20.00     0.090 C 
HETATM   10 BR10 UNL     1     -34.361  15.528  -6.330  1.00 20.00    -0.096 Br
ENDBRANCH   8   9
ENDBRANCH   4   6
TORSDOF 2
ENDMDL
MODEL 6
REMARK VINA RESULT:      -3.9      3.781      4.811
REMARK  2 active torsions:
REMARK  status: ('A' for Active; 'I' for Inactive)
REMARK    1  A    between atoms: C4_4  and  C6_6 
REMARK    2  A    between atoms: C7_7  and  C8_8 
ROOT
HETATM    1  C1  UNL     1     -33.827  14.822  -4.364  1.00 20.00     0.034 A 
HETATM    2  C2  UNL     1     -34.164  13.835  -3.467  1.00 20.00     0.142 A 
HETATM    3  C3  UNL     1     -34.989  13.216  -5.386  1.00 20.00     0.148 A 
HETATM    4  C4  UNL     1     -34.363  14.420  -5.611  1.00 20.00    -0.029 A 
HETATM    5  O9  UNL     1     -34.872  12.853  -4.082  1.00 20.00    -0.334 OA
ENDROOT
BRANCH   4   6
HETATM    6  C6  UNL     1     -34.270  15.161  -6.923  1.00 20.00     0.026 A 
HETATM    7  C5  UNL     1     -35.409  15.099  -7.917  1.00 20.00     0.016 A 
HETATM    8  C7  UNL     1     -35.144  16.372  -7.171  1.00 20.00     0.005 A 
BRANCH   8   9
HETATM    9  C8  UNL     1     -34.593  17.558  -7.885  1.00 20.00     0.090 C 
HETATM   10 BR10 UNL     1     -33.911  18.868  -6.609  1.00 20.00    -0.096 Br
ENDBRANCH   8   9
ENDBRANCH   4   6
TORSDOF 2
ENDMDL
MODEL 7
REMARK VINA RESULT:      -3.9      3.670      4.993
REMARK  2 active torsions:
REMARK  status: ('A' for Active; 'I' for Inactive)
REMARK    1  A    between atoms: C4_4  and  C6_6 
REMARK    2  A    between atoms: C7_7  and  C8_8 
ROOT
HETATM    1  C1  UNL     1     -34.556  16.435  -1.043  1.00 20.00     0.034 A 
HETATM    2  C2  UNL     1     -34.690  17.587  -0.303  1.00 20.00     0.142 A 
HETATM    3  C3  UNL     1     -33.668  18.163  -2.139  1.00 20.00     0.148 A 
HETATM    4  C4  UNL     1     -33.891  16.810  -2.236  1.00 20.00    -0.029 A 
HETATM    5  O9  UNL     1     -34.151  18.644  -0.964  1.00 20.00    -0.334 OA
ENDROOT
BRANCH   4   6
HETATM    6  C6  UNL     1     -33.504  15.908  -3.384  1.00 20.00     0.026 A 
HETATM    7  C5  UNL     1     -34.104  14.523  -3.501  1.00 20.00     0.016 A 
HETATM    8  C7  UNL     1     -34.511  15.593  -4.470  1.00 20.00     0.005 A 
BRANCH   8   9
HETATM    9  C8  UNL     1     -34.076  15.520  -5.893  1.00 20.00     0.090 C 
HETATM   10 BR10 UNL     1     -35.411  14.585  -6.968  1.00 20.00    -0.096 Br
ENDBRANCH   8   9
ENDBRANCH   4   6
TORSDOF 2
ENDMDL
MODEL 8
REMARK VINA RESULT:      -3.8      3.406      4.918
REMARK  2 active torsions:
REMARK  status: ('A' for Active; 'I' for Inactive)
REMARK    1  A    between atoms: C4_4  and  C6_6 
REMARK    2  A    between atoms: C7_7  and  C8_8 
ROOT
HETATM    1  C1  UNL     1     -34.833  17.040   0.012  1.00 20.00     0.034 A 
HETATM    2  C2  UNL     1     -34.161  18.057   0.650  1.00 20.00     0.142 A 
HETATM    3  C3  UNL     1     -33.527  18.127  -1.433  1.00 20.00     0.148 A 
HETATM    4  C4  UNL     1     -34.421  17.086  -1.342  1.00 20.00    -0.029 A 
HETATM    5  O9  UNL     1     -33.363  18.724  -0.223  1.00 20.00    -0.334 OA
ENDROOT
BRANCH   4   6
HETATM    6  C6  UNL     1     -34.869  16.177  -2.461  1.00 20.00     0.026 A 
HETATM    7  C5  UNL     1     -34.404  16.426  -3.879  1.00 20.00     0.016 A 
HETATM    8  C7  UNL     1     -33.876  15.245  -3.121  1.00 20.00     0.005 A 
BRANCH   8   9
HETATM    9  C8  UNL     1     -34.285  13.865  -3.504  1.00 20.00     0.090 C 
HETATM   10 BR10 UNL     1     -34.851  13.813  -5.372  1.00 20.00    -0.096 Br
ENDBRANCH   8   9
ENDBRANCH   4   6
TORSDOF 2
ENDMDL
MODEL 9
REMARK VINA RESULT:      -3.8     12.981     14.816
REMARK  2 active torsions:
REMARK  status: ('A' for Active; 'I' for Inactive)
REMARK    1  A    between atoms: C4_4  and  C6_6 
REMARK    2  A    between atoms: C7_7  and  C8_8 
ROOT
HETATM    1  C1  UNL     1     -42.291   5.560  -2.411  1.00 20.00     0.034 A 
HETATM    2  C2  UNL     1     -41.468   6.425  -1.728  1.00 20.00     0.142 A 
HETATM    3  C3  UNL     1     -40.784   4.418  -1.227  1.00 20.00     0.148 A 
HETATM    4  C4  UNL     1     -41.847   4.256  -2.085  1.00 20.00    -0.029 A 
HETATM    5  O9  UNL     1     -40.547   5.738  -1.005  1.00 20.00    -0.334 OA
ENDROOT
BRANCH   4   6
HETATM    6  C6  UNL     1     -42.422   2.949  -2.578  1.00 20.00     0.026 A 
HETATM    7  C5  UNL     1     -43.141   2.886  -3.908  1.00 20.00     0.016 A 
HETATM    8  C7  UNL     1     -41.793   2.245  -3.762  1.00 20.00     0.005 A 
BRANCH   8   9
HETATM    9  C8  UNL     1     -41.664   0.761  -3.767  1.00 20.00     0.090 C 
HETATM   10 BR10 UNL     1     -42.863  -0.025  -5.092  1.00 20.00    -0.096 Br
ENDBRANCH   8   9
ENDBRANCH   4   6
TORSDOF 2
ENDMDL
