MODEL 1
REMARK VINA RESULT:      -5.1      0.000      0.000
REMARK  1 active torsions:
REMARK  status: ('A' for Active; 'I' for Inactive)
REMARK    1  A    between atoms: C6_6  and  C8_8 
ROOT
HETATM    1  C1  UNL     1     -33.607   6.820   5.178  1.00 20.00     0.036 C 
HETATM    2  C2  UNL     1     -34.807   5.372   3.509  1.00 20.00     0.036 C 
HETATM    3  C3  UNL     1     -32.217   5.591   3.351  1.00 20.00     0.016 A 
HETATM    4  C4  UNL     1     -34.035   5.812   6.242  1.00 20.00     0.168 C 
HETATM    5  C5  UNL     1     -35.158   4.448   4.670  1.00 20.00     0.168 C 
HETATM    6  C6  UNL     1     -32.813   6.794   2.668  1.00 20.00     0.005 A 
HETATM    7  C7  UNL     1     -33.544   6.141   3.827  1.00 20.00    -0.032 A 
HETATM    8  O9  UNL     1     -35.275   5.198   5.883  1.00 20.00    -0.391 OA
ENDROOT
BRANCH   6   9
HETATM    9  C8  UNL     1     -32.156   8.126   2.782  1.00 20.00     0.090 C 
HETATM   10 BR10 UNL     1     -32.161   9.038   1.056  1.00 20.00    -0.096 Br
ENDBRANCH   6   9
TORSDOF 1
ENDMDL
MODEL 2
REMARK VINA RESULT:      -4.1     11.428     12.456
REMARK  1 active torsions:
REMARK  status: ('A' for Active; 'I' for Inactive)
REMARK    1  A    between atoms: C6_6  and  C8_8 
ROOT
HETATM    1  C1  UNL     1     -33.911  16.275  -4.497  1.00 20.00     0.036 C 
HETATM    2  C2  UNL     1     -34.411  13.964  -3.644  1.00 20.00     0.036 C 
HETATM    3  C3  UNL     1     -35.767  15.976  -2.696  1.00 20.00     0.016 A 
HETATM    4  C4  UNL     1     -34.446  15.807  -5.848  1.00 20.00     0.168 C 
HETATM    5  C5  UNL     1     -34.921  13.636  -5.042  1.00 20.00     0.168 C 
HETATM    6  C6  UNL     1     -34.462  15.920  -1.948  1.00 20.00     0.005 A 
HETATM    7  C7  UNL     1     -34.529  15.450  -3.390  1.00 20.00    -0.032 A 
HETATM    8  O9  UNL     1     -34.218  14.406  -6.021  1.00 20.00    -0.391 OA
ENDROOT
BRANCH   6   9
HETATM    9  C8  UNL     1     -33.772  17.178  -1.544  1.00 20.00     0.090 C 
HETATM   10 BR10 UNL     1     -34.474  17.825   0.158  1.00 20.00    -0.096 Br
ENDBRANCH   6   9
TORSDOF 1
ENDMDL
MODEL 3
REMARK VINA RESULT:      -4.1     11.657     12.514
REMARK  1 active torsions:
REMARK  status: ('A' for Active; 'I' for Inactive)
REMARK    1  A    between atoms: C6_6  and  C8_8 
ROOT
HETATM    1  C1  UNL     1     -35.148  14.194  -3.845  1.00 20.00     0.036 C 
HETATM    2  C2  UNL     1     -34.570  16.054  -5.435  1.00 20.00     0.036 C 
HETATM    3  C3  UNL     1     -32.981  15.576  -3.427  1.00 20.00     0.016 A 
HETATM    4  C4  UNL     1     -34.910  13.233  -5.007  1.00 20.00     0.168 C 
HETATM    5  C5  UNL     1     -34.361  14.983  -6.499  1.00 20.00     0.168 C 
HETATM    6  C6  UNL     1     -34.112  16.428  -2.913  1.00 20.00     0.005 A 
HETATM    7  C7  UNL     1     -34.351  15.462  -4.060  1.00 20.00    -0.032 A 
HETATM    8  O9  UNL     1     -35.218  13.864  -6.253  1.00 20.00    -0.391 OA
ENDROOT
BRANCH   6   9
HETATM    9  C8  UNL     1     -34.663  16.203  -1.547  1.00 20.00     0.090 C 
HETATM   10 BR10 UNL     1     -34.164  17.671  -0.361  1.00 20.00    -0.096 Br
ENDBRANCH   6   9
TORSDOF 1
ENDMDL
MODEL 4
REMARK VINA RESULT:      -4.1     11.105     11.928
REMARK  1 active torsions:
REMARK  status: ('A' for Active; 'I' for Inactive)
REMARK    1  A    between atoms: C6_6  and  C8_8 
ROOT
HETATM    1  C1  UNL     1     -33.763  14.619  -3.031  1.00 20.00     0.036 C 
HETATM    2  C2  UNL     1     -36.216  14.879  -3.516  1.00 20.00     0.036 C 
HETATM    3  C3  UNL     1     -34.615  16.867  -4.030  1.00 20.00     0.016 A 
HETATM    4  C4  UNL     1     -33.737  13.561  -4.132  1.00 20.00     0.168 C 
HETATM    5  C5  UNL     1     -36.043  13.811  -4.590  1.00 20.00     0.168 C 
HETATM    6  C6  UNL     1     -34.945  16.923  -2.561  1.00 20.00     0.005 A 
HETATM    7  C7  UNL     1     -34.900  15.585  -3.277  1.00 20.00    -0.032 A 
HETATM    8  O9  UNL     1     -35.002  12.901  -4.224  1.00 20.00    -0.391 OA
ENDROOT
BRANCH   6   9
HETATM    9  C8  UNL     1     -33.911  17.340  -1.573  1.00 20.00     0.090 C 
HETATM   10 BR10 UNL     1     -34.698  17.512   0.205  1.00 20.00    -0.096 Br
ENDBRANCH   6   9
TORSDOF 1
ENDMDL
MODEL 5
REMARK VINA RESULT:      -4.0     10.984     12.304
REMARK  1 active torsions:
REMARK  status: ('A' for Active; 'I' for Inactive)
REMARK    1  A    between atoms: C6_6  and  C8_8 
ROOT
HETATM    1  C1  UNL     1     -35.329  15.237  -4.367  1.00 20.00     0.036 C 
HETATM    2  C2  UNL     1     -32.977  14.641  -3.705  1.00 20.00     0.036 C 
HETATM    3  C3  UNL     1     -34.420  16.071  -2.074  1.00 20.00     0.016 A 
HETATM    4  C4  UNL     1     -35.651  13.748  -4.266  1.00 20.00     0.168 C 
HETATM    5  C5  UNL     1     -33.441  13.191  -3.637  1.00 20.00     0.168 C 
HETATM    6  C6  UNL     1     -33.844  17.006  -3.104  1.00 20.00     0.005 A 
HETATM    7  C7  UNL     1     -34.152  15.567  -3.476  1.00 20.00    -0.032 A 
HETATM    8  O9  UNL     1     -34.497  12.962  -4.575  1.00 20.00    -0.391 OA
ENDROOT
BRANCH   6   9
HETATM    9  C8  UNL     1     -34.648  18.155  -3.609  1.00 20.00     0.090 C 
HETATM   10 BR10 UNL     1     -33.741  19.013  -5.110  1.00 20.00    -0.096 Br
ENDBRANCH   6   9
TORSDOF 1
ENDMDL
MODEL 6
REMARK VINA RESULT:      -4.0      9.695     10.909
REMARK  1 active torsions:
REMARK  status: ('A' for Active; 'I' for Inactive)
REMARK    1  A    between atoms: C6_6  and  C8_8 
ROOT
HETATM    1  C1  UNL     1     -40.825   4.762  -1.161  1.00 20.00     0.036 C 
HETATM    2  C2  UNL     1     -42.189   6.372  -2.528  1.00 20.00     0.036 C 
HETATM    3  C3  UNL     1     -43.293   4.153  -1.726  1.00 20.00     0.016 A 
HETATM    4  C4  UNL     1     -40.812   5.825  -0.066  1.00 20.00     0.168 C 
HETATM    5  C5  UNL     1     -42.099   7.336  -1.351  1.00 20.00     0.168 C 
HETATM    6  C6  UNL     1     -42.502   3.839  -2.968  1.00 20.00     0.005 A 
HETATM    7  C7  UNL     1     -42.043   4.948  -2.039  1.00 20.00    -0.032 A 
HETATM    8  O9  UNL     1     -40.876   7.135  -0.636  1.00 20.00    -0.391 OA
ENDROOT
BRANCH   6   9
HETATM    9  C8  UNL     1     -41.777   2.543  -3.091  1.00 20.00     0.090 C 
HETATM   10 BR10 UNL     1     -42.448   1.528  -4.617  1.00 20.00    -0.096 Br
ENDBRANCH   6   9
TORSDOF 1
ENDMDL
MODEL 7
REMARK VINA RESULT:      -3.9     12.334     13.247
REMARK  1 active torsions:
REMARK  status: ('A' for Active; 'I' for Inactive)
REMARK    1  A    between atoms: C6_6  and  C8_8 
ROOT
HETATM    1  C1  UNL     1     -33.715  18.246  -3.279  1.00 20.00     0.036 C 
HETATM    2  C2  UNL     1     -33.139  15.812  -3.022  1.00 20.00     0.036 C 
HETATM    3  C3  UNL     1     -35.312  16.715  -1.906  1.00 20.00     0.016 A 
HETATM    4  C4  UNL     1     -33.908  17.962  -4.767  1.00 20.00     0.168 C 
HETATM    5  C5  UNL     1     -33.372  15.672  -4.522  1.00 20.00     0.168 C 
HETATM    6  C6  UNL     1     -34.165  17.037  -0.984  1.00 20.00     0.005 A 
HETATM    7  C7  UNL     1     -33.938  16.978  -2.484  1.00 20.00    -0.032 A 
HETATM    8  O9  UNL     1     -33.054  16.897  -5.190  1.00 20.00    -0.391 OA
ENDROOT
BRANCH   6   9
HETATM    9  C8  UNL     1     -34.151  18.316  -0.220  1.00 20.00     0.090 C 
HETATM   10 BR10 UNL     1     -32.322  18.807   0.253  1.00 20.00    -0.096 Br
ENDBRANCH   6   9
TORSDOF 1
ENDMDL
MODEL 8
REMARK VINA RESULT:      -3.9     11.892     12.773
REMARK  1 active torsions:
REMARK  status: ('A' for Active; 'I' for Inactive)
REMARK    1  A    between atoms: C6_6  and  C8_8 
ROOT
HETATM    1  C1  UNL     1     -34.731  17.689  -3.345  1.00 20.00     0.036 C 
HETATM    2  C2  UNL     1     -34.509  16.585  -1.097  1.00 20.00     0.036 C 
HETATM    3  C3  UNL     1     -33.568  15.364  -3.197  1.00 20.00     0.016 A 
HETATM    4  C4  UNL     1     -33.775  18.760  -2.826  1.00 20.00     0.168 C 
HETATM    5  C5  UNL     1     -33.563  17.717  -0.715  1.00 20.00     0.168 C 
HETATM    6  C6  UNL     1     -35.046  15.083  -3.138  1.00 20.00     0.005 A 
HETATM    7  C7  UNL     1     -34.502  16.394  -2.598  1.00 20.00    -0.032 A 
HETATM    8  O9  UNL     1     -33.915  18.916  -1.412  1.00 20.00    -0.391 OA
ENDROOT
BRANCH   6   9
HETATM    9  C8  UNL     1     -35.847  15.003  -4.391  1.00 20.00     0.090 C 
HETATM   10 BR10 UNL     1     -34.716  14.471  -5.890  1.00 20.00    -0.096 Br
ENDBRANCH   6   9
TORSDOF 1
ENDMDL
MODEL 9
REMARK VINA RESULT:      -3.9      9.673     10.778
REMARK  1 active torsions:
REMARK  status: ('A' for Active; 'I' for Inactive)
REMARK    1  A    between atoms: C6_6  and  C8_8 
ROOT
HETATM    1  C1  UNL     1     -42.252   5.412  -2.677  1.00 20.00     0.036 C 
HETATM    2  C2  UNL     1     -40.901   6.886  -1.152  1.00 20.00     0.036 C 
HETATM    3  C3  UNL     1     -43.416   7.445  -1.539  1.00 20.00     0.016 A 
HETATM    4  C4  UNL     1     -42.062   4.304  -1.645  1.00 20.00     0.168 C 
HETATM    5  C5  UNL     1     -40.797   5.693  -0.210  1.00 20.00     0.168 C 
HETATM    6  C6  UNL     1     -42.644   8.015  -2.700  1.00 20.00     0.005 A 
HETATM    7  C7  UNL     1     -42.147   6.762  -2.002  1.00 20.00    -0.032 A 
HETATM    8  O9  UNL     1     -40.823   4.470  -0.951  1.00 20.00    -0.391 OA
ENDROOT
BRANCH   6   9
HETATM    9  C8  UNL     1     -43.224   7.993  -4.072  1.00 20.00     0.090 C 
HETATM   10 BR10 UNL     1     -42.183   9.129  -5.270  1.00 20.00    -0.096 Br
ENDBRANCH   6   9
TORSDOF 1
ENDMDL
