MODEL 1
REMARK VINA RESULT:      -4.0      0.000      0.000
REMARK  3 active torsions:
REMARK  status: ('A' for Active; 'I' for Inactive)
REMARK    1  A    between atoms: C2_2  and  C6_6 
REMARK    2  A    between atoms: C3_3  and  C7_7 
REMARK    3  A    between atoms: C6_6  and  O8_8 
ROOT
HETATM    1  C1  UNL     1     -33.207  14.707  -3.668  1.00 20.00     0.017 A 
HETATM    2  C2  UNL     1     -34.506  14.895  -4.399  1.00 20.00     0.018 A 
HETATM    3  C3  UNL     1     -34.092  15.895  -3.328  1.00 20.00    -0.038 A 
HETATM    4  C4  UNL     1     -33.651  17.258  -3.795  1.00 20.00     0.015 C 
ENDROOT
BRANCH   2   5
HETATM    5  C6  UNL     1     -35.624  13.929  -4.207  1.00 20.00     0.169 C 
BRANCH   5   6
HETATM    6  O8  UNL     1     -35.114  12.597  -4.161  1.00 20.00    -0.400 OA
HETATM    7  H22 UNL     1     -34.333  12.622  -3.585  1.00 20.00     0.209 HD
ENDBRANCH   5   6
ENDBRANCH   2   5
BRANCH   3   8
HETATM    8  C7  UNL     1     -34.786  15.901  -1.991  1.00 20.00     0.005 C 
HETATM    9  C5  UNL     1     -34.219  16.930  -1.055  1.00 20.00     0.006 C 
ENDBRANCH   3   8
TORSDOF 3
ENDMDL
MODEL 2
REMARK VINA RESULT:      -4.0     11.613     12.273
REMARK  3 active torsions:
REMARK  status: ('A' for Active; 'I' for Inactive)
REMARK    1  A    between atoms: C2_2  and  C6_6 
REMARK    2  A    between atoms: C3_3  and  C7_7 
REMARK    3  A    between atoms: C6_6  and  O8_8 
ROOT
HETATM    1  C1  UNL     1     -34.696   6.456   3.159  1.00 20.00     0.017 A 
HETATM    2  C2  UNL     1     -33.363   5.767   3.164  1.00 20.00     0.018 A 
HETATM    3  C3  UNL     1     -34.311   5.582   4.341  1.00 20.00    -0.038 A 
HETATM    4  C4  UNL     1     -34.986   4.242   4.476  1.00 20.00     0.015 C 
ENDROOT
BRANCH   2   5
HETATM    5  C6  UNL     1     -32.105   6.560   3.262  1.00 20.00     0.169 C 
BRANCH   5   6
HETATM    6  O8  UNL     1     -32.167   7.680   2.380  1.00 20.00    -0.400 OA
HETATM    7  H22 UNL     1     -31.257   7.859   2.099  1.00 20.00     0.209 HD
ENDBRANCH   5   6
ENDBRANCH   2   5
BRANCH   3   8
HETATM    8  C7  UNL     1     -34.022   6.257   5.656  1.00 20.00     0.005 C 
HETATM    9  C5  UNL     1     -34.679   5.561   6.814  1.00 20.00     0.006 C 
ENDBRANCH   3   8
TORSDOF 3
ENDMDL
MODEL 3
REMARK VINA RESULT:      -3.8      0.980      1.049
REMARK  3 active torsions:
REMARK  status: ('A' for Active; 'I' for Inactive)
REMARK    1  A    between atoms: C2_2  and  C6_6 
REMARK    2  A    between atoms: C3_3  and  C7_7 
REMARK    3  A    between atoms: C6_6  and  O8_8 
ROOT
HETATM    1  C1  UNL     1     -33.233  15.973  -4.105  1.00 20.00     0.017 A 
HETATM    2  C2  UNL     1     -34.274  14.908  -4.297  1.00 20.00     0.018 A 
HETATM    3  C3  UNL     1     -34.595  16.132  -3.449  1.00 20.00    -0.038 A 
HETATM    4  C4  UNL     1     -35.545  17.144  -4.034  1.00 20.00     0.015 C 
ENDROOT
BRANCH   2   5
HETATM    5  C6  UNL     1     -34.081  13.552  -3.711  1.00 20.00     0.169 C 
BRANCH   5   6
HETATM    6  O8  UNL     1     -35.133  12.685  -4.134  1.00 20.00    -0.400 OA
HETATM    7  H22 UNL     1     -35.945  13.216  -4.126  1.00 20.00     0.209 HD
ENDBRANCH   5   6
ENDBRANCH   2   5
BRANCH   3   8
HETATM    8  C7  UNL     1     -34.677  16.011  -1.950  1.00 20.00     0.005 C 
HETATM    9  C5  UNL     1     -33.924  17.102  -1.244  1.00 20.00     0.006 C 
ENDBRANCH   3   8
TORSDOF 3
ENDMDL
MODEL 4
REMARK VINA RESULT:      -3.8      1.125      2.181
REMARK  3 active torsions:
REMARK  status: ('A' for Active; 'I' for Inactive)
REMARK    1  A    between atoms: C2_2  and  C6_6 
REMARK    2  A    between atoms: C3_3  and  C7_7 
REMARK    3  A    between atoms: C6_6  and  O8_8 
ROOT
HETATM    1  C1  UNL     1     -35.549  15.629  -3.442  1.00 20.00     0.017 A 
HETATM    2  C2  UNL     1     -34.516  14.592  -3.105  1.00 20.00     0.018 A 
HETATM    3  C3  UNL     1     -34.105  16.053  -3.227  1.00 20.00    -0.038 A 
HETATM    4  C4  UNL     1     -33.766  16.781  -1.952  1.00 20.00     0.015 C 
ENDROOT
BRANCH   2   5
HETATM    5  C6  UNL     1     -34.129  13.562  -4.110  1.00 20.00     0.169 C 
BRANCH   5   6
HETATM    6  O8  UNL     1     -35.157  12.577  -4.216  1.00 20.00    -0.400 OA
HETATM    7  H22 UNL     1     -35.930  13.028  -4.588  1.00 20.00     0.209 HD
ENDBRANCH   5   6
ENDBRANCH   2   5
BRANCH   3   8
HETATM    8  C7  UNL     1     -33.319  16.519  -4.425  1.00 20.00     0.005 C 
HETATM    9  C5  UNL     1     -33.637  17.937  -4.804  1.00 20.00     0.006 C 
ENDBRANCH   3   8
TORSDOF 3
ENDMDL
MODEL 5
REMARK VINA RESULT:      -3.7     12.176     12.904
REMARK  3 active torsions:
REMARK  status: ('A' for Active; 'I' for Inactive)
REMARK    1  A    between atoms: C2_2  and  C6_6 
REMARK    2  A    between atoms: C3_3  and  C7_7 
REMARK    3  A    between atoms: C6_6  and  O8_8 
ROOT
HETATM    1  C1  UNL     1     -34.373   4.619   5.759  1.00 20.00     0.017 A 
HETATM    2  C2  UNL     1     -34.463   6.106   5.951  1.00 20.00     0.018 A 
HETATM    3  C3  UNL     1     -34.310   5.535   4.548  1.00 20.00    -0.038 A 
HETATM    4  C4  UNL     1     -35.515   5.596   3.646  1.00 20.00     0.015 C 
ENDROOT
BRANCH   2   5
HETATM    5  C6  UNL     1     -33.368   6.843   6.643  1.00 20.00     0.169 C 
BRANCH   5   6
HETATM    6  O8  UNL     1     -33.915   7.901   7.428  1.00 20.00    -0.400 OA
HETATM    7  H22 UNL     1     -34.433   8.453   6.822  1.00 20.00     0.209 HD
ENDBRANCH   5   6
ENDBRANCH   2   5
BRANCH   3   8
HETATM    8  C7  UNL     1     -32.996   5.659   3.821  1.00 20.00     0.005 C 
HETATM    9  C5  UNL     1     -32.943   6.869   2.933  1.00 20.00     0.006 C 
ENDBRANCH   3   8
TORSDOF 3
ENDMDL
MODEL 6
REMARK VINA RESULT:      -3.6      2.077      3.668
REMARK  3 active torsions:
REMARK  status: ('A' for Active; 'I' for Inactive)
REMARK    1  A    between atoms: C2_2  and  C6_6 
REMARK    2  A    between atoms: C3_3  and  C7_7 
REMARK    3  A    between atoms: C6_6  and  O8_8 
ROOT
HETATM    1  C1  UNL     1     -34.575  13.405  -4.148  1.00 20.00     0.017 A 
HETATM    2  C2  UNL     1     -34.347  14.687  -3.401  1.00 20.00     0.018 A 
HETATM    3  C3  UNL     1     -35.450  14.611  -4.447  1.00 20.00    -0.038 A 
HETATM    4  C4  UNL     1     -36.871  14.593  -3.948  1.00 20.00     0.015 C 
ENDROOT
BRANCH   2   5
HETATM    5  C6  UNL     1     -33.094  15.466  -3.608  1.00 20.00     0.169 C 
BRANCH   5   6
HETATM    6  O8  UNL     1     -31.977  14.581  -3.680  1.00 20.00    -0.400 OA
HETATM    7  H22 UNL     1     -31.854  14.371  -4.619  1.00 20.00     0.209 HD
ENDBRANCH   5   6
ENDBRANCH   2   5
BRANCH   3   8
HETATM    8  C7  UNL     1     -35.277  15.297  -5.777  1.00 20.00     0.005 C 
HETATM    9  C5  UNL     1     -35.324  14.335  -6.930  1.00 20.00     0.006 C 
ENDBRANCH   3   8
TORSDOF 3
ENDMDL
MODEL 7
REMARK VINA RESULT:      -3.6      2.056      3.348
REMARK  3 active torsions:
REMARK  status: ('A' for Active; 'I' for Inactive)
REMARK    1  A    between atoms: C2_2  and  C6_6 
REMARK    2  A    between atoms: C3_3  and  C7_7 
REMARK    3  A    between atoms: C6_6  and  O8_8 
ROOT
HETATM    1  C1  UNL     1     -35.421  15.479  -4.644  1.00 20.00     0.017 A 
HETATM    2  C2  UNL     1     -34.189  14.648  -4.430  1.00 20.00     0.018 A 
HETATM    3  C3  UNL     1     -34.213  15.686  -5.543  1.00 20.00    -0.038 A 
HETATM    4  C4  UNL     1     -33.389  16.930  -5.341  1.00 20.00     0.015 C 
ENDROOT
BRANCH   2   5
HETATM    5  C6  UNL     1     -34.215  13.182  -4.697  1.00 20.00     0.169 C 
BRANCH   5   6
HETATM    6  O8  UNL     1     -35.392  12.605  -4.133  1.00 20.00    -0.400 OA
HETATM    7  H22 UNL     1     -35.190  12.427  -3.202  1.00 20.00     0.209 HD
ENDBRANCH   5   6
ENDBRANCH   2   5
BRANCH   3   8
HETATM    8  C7  UNL     1     -34.318  15.249  -6.981  1.00 20.00     0.005 C 
HETATM    9  C5  UNL     1     -35.021  16.262  -7.839  1.00 20.00     0.006 C 
ENDBRANCH   3   8
TORSDOF 3
ENDMDL
MODEL 8
REMARK VINA RESULT:      -3.5      2.103      3.489
REMARK  3 active torsions:
REMARK  status: ('A' for Active; 'I' for Inactive)
REMARK    1  A    between atoms: C2_2  and  C6_6 
REMARK    2  A    between atoms: C3_3  and  C7_7 
REMARK    3  A    between atoms: C6_6  and  O8_8 
ROOT
HETATM    1  C1  UNL     1     -33.714  16.543  -3.992  1.00 20.00     0.017 A 
HETATM    2  C2  UNL     1     -33.827  16.304  -2.513  1.00 20.00     0.018 A 
HETATM    3  C3  UNL     1     -33.747  15.118  -3.465  1.00 20.00    -0.038 A 
HETATM    4  C4  UNL     1     -32.461  14.332  -3.477  1.00 20.00     0.015 C 
ENDROOT
BRANCH   2   5
HETATM    5  C6  UNL     1     -35.075  16.667  -1.785  1.00 20.00     0.169 C 
BRANCH   5   6
HETATM    6  O8  UNL     1     -34.883  16.504  -0.380  1.00 20.00    -0.400 OA
HETATM    7  H22 UNL     1     -35.124  17.349   0.029  1.00 20.00     0.209 HD
ENDBRANCH   5   6
ENDBRANCH   2   5
BRANCH   3   8
HETATM    8  C7  UNL     1     -34.973  14.288  -3.742  1.00 20.00     0.005 C 
HETATM    9  C5  UNL     1     -34.731  13.239  -4.790  1.00 20.00     0.006 C 
ENDBRANCH   3   8
TORSDOF 3
ENDMDL
MODEL 9
REMARK VINA RESULT:      -3.5      2.073      3.649
REMARK  3 active torsions:
REMARK  status: ('A' for Active; 'I' for Inactive)
REMARK    1  A    between atoms: C2_2  and  C6_6 
REMARK    2  A    between atoms: C3_3  and  C7_7 
REMARK    3  A    between atoms: C6_6  and  O8_8 
ROOT
HETATM    1  C1  UNL     1     -32.909  14.509  -3.625  1.00 20.00     0.017 A 
HETATM    2  C2  UNL     1     -34.249  14.880  -3.060  1.00 20.00     0.018 A 
HETATM    3  C3  UNL     1     -34.122  14.547  -4.540  1.00 20.00    -0.038 A 
HETATM    4  C4  UNL     1     -34.698  13.234  -5.002  1.00 20.00     0.015 C 
ENDROOT
BRANCH   2   5
HETATM    5  C6  UNL     1     -34.502  16.262  -2.565  1.00 20.00     0.169 C 
BRANCH   5   6
HETATM    6  O8  UNL     1     -35.021  16.216  -1.237  1.00 20.00    -0.400 OA
HETATM    7  H22 UNL     1     -34.272  16.381  -0.644  1.00 20.00     0.209 HD
ENDBRANCH   5   6
ENDBRANCH   2   5
BRANCH   3   8
HETATM    8  C7  UNL     1     -34.198  15.644  -5.570  1.00 20.00     0.005 C 
HETATM    9  C5  UNL     1     -34.379  15.112  -6.963  1.00 20.00     0.006 C 
ENDBRANCH   3   8
TORSDOF 3
ENDMDL
