MODEL 1
REMARK VINA RESULT:      -3.9      0.000      0.000
REMARK  2 active torsions:
REMARK  status: ('A' for Active; 'I' for Inactive)
REMARK    1  A    between atoms: C4_4  and  C6_6 
REMARK    2  A    between atoms: C7_7  and  C8_8 
ROOT
HETATM    1  C1  UNL     1     -34.504  16.169  -1.642  1.00 20.00     0.015 A 
HETATM    2  C2  UNL     1     -34.371  17.530  -1.475  1.00 20.00     0.050 A 
HETATM    3  C3  UNL     1     -33.772  16.816  -3.752  1.00 20.00     0.057 A 
HETATM    4  C4  UNL     1     -34.157  15.755  -2.961  1.00 20.00    -0.047 A 
HETATM    5  S9  UNL     1     -33.829  18.303  -2.904  1.00 20.00    -0.113 SA
ENDROOT
BRANCH   4   6
HETATM    6  C6  UNL     1     -34.209  14.295  -3.444  1.00 20.00     0.024 A 
HETATM    7  C5  UNL     1     -34.297  14.031  -4.931  1.00 20.00     0.016 A 
HETATM    8  C7  UNL     1     -35.477  13.729  -4.056  1.00 20.00     0.004 A 
BRANCH   8   9
HETATM    9  C8  UNL     1     -36.728  14.529  -4.188  1.00 20.00     0.090 C 
HETATM   10 BR10 UNL     1     -36.811  15.381  -5.941  1.00 20.00    -0.096 Br
ENDBRANCH   8   9
ENDBRANCH   4   6
TORSDOF 2
ENDMDL
MODEL 2
REMARK VINA RESULT:      -3.8      2.818      4.139
REMARK  2 active torsions:
REMARK  status: ('A' for Active; 'I' for Inactive)
REMARK    1  A    between atoms: C4_4  and  C6_6 
REMARK    2  A    between atoms: C7_7  and  C8_8 
ROOT
HETATM    1  C1  UNL     1     -34.406  15.320  -7.259  1.00 20.00     0.015 A 
HETATM    2  C2  UNL     1     -35.150  16.298  -7.881  1.00 20.00     0.050 A 
HETATM    3  C3  UNL     1     -36.315  15.348  -5.934  1.00 20.00     0.057 A 
HETATM    4  C4  UNL     1     -35.080  14.769  -6.131  1.00 20.00    -0.047 A 
HETATM    5  S9  UNL     1     -36.657  16.549  -7.106  1.00 20.00    -0.113 SA
ENDROOT
BRANCH   4   6
HETATM    6  C6  UNL     1     -34.496  13.661  -5.238  1.00 20.00     0.024 A 
HETATM    7  C5  UNL     1     -35.034  13.510  -3.832  1.00 20.00     0.016 A 
HETATM    8  C7  UNL     1     -33.635  14.009  -4.039  1.00 20.00     0.004 A 
BRANCH   8   9
HETATM    9  C8  UNL     1     -33.284  15.414  -3.687  1.00 20.00     0.090 C 
HETATM   10 BR10 UNL     1     -34.427  16.061  -2.244  1.00 20.00    -0.096 Br
ENDBRANCH   8   9
ENDBRANCH   4   6
TORSDOF 2
ENDMDL
MODEL 3
REMARK VINA RESULT:      -3.8      1.425      1.808
REMARK  2 active torsions:
REMARK  status: ('A' for Active; 'I' for Inactive)
REMARK    1  A    between atoms: C4_4  and  C6_6 
REMARK    2  A    between atoms: C7_7  and  C8_8 
ROOT
HETATM    1  C1  UNL     1     -33.843  15.985  -2.648  1.00 20.00     0.015 A 
HETATM    2  C2  UNL     1     -34.082  17.254  -2.167  1.00 20.00     0.050 A 
HETATM    3  C3  UNL     1     -36.121  16.204  -3.056  1.00 20.00     0.057 A 
HETATM    4  C4  UNL     1     -35.024  15.377  -3.163  1.00 20.00    -0.047 A 
HETATM    5  S9  UNL     1     -35.724  17.707  -2.338  1.00 20.00    -0.113 SA
ENDROOT
BRANCH   4   6
HETATM    6  C6  UNL     1     -35.069  13.961  -3.765  1.00 20.00     0.024 A 
HETATM    7  C5  UNL     1     -33.771  13.330  -4.219  1.00 20.00     0.016 A 
HETATM    8  C7  UNL     1     -34.790  13.741  -5.240  1.00 20.00     0.004 A 
BRANCH   8   9
HETATM    9  C8  UNL     1     -34.498  14.864  -6.176  1.00 20.00     0.090 C 
HETATM   10 BR10 UNL     1     -35.500  14.645  -7.836  1.00 20.00    -0.096 Br
ENDBRANCH   8   9
ENDBRANCH   4   6
TORSDOF 2
ENDMDL
MODEL 4
REMARK VINA RESULT:      -3.8      2.742      3.894
REMARK  2 active torsions:
REMARK  status: ('A' for Active; 'I' for Inactive)
REMARK    1  A    between atoms: C4_4  and  C6_6 
REMARK    2  A    between atoms: C7_7  and  C8_8 
ROOT
HETATM    1  C1  UNL     1     -36.276  15.482  -5.919  1.00 20.00     0.015 A 
HETATM    2  C2  UNL     1     -36.496  16.497  -6.824  1.00 20.00     0.050 A 
HETATM    3  C3  UNL     1     -34.327  15.393  -7.182  1.00 20.00     0.057 A 
HETATM    4  C4  UNL     1     -35.020  14.842  -6.126  1.00 20.00    -0.047 A 
HETATM    5  S9  UNL     1     -35.190  16.675  -7.918  1.00 20.00    -0.113 SA
ENDROOT
BRANCH   4   6
HETATM    6  C6  UNL     1     -34.501  13.672  -5.272  1.00 20.00     0.024 A 
HETATM    7  C5  UNL     1     -35.101  13.460  -3.899  1.00 20.00     0.016 A 
HETATM    8  C7  UNL     1     -33.684  13.934  -4.020  1.00 20.00     0.004 A 
BRANCH   8   9
HETATM    9  C8  UNL     1     -33.316  15.309  -3.578  1.00 20.00     0.090 C 
HETATM   10 BR10 UNL     1     -34.620  15.983  -2.292  1.00 20.00    -0.096 Br
ENDBRANCH   8   9
ENDBRANCH   4   6
TORSDOF 2
ENDMDL
MODEL 5
REMARK VINA RESULT:      -3.8      2.340      3.986
REMARK  2 active torsions:
REMARK  status: ('A' for Active; 'I' for Inactive)
REMARK    1  A    between atoms: C4_4  and  C6_6 
REMARK    2  A    between atoms: C7_7  and  C8_8 
ROOT
HETATM    1  C1  UNL     1     -36.160  15.150  -3.296  1.00 20.00     0.015 A 
HETATM    2  C2  UNL     1     -36.296  14.223  -4.306  1.00 20.00     0.050 A 
HETATM    3  C3  UNL     1     -33.983  14.359  -3.481  1.00 20.00     0.057 A 
HETATM    4  C4  UNL     1     -34.820  15.229  -2.817  1.00 20.00    -0.047 A 
HETATM    5  S9  UNL     1     -34.811  13.453  -4.674  1.00 20.00    -0.113 SA
ENDROOT
BRANCH   4   6
HETATM    6  C6  UNL     1     -34.365  16.174  -1.692  1.00 20.00     0.024 A 
HETATM    7  C5  UNL     1     -35.236  17.363  -1.352  1.00 20.00     0.016 A 
HETATM    8  C7  UNL     1     -33.905  17.585  -2.007  1.00 20.00     0.004 A 
BRANCH   8   9
HETATM    9  C8  UNL     1     -33.837  18.112  -3.400  1.00 20.00     0.090 C 
HETATM   10 BR10 UNL     1     -35.447  19.131  -3.822  1.00 20.00    -0.096 Br
ENDBRANCH   8   9
ENDBRANCH   4   6
TORSDOF 2
ENDMDL
MODEL 6
REMARK VINA RESULT:      -3.7      2.750      3.642
REMARK  2 active torsions:
REMARK  status: ('A' for Active; 'I' for Inactive)
REMARK    1  A    between atoms: C4_4  and  C6_6 
REMARK    2  A    between atoms: C7_7  and  C8_8 
ROOT
HETATM    1  C1  UNL     1     -34.279  15.800  -6.400  1.00 20.00     0.015 A 
HETATM    2  C2  UNL     1     -34.708  16.808  -7.235  1.00 20.00     0.050 A 
HETATM    3  C3  UNL     1     -33.456  17.679  -5.306  1.00 20.00     0.057 A 
HETATM    4  C4  UNL     1     -33.552  16.304  -5.282  1.00 20.00    -0.047 A 
HETATM    5  S9  UNL     1     -34.238  18.355  -6.671  1.00 20.00    -0.113 SA
ENDROOT
BRANCH   4   6
HETATM    6  C6  UNL     1     -32.947  15.417  -4.181  1.00 20.00     0.024 A 
HETATM    7  C5  UNL     1     -33.640  14.116  -3.841  1.00 20.00     0.016 A 
HETATM    8  C7  UNL     1     -33.658  15.243  -2.852  1.00 20.00     0.004 A 
BRANCH   8   9
HETATM    9  C8  UNL     1     -34.939  15.936  -2.533  1.00 20.00     0.090 C 
HETATM   10 BR10 UNL     1     -34.779  16.926  -0.858  1.00 20.00    -0.096 Br
ENDBRANCH   8   9
ENDBRANCH   4   6
TORSDOF 2
ENDMDL
MODEL 7
REMARK VINA RESULT:      -3.7      2.213      3.175
REMARK  2 active torsions:
REMARK  status: ('A' for Active; 'I' for Inactive)
REMARK    1  A    between atoms: C4_4  and  C6_6 
REMARK    2  A    between atoms: C7_7  and  C8_8 
ROOT
HETATM    1  C1  UNL     1     -34.150  15.902  -6.449  1.00 20.00     0.015 A 
HETATM    2  C2  UNL     1     -34.450  16.897  -7.353  1.00 20.00     0.050 A 
HETATM    3  C3  UNL     1     -33.523  17.799  -5.261  1.00 20.00     0.057 A 
HETATM    4  C4  UNL     1     -33.612  16.424  -5.236  1.00 20.00    -0.047 A 
HETATM    5  S9  UNL     1     -34.085  18.453  -6.739  1.00 20.00    -0.113 SA
ENDROOT
BRANCH   4   6
HETATM    6  C6  UNL     1     -33.182  15.553  -4.043  1.00 20.00     0.024 A 
HETATM    7  C5  UNL     1     -33.766  14.164  -3.916  1.00 20.00     0.016 A 
HETATM    8  C7  UNL     1     -34.163  15.225  -2.933  1.00 20.00     0.004 A 
BRANCH   8   9
HETATM    9  C8  UNL     1     -35.559  15.746  -2.920  1.00 20.00     0.090 C 
HETATM   10 BR10 UNL     1     -36.728  14.590  -3.973  1.00 20.00    -0.096 Br
ENDBRANCH   8   9
ENDBRANCH   4   6
TORSDOF 2
ENDMDL
MODEL 8
REMARK VINA RESULT:      -3.6      1.832      2.412
REMARK  2 active torsions:
REMARK  status: ('A' for Active; 'I' for Inactive)
REMARK    1  A    between atoms: C4_4  and  C6_6 
REMARK    2  A    between atoms: C7_7  and  C8_8 
ROOT
HETATM    1  C1  UNL     1     -33.808  16.219  -2.313  1.00 20.00     0.015 A 
HETATM    2  C2  UNL     1     -34.570  16.600  -1.230  1.00 20.00     0.050 A 
HETATM    3  C3  UNL     1     -35.026  17.983  -3.212  1.00 20.00     0.057 A 
HETATM    4  C4  UNL     1     -34.072  17.020  -3.462  1.00 20.00    -0.047 A 
HETATM    5  S9  UNL     1     -35.598  17.919  -1.600  1.00 20.00    -0.113 SA
ENDROOT
BRANCH   4   6
HETATM    6  C6  UNL     1     -33.375  16.829  -4.820  1.00 20.00     0.024 A 
HETATM    7  C5  UNL     1     -34.057  17.362  -6.061  1.00 20.00     0.016 A 
HETATM    8  C7  UNL     1     -33.949  15.881  -5.856  1.00 20.00     0.004 A 
BRANCH   8   9
HETATM    9  C8  UNL     1     -35.175  15.070  -5.607  1.00 20.00     0.090 C 
HETATM   10 BR10 UNL     1     -34.709  13.365  -4.780  1.00 20.00    -0.096 Br
ENDBRANCH   8   9
ENDBRANCH   4   6
TORSDOF 2
ENDMDL
MODEL 9
REMARK VINA RESULT:      -3.6      2.710      3.888
REMARK  2 active torsions:
REMARK  status: ('A' for Active; 'I' for Inactive)
REMARK    1  A    between atoms: C4_4  and  C6_6 
REMARK    2  A    between atoms: C7_7  and  C8_8 
ROOT
HETATM    1  C1  UNL     1     -36.951  14.501  -4.037  1.00 20.00     0.015 A 
HETATM    2  C2  UNL     1     -38.183  14.955  -4.453  1.00 20.00     0.050 A 
HETATM    3  C3  UNL     1     -36.458  15.248  -6.182  1.00 20.00     0.057 A 
HETATM    4  C4  UNL     1     -35.952  14.670  -5.038  1.00 20.00    -0.047 A 
HETATM    5  S9  UNL     1     -38.132  15.584  -6.045  1.00 20.00    -0.113 SA
ENDROOT
BRANCH   4   6
HETATM    6  C6  UNL     1     -34.481  14.254  -4.862  1.00 20.00     0.024 A 
HETATM    7  C5  UNL     1     -33.989  13.913  -3.472  1.00 20.00     0.016 A 
HETATM    8  C7  UNL     1     -33.503  15.164  -4.142  1.00 20.00     0.004 A 
BRANCH   8   9
HETATM    9  C8  UNL     1     -33.895  16.499  -3.608  1.00 20.00     0.090 C 
HETATM   10 BR10 UNL     1     -34.466  16.347  -1.748  1.00 20.00    -0.096 Br
ENDBRANCH   8   9
ENDBRANCH   4   6
TORSDOF 2
ENDMDL
