MODEL 1
REMARK VINA RESULT:      -5.4      0.000      0.000
REMARK  2 active torsions:
REMARK  status: ('A' for Active; 'I' for Inactive)
REMARK    1  A    between atoms: C5_5  and  C6_6 
REMARK    2  A    between atoms: C7_7  and  C8_8 
ROOT
HETATM    1  C4  UNL     1     -31.952   5.895   3.315  1.00 20.00     0.011 A 
HETATM    2  C6  UNL     1     -33.406   6.194   3.092  1.00 20.00    -0.005 A 
HETATM    3  C7  UNL     1     -32.397   7.305   3.034  1.00 20.00     0.000 A 
ENDROOT
BRANCH   2   4
HETATM    4  C5  UNL     1     -34.442   6.090   4.191  1.00 20.00    -0.010 C 
HETATM    5  C2  UNL     1     -33.920   6.171   5.649  1.00 20.00     0.005 C 
HETATM    6  C1  UNL     1     -34.992   5.123   6.014  1.00 20.00     0.001 C 
HETATM    7  C3  UNL     1     -34.940   4.663   4.542  1.00 20.00     0.005 C 
ENDBRANCH   2   4
BRANCH   3   8
HETATM    8  C8  UNL     1     -32.074   7.947   1.729  1.00 20.00     0.090 C 
HETATM    9 BR9  UNL     1     -32.592   9.829   1.745  1.00 20.00    -0.096 Br
ENDBRANCH   3   8
TORSDOF 2
ENDMDL
MODEL 2
REMARK VINA RESULT:      -4.4      2.382      4.604
REMARK  2 active torsions:
REMARK  status: ('A' for Active; 'I' for Inactive)
REMARK    1  A    between atoms: C5_5  and  C6_6 
REMARK    2  A    between atoms: C7_7  and  C8_8 
ROOT
HETATM    1  C4  UNL     1     -32.187   5.925   2.864  1.00 20.00     0.011 A 
HETATM    2  C6  UNL     1     -31.967   7.324   3.361  1.00 20.00    -0.005 A 
HETATM    3  C7  UNL     1     -33.323   6.690   3.487  1.00 20.00     0.000 A 
ENDROOT
BRANCH   2   4
HETATM    4  C5  UNL     1     -31.694   8.489   2.433  1.00 20.00    -0.010 C 
HETATM    5  C2  UNL     1     -32.853   9.497   2.223  1.00 20.00     0.005 C 
HETATM    6  C1  UNL     1     -32.391   9.612   0.756  1.00 20.00     0.001 C 
HETATM    7  C3  UNL     1     -31.786   8.201   0.912  1.00 20.00     0.005 C 
ENDBRANCH   2   4
BRANCH   3   8
HETATM    8  C8  UNL     1     -33.840   6.304   4.830  1.00 20.00     0.090 C 
HETATM    9 BR9  UNL     1     -35.165   4.879   4.668  1.00 20.00    -0.096 Br
ENDBRANCH   3   8
TORSDOF 2
ENDMDL
MODEL 3
REMARK VINA RESULT:      -4.1     10.933     11.562
REMARK  2 active torsions:
REMARK  status: ('A' for Active; 'I' for Inactive)
REMARK    1  A    between atoms: C5_5  and  C6_6 
REMARK    2  A    between atoms: C7_7  and  C8_8 
ROOT
HETATM    1  C4  UNL     1     -33.594  16.832  -2.242  1.00 20.00     0.011 A 
HETATM    2  C6  UNL     1     -34.833  16.077  -2.625  1.00 20.00    -0.005 A 
HETATM    3  C7  UNL     1     -34.639  16.523  -1.204  1.00 20.00     0.000 A 
ENDROOT
BRANCH   2   4
HETATM    4  C5  UNL     1     -34.811  14.619  -3.032  1.00 20.00    -0.010 C 
HETATM    5  C2  UNL     1     -33.657  14.176  -3.969  1.00 20.00     0.005 C 
HETATM    6  C1  UNL     1     -34.672  13.242  -4.658  1.00 20.00     0.001 C 
HETATM    7  C3  UNL     1     -35.778  14.201  -4.171  1.00 20.00     0.005 C 
ENDBRANCH   2   4
BRANCH   3   8
HETATM    8  C8  UNL     1     -35.487  17.613  -0.646  1.00 20.00     0.090 C 
HETATM    9 BR9  UNL     1     -35.273  17.721   1.292  1.00 20.00    -0.096 Br
ENDBRANCH   3   8
TORSDOF 2
ENDMDL
MODEL 4
REMARK VINA RESULT:      -4.0     11.353     12.115
REMARK  2 active torsions:
REMARK  status: ('A' for Active; 'I' for Inactive)
REMARK    1  A    between atoms: C5_5  and  C6_6 
REMARK    2  A    between atoms: C7_7  and  C8_8 
ROOT
HETATM    1  C4  UNL     1     -34.567  14.920  -3.039  1.00 20.00     0.011 A 
HETATM    2  C6  UNL     1     -34.530  16.327  -2.520  1.00 20.00    -0.005 A 
HETATM    3  C7  UNL     1     -33.414  15.822  -3.388  1.00 20.00     0.000 A 
ENDROOT
BRANCH   2   4
HETATM    4  C5  UNL     1     -34.338  16.654  -1.054  1.00 20.00    -0.010 C 
HETATM    5  C2  UNL     1     -35.431  17.530  -0.388  1.00 20.00     0.005 C 
HETATM    6  C1  UNL     1     -34.300  18.198   0.421  1.00 20.00     0.001 C 
HETATM    7  C3  UNL     1     -33.344  17.798  -0.722  1.00 20.00     0.005 C 
ENDBRANCH   2   4
BRANCH   3   8
HETATM    8  C8  UNL     1     -33.261  16.339  -4.776  1.00 20.00     0.090 C 
HETATM    9 BR9  UNL     1     -33.695  18.242  -4.849  1.00 20.00    -0.096 Br
ENDBRANCH   3   8
TORSDOF 2
ENDMDL
MODEL 5
REMARK VINA RESULT:      -4.0     11.023     12.021
REMARK  2 active torsions:
REMARK  status: ('A' for Active; 'I' for Inactive)
REMARK    1  A    between atoms: C5_5  and  C6_6 
REMARK    2  A    between atoms: C7_7  and  C8_8 
ROOT
HETATM    1  C4  UNL     1     -34.414  16.585  -1.370  1.00 20.00     0.011 A 
HETATM    2  C6  UNL     1     -33.966  15.931  -2.645  1.00 20.00    -0.005 A 
HETATM    3  C7  UNL     1     -34.770  17.199  -2.698  1.00 20.00     0.000 A 
ENDROOT
BRANCH   2   4
HETATM    4  C5  UNL     1     -34.511  14.600  -3.119  1.00 20.00    -0.010 C 
HETATM    5  C2  UNL     1     -33.525  13.677  -3.880  1.00 20.00     0.005 C 
HETATM    6  C1  UNL     1     -34.715  13.262  -4.770  1.00 20.00     0.001 C 
HETATM    7  C3  UNL     1     -35.358  14.620  -4.418  1.00 20.00     0.005 C 
ENDBRANCH   2   4
BRANCH   3   8
HETATM    8  C8  UNL     1     -34.125  18.469  -3.132  1.00 20.00     0.090 C 
HETATM    9 BR9  UNL     1     -33.641  18.379  -5.022  1.00 20.00    -0.096 Br
ENDBRANCH   3   8
TORSDOF 2
ENDMDL
MODEL 6
REMARK VINA RESULT:      -4.0     11.618     12.693
REMARK  2 active torsions:
REMARK  status: ('A' for Active; 'I' for Inactive)
REMARK    1  A    between atoms: C5_5  and  C6_6 
REMARK    2  A    between atoms: C7_7  and  C8_8 
ROOT
HETATM    1  C4  UNL     1     -33.604  17.388  -5.102  1.00 20.00     0.011 A 
HETATM    2  C6  UNL     1     -33.276  16.088  -4.427  1.00 20.00    -0.005 A 
HETATM    3  C7  UNL     1     -34.338  16.132  -5.489  1.00 20.00     0.000 A 
ENDROOT
BRANCH   2   4
HETATM    4  C5  UNL     1     -33.590  15.820  -2.971  1.00 20.00    -0.010 C 
HETATM    5  C2  UNL     1     -35.085  15.645  -2.602  1.00 20.00     0.005 C 
HETATM    6  C1  UNL     1     -34.772  16.386  -1.285  1.00 20.00     0.001 C 
HETATM    7  C3  UNL     1     -33.589  17.048  -2.023  1.00 20.00     0.005 C 
ENDBRANCH   2   4
BRANCH   3   8
HETATM    8  C8  UNL     1     -34.091  15.497  -6.813  1.00 20.00     0.090 C 
HETATM    9 BR9  UNL     1     -35.704  14.603  -7.454  1.00 20.00    -0.096 Br
ENDBRANCH   3   8
TORSDOF 2
ENDMDL
MODEL 7
REMARK VINA RESULT:      -4.0     11.292     12.117
REMARK  2 active torsions:
REMARK  status: ('A' for Active; 'I' for Inactive)
REMARK    1  A    between atoms: C5_5  and  C6_6 
REMARK    2  A    between atoms: C7_7  and  C8_8 
ROOT
HETATM    1  C4  UNL     1     -35.876  16.896  -3.726  1.00 20.00     0.011 A 
HETATM    2  C6  UNL     1     -34.652  16.171  -3.247  1.00 20.00    -0.005 A 
HETATM    3  C7  UNL     1     -35.995  15.500  -3.177  1.00 20.00     0.000 A 
ENDROOT
BRANCH   2   4
HETATM    4  C5  UNL     1     -33.883  16.588  -2.011  1.00 20.00    -0.010 C 
HETATM    5  C2  UNL     1     -34.679  16.640  -0.681  1.00 20.00     0.005 C 
HETATM    6  C1  UNL     1     -33.839  17.880  -0.311  1.00 20.00     0.001 C 
HETATM    7  C3  UNL     1     -33.643  18.109  -1.825  1.00 20.00     0.005 C 
ENDBRANCH   2   4
BRANCH   3   8
HETATM    8  C8  UNL     1     -36.304  14.361  -4.085  1.00 20.00     0.090 C 
HETATM    9 BR9  UNL     1     -34.676  13.378  -4.527  1.00 20.00    -0.096 Br
ENDBRANCH   3   8
TORSDOF 2
ENDMDL
MODEL 8
REMARK VINA RESULT:      -4.0     11.114     12.161
REMARK  2 active torsions:
REMARK  status: ('A' for Active; 'I' for Inactive)
REMARK    1  A    between atoms: C5_5  and  C6_6 
REMARK    2  A    between atoms: C7_7  and  C8_8 
ROOT
HETATM    1  C4  UNL     1     -34.992  13.346  -4.139  1.00 20.00     0.011 A 
HETATM    2  C6  UNL     1     -34.972  14.837  -3.968  1.00 20.00    -0.005 A 
HETATM    3  C7  UNL     1     -34.431  14.223  -5.227  1.00 20.00     0.000 A 
ENDROOT
BRANCH   2   4
HETATM    4  C5  UNL     1     -34.088  15.533  -2.955  1.00 20.00    -0.010 C 
HETATM    5  C2  UNL     1     -34.787  16.097  -1.691  1.00 20.00     0.005 C 
HETATM    6  C1  UNL     1     -33.804  17.283  -1.765  1.00 20.00     0.001 C 
HETATM    7  C3  UNL     1     -33.682  16.996  -3.276  1.00 20.00     0.005 C 
ENDBRANCH   2   4
BRANCH   3   8
HETATM    8  C8  UNL     1     -35.169  14.389  -6.510  1.00 20.00     0.090 C 
HETATM    9 BR9  UNL     1     -34.776  16.129  -7.304  1.00 20.00    -0.096 Br
ENDBRANCH   3   8
TORSDOF 2
ENDMDL
MODEL 9
REMARK VINA RESULT:      -3.9     10.689     12.545
REMARK  2 active torsions:
REMARK  status: ('A' for Active; 'I' for Inactive)
REMARK    1  A    between atoms: C5_5  and  C6_6 
REMARK    2  A    between atoms: C7_7  and  C8_8 
ROOT
HETATM    1  C4  UNL     1     -33.563  13.714  -3.813  1.00 20.00     0.011 A 
HETATM    2  C6  UNL     1     -34.012  14.620  -4.922  1.00 20.00    -0.005 A 
HETATM    3  C7  UNL     1     -34.354  14.956  -3.499  1.00 20.00     0.000 A 
ENDROOT
BRANCH   2   4
HETATM    4  C5  UNL     1     -35.057  14.214  -5.939  1.00 20.00    -0.010 C 
HETATM    5  C2  UNL     1     -34.827  14.682  -7.399  1.00 20.00     0.005 C 
HETATM    6  C1  UNL     1     -36.353  14.877  -7.501  1.00 20.00     0.001 C 
HETATM    7  C3  UNL     1     -36.361  15.055  -5.968  1.00 20.00     0.005 C 
ENDBRANCH   2   4
BRANCH   3   8
HETATM    8  C8  UNL     1     -33.698  16.114  -2.831  1.00 20.00     0.090 C 
HETATM    9 BR9  UNL     1     -34.643  16.581  -1.187  1.00 20.00    -0.096 Br
ENDBRANCH   3   8
TORSDOF 2
ENDMDL
