MODEL 1
REMARK VINA RESULT:      -4.6      0.000      0.000
REMARK  2 active torsions:
REMARK  status: ('A' for Active; 'I' for Inactive)
REMARK    1  A    between atoms: C5_5  and  C8_8 
REMARK    2  A    between atoms: C9_9  and  C10_10 
ROOT
HETATM    1  C1  UNL     1     -33.562  15.555  -2.858  1.00 20.00     0.009 A 
HETATM    2  C2  UNL     1     -35.422  17.048  -3.244  1.00 20.00     0.009 A 
HETATM    3  C3  UNL     1     -33.416  15.382  -4.235  1.00 20.00     0.024 A 
HETATM    4  C4  UNL     1     -35.276  16.875  -4.620  1.00 20.00     0.024 A 
HETATM    5  C5  UNL     1     -34.566  16.388  -2.363  1.00 20.00    -0.053 A 
HETATM    6  C6  UNL     1     -34.273  16.043  -5.116  1.00 20.00     0.034 A 
HETATM    7 CL11 UNL     1     -34.093  15.828  -6.814  1.00 20.00    -0.084 Cl
ENDROOT
BRANCH   5   8
HETATM    8  C8  UNL     1     -34.721  16.573  -0.892  1.00 20.00     0.024 A 
HETATM    9  C7  UNL     1     -35.488  17.769  -0.382  1.00 20.00     0.016 A 
HETATM   10  C9  UNL     1     -34.006  17.692  -0.167  1.00 20.00     0.008 A 
BRANCH  10  11
HETATM   11  C10 UNL     1     -33.100  18.654  -0.858  1.00 20.00     0.119 C 
HETATM   12 CL12 UNL     1     -31.776  19.180   0.216  1.00 20.00    -0.130 Cl
ENDBRANCH  10  11
ENDBRANCH   5   8
TORSDOF 2
ENDMDL
MODEL 2
REMARK VINA RESULT:      -4.6      2.121      2.394
REMARK  2 active torsions:
REMARK  status: ('A' for Active; 'I' for Inactive)
REMARK    1  A    between atoms: C5_5  and  C8_8 
REMARK    2  A    between atoms: C9_9  and  C10_10 
ROOT
HETATM    1  C1  UNL     1     -35.054  15.114  -3.233  1.00 20.00     0.009 A 
HETATM    2  C2  UNL     1     -33.427  16.505  -4.354  1.00 20.00     0.009 A 
HETATM    3  C3  UNL     1     -35.415  14.549  -4.457  1.00 20.00     0.024 A 
HETATM    4  C4  UNL     1     -33.787  15.940  -5.578  1.00 20.00     0.024 A 
HETATM    5  C5  UNL     1     -34.061  16.092  -3.182  1.00 20.00    -0.053 A 
HETATM    6  C6  UNL     1     -34.780  14.962  -5.629  1.00 20.00     0.034 A 
HETATM    7 CL11 UNL     1     -35.226  14.265  -7.139  1.00 20.00    -0.084 Cl
ENDROOT
BRANCH   5   8
HETATM    8  C8  UNL     1     -33.676  16.695  -1.874  1.00 20.00     0.024 A 
HETATM    9  C7  UNL     1     -34.663  16.660  -0.733  1.00 20.00     0.016 A 
HETATM   10  C9  UNL     1     -34.328  17.969  -1.381  1.00 20.00     0.008 A 
BRANCH  10  11
HETATM   11  C10 UNL     1     -35.364  18.702  -2.165  1.00 20.00     0.119 C 
HETATM   12 CL12 UNL     1     -36.991  18.034  -1.867  1.00 20.00    -0.130 Cl
ENDBRANCH  10  11
ENDBRANCH   5   8
TORSDOF 2
ENDMDL
MODEL 3
REMARK VINA RESULT:      -4.6      2.121      2.353
REMARK  2 active torsions:
REMARK  status: ('A' for Active; 'I' for Inactive)
REMARK    1  A    between atoms: C5_5  and  C8_8 
REMARK    2  A    between atoms: C9_9  and  C10_10 
ROOT
HETATM    1  C1  UNL     1     -33.429  16.530  -4.360  1.00 20.00     0.009 A 
HETATM    2  C2  UNL     1     -35.067  15.153  -3.237  1.00 20.00     0.009 A 
HETATM    3  C3  UNL     1     -33.794  15.966  -5.583  1.00 20.00     0.024 A 
HETATM    4  C4  UNL     1     -35.431  14.589  -4.459  1.00 20.00     0.024 A 
HETATM    5  C5  UNL     1     -34.066  16.123  -3.187  1.00 20.00    -0.053 A 
HETATM    6  C6  UNL     1     -34.795  14.995  -5.632  1.00 20.00     0.034 A 
HETATM    7 CL11 UNL     1     -35.243  14.299  -7.141  1.00 20.00    -0.084 Cl
ENDROOT
BRANCH   5   8
HETATM    8  C8  UNL     1     -33.677  16.727  -1.881  1.00 20.00     0.024 A 
HETATM    9  C7  UNL     1     -34.654  16.679  -0.732  1.00 20.00     0.016 A 
HETATM   10  C9  UNL     1     -34.335  17.993  -1.379  1.00 20.00     0.008 A 
BRANCH  10  11
HETATM   11  C10 UNL     1     -35.384  18.719  -2.153  1.00 20.00     0.119 C 
HETATM   12 CL12 UNL     1     -37.003  18.038  -1.842  1.00 20.00    -0.130 Cl
ENDBRANCH  10  11
ENDBRANCH   5   8
TORSDOF 2
ENDMDL
MODEL 4
REMARK VINA RESULT:      -4.5      2.338      5.584
REMARK  2 active torsions:
REMARK  status: ('A' for Active; 'I' for Inactive)
REMARK    1  A    between atoms: C5_5  and  C8_8 
REMARK    2  A    between atoms: C9_9  and  C10_10 
ROOT
HETATM    1  C1  UNL     1     -33.757  16.247  -5.057  1.00 20.00     0.009 A 
HETATM    2  C2  UNL     1     -35.014  14.620  -3.787  1.00 20.00     0.009 A 
HETATM    3  C3  UNL     1     -33.482  16.950  -3.884  1.00 20.00     0.024 A 
HETATM    4  C4  UNL     1     -34.739  15.323  -2.614  1.00 20.00     0.024 A 
HETATM    5  C5  UNL     1     -34.524  15.082  -5.008  1.00 20.00    -0.053 A 
HETATM    6  C6  UNL     1     -33.972  16.487  -2.662  1.00 20.00     0.034 A 
HETATM    7 CL11 UNL     1     -33.633  17.355  -1.215  1.00 20.00    -0.084 Cl
ENDROOT
BRANCH   5   8
HETATM    8  C8  UNL     1     -34.817  14.331  -6.262  1.00 20.00     0.024 A 
HETATM    9  C7  UNL     1     -34.615  15.017  -7.591  1.00 20.00     0.016 A 
HETATM   10  C9  UNL     1     -36.004  14.693  -7.128  1.00 20.00     0.008 A 
BRANCH  10  11
HETATM   11  C10 UNL     1     -36.951  15.792  -6.782  1.00 20.00     0.119 C 
HETATM   12 CL12 UNL     1     -38.182  15.239  -5.614  1.00 20.00    -0.130 Cl
ENDBRANCH  10  11
ENDBRANCH   5   8
TORSDOF 2
ENDMDL
MODEL 5
REMARK VINA RESULT:      -4.4      2.388      5.611
REMARK  2 active torsions:
REMARK  status: ('A' for Active; 'I' for Inactive)
REMARK    1  A    between atoms: C5_5  and  C8_8 
REMARK    2  A    between atoms: C9_9  and  C10_10 
ROOT
HETATM    1  C1  UNL     1     -35.008  14.521  -3.886  1.00 20.00     0.009 A 
HETATM    2  C2  UNL     1     -33.808  16.200  -5.142  1.00 20.00     0.009 A 
HETATM    3  C3  UNL     1     -34.724  15.203  -2.703  1.00 20.00     0.024 A 
HETATM    4  C4  UNL     1     -33.524  16.883  -3.960  1.00 20.00     0.024 A 
HETATM    5  C5  UNL     1     -34.550  15.020  -5.106  1.00 20.00    -0.053 A 
HETATM    6  C6  UNL     1     -33.982  16.384  -2.740  1.00 20.00     0.034 A 
HETATM    7 CL11 UNL     1     -33.631  17.225  -1.280  1.00 20.00    -0.084 Cl
ENDROOT
BRANCH   5   8
HETATM    8  C8  UNL     1     -34.854  14.291  -6.370  1.00 20.00     0.024 A 
HETATM    9  C7  UNL     1     -34.649  14.995  -7.689  1.00 20.00     0.016 A 
HETATM   10  C9  UNL     1     -36.039  14.677  -7.228  1.00 20.00     0.008 A 
BRANCH  10  11
HETATM   11  C10 UNL     1     -36.976  15.779  -6.862  1.00 20.00     0.119 C 
HETATM   12 CL12 UNL     1     -38.194  15.227  -5.681  1.00 20.00    -0.130 Cl
ENDBRANCH  10  11
ENDBRANCH   5   8
TORSDOF 2
ENDMDL
MODEL 6
REMARK VINA RESULT:      -4.4      2.058      5.161
REMARK  2 active torsions:
REMARK  status: ('A' for Active; 'I' for Inactive)
REMARK    1  A    between atoms: C5_5  and  C8_8 
REMARK    2  A    between atoms: C9_9  and  C10_10 
ROOT
HETATM    1  C1  UNL     1     -35.012  17.932  -3.537  1.00 20.00     0.009 A 
HETATM    2  C2  UNL     1     -33.916  16.148  -2.331  1.00 20.00     0.009 A 
HETATM    3  C3  UNL     1     -35.635  18.345  -2.359  1.00 20.00     0.024 A 
HETATM    4  C4  UNL     1     -34.538  16.560  -1.154  1.00 20.00     0.024 A 
HETATM    5  C5  UNL     1     -34.152  16.833  -3.523  1.00 20.00    -0.053 A 
HETATM    6  C6  UNL     1     -35.398  17.659  -1.167  1.00 20.00     0.034 A 
HETATM    7 CL11 UNL     1     -36.168  18.168   0.286  1.00 20.00    -0.084 Cl
ENDROOT
BRANCH   5   8
HETATM    8  C8  UNL     1     -33.487  16.393  -4.782  1.00 20.00     0.024 A 
HETATM    9  C7  UNL     1     -34.096  16.781  -6.107  1.00 20.00     0.016 A 
HETATM   10  C9  UNL     1     -34.119  15.346  -5.673  1.00 20.00     0.008 A 
BRANCH  10  11
HETATM   11  C10 UNL     1     -35.415  14.684  -5.347  1.00 20.00     0.119 C 
HETATM   12 CL12 UNL     1     -35.169  13.269  -4.289  1.00 20.00    -0.130 Cl
ENDBRANCH  10  11
ENDBRANCH   5   8
TORSDOF 2
ENDMDL
MODEL 7
REMARK VINA RESULT:      -4.4      1.655      4.717
REMARK  2 active torsions:
REMARK  status: ('A' for Active; 'I' for Inactive)
REMARK    1  A    between atoms: C5_5  and  C8_8 
REMARK    2  A    between atoms: C9_9  and  C10_10 
ROOT
HETATM    1  C1  UNL     1     -34.515  18.117  -3.318  1.00 20.00     0.009 A 
HETATM    2  C2  UNL     1     -34.901  16.392  -1.670  1.00 20.00     0.009 A 
HETATM    3  C3  UNL     1     -33.652  18.767  -2.434  1.00 20.00     0.024 A 
HETATM    4  C4  UNL     1     -34.040  17.042  -0.787  1.00 20.00     0.024 A 
HETATM    5  C5  UNL     1     -35.139  16.929  -2.935  1.00 20.00    -0.053 A 
HETATM    6  C6  UNL     1     -33.415  18.229  -1.169  1.00 20.00     0.034 A 
HETATM    7 CL11 UNL     1     -32.351  19.032  -0.079  1.00 20.00    -0.084 Cl
ENDROOT
BRANCH   5   8
HETATM    8  C8  UNL     1     -36.060  16.235  -3.879  1.00 20.00     0.024 A 
HETATM    9  C7  UNL     1     -36.342  14.766  -3.680  1.00 20.00     0.016 A 
HETATM   10  C9  UNL     1     -35.541  15.212  -4.865  1.00 20.00     0.008 A 
BRANCH  10  11
HETATM   11  C10 UNL     1     -34.097  14.851  -4.969  1.00 20.00     0.119 C 
HETATM   12 CL12 UNL     1     -33.647  13.630  -3.748  1.00 20.00    -0.130 Cl
ENDBRANCH  10  11
ENDBRANCH   5   8
TORSDOF 2
ENDMDL
MODEL 8
REMARK VINA RESULT:      -4.4      1.665      4.623
REMARK  2 active torsions:
REMARK  status: ('A' for Active; 'I' for Inactive)
REMARK    1  A    between atoms: C5_5  and  C8_8 
REMARK    2  A    between atoms: C9_9  and  C10_10 
ROOT
HETATM    1  C1  UNL     1     -34.904  16.386  -1.698  1.00 20.00     0.009 A 
HETATM    2  C2  UNL     1     -34.563  18.112  -3.354  1.00 20.00     0.009 A 
HETATM    3  C3  UNL     1     -34.033  17.047  -0.831  1.00 20.00     0.024 A 
HETATM    4  C4  UNL     1     -33.693  18.773  -2.488  1.00 20.00     0.024 A 
HETATM    5  C5  UNL     1     -35.168  16.919  -2.960  1.00 20.00    -0.053 A 
HETATM    6  C6  UNL     1     -33.428  18.241  -1.226  1.00 20.00     0.034 A 
HETATM    7 CL11 UNL     1     -32.354  19.055  -0.156  1.00 20.00    -0.084 Cl
ENDROOT
BRANCH   5   8
HETATM    8  C8  UNL     1     -36.098  16.212  -3.886  1.00 20.00     0.024 A 
HETATM    9  C7  UNL     1     -36.361  14.741  -3.678  1.00 20.00     0.016 A 
HETATM   10  C9  UNL     1     -35.585  15.192  -4.878  1.00 20.00     0.008 A 
BRANCH  10  11
HETATM   11  C10 UNL     1     -34.140  14.845  -5.007  1.00 20.00     0.119 C 
HETATM   12 CL12 UNL     1     -33.656  13.633  -3.790  1.00 20.00    -0.130 Cl
ENDBRANCH  10  11
ENDBRANCH   5   8
TORSDOF 2
ENDMDL
MODEL 9
REMARK VINA RESULT:      -4.4      2.042      4.980
REMARK  2 active torsions:
REMARK  status: ('A' for Active; 'I' for Inactive)
REMARK    1  A    between atoms: C5_5  and  C8_8 
REMARK    2  A    between atoms: C9_9  and  C10_10 
ROOT
HETATM    1  C1  UNL     1     -33.824  16.211  -2.339  1.00 20.00     0.009 A 
HETATM    2  C2  UNL     1     -35.070  17.883  -3.559  1.00 20.00     0.009 A 
HETATM    3  C3  UNL     1     -34.441  16.615  -1.155  1.00 20.00     0.024 A 
HETATM    4  C4  UNL     1     -35.687  18.287  -2.376  1.00 20.00     0.024 A 
HETATM    5  C5  UNL     1     -34.139  16.845  -3.541  1.00 20.00    -0.053 A 
HETATM    6  C6  UNL     1     -35.373  17.653  -1.173  1.00 20.00     0.034 A 
HETATM    7 CL11 UNL     1     -36.133  18.152   0.288  1.00 20.00    -0.084 Cl
ENDROOT
BRANCH   5   8
HETATM    8  C8  UNL     1     -33.479  16.412  -4.806  1.00 20.00     0.024 A 
HETATM    9  C7  UNL     1     -34.114  16.778  -6.125  1.00 20.00     0.016 A 
HETATM   10  C9  UNL     1     -34.097  15.346  -5.683  1.00 20.00     0.008 A 
BRANCH  10  11
HETATM   11  C10 UNL     1     -35.373  14.656  -5.337  1.00 20.00     0.119 C 
HETATM   12 CL12 UNL     1     -35.087  13.281  -4.237  1.00 20.00    -0.130 Cl
ENDBRANCH  10  11
ENDBRANCH   5   8
TORSDOF 2
ENDMDL
