MODEL 1
REMARK VINA RESULT:      -4.8      0.000      0.000
REMARK  1 active torsions:
REMARK  status: ('A' for Active; 'I' for Inactive)
REMARK    1  A    between atoms: C5_5  and  C7_7 
ROOT
HETATM    1  C1  UNL     1     -35.133   4.505   4.635  1.00 20.00     0.038 C 
HETATM    2  C2  UNL     1     -34.645   6.601   3.174  1.00 20.00     0.018 A 
HETATM    3  C3  UNL     1     -34.862   4.258   6.107  1.00 20.00     0.168 C 
HETATM    4  C4  UNL     1     -34.016   6.359   5.699  1.00 20.00     0.177 C 
HETATM    5  C5  UNL     1     -33.373   5.801   3.196  1.00 20.00     0.007 A 
HETATM    6  C6  UNL     1     -34.328   5.736   4.373  1.00 20.00    -0.012 A 
HETATM    7  O8  UNL     1     -34.716   5.567   6.678  1.00 20.00    -0.390 OA
ENDROOT
BRANCH   5   8
HETATM    8  C7  UNL     1     -32.060   6.501   3.275  1.00 20.00     0.090 C 
HETATM    9 BR9  UNL     1     -32.085   8.122   2.188  1.00 20.00    -0.096 Br
ENDBRANCH   5   8
TORSDOF 1
ENDMDL
MODEL 2
REMARK VINA RESULT:      -4.0     12.174     12.722
REMARK  1 active torsions:
REMARK  status: ('A' for Active; 'I' for Inactive)
REMARK    1  A    between atoms: C5_5  and  C7_7 
ROOT
HETATM    1  C1  UNL     1     -35.599  14.166  -3.834  1.00 20.00     0.038 C 
HETATM    2  C2  UNL     1     -34.795  15.921  -2.090  1.00 20.00     0.018 A 
HETATM    3  C3  UNL     1     -34.795  13.256  -4.744  1.00 20.00     0.168 C 
HETATM    4  C4  UNL     1     -33.220  14.504  -3.621  1.00 20.00     0.177 C 
HETATM    5  C5  UNL     1     -34.791  16.620  -3.420  1.00 20.00     0.007 A 
HETATM    6  C6  UNL     1     -34.558  15.124  -3.353  1.00 20.00    -0.012 A 
HETATM    7  O8  UNL     1     -33.495  13.188  -4.137  1.00 20.00    -0.390 OA
ENDROOT
BRANCH   5   8
HETATM    8  C7  UNL     1     -33.701  17.583  -3.748  1.00 20.00     0.090 C 
HETATM    9 BR9  UNL     1     -33.725  18.019  -5.650  1.00 20.00    -0.096 Br
ENDBRANCH   5   8
TORSDOF 1
ENDMDL
MODEL 3
REMARK VINA RESULT:      -4.0     11.725     12.522
REMARK  1 active torsions:
REMARK  status: ('A' for Active; 'I' for Inactive)
REMARK    1  A    between atoms: C5_5  and  C7_7 
ROOT
HETATM    1  C1  UNL     1     -33.028  15.097  -3.665  1.00 20.00     0.038 C 
HETATM    2  C2  UNL     1     -34.075  17.394  -3.037  1.00 20.00     0.018 A 
HETATM    3  C3  UNL     1     -33.682  13.735  -3.814  1.00 20.00     0.168 C 
HETATM    4  C4  UNL     1     -35.387  15.137  -3.161  1.00 20.00     0.177 C 
HETATM    5  C5  UNL     1     -33.793  16.693  -1.738  1.00 20.00     0.007 A 
HETATM    6  C6  UNL     1     -34.100  15.883  -2.983  1.00 20.00    -0.012 A 
HETATM    7  O8  UNL     1     -35.076  14.018  -4.014  1.00 20.00    -0.390 OA
ENDROOT
BRANCH   5   8
HETATM    8  C7  UNL     1     -34.758  16.812  -0.608  1.00 20.00     0.090 C 
HETATM    9 BR9  UNL     1     -34.186  18.206   0.633  1.00 20.00    -0.096 Br
ENDBRANCH   5   8
TORSDOF 1
ENDMDL
MODEL 4
REMARK VINA RESULT:      -3.9     12.534     13.230
REMARK  1 active torsions:
REMARK  status: ('A' for Active; 'I' for Inactive)
REMARK    1  A    between atoms: C5_5  and  C7_7 
ROOT
HETATM    1  C1  UNL     1     -34.504  13.672  -5.107  1.00 20.00     0.038 C 
HETATM    2  C2  UNL     1     -32.721  14.792  -3.580  1.00 20.00     0.018 A 
HETATM    3  C3  UNL     1     -35.189  14.198  -6.355  1.00 20.00     0.168 C 
HETATM    4  C4  UNL     1     -33.833  15.923  -5.657  1.00 20.00     0.177 C 
HETATM    5  C5  UNL     1     -34.055  15.290  -3.100  1.00 20.00     0.007 A 
HETATM    6  C6  UNL     1     -33.870  14.908  -4.556  1.00 20.00    -0.012 A 
HETATM    7  O8  UNL     1     -34.330  15.248  -6.829  1.00 20.00    -0.390 OA
ENDROOT
BRANCH   5   8
HETATM    8  C7  UNL     1     -34.202  16.708  -2.662  1.00 20.00     0.090 C 
HETATM    9 BR9  UNL     1     -34.619  16.792  -0.757  1.00 20.00    -0.096 Br
ENDBRANCH   5   8
TORSDOF 1
ENDMDL
MODEL 5
REMARK VINA RESULT:      -3.9     11.492     12.579
REMARK  1 active torsions:
REMARK  status: ('A' for Active; 'I' for Inactive)
REMARK    1  A    between atoms: C5_5  and  C7_7 
ROOT
HETATM    1  C1  UNL     1     -35.700  14.707  -5.457  1.00 20.00     0.038 C 
HETATM    2  C2  UNL     1     -36.201  15.596  -3.064  1.00 20.00     0.018 A 
HETATM    3  C3  UNL     1     -34.787  13.582  -5.908  1.00 20.00     0.168 C 
HETATM    4  C4  UNL     1     -34.516  13.678  -3.624  1.00 20.00     0.177 C 
HETATM    5  C5  UNL     1     -34.943  16.285  -3.512  1.00 20.00     0.007 A 
HETATM    6  C6  UNL     1     -35.276  14.902  -4.038  1.00 20.00    -0.012 A 
HETATM    7  O8  UNL     1     -34.601  12.770  -4.739  1.00 20.00    -0.390 OA
ENDROOT
BRANCH   5   8
HETATM    8  C7  UNL     1     -33.842  16.522  -2.536  1.00 20.00     0.090 C 
HETATM    9 BR9  UNL     1     -34.568  16.848  -0.754  1.00 20.00    -0.096 Br
ENDBRANCH   5   8
TORSDOF 1
ENDMDL
MODEL 6
REMARK VINA RESULT:      -3.8     12.187     12.831
REMARK  1 active torsions:
REMARK  status: ('A' for Active; 'I' for Inactive)
REMARK    1  A    between atoms: C5_5  and  C7_7 
ROOT
HETATM    1  C1  UNL     1     -34.603  16.584  -0.972  1.00 20.00     0.038 C 
HETATM    2  C2  UNL     1     -35.764  15.615  -3.089  1.00 20.00     0.018 A 
HETATM    3  C3  UNL     1     -33.551  17.671  -0.848  1.00 20.00     0.168 C 
HETATM    4  C4  UNL     1     -33.903  17.450  -3.112  1.00 20.00     0.177 C 
HETATM    5  C5  UNL     1     -34.465  14.872  -2.947  1.00 20.00     0.007 A 
HETATM    6  C6  UNL     1     -34.581  16.296  -2.438  1.00 20.00    -0.012 A 
HETATM    7  O8  UNL     1     -33.647  18.414  -2.073  1.00 20.00    -0.390 OA
ENDROOT
BRANCH   5   8
HETATM    8  C7  UNL     1     -33.675  14.523  -4.162  1.00 20.00     0.090 C 
HETATM    9 BR9  UNL     1     -34.858  14.263  -5.692  1.00 20.00    -0.096 Br
ENDBRANCH   5   8
TORSDOF 1
ENDMDL
MODEL 7
REMARK VINA RESULT:      -3.7     12.262     12.957
REMARK  1 active torsions:
REMARK  status: ('A' for Active; 'I' for Inactive)
REMARK    1  A    between atoms: C5_5  and  C7_7 
ROOT
HETATM    1  C1  UNL     1     -33.247  15.102  -3.453  1.00 20.00     0.038 C 
HETATM    2  C2  UNL     1     -34.505  13.207  -4.715  1.00 20.00     0.018 A 
HETATM    3  C3  UNL     1     -33.793  16.257  -2.634  1.00 20.00     0.168 C 
HETATM    4  C4  UNL     1     -35.659  15.161  -3.419  1.00 20.00     0.177 C 
HETATM    5  C5  UNL     1     -34.473  14.383  -5.650  1.00 20.00     0.007 A 
HETATM    6  C6  UNL     1     -34.473  14.609  -4.150  1.00 20.00    -0.012 A 
HETATM    7  O8  UNL     1     -35.124  15.856  -2.276  1.00 20.00    -0.390 OA
ENDROOT
BRANCH   5   8
HETATM    8  C7  UNL     1     -35.659  14.685  -6.501  1.00 20.00     0.090 C 
HETATM    9 BR9  UNL     1     -35.310  16.237  -7.631  1.00 20.00    -0.096 Br
ENDBRANCH   5   8
TORSDOF 1
ENDMDL
MODEL 8
REMARK VINA RESULT:      -3.5      9.663     10.611
REMARK  1 active torsions:
REMARK  status: ('A' for Active; 'I' for Inactive)
REMARK    1  A    between atoms: C5_5  and  C7_7 
ROOT
HETATM    1  C1  UNL     1     -41.442   6.998  -1.616  1.00 20.00     0.038 C 
HETATM    2  C2  UNL     1     -40.717   4.581  -0.983  1.00 20.00     0.018 A 
HETATM    3  C3  UNL     1     -42.711   7.756  -1.275  1.00 20.00     0.168 C 
HETATM    4  C4  UNL     1     -43.007   5.670  -0.349  1.00 20.00     0.177 C 
HETATM    5  C5  UNL     1     -41.576   4.453  -2.210  1.00 20.00     0.007 A 
HETATM    6  C6  UNL     1     -41.806   5.598  -1.242  1.00 20.00    -0.012 A 
HETATM    7  O8  UNL     1     -43.251   7.073  -0.133  1.00 20.00    -0.390 OA
ENDROOT
BRANCH   5   8
HETATM    8  C7  UNL     1     -42.526   3.312  -2.332  1.00 20.00     0.090 C 
HETATM    9 BR9  UNL     1     -41.804   1.949  -3.529  1.00 20.00    -0.096 Br
ENDBRANCH   5   8
TORSDOF 1
ENDMDL
MODEL 9
REMARK VINA RESULT:      -3.5     12.675     13.810
REMARK  1 active torsions:
REMARK  status: ('A' for Active; 'I' for Inactive)
REMARK    1  A    between atoms: C5_5  and  C7_7 
ROOT
HETATM    1  C1  UNL     1     -34.689  13.431  -5.325  1.00 20.00     0.038 C 
HETATM    2  C2  UNL     1     -35.314  14.485  -7.619  1.00 20.00     0.018 A 
HETATM    3  C3  UNL     1     -35.277  13.674  -3.947  1.00 20.00     0.168 C 
HETATM    4  C4  UNL     1     -36.417  15.115  -5.335  1.00 20.00     0.177 C 
HETATM    5  C5  UNL     1     -34.360  15.444  -6.963  1.00 20.00     0.007 A 
HETATM    6  C6  UNL     1     -35.257  14.567  -6.110  1.00 20.00    -0.012 A 
HETATM    7  O8  UNL     1     -36.571  14.245  -4.197  1.00 20.00    -0.390 OA
ENDROOT
BRANCH   5   8
HETATM    8  C7  UNL     1     -34.578  16.912  -7.098  1.00 20.00     0.090 C 
HETATM    9 BR9  UNL     1     -33.701  17.869  -5.640  1.00 20.00    -0.096 Br
ENDBRANCH   5   8
TORSDOF 1
ENDMDL
