MODEL 1
REMARK VINA RESULT:      -4.5      0.000      0.000
REMARK  2 active torsions:
REMARK  status: ('A' for Active; 'I' for Inactive)
REMARK    1  A    between atoms: C3_3  and  C7_7 
REMARK    2  A    between atoms: C4_4  and  O8_8 
ROOT
HETATM    1  C1  UNL     1     -34.656   5.002   6.446  1.00 20.00     0.037 C 
HETATM    2  C2  UNL     1     -34.426   6.484   6.064  1.00 20.00    -0.010 C 
HETATM    3  C3  UNL     1     -34.426   6.029   4.570  1.00 20.00     0.018 C 
HETATM    4  C4  UNL     1     -35.241   4.784   5.032  1.00 20.00     0.122 C 
HETATM    5  C5  UNL     1     -33.195   7.146   6.651  1.00 20.00     0.010 C 
ENDROOT
BRANCH   3   6
HETATM    6  C7  UNL     1     -33.088   5.753   3.897  1.00 20.00     0.003 C 
HETATM    7  C6  UNL     1     -32.690   6.863   2.976  1.00 20.00     0.005 C 
ENDBRANCH   3   6
BRANCH   4   8
HETATM    8  O8  UNL     1     -34.928   3.532   4.400  1.00 20.00    -0.395 OA
HETATM    9  H22 UNL     1     -34.286   3.098   4.978  1.00 20.00     0.210 HD
ENDBRANCH   4   8
TORSDOF 2
ENDMDL
MODEL 2
REMARK VINA RESULT:      -4.1     12.322     13.382
REMARK  2 active torsions:
REMARK  status: ('A' for Active; 'I' for Inactive)
REMARK    1  A    between atoms: C3_3  and  C7_7 
REMARK    2  A    between atoms: C4_4  and  O8_8 
ROOT
HETATM    1  C1  UNL     1     -34.951  14.245  -5.965  1.00 20.00     0.037 C 
HETATM    2  C2  UNL     1     -34.067  15.418  -5.479  1.00 20.00    -0.010 C 
HETATM    3  C3  UNL     1     -34.103  14.768  -4.059  1.00 20.00     0.018 C 
HETATM    4  C4  UNL     1     -34.419  13.419  -4.772  1.00 20.00     0.122 C 
HETATM    5  C5  UNL     1     -34.626  16.812  -5.685  1.00 20.00     0.010 C 
ENDROOT
BRANCH   3   6
HETATM    6  C7  UNL     1     -35.137  15.268  -3.060  1.00 20.00     0.003 C 
HETATM    7  C6  UNL     1     -34.510  16.073  -1.966  1.00 20.00     0.005 C 
ENDBRANCH   3   6
BRANCH   4   8
HETATM    8  O8  UNL     1     -35.366  12.551  -4.127  1.00 20.00    -0.395 OA
HETATM    9  H22 UNL     1     -35.074  11.651  -4.321  1.00 20.00     0.210 HD
ENDBRANCH   4   8
TORSDOF 2
ENDMDL
MODEL 3
REMARK VINA RESULT:      -4.0      1.932      3.377
REMARK  2 active torsions:
REMARK  status: ('A' for Active; 'I' for Inactive)
REMARK    1  A    between atoms: C3_3  and  C7_7 
REMARK    2  A    between atoms: C4_4  and  O8_8 
ROOT
HETATM    1  C1  UNL     1     -33.615   5.250   2.962  1.00 20.00     0.037 C 
HETATM    2  C2  UNL     1     -34.891   5.430   3.820  1.00 20.00    -0.010 C 
HETATM    3  C3  UNL     1     -34.154   6.599   4.548  1.00 20.00     0.018 C 
HETATM    4  C4  UNL     1     -33.259   6.720   3.279  1.00 20.00     0.122 C 
HETATM    5  C5  UNL     1     -35.348   4.219   4.609  1.00 20.00     0.010 C 
ENDROOT
BRANCH   3   6
HETATM    6  C7  UNL     1     -33.438   6.299   5.858  1.00 20.00     0.003 C 
HETATM    7  C6  UNL     1     -33.690   7.358   6.884  1.00 20.00     0.005 C 
ENDBRANCH   3   6
BRANCH   4   8
HETATM    8  O8  UNL     1     -31.866   7.005   3.491  1.00 20.00    -0.395 OA
HETATM    9  H22 UNL     1     -31.386   6.229   3.174  1.00 20.00     0.210 HD
ENDBRANCH   4   8
TORSDOF 2
ENDMDL
MODEL 4
REMARK VINA RESULT:      -3.9      9.267     10.183
REMARK  2 active torsions:
REMARK  status: ('A' for Active; 'I' for Inactive)
REMARK    1  A    between atoms: C3_3  and  C7_7 
REMARK    2  A    between atoms: C4_4  and  O8_8 
ROOT
HETATM    1  C1  UNL     1     -42.116   6.101   0.064  1.00 20.00     0.037 C 
HETATM    2  C2  UNL     1     -41.990   4.568   0.236  1.00 20.00    -0.010 C 
HETATM    3  C3  UNL     1     -41.183   4.553  -1.102  1.00 20.00     0.018 C 
HETATM    4  C4  UNL     1     -40.856   6.051  -0.829  1.00 20.00     0.122 C 
HETATM    5  C5  UNL     1     -43.288   3.794   0.343  1.00 20.00     0.010 C 
ENDROOT
BRANCH   3   6
HETATM    6  C7  UNL     1     -41.930   4.244  -2.393  1.00 20.00     0.003 C 
HETATM    7  C6  UNL     1     -41.567   2.898  -2.936  1.00 20.00     0.005 C 
ENDBRANCH   3   6
BRANCH   4   8
HETATM    8  O8  UNL     1     -40.848   6.931  -1.966  1.00 20.00    -0.395 OA
HETATM    9  H22 UNL     1     -41.737   6.886  -2.342  1.00 20.00     0.210 HD
ENDBRANCH   4   8
TORSDOF 2
ENDMDL
MODEL 5
REMARK VINA RESULT:      -3.9     12.295     13.636
REMARK  2 active torsions:
REMARK  status: ('A' for Active; 'I' for Inactive)
REMARK    1  A    between atoms: C3_3  and  C7_7 
REMARK    2  A    between atoms: C4_4  and  O8_8 
ROOT
HETATM    1  C1  UNL     1     -33.942  14.694  -3.561  1.00 20.00     0.037 C 
HETATM    2  C2  UNL     1     -34.391  15.913  -4.403  1.00 20.00    -0.010 C 
HETATM    3  C3  UNL     1     -35.291  14.931  -5.220  1.00 20.00     0.018 C 
HETATM    4  C4  UNL     1     -35.252  13.990  -3.979  1.00 20.00     0.122 C 
HETATM    5  C5  UNL     1     -33.293  16.689  -5.102  1.00 20.00     0.010 C 
ENDROOT
BRANCH   3   6
HETATM    6  C7  UNL     1     -34.744  14.363  -6.522  1.00 20.00     0.003 C 
HETATM    7  C6  UNL     1     -35.696  14.562  -7.659  1.00 20.00     0.005 C 
ENDBRANCH   3   6
BRANCH   4   8
HETATM    8  O8  UNL     1     -35.161  12.579  -4.238  1.00 20.00    -0.395 OA
HETATM    9  H22 UNL     1     -34.985  12.495  -5.185  1.00 20.00     0.210 HD
ENDBRANCH   4   8
TORSDOF 2
ENDMDL
MODEL 6
REMARK VINA RESULT:      -3.8     12.654     13.563
REMARK  2 active torsions:
REMARK  status: ('A' for Active; 'I' for Inactive)
REMARK    1  A    between atoms: C3_3  and  C7_7 
REMARK    2  A    between atoms: C4_4  and  O8_8 
ROOT
HETATM    1  C1  UNL     1     -34.395  15.038  -3.094  1.00 20.00     0.037 C 
HETATM    2  C2  UNL     1     -35.378  14.121  -3.859  1.00 20.00    -0.010 C 
HETATM    3  C3  UNL     1     -34.405  14.208  -5.078  1.00 20.00     0.018 C 
HETATM    4  C4  UNL     1     -33.284  14.560  -4.055  1.00 20.00     0.122 C 
HETATM    5  C5  UNL     1     -36.802  14.623  -3.994  1.00 20.00     0.010 C 
ENDROOT
BRANCH   3   6
HETATM    6  C7  UNL     1     -34.689  15.243  -6.158  1.00 20.00     0.003 C 
HETATM    7  C6  UNL     1     -34.970  14.603  -7.481  1.00 20.00     0.005 C 
ENDBRANCH   3   6
BRANCH   4   8
HETATM    8  O8  UNL     1     -32.324  15.551  -4.460  1.00 20.00    -0.395 OA
HETATM    9  H22 UNL     1     -32.621  16.382  -4.067  1.00 20.00     0.210 HD
ENDBRANCH   4   8
TORSDOF 2
ENDMDL
MODEL 7
REMARK VINA RESULT:      -3.8      1.152      2.804
REMARK  2 active torsions:
REMARK  status: ('A' for Active; 'I' for Inactive)
REMARK    1  A    between atoms: C3_3  and  C7_7 
REMARK    2  A    between atoms: C4_4  and  O8_8 
ROOT
HETATM    1  C1  UNL     1     -34.273   5.535   2.751  1.00 20.00     0.037 C 
HETATM    2  C2  UNL     1     -32.912   5.912   3.385  1.00 20.00    -0.010 C 
HETATM    3  C3  UNL     1     -33.572   5.669   4.780  1.00 20.00     0.018 C 
HETATM    4  C4  UNL     1     -34.601   4.758   4.046  1.00 20.00     0.122 C 
HETATM    5  C5  UNL     1     -32.365   7.283   3.038  1.00 20.00     0.010 C 
ENDROOT
BRANCH   3   6
HETATM    6  C7  UNL     1     -34.138   6.866   5.531  1.00 20.00     0.003 C 
HETATM    7  C6  UNL     1     -33.399   7.124   6.806  1.00 20.00     0.005 C 
ENDBRANCH   3   6
BRANCH   4   8
HETATM    8  O8  UNL     1     -35.963   4.823   4.499  1.00 20.00    -0.395 OA
HETATM    9  H22 UNL     1     -36.397   4.036   4.144  1.00 20.00     0.210 HD
ENDBRANCH   4   8
TORSDOF 2
ENDMDL
MODEL 8
REMARK VINA RESULT:      -3.7     12.590     13.487
REMARK  2 active torsions:
REMARK  status: ('A' for Active; 'I' for Inactive)
REMARK    1  A    between atoms: C3_3  and  C7_7 
REMARK    2  A    between atoms: C4_4  and  O8_8 
ROOT
HETATM    1  C1  UNL     1     -33.800  17.417  -3.460  1.00 20.00     0.037 C 
HETATM    2  C2  UNL     1     -33.686  16.385  -2.312  1.00 20.00    -0.010 C 
HETATM    3  C3  UNL     1     -33.786  15.267  -3.399  1.00 20.00     0.018 C 
HETATM    4  C4  UNL     1     -33.276  16.326  -4.421  1.00 20.00     0.122 C 
HETATM    5  C5  UNL     1     -34.736  16.473  -1.222  1.00 20.00     0.010 C 
ENDROOT
BRANCH   3   6
HETATM    6  C7  UNL     1     -35.150  14.651  -3.680  1.00 20.00     0.003 C 
HETATM    7  C6  UNL     1     -35.030  13.272  -4.248  1.00 20.00     0.005 C 
ENDBRANCH   3   6
BRANCH   4   8
HETATM    8  O8  UNL     1     -33.865  16.298  -5.732  1.00 20.00    -0.395 OA
HETATM    9  H22 UNL     1     -34.747  16.680  -5.634  1.00 20.00     0.210 HD
ENDBRANCH   4   8
TORSDOF 2
ENDMDL
MODEL 9
REMARK VINA RESULT:      -3.7     12.446     13.323
REMARK  2 active torsions:
REMARK  status: ('A' for Active; 'I' for Inactive)
REMARK    1  A    between atoms: C3_3  and  C7_7 
REMARK    2  A    between atoms: C4_4  and  O8_8 
ROOT
HETATM    1  C1  UNL     1     -35.507  15.176  -4.963  1.00 20.00     0.037 C 
HETATM    2  C2  UNL     1     -34.075  15.316  -4.395  1.00 20.00    -0.010 C 
HETATM    3  C3  UNL     1     -34.711  15.292  -2.969  1.00 20.00     0.018 C 
HETATM    4  C4  UNL     1     -35.926  14.557  -3.610  1.00 20.00     0.122 C 
HETATM    5  C5  UNL     1     -33.287  16.529  -4.849  1.00 20.00     0.010 C 
ENDROOT
BRANCH   3   6
HETATM    6  C7  UNL     1     -35.003  16.619  -2.283  1.00 20.00     0.003 C 
HETATM    7  C6  UNL     1     -34.615  16.597  -0.839  1.00 20.00     0.005 C 
ENDBRANCH   3   6
BRANCH   4   8
HETATM    8  O8  UNL     1     -37.231  14.916  -3.124  1.00 20.00    -0.395 OA
HETATM    9  H22 UNL     1     -37.860  14.498  -3.726  1.00 20.00     0.210 HD
ENDBRANCH   4   8
TORSDOF 2
ENDMDL
