MODEL 1
REMARK VINA RESULT:      -4.2      0.000      0.000
REMARK  3 active torsions:
REMARK  status: ('A' for Active; 'I' for Inactive)
REMARK    1  A    between atoms: C2_2  and  C6_6 
REMARK    2  A    between atoms: C3_3  and  C7_7 
REMARK    3  A    between atoms: C6_6  and  O8_8 
ROOT
HETATM    1  C1  UNL     1     -32.969  15.354  -3.548  1.00 20.00     0.017 A 
HETATM    2  C2  UNL     1     -34.021  14.291  -3.396  1.00 20.00     0.018 A 
HETATM    3  C3  UNL     1     -34.373  15.752  -3.120  1.00 20.00    -0.038 A 
HETATM    4  C4  UNL     1     -35.221  16.520  -4.100  1.00 20.00     0.015 C 
ENDROOT
BRANCH   2   5
HETATM    5  C6  UNL     1     -34.522  13.553  -4.589  1.00 20.00     0.169 C 
BRANCH   5   6
HETATM    6  O8  UNL     1     -35.425  12.525  -4.180  1.00 20.00    -0.400 OA
HETATM    7  H22 UNL     1     -36.000  12.349  -4.940  1.00 20.00     0.209 HD
ENDBRANCH   5   6
ENDBRANCH   2   5
BRANCH   3   8
HETATM    8  C7  UNL     1     -34.585  16.151  -1.683  1.00 20.00     0.005 C 
HETATM    9  C5  UNL     1     -33.757  17.340  -1.291  1.00 20.00     0.006 C 
ENDBRANCH   3   8
TORSDOF 3
ENDMDL
MODEL 2
REMARK VINA RESULT:      -4.0     11.710     12.493
REMARK  3 active torsions:
REMARK  status: ('A' for Active; 'I' for Inactive)
REMARK    1  A    between atoms: C2_2  and  C6_6 
REMARK    2  A    between atoms: C3_3  and  C7_7 
REMARK    3  A    between atoms: C6_6  and  O8_8 
ROOT
HETATM    1  C1  UNL     1     -33.904   6.517   5.188  1.00 20.00     0.017 A 
HETATM    2  C2  UNL     1     -33.064   5.797   4.171  1.00 20.00     0.018 A 
HETATM    3  C3  UNL     1     -34.525   5.397   4.369  1.00 20.00    -0.038 A 
HETATM    4  C4  UNL     1     -35.554   5.763   3.332  1.00 20.00     0.015 C 
ENDROOT
BRANCH   2   5
HETATM    5  C6  UNL     1     -32.582   6.509   2.954  1.00 20.00     0.169 C 
BRANCH   5   6
HETATM    6  O8  UNL     1     -31.792   7.636   3.332  1.00 20.00    -0.400 OA
HETATM    7  H22 UNL     1     -32.262   8.420   3.010  1.00 20.00     0.209 HD
ENDBRANCH   5   6
ENDBRANCH   2   5
BRANCH   3   8
HETATM    8  C7  UNL     1     -34.792   4.085   5.059  1.00 20.00     0.005 C 
HETATM    9  C5  UNL     1     -35.168   4.263   6.502  1.00 20.00     0.006 C 
ENDBRANCH   3   8
TORSDOF 3
ENDMDL
MODEL 3
REMARK VINA RESULT:      -4.0     11.977     12.764
REMARK  3 active torsions:
REMARK  status: ('A' for Active; 'I' for Inactive)
REMARK    1  A    between atoms: C2_2  and  C6_6 
REMARK    2  A    between atoms: C3_3  and  C7_7 
REMARK    3  A    between atoms: C6_6  and  O8_8 
ROOT
HETATM    1  C1  UNL     1     -35.470   5.465   4.071  1.00 20.00     0.017 A 
HETATM    2  C2  UNL     1     -34.468   4.421   4.475  1.00 20.00     0.018 A 
HETATM    3  C3  UNL     1     -34.013   5.862   4.249  1.00 20.00    -0.038 A 
HETATM    4  C4  UNL     1     -33.653   6.731   5.424  1.00 20.00     0.015 C 
ENDROOT
BRANCH   2   5
HETATM    5  C6  UNL     1     -34.532   3.799   5.827  1.00 20.00     0.169 C 
BRANCH   5   6
HETATM    6  O8  UNL     1     -35.790   4.091   6.436  1.00 20.00    -0.400 OA
HETATM    7  H22 UNL     1     -36.376   4.388   5.724  1.00 20.00     0.209 HD
ENDBRANCH   5   6
ENDBRANCH   2   5
BRANCH   3   8
HETATM    8  C7  UNL     1     -33.204   6.143   3.009  1.00 20.00     0.005 C 
HETATM    9  C5  UNL     1     -32.065   7.085   3.270  1.00 20.00     0.006 C 
ENDBRANCH   3   8
TORSDOF 3
ENDMDL
MODEL 4
REMARK VINA RESULT:      -4.0     10.588     11.486
REMARK  3 active torsions:
REMARK  status: ('A' for Active; 'I' for Inactive)
REMARK    1  A    between atoms: C2_2  and  C6_6 
REMARK    2  A    between atoms: C3_3  and  C7_7 
REMARK    3  A    between atoms: C6_6  and  O8_8 
ROOT
HETATM    1  C1  UNL     1     -32.241   5.563   3.222  1.00 20.00     0.017 A 
HETATM    2  C2  UNL     1     -32.867   6.786   2.613  1.00 20.00     0.018 A 
HETATM    3  C3  UNL     1     -33.505   6.138   3.841  1.00 20.00    -0.038 A 
HETATM    4  C4  UNL     1     -33.396   6.804   5.186  1.00 20.00     0.015 C 
ENDROOT
BRANCH   2   5
HETATM    5  C6  UNL     1     -32.164   8.098   2.669  1.00 20.00     0.169 C 
BRANCH   5   6
HETATM    6  O8  UNL     1     -31.836   8.529   1.348  1.00 20.00    -0.400 OA
HETATM    7  H22 UNL     1     -30.870   8.492   1.281  1.00 20.00     0.209 HD
ENDBRANCH   5   6
ENDBRANCH   2   5
BRANCH   3   8
HETATM    8  C7  UNL     1     -34.794   5.387   3.632  1.00 20.00     0.005 C 
HETATM    9  C5  UNL     1     -35.190   4.583   4.837  1.00 20.00     0.006 C 
ENDBRANCH   3   8
TORSDOF 3
ENDMDL
MODEL 5
REMARK VINA RESULT:      -3.6      1.698      2.250
REMARK  3 active torsions:
REMARK  status: ('A' for Active; 'I' for Inactive)
REMARK    1  A    between atoms: C2_2  and  C6_6 
REMARK    2  A    between atoms: C3_3  and  C7_7 
REMARK    3  A    between atoms: C6_6  and  O8_8 
ROOT
HETATM    1  C1  UNL     1     -33.363  14.504  -3.876  1.00 20.00     0.017 A 
HETATM    2  C2  UNL     1     -34.814  14.857  -3.713  1.00 20.00     0.018 A 
HETATM    3  C3  UNL     1     -33.948  15.641  -4.699  1.00 20.00    -0.038 A 
HETATM    4  C4  UNL     1     -34.116  15.430  -6.180  1.00 20.00     0.015 C 
ENDROOT
BRANCH   2   5
HETATM    5  C6  UNL     1     -35.874  13.906  -4.151  1.00 20.00     0.169 C 
BRANCH   5   6
HETATM    6  O8  UNL     1     -35.367  12.571  -4.129  1.00 20.00    -0.400 OA
HETATM    7  H22 UNL     1     -35.911  12.083  -3.493  1.00 20.00     0.209 HD
ENDBRANCH   5   6
ENDBRANCH   2   5
BRANCH   3   8
HETATM    8  C7  UNL     1     -33.574  17.050  -4.319  1.00 20.00     0.005 C 
HETATM    9  C5  UNL     1     -33.600  17.984  -5.494  1.00 20.00     0.006 C 
ENDBRANCH   3   8
TORSDOF 3
ENDMDL
MODEL 6
REMARK VINA RESULT:      -3.6      1.868      2.483
REMARK  3 active torsions:
REMARK  status: ('A' for Active; 'I' for Inactive)
REMARK    1  A    between atoms: C2_2  and  C6_6 
REMARK    2  A    between atoms: C3_3  and  C7_7 
REMARK    3  A    between atoms: C6_6  and  O8_8 
ROOT
HETATM    1  C1  UNL     1     -35.761  14.715  -3.780  1.00 20.00     0.017 A 
HETATM    2  C2  UNL     1     -35.008  15.251  -4.965  1.00 20.00     0.018 A 
HETATM    3  C3  UNL     1     -34.259  14.926  -3.673  1.00 20.00    -0.038 A 
HETATM    4  C4  UNL     1     -33.376  13.709  -3.602  1.00 20.00     0.015 C 
ENDROOT
BRANCH   2   5
HETATM    5  C6  UNL     1     -34.872  14.434  -6.203  1.00 20.00     0.169 C 
BRANCH   5   6
HETATM    6  O8  UNL     1     -33.866  14.995  -7.047  1.00 20.00    -0.400 OA
HETATM    7  H22 UNL     1     -33.187  14.311  -7.153  1.00 20.00     0.209 HD
ENDBRANCH   5   6
ENDBRANCH   2   5
BRANCH   3   8
HETATM    8  C7  UNL     1     -33.768  16.088  -2.850  1.00 20.00     0.005 C 
HETATM    9  C5  UNL     1     -34.543  16.253  -1.575  1.00 20.00     0.006 C 
ENDBRANCH   3   8
TORSDOF 3
ENDMDL
MODEL 7
REMARK VINA RESULT:      -3.6      2.252      3.759
REMARK  3 active torsions:
REMARK  status: ('A' for Active; 'I' for Inactive)
REMARK    1  A    between atoms: C2_2  and  C6_6 
REMARK    2  A    between atoms: C3_3  and  C7_7 
REMARK    3  A    between atoms: C6_6  and  O8_8 
ROOT
HETATM    1  C1  UNL     1     -35.639  15.623  -3.273  1.00 20.00     0.017 A 
HETATM    2  C2  UNL     1     -34.726  15.553  -2.082  1.00 20.00     0.018 A 
HETATM    3  C3  UNL     1     -34.184  15.231  -3.474  1.00 20.00    -0.038 A 
HETATM    4  C4  UNL     1     -33.277  16.207  -4.173  1.00 20.00     0.015 C 
ENDROOT
BRANCH   2   5
HETATM    5  C6  UNL     1     -34.359  16.792  -1.341  1.00 20.00     0.169 C 
BRANCH   5   6
HETATM    6  O8  UNL     1     -35.030  16.822  -0.081  1.00 20.00    -0.400 OA
HETATM    7  H22 UNL     1     -35.845  17.327  -0.218  1.00 20.00     0.209 HD
ENDBRANCH   5   6
ENDBRANCH   2   5
BRANCH   3   8
HETATM    8  C7  UNL     1     -33.880  13.787  -3.777  1.00 20.00     0.005 C 
HETATM    9  C5  UNL     1     -34.716  13.250  -4.903  1.00 20.00     0.006 C 
ENDBRANCH   3   8
TORSDOF 3
ENDMDL
MODEL 8
REMARK VINA RESULT:      -3.6     11.991     12.712
REMARK  3 active torsions:
REMARK  status: ('A' for Active; 'I' for Inactive)
REMARK    1  A    between atoms: C2_2  and  C6_6 
REMARK    2  A    between atoms: C3_3  and  C7_7 
REMARK    3  A    between atoms: C6_6  and  O8_8 
ROOT
HETATM    1  C1  UNL     1     -35.734   5.557   4.021  1.00 20.00     0.017 A 
HETATM    2  C2  UNL     1     -34.291   5.965   3.923  1.00 20.00     0.018 A 
HETATM    3  C3  UNL     1     -34.748   5.061   5.067  1.00 20.00    -0.038 A 
HETATM    4  C4  UNL     1     -34.386   3.600   5.062  1.00 20.00     0.015 C 
ENDROOT
BRANCH   2   5
HETATM    5  C6  UNL     1     -33.446   5.476   2.798  1.00 20.00     0.169 C 
BRANCH   5   6
HETATM    6  O8  UNL     1     -32.114   5.970   2.941  1.00 20.00    -0.400 OA
HETATM    7  H22 UNL     1     -31.714   5.471   3.669  1.00 20.00     0.209 HD
ENDBRANCH   5   6
ENDBRANCH   2   5
BRANCH   3   8
HETATM    8  C7  UNL     1     -34.814   5.670   6.443  1.00 20.00     0.005 C 
HETATM    9  C5  UNL     1     -33.816   6.776   6.627  1.00 20.00     0.006 C 
ENDBRANCH   3   8
TORSDOF 3
ENDMDL
MODEL 9
REMARK VINA RESULT:      -3.5      1.454      2.345
REMARK  3 active torsions:
REMARK  status: ('A' for Active; 'I' for Inactive)
REMARK    1  A    between atoms: C2_2  and  C6_6 
REMARK    2  A    between atoms: C3_3  and  C7_7 
REMARK    3  A    between atoms: C6_6  and  O8_8 
ROOT
HETATM    1  C1  UNL     1     -35.427  15.601  -4.643  1.00 20.00     0.017 A 
HETATM    2  C2  UNL     1     -34.291  14.632  -4.809  1.00 20.00     0.018 A 
HETATM    3  C3  UNL     1     -34.021  16.032  -4.260  1.00 20.00    -0.038 A 
HETATM    4  C4  UNL     1     -33.711  16.220  -2.799  1.00 20.00     0.015 C 
ENDROOT
BRANCH   2   5
HETATM    5  C6  UNL     1     -34.218  13.407  -3.964  1.00 20.00     0.169 C 
BRANCH   5   6
HETATM    6  O8  UNL     1     -35.378  12.601  -4.176  1.00 20.00    -0.400 OA
HETATM    7  H22 UNL     1     -35.057  11.711  -4.386  1.00 20.00     0.209 HD
ENDBRANCH   5   6
ENDBRANCH   2   5
BRANCH   3   8
HETATM    8  C7  UNL     1     -33.310  17.002  -5.166  1.00 20.00     0.005 C 
HETATM    9  C5  UNL     1     -33.659  18.430  -4.863  1.00 20.00     0.006 C 
ENDBRANCH   3   8
TORSDOF 3
ENDMDL
