MODEL 1
REMARK VINA RESULT:      -4.5      0.000      0.000
REMARK  3 active torsions:
REMARK  status: ('A' for Active; 'I' for Inactive)
REMARK    1  A    between atoms: C1_1  and  C6_6 
REMARK    2  A    between atoms: C6_6  and  C7_7 
REMARK    3  A    between atoms: C7_7  and  C8_8 
ROOT
HETATM    1  C2  UNL     1     -33.341  17.034  -5.193  1.00 20.00     0.014 C 
HETATM    2  C7  UNL     1     -33.863  16.044  -4.136  1.00 20.00     0.034 C 
ENDROOT
BRANCH   2   3
HETATM    3  C6  UNL     1     -34.513  14.841  -4.847  1.00 20.00     0.275 C 
HETATM    4  F11 UNL     1     -34.105  14.815  -6.146  1.00 20.00    -0.237 F 
BRANCH   3   5
HETATM    5  C1  UNL     1     -34.204  13.451  -4.274  1.00 20.00     0.208 C 
HETATM    6  O9  UNL     1     -35.111  12.585  -4.421  1.00 20.00    -0.646 OA
HETATM    7  O10 UNL     1     -33.084  13.345  -3.697  1.00 20.00    -0.646 OA
ENDBRANCH   3   5
ENDBRANCH   2   3
BRANCH   2   8
HETATM    8  C8  UNL     1     -34.798  16.719  -3.059  1.00 20.00    -0.045 C 
HETATM    9  C3  UNL     1     -34.604  18.252  -3.059  1.00 20.00     0.015 C 
HETATM   10  C4  UNL     1     -36.283  16.454  -3.404  1.00 20.00     0.015 C 
HETATM   11  C5  UNL     1     -34.540  16.205  -1.631  1.00 20.00     0.015 C 
ENDBRANCH   2   8
TORSDOF 3
ENDMDL
MODEL 2
REMARK VINA RESULT:      -4.5      0.056      1.285
REMARK  3 active torsions:
REMARK  status: ('A' for Active; 'I' for Inactive)
REMARK    1  A    between atoms: C1_1  and  C6_6 
REMARK    2  A    between atoms: C6_6  and  C7_7 
REMARK    3  A    between atoms: C7_7  and  C8_8 
ROOT
HETATM    1  C2  UNL     1     -33.355  17.038  -5.180  1.00 20.00     0.014 C 
HETATM    2  C7  UNL     1     -33.893  16.037  -4.141  1.00 20.00     0.034 C 
ENDROOT
BRANCH   2   3
HETATM    3  C6  UNL     1     -34.515  14.832  -4.875  1.00 20.00     0.275 C 
HETATM    4  F11 UNL     1     -34.074  14.817  -6.164  1.00 20.00    -0.237 F 
BRANCH   3   5
HETATM    5  C1  UNL     1     -34.207  13.442  -4.302  1.00 20.00     0.208 C 
HETATM    6  O9  UNL     1     -35.109  12.573  -4.462  1.00 20.00    -0.646 OA
HETATM    7  O10 UNL     1     -33.093  13.339  -3.712  1.00 20.00    -0.646 OA
ENDBRANCH   3   5
ENDBRANCH   2   3
BRANCH   2   8
HETATM    8  C8  UNL     1     -34.860  16.697  -3.084  1.00 20.00    -0.045 C 
HETATM    9  C3  UNL     1     -34.511  16.217  -1.658  1.00 20.00     0.015 C 
HETATM   10  C4  UNL     1     -34.690  18.234  -3.095  1.00 20.00     0.015 C 
HETATM   11  C5  UNL     1     -36.344  16.378  -3.345  1.00 20.00     0.015 C 
ENDBRANCH   2   8
TORSDOF 3
ENDMDL
MODEL 3
REMARK VINA RESULT:      -4.5      0.076      1.324
REMARK  3 active torsions:
REMARK  status: ('A' for Active; 'I' for Inactive)
REMARK    1  A    between atoms: C1_1  and  C6_6 
REMARK    2  A    between atoms: C6_6  and  C7_7 
REMARK    3  A    between atoms: C7_7  and  C8_8 
ROOT
HETATM    1  C2  UNL     1     -33.350  17.013  -5.184  1.00 20.00     0.014 C 
HETATM    2  C7  UNL     1     -33.907  16.032  -4.135  1.00 20.00     0.034 C 
ENDROOT
BRANCH   2   3
HETATM    3  C6  UNL     1     -34.538  14.825  -4.858  1.00 20.00     0.275 C 
HETATM    4  F11 UNL     1     -34.120  14.810  -6.154  1.00 20.00    -0.237 F 
BRANCH   3   5
HETATM    5  C1  UNL     1     -34.216  13.435  -4.289  1.00 20.00     0.208 C 
HETATM    6  O9  UNL     1     -35.110  12.559  -4.449  1.00 20.00    -0.646 OA
HETATM    7  O10 UNL     1     -33.099  13.341  -3.703  1.00 20.00    -0.646 OA
ENDBRANCH   3   5
ENDBRANCH   2   3
BRANCH   2   8
HETATM    8  C8  UNL     1     -34.874  16.717  -3.094  1.00 20.00    -0.045 C 
HETATM    9  C3  UNL     1     -36.342  16.333  -3.385  1.00 20.00     0.015 C 
HETATM   10  C4  UNL     1     -34.554  16.220  -1.665  1.00 20.00     0.015 C 
HETATM   11  C5  UNL     1     -34.772  18.254  -3.100  1.00 20.00     0.015 C 
ENDBRANCH   2   8
TORSDOF 3
ENDMDL
MODEL 4
REMARK VINA RESULT:      -4.5      1.640      2.254
REMARK  3 active torsions:
REMARK  status: ('A' for Active; 'I' for Inactive)
REMARK    1  A    between atoms: C1_1  and  C6_6 
REMARK    2  A    between atoms: C6_6  and  C7_7 
REMARK    3  A    between atoms: C7_7  and  C8_8 
ROOT
HETATM    1  C2  UNL     1     -34.645  16.270  -1.623  1.00 20.00     0.014 C 
HETATM    2  C7  UNL     1     -35.221  15.400  -2.756  1.00 20.00     0.034 C 
ENDROOT
BRANCH   2   3
HETATM    3  C6  UNL     1     -34.073  14.952  -3.682  1.00 20.00     0.275 C 
HETATM    4  F11 UNL     1     -32.889  15.394  -3.173  1.00 20.00    -0.237 F 
BRANCH   3   5
HETATM    5  C1  UNL     1     -33.909  13.441  -3.895  1.00 20.00     0.208 C 
HETATM    6  O9  UNL     1     -34.944  12.828  -4.280  1.00 20.00    -0.646 OA
HETATM    7  O10 UNL     1     -32.759  12.984  -3.635  1.00 20.00    -0.646 OA
ENDBRANCH   3   5
ENDBRANCH   2   3
BRANCH   2   8
HETATM    8  C8  UNL     1     -36.416  16.088  -3.522  1.00 20.00    -0.045 C 
HETATM    9  C3  UNL     1     -35.980  16.496  -4.947  1.00 20.00     0.015 C 
HETATM   10  C4  UNL     1     -37.589  15.093  -3.679  1.00 20.00     0.015 C 
HETATM   11  C5  UNL     1     -36.946  17.344  -2.806  1.00 20.00     0.015 C 
ENDBRANCH   2   8
TORSDOF 3
ENDMDL
MODEL 5
REMARK VINA RESULT:      -4.4      0.815      1.866
REMARK  3 active torsions:
REMARK  status: ('A' for Active; 'I' for Inactive)
REMARK    1  A    between atoms: C1_1  and  C6_6 
REMARK    2  A    between atoms: C6_6  and  C7_7 
REMARK    3  A    between atoms: C7_7  and  C8_8 
ROOT
HETATM    1  C2  UNL     1     -33.283  16.621  -4.810  1.00 20.00     0.014 C 
HETATM    2  C7  UNL     1     -33.895  15.978  -3.551  1.00 20.00     0.034 C 
ENDROOT
BRANCH   2   3
HETATM    3  C6  UNL     1     -34.866  14.860  -3.976  1.00 20.00     0.275 C 
HETATM    4  F11 UNL     1     -35.347  15.133  -5.221  1.00 20.00    -0.237 F 
BRANCH   3   5
HETATM    5  C1  UNL     1     -34.294  13.437  -4.042  1.00 20.00     0.208 C 
HETATM    6  O9  UNL     1     -33.098  13.310  -3.657  1.00 20.00    -0.646 OA
HETATM    7  O10 UNL     1     -35.083  12.562  -4.501  1.00 20.00    -0.646 OA
ENDBRANCH   3   5
ENDBRANCH   2   3
BRANCH   2   8
HETATM    8  C8  UNL     1     -34.537  17.029  -2.566  1.00 20.00    -0.045 C 
HETATM    9  C3  UNL     1     -34.593  16.461  -1.130  1.00 20.00     0.015 C 
HETATM   10  C4  UNL     1     -33.667  18.307  -2.510  1.00 20.00     0.015 C 
HETATM   11  C5  UNL     1     -35.964  17.440  -2.973  1.00 20.00     0.015 C 
ENDBRANCH   2   8
TORSDOF 3
ENDMDL
MODEL 6
REMARK VINA RESULT:      -4.4      1.361      1.998
REMARK  3 active torsions:
REMARK  status: ('A' for Active; 'I' for Inactive)
REMARK    1  A    between atoms: C1_1  and  C6_6 
REMARK    2  A    between atoms: C6_6  and  C7_7 
REMARK    3  A    between atoms: C7_7  and  C8_8 
ROOT
HETATM    1  C2  UNL     1     -32.695  15.398  -3.417  1.00 20.00     0.014 C 
HETATM    2  C7  UNL     1     -34.192  15.413  -3.056  1.00 20.00     0.034 C 
ENDROOT
BRANCH   2   3
HETATM    3  C6  UNL     1     -35.016  15.037  -4.303  1.00 20.00     0.275 C 
HETATM    4  F11 UNL     1     -34.177  14.890  -5.366  1.00 20.00    -0.237 F 
BRANCH   3   5
HETATM    5  C1  UNL     1     -35.836  13.742  -4.223  1.00 20.00     0.208 C 
HETATM    6  O9  UNL     1     -37.062  13.887  -3.956  1.00 20.00    -0.646 OA
HETATM    7  O10 UNL     1     -35.179  12.678  -4.409  1.00 20.00    -0.646 OA
ENDBRANCH   3   5
ENDBRANCH   2   3
BRANCH   2   8
HETATM    8  C8  UNL     1     -34.655  16.760  -2.378  1.00 20.00    -0.045 C 
HETATM    9  C3  UNL     1     -34.472  16.686  -0.846  1.00 20.00     0.015 C 
HETATM   10  C4  UNL     1     -33.783  17.935  -2.879  1.00 20.00     0.015 C 
HETATM   11  C5  UNL     1     -36.129  17.102  -2.667  1.00 20.00     0.015 C 
ENDBRANCH   2   8
TORSDOF 3
ENDMDL
MODEL 7
REMARK VINA RESULT:      -4.3      1.733      2.991
REMARK  3 active torsions:
REMARK  status: ('A' for Active; 'I' for Inactive)
REMARK    1  A    between atoms: C1_1  and  C6_6 
REMARK    2  A    between atoms: C6_6  and  C7_7 
REMARK    3  A    between atoms: C7_7  and  C8_8 
ROOT
HETATM    1  C2  UNL     1     -36.252  16.345  -3.701  1.00 20.00     0.014 C 
HETATM    2  C7  UNL     1     -35.307  15.547  -4.618  1.00 20.00     0.034 C 
ENDROOT
BRANCH   2   3
HETATM    3  C6  UNL     1     -34.195  14.906  -3.764  1.00 20.00     0.275 C 
HETATM    4  F11 UNL     1     -34.472  15.106  -2.445  1.00 20.00    -0.237 F 
BRANCH   3   5
HETATM    5  C1  UNL     1     -33.981  13.395  -3.931  1.00 20.00     0.208 C 
HETATM    6  O9  UNL     1     -32.821  12.975  -3.662  1.00 20.00    -0.646 OA
HETATM    7  O10 UNL     1     -34.988  12.753  -4.345  1.00 20.00    -0.646 OA
ENDBRANCH   3   5
ENDBRANCH   2   3
BRANCH   2   8
HETATM    8  C8  UNL     1     -34.759  16.392  -5.832  1.00 20.00    -0.045 C 
HETATM    9  C3  UNL     1     -33.500  17.185  -5.415  1.00 20.00     0.015 C 
HETATM   10  C4  UNL     1     -34.335  15.453  -6.986  1.00 20.00     0.015 C 
HETATM   11  C5  UNL     1     -35.792  17.392  -6.384  1.00 20.00     0.015 C 
ENDBRANCH   2   8
TORSDOF 3
ENDMDL
MODEL 8
REMARK VINA RESULT:      -4.3      1.730      2.917
REMARK  3 active torsions:
REMARK  status: ('A' for Active; 'I' for Inactive)
REMARK    1  A    between atoms: C1_1  and  C6_6 
REMARK    2  A    between atoms: C6_6  and  C7_7 
REMARK    3  A    between atoms: C7_7  and  C8_8 
ROOT
HETATM    1  C2  UNL     1     -36.226  16.454  -3.760  1.00 20.00     0.014 C 
HETATM    2  C7  UNL     1     -35.330  15.571  -4.649  1.00 20.00     0.034 C 
ENDROOT
BRANCH   2   3
HETATM    3  C6  UNL     1     -34.238  14.920  -3.776  1.00 20.00     0.275 C 
HETATM    4  F11 UNL     1     -34.543  15.108  -2.462  1.00 20.00    -0.237 F 
BRANCH   3   5
HETATM    5  C1  UNL     1     -34.021  13.411  -3.954  1.00 20.00     0.208 C 
HETATM    6  O9  UNL     1     -35.034  12.753  -4.321  1.00 20.00    -0.646 OA
HETATM    7  O10 UNL     1     -32.856  13.001  -3.686  1.00 20.00    -0.646 OA
ENDBRANCH   3   5
ENDBRANCH   2   3
BRANCH   2   8
HETATM    8  C8  UNL     1     -34.760  16.331  -5.908  1.00 20.00    -0.045 C 
HETATM    9  C3  UNL     1     -35.811  17.314  -6.468  1.00 20.00     0.015 C 
HETATM   10  C4  UNL     1     -33.526  17.173  -5.507  1.00 20.00     0.015 C 
HETATM   11  C5  UNL     1     -34.341  15.380  -7.045  1.00 20.00     0.015 C 
ENDBRANCH   2   8
TORSDOF 3
ENDMDL
MODEL 9
REMARK VINA RESULT:      -4.2      1.500      2.333
REMARK  3 active torsions:
REMARK  status: ('A' for Active; 'I' for Inactive)
REMARK    1  A    between atoms: C1_1  and  C6_6 
REMARK    2  A    between atoms: C6_6  and  C7_7 
REMARK    3  A    between atoms: C7_7  and  C8_8 
ROOT
HETATM    1  C2  UNL     1     -34.464  16.127  -1.875  1.00 20.00     0.014 C 
HETATM    2  C7  UNL     1     -34.912  16.041  -3.346  1.00 20.00     0.034 C 
ENDROOT
BRANCH   2   3
HETATM    3  C6  UNL     1     -34.424  14.707  -3.945  1.00 20.00     0.275 C 
HETATM    4  F11 UNL     1     -33.484  14.164  -3.123  1.00 20.00    -0.237 F 
BRANCH   3   5
HETATM    5  C1  UNL     1     -35.485  13.618  -4.159  1.00 20.00     0.208 C 
HETATM    6  O9  UNL     1     -36.668  13.942  -3.861  1.00 20.00    -0.646 OA
HETATM    7  O10 UNL     1     -35.041  12.513  -4.585  1.00 20.00    -0.646 OA
ENDBRANCH   3   5
ENDBRANCH   2   3
BRANCH   2   8
HETATM    8  C8  UNL     1     -34.498  17.302  -4.197  1.00 20.00    -0.045 C 
HETATM    9  C3  UNL     1     -33.381  16.935  -5.199  1.00 20.00     0.015 C 
HETATM   10  C4  UNL     1     -35.703  17.800  -5.030  1.00 20.00     0.015 C 
HETATM   11  C5  UNL     1     -33.998  18.474  -3.332  1.00 20.00     0.015 C 
ENDBRANCH   2   8
TORSDOF 3
ENDMDL
