MODEL 1
REMARK VINA RESULT:      -4.7      0.000      0.000
REMARK  1 active torsions:
REMARK  status: ('A' for Active; 'I' for Inactive)
REMARK    1  A    between atoms: C5_5  and  C10_10 
ROOT
HETATM    1  C1  UNL     1     -34.354  14.469  -3.372  1.00 20.00     0.036 C 
HETATM    2  C2  UNL     1     -35.703  16.692  -3.199  1.00 20.00     0.016 A 
HETATM    3  C3  UNL     1     -34.425  15.993  -5.369  1.00 20.00     0.047 C 
HETATM    4  C4  UNL     1     -35.140  13.457  -4.196  1.00 20.00     0.169 C 
HETATM    5  C5  UNL     1     -34.258  17.068  -3.023  1.00 20.00     0.009 A 
HETATM    6  C6  UNL     1     -34.630  15.865  -3.875  1.00 20.00    -0.031 A 
HETATM    7  C7  UNL     1     -35.163  14.883  -6.142  1.00 20.00     0.054 C 
HETATM    8  C8  UNL     1     -36.681  15.113  -6.186  1.00 20.00     0.045 C 
HETATM    9  C9  UNL     1     -34.641  14.849  -7.586  1.00 20.00     0.045 C 
HETATM   10  O11 UNL     1     -34.853  13.593  -5.587  1.00 20.00    -0.381 OA
ENDROOT
BRANCH   5  11
HETATM   11  C10 UNL     1     -33.606  16.942  -1.689  1.00 20.00     0.120 C 
HETATM   12 CL12 UNL     1     -34.818  16.753  -0.392  1.00 20.00    -0.130 Cl
ENDBRANCH   5  11
TORSDOF 1
ENDMDL
MODEL 2
REMARK VINA RESULT:      -4.6      1.983      3.126
REMARK  1 active torsions:
REMARK  status: ('A' for Active; 'I' for Inactive)
REMARK    1  A    between atoms: C5_5  and  C10_10 
ROOT
HETATM    1  C1  UNL     1     -35.982  17.502  -2.539  1.00 20.00     0.036 C 
HETATM    2  C2  UNL     1     -33.691  17.590  -1.299  1.00 20.00     0.016 A 
HETATM    3  C3  UNL     1     -34.613  15.400  -2.389  1.00 20.00     0.047 C 
HETATM    4  C4  UNL     1     -35.748  17.472  -4.044  1.00 20.00     0.169 C 
HETATM    5  C5  UNL     1     -34.663  16.969  -0.334  1.00 20.00     0.009 A 
HETATM    6  C6  UNL     1     -34.859  16.786  -1.830  1.00 20.00    -0.031 A 
HETATM    7  C7  UNL     1     -34.484  15.421  -3.924  1.00 20.00     0.054 C 
HETATM    8  C8  UNL     1     -33.141  16.001  -4.389  1.00 20.00     0.045 C 
HETATM    9  C9  UNL     1     -34.593  13.982  -4.453  1.00 20.00     0.045 C 
HETATM   10  O11 UNL     1     -35.587  16.134  -4.511  1.00 20.00    -0.381 OA
ENDROOT
BRANCH   5  11
HETATM   11  C10 UNL     1     -35.550  17.831   0.497  1.00 20.00     0.120 C 
HETATM   12 CL12 UNL     1     -35.378  17.454   2.233  1.00 20.00    -0.130 Cl
ENDBRANCH   5  11
TORSDOF 1
ENDMDL
MODEL 3
REMARK VINA RESULT:      -4.6      1.553      2.458
REMARK  1 active torsions:
REMARK  status: ('A' for Active; 'I' for Inactive)
REMARK    1  A    between atoms: C5_5  and  C10_10 
ROOT
HETATM    1  C1  UNL     1     -36.318  16.661  -2.826  1.00 20.00     0.036 C 
HETATM    2  C2  UNL     1     -33.855  17.387  -2.376  1.00 20.00     0.016 A 
HETATM    3  C3  UNL     1     -34.495  14.947  -3.061  1.00 20.00     0.047 C 
HETATM    4  C4  UNL     1     -36.547  16.531  -4.326  1.00 20.00     0.169 C 
HETATM    5  C5  UNL     1     -34.309  16.665  -1.138  1.00 20.00     0.009 A 
HETATM    6  C6  UNL     1     -34.894  16.291  -2.490  1.00 20.00    -0.031 A 
HETATM    7  C7  UNL     1     -34.843  14.840  -4.558  1.00 20.00     0.054 C 
HETATM    8  C8  UNL     1     -33.887  15.657  -5.439  1.00 20.00     0.045 C 
HETATM    9  C9  UNL     1     -34.749  13.367  -4.988  1.00 20.00     0.045 C 
HETATM   10  O11 UNL     1     -36.210  15.223  -4.786  1.00 20.00    -0.381 OA
ENDROOT
BRANCH   5  11
HETATM   11  C10 UNL     1     -35.088  17.386  -0.092  1.00 20.00     0.120 C 
HETATM   12 CL12 UNL     1     -34.009  18.194   1.078  1.00 20.00    -0.130 Cl
ENDBRANCH   5  11
TORSDOF 1
ENDMDL
MODEL 4
REMARK VINA RESULT:      -4.6      3.023      4.853
REMARK  1 active torsions:
REMARK  status: ('A' for Active; 'I' for Inactive)
REMARK    1  A    between atoms: C5_5  and  C10_10 
ROOT
HETATM    1  C1  UNL     1     -33.623  16.660  -3.850  1.00 20.00     0.036 C 
HETATM    2  C2  UNL     1     -35.878  15.375  -3.605  1.00 20.00     0.016 A 
HETATM    3  C3  UNL     1     -34.484  16.167  -1.541  1.00 20.00     0.047 C 
HETATM    4  C4  UNL     1     -33.841  18.137  -3.548  1.00 20.00     0.169 C 
HETATM    5  C5  UNL     1     -34.792  14.361  -3.365  1.00 20.00     0.009 A 
HETATM    6  C6  UNL     1     -34.557  15.821  -3.012  1.00 20.00    -0.031 A 
HETATM    7  C7  UNL     1     -34.611  17.685  -1.306  1.00 20.00     0.054 C 
HETATM    8  C8  UNL     1     -36.050  18.187  -1.498  1.00 20.00     0.045 C 
HETATM    9  C9  UNL     1     -34.180  18.005   0.133  1.00 20.00     0.045 C 
HETATM   10  O11 UNL     1     -33.697  18.403  -2.153  1.00 20.00    -0.381 OA
ENDROOT
BRANCH   5  11
HETATM   11  C10 UNL     1     -34.124  13.691  -4.515  1.00 20.00     0.120 C 
HETATM   12 CL12 UNL     1     -35.033  13.944  -6.030  1.00 20.00    -0.130 Cl
ENDBRANCH   5  11
TORSDOF 1
ENDMDL
MODEL 5
REMARK VINA RESULT:      -4.3      1.996      2.945
REMARK  1 active torsions:
REMARK  status: ('A' for Active; 'I' for Inactive)
REMARK    1  A    between atoms: C5_5  and  C10_10 
ROOT
HETATM    1  C1  UNL     1     -34.275  17.429  -4.020  1.00 20.00     0.036 C 
HETATM    2  C2  UNL     1     -33.799  16.803  -1.535  1.00 20.00     0.016 A 
HETATM    3  C3  UNL     1     -35.095  15.216  -3.158  1.00 20.00     0.047 C 
HETATM    4  C4  UNL     1     -33.333  16.653  -4.932  1.00 20.00     0.169 C 
HETATM    5  C5  UNL     1     -35.230  17.262  -1.582  1.00 20.00     0.009 A 
HETATM    6  C6  UNL     1     -34.605  16.603  -2.801  1.00 20.00    -0.031 A 
HETATM    7  C7  UNL     1     -34.154  14.520  -4.160  1.00 20.00     0.054 C 
HETATM    8  C8  UNL     1     -32.850  14.045  -3.503  1.00 20.00     0.045 C 
HETATM    9  C9  UNL     1     -34.870  13.294  -4.747  1.00 20.00     0.045 C 
HETATM   10  O11 UNL     1     -33.884  15.383  -5.278  1.00 20.00    -0.381 OA
ENDROOT
BRANCH   5  11
HETATM   11  C10 UNL     1     -35.555  18.715  -1.526  1.00 20.00     0.120 C 
HETATM   12 CL12 UNL     1     -37.202  19.034  -2.137  1.00 20.00    -0.130 Cl
ENDBRANCH   5  11
TORSDOF 1
ENDMDL
MODEL 6
REMARK VINA RESULT:      -4.3      1.568      2.438
REMARK  1 active torsions:
REMARK  status: ('A' for Active; 'I' for Inactive)
REMARK    1  A    between atoms: C5_5  and  C10_10 
ROOT
HETATM    1  C1  UNL     1     -34.135  17.690  -4.475  1.00 20.00     0.036 C 
HETATM    2  C2  UNL     1     -33.297  15.414  -3.520  1.00 20.00     0.016 A 
HETATM    3  C3  UNL     1     -35.627  15.678  -4.673  1.00 20.00     0.047 C 
HETATM    4  C4  UNL     1     -34.024  17.679  -5.994  1.00 20.00     0.169 C 
HETATM    5  C5  UNL     1     -34.255  15.965  -2.501  1.00 20.00     0.009 A 
HETATM    6  C6  UNL     1     -34.439  16.300  -3.972  1.00 20.00    -0.031 A 
HETATM    7  C7  UNL     1     -35.505  15.786  -6.205  1.00 20.00     0.054 C 
HETATM    8  C8  UNL     1     -34.473  14.804  -6.779  1.00 20.00     0.045 C 
HETATM    9  C9  UNL     1     -36.870  15.471  -6.838  1.00 20.00     0.045 C 
HETATM   10  O11 UNL     1     -35.202  17.138  -6.591  1.00 20.00    -0.381 OA
ENDROOT
BRANCH   5  11
HETATM   11  C10 UNL     1     -33.791  16.964  -1.498  1.00 20.00     0.120 C 
HETATM   12 CL12 UNL     1     -34.849  16.979  -0.060  1.00 20.00    -0.130 Cl
ENDBRANCH   5  11
TORSDOF 1
ENDMDL
MODEL 7
REMARK VINA RESULT:      -4.3      2.737      4.448
REMARK  1 active torsions:
REMARK  status: ('A' for Active; 'I' for Inactive)
REMARK    1  A    between atoms: C5_5  and  C10_10 
ROOT
HETATM    1  C1  UNL     1     -35.253  13.639  -5.420  1.00 20.00     0.036 C 
HETATM    2  C2  UNL     1     -34.303  15.645  -6.788  1.00 20.00     0.016 A 
HETATM    3  C3  UNL     1     -35.274  15.926  -4.378  1.00 20.00     0.047 C 
HETATM    4  C4  UNL     1     -34.248  13.230  -4.350  1.00 20.00     0.169 C 
HETATM    5  C5  UNL     1     -35.800  15.734  -6.902  1.00 20.00     0.009 A 
HETATM    6  C6  UNL     1     -35.170  15.127  -5.659  1.00 20.00    -0.031 A 
HETATM    7  C7  UNL     1     -34.305  15.401  -3.300  1.00 20.00     0.054 C 
HETATM    8  C8  UNL     1     -32.847  15.786  -3.589  1.00 20.00     0.045 C 
HETATM    9  C9  UNL     1     -34.699  16.001  -1.941  1.00 20.00     0.045 C 
HETATM   10  O11 UNL     1     -34.443  13.978  -3.150  1.00 20.00    -0.381 OA
ENDROOT
BRANCH   5  11
HETATM   11  C10 UNL     1     -36.526  14.922  -7.918  1.00 20.00     0.120 C 
HETATM   12 CL12 UNL     1     -38.292  15.003  -7.670  1.00 20.00    -0.130 Cl
ENDBRANCH   5  11
TORSDOF 1
ENDMDL
MODEL 8
REMARK VINA RESULT:      -4.1      3.564      5.787
REMARK  1 active torsions:
REMARK  status: ('A' for Active; 'I' for Inactive)
REMARK    1  A    between atoms: C5_5  and  C10_10 
ROOT
HETATM    1  C1  UNL     1     -33.445  17.954  -1.800  1.00 20.00     0.036 C 
HETATM    2  C2  UNL     1     -35.558  16.684  -2.647  1.00 20.00     0.016 A 
HETATM    3  C3  UNL     1     -34.891  16.768  -0.122  1.00 20.00     0.047 C 
HETATM    4  C4  UNL     1     -33.864  19.263  -1.143  1.00 20.00     0.169 C 
HETATM    5  C5  UNL     1     -34.507  15.634  -2.413  1.00 20.00     0.009 A 
HETATM    6  C6  UNL     1     -34.507  16.905  -1.579  1.00 20.00    -0.031 A 
HETATM    7  C7  UNL     1     -35.208  18.136   0.514  1.00 20.00     0.054 C 
HETATM    8  C8  UNL     1     -36.566  18.690   0.061  1.00 20.00     0.045 C 
HETATM    9  C9  UNL     1     -35.239  17.981   2.042  1.00 20.00     0.045 C 
HETATM   10  O11 UNL     1     -34.151  19.073   0.242  1.00 20.00    -0.381 OA
ENDROOT
BRANCH   5  11
HETATM   11  C10 UNL     1     -33.481  15.353  -3.456  1.00 20.00     0.120 C 
HETATM   12 CL12 UNL     1     -33.668  13.706  -4.121  1.00 20.00    -0.130 Cl
ENDBRANCH   5  11
TORSDOF 1
ENDMDL
MODEL 9
REMARK VINA RESULT:      -4.1      1.430      2.180
REMARK  1 active torsions:
REMARK  status: ('A' for Active; 'I' for Inactive)
REMARK    1  A    between atoms: C5_5  and  C10_10 
ROOT
HETATM    1  C1  UNL     1     -36.323  16.798  -3.446  1.00 20.00     0.036 C 
HETATM    2  C2  UNL     1     -33.788  17.329  -3.157  1.00 20.00     0.016 A 
HETATM    3  C3  UNL     1     -34.641  15.233  -4.465  1.00 20.00     0.047 C 
HETATM    4  C4  UNL     1     -36.761  17.148  -4.863  1.00 20.00     0.169 C 
HETATM    5  C5  UNL     1     -34.106  16.257  -2.152  1.00 20.00     0.009 A 
HETATM    6  C6  UNL     1     -34.888  16.331  -3.453  1.00 20.00    -0.031 A 
HETATM    7  C7  UNL     1     -35.195  15.604  -5.854  1.00 20.00     0.054 C 
HETATM    8  C8  UNL     1     -34.327  16.651  -6.567  1.00 20.00     0.045 C 
HETATM    9  C9  UNL     1     -35.237  14.341  -6.728  1.00 20.00     0.045 C 
HETATM   10  O11 UNL     1     -36.559  16.049  -5.749  1.00 20.00    -0.381 OA
ENDROOT
BRANCH   5  11
HETATM   11  C10 UNL     1     -34.697  16.617  -0.833  1.00 20.00     0.120 C 
HETATM   12 CL12 UNL     1     -33.776  17.929  -0.047  1.00 20.00    -0.130 Cl
ENDBRANCH   5  11
TORSDOF 1
ENDMDL
