MODEL 1
REMARK VINA RESULT:      -5.5      0.000      0.000
REMARK  3 active torsions:
REMARK  status: ('A' for Active; 'I' for Inactive)
REMARK    1  A    between atoms: C1_1  and  C9_9 
REMARK    2  A    between atoms: C5_5  and  C8_8 
REMARK    3  A    between atoms: C6_6  and  C9_9 
ROOT
HETATM    1  C2  UNL     1     -34.756   5.116   3.748  1.00 20.00     0.005 C 
HETATM    2  C3  UNL     1     -33.926   5.765   2.635  1.00 20.00     0.008 C 
HETATM    3  C4  UNL     1     -33.282   6.745   4.731  1.00 20.00     0.012 C 
HETATM    4  C5  UNL     1     -34.602   6.020   4.975  1.00 20.00    -0.014 C 
HETATM    5  C6  UNL     1     -33.344   7.047   3.237  1.00 20.00     0.030 C 
ENDROOT
BRANCH   5   6
HETATM    6  C9  UNL     1     -31.998   7.429   2.647  1.00 20.00     0.274 C 
HETATM    7  F12 UNL     1     -31.182   7.794   3.673  1.00 20.00    -0.238 F 
BRANCH   6   8
HETATM    8  C1  UNL     1     -32.004   8.606   1.677  1.00 20.00     0.208 C 
HETATM    9  O10 UNL     1     -32.669   9.620   2.026  1.00 20.00    -0.646 OA
HETATM   10  O11 UNL     1     -31.344   8.409   0.617  1.00 20.00    -0.646 OA
ENDBRANCH   6   8
ENDBRANCH   5   6
BRANCH   4  11
HETATM   11  C8  UNL     1     -34.634   5.257   6.288  1.00 20.00     0.000 C 
HETATM   12  C7  UNL     1     -34.778   3.782   6.075  1.00 20.00     0.005 C 
ENDBRANCH   4  11
TORSDOF 3
ENDMDL
MODEL 2
REMARK VINA RESULT:      -5.3     10.437     11.578
REMARK  3 active torsions:
REMARK  status: ('A' for Active; 'I' for Inactive)
REMARK    1  A    between atoms: C1_1  and  C9_9 
REMARK    2  A    between atoms: C5_5  and  C8_8 
REMARK    3  A    between atoms: C6_6  and  C9_9 
ROOT
HETATM    1  C2  UNL     1     -33.629  18.281  -2.447  1.00 20.00     0.005 C 
HETATM    2  C3  UNL     1     -33.844  17.282  -3.589  1.00 20.00     0.008 C 
HETATM    3  C4  UNL     1     -34.481  16.225  -1.528  1.00 20.00     0.012 C 
HETATM    4  C5  UNL     1     -33.669  17.462  -1.154  1.00 20.00    -0.014 C 
HETATM    5  C6  UNL     1     -33.964  15.906  -2.928  1.00 20.00     0.030 C 
ENDROOT
BRANCH   5   6
HETATM    6  C9  UNL     1     -34.863  14.950  -3.693  1.00 20.00     0.274 C 
HETATM    7  F12 UNL     1     -36.015  14.802  -2.984  1.00 20.00    -0.238 F 
BRANCH   6   8
HETATM    8  C1  UNL     1     -34.314  13.542  -3.901  1.00 20.00     0.208 C 
HETATM    9  O10 UNL     1     -33.093  13.368  -3.634  1.00 20.00    -0.646 OA
HETATM   10  O11 UNL     1     -35.163  12.712  -4.338  1.00 20.00    -0.646 OA
ENDBRANCH   6   8
ENDBRANCH   5   6
BRANCH   4  11
HETATM   11  C8  UNL     1     -34.252  18.228   0.022  1.00 20.00     0.000 C 
HETATM   12  C7  UNL     1     -35.223  17.398   0.803  1.00 20.00     0.005 C 
ENDBRANCH   4  11
TORSDOF 3
ENDMDL
MODEL 3
REMARK VINA RESULT:      -4.7     10.725     11.720
REMARK  3 active torsions:
REMARK  status: ('A' for Active; 'I' for Inactive)
REMARK    1  A    between atoms: C1_1  and  C9_9 
REMARK    2  A    between atoms: C5_5  and  C8_8 
REMARK    3  A    between atoms: C6_6  and  C9_9 
ROOT
HETATM    1  C2  UNL     1     -35.812  17.197  -2.789  1.00 20.00     0.005 C 
HETATM    2  C3  UNL     1     -35.671  16.540  -4.166  1.00 20.00     0.008 C 
HETATM    3  C4  UNL     1     -33.939  15.685  -2.738  1.00 20.00     0.012 C 
HETATM    4  C5  UNL     1     -34.494  16.932  -2.055  1.00 20.00    -0.014 C 
HETATM    5  C6  UNL     1     -34.261  15.945  -4.207  1.00 20.00     0.030 C 
ENDROOT
BRANCH   5   6
HETATM    6  C9  UNL     1     -34.160  14.700  -5.070  1.00 20.00     0.274 C 
HETATM    7  F12 UNL     1     -35.276  14.638  -5.846  1.00 20.00    -0.238 F 
BRANCH   6   8
HETATM    8  C1  UNL     1     -34.096  13.372  -4.320  1.00 20.00     0.208 C 
HETATM    9  O10 UNL     1     -32.969  13.039  -3.861  1.00 20.00    -0.646 OA
HETATM   10  O11 UNL     1     -35.197  12.753  -4.265  1.00 20.00    -0.646 OA
ENDBRANCH   6   8
ENDBRANCH   5   6
BRANCH   4  11
HETATM   11  C8  UNL     1     -34.666  16.768  -0.555  1.00 20.00     0.000 C 
HETATM   12  C7  UNL     1     -34.121  17.939   0.203  1.00 20.00     0.005 C 
ENDBRANCH   4  11
TORSDOF 3
ENDMDL
MODEL 4
REMARK VINA RESULT:      -4.7     11.046     11.599
REMARK  3 active torsions:
REMARK  status: ('A' for Active; 'I' for Inactive)
REMARK    1  A    between atoms: C1_1  and  C9_9 
REMARK    2  A    between atoms: C5_5  and  C8_8 
REMARK    3  A    between atoms: C6_6  and  C9_9 
ROOT
HETATM    1  C2  UNL     1     -33.460  17.262  -1.445  1.00 20.00     0.005 C 
HETATM    2  C3  UNL     1     -33.348  16.419  -2.720  1.00 20.00     0.008 C 
HETATM    3  C4  UNL     1     -35.570  16.174  -1.841  1.00 20.00     0.012 C 
HETATM    4  C5  UNL     1     -34.723  16.779  -0.726  1.00 20.00    -0.014 C 
HETATM    5  C6  UNL     1     -34.528  15.445  -2.685  1.00 20.00     0.030 C 
ENDROOT
BRANCH   5   6
HETATM    6  C9  UNL     1     -35.035  15.068  -4.066  1.00 20.00     0.274 C 
HETATM    7  F12 UNL     1     -35.899  16.038  -4.473  1.00 20.00    -0.238 F 
BRANCH   6   8
HETATM    8  C1  UNL     1     -35.806  13.755  -4.159  1.00 20.00     0.208 C 
HETATM    9  O10 UNL     1     -35.125  12.718  -4.392  1.00 20.00    -0.646 OA
HETATM   10  O11 UNL     1     -37.055  13.873  -4.003  1.00 20.00    -0.646 OA
ENDBRANCH   6   8
ENDBRANCH   5   6
BRANCH   4  11
HETATM   11  C8  UNL     1     -35.436  17.882   0.037  1.00 20.00     0.000 C 
HETATM   12  C7  UNL     1     -35.111  17.852   1.499  1.00 20.00     0.005 C 
ENDBRANCH   4  11
TORSDOF 3
ENDMDL
MODEL 5
REMARK VINA RESULT:      -4.6     11.219     11.973
REMARK  3 active torsions:
REMARK  status: ('A' for Active; 'I' for Inactive)
REMARK    1  A    between atoms: C1_1  and  C9_9 
REMARK    2  A    between atoms: C5_5  and  C8_8 
REMARK    3  A    between atoms: C6_6  and  C9_9 
ROOT
HETATM    1  C2  UNL     1     -33.527  16.932  -3.850  1.00 20.00     0.005 C 
HETATM    2  C3  UNL     1     -34.048  15.815  -4.759  1.00 20.00     0.008 C 
HETATM    3  C4  UNL     1     -34.825  15.398  -2.525  1.00 20.00     0.012 C 
HETATM    4  C5  UNL     1     -33.706  16.430  -2.414  1.00 20.00    -0.014 C 
HETATM    5  C6  UNL     1     -34.481  14.680  -3.827  1.00 20.00     0.030 C 
ENDROOT
BRANCH   5   6
HETATM    6  C9  UNL     1     -35.632  13.858  -4.378  1.00 20.00     0.274 C 
HETATM    7  F12 UNL     1     -35.315  13.496  -5.651  1.00 20.00    -0.238 F 
BRANCH   6   8
HETATM    8  C1  UNL     1     -36.978  14.570  -4.467  1.00 20.00     0.208 C 
HETATM    9  O10 UNL     1     -37.860  14.214  -3.637  1.00 20.00    -0.646 OA
HETATM   10  O11 UNL     1     -37.050  15.433  -5.388  1.00 20.00    -0.646 OA
ENDBRANCH   6   8
ENDBRANCH   5   6
BRANCH   4  11
HETATM   11  C8  UNL     1     -34.012  17.542  -1.425  1.00 20.00     0.000 C 
HETATM   12  C7  UNL     1     -34.727  17.030  -0.213  1.00 20.00     0.005 C 
ENDBRANCH   4  11
TORSDOF 3
ENDMDL
MODEL 6
REMARK VINA RESULT:      -4.5     10.579     12.780
REMARK  3 active torsions:
REMARK  status: ('A' for Active; 'I' for Inactive)
REMARK    1  A    between atoms: C1_1  and  C9_9 
REMARK    2  A    between atoms: C5_5  and  C8_8 
REMARK    3  A    between atoms: C6_6  and  C9_9 
ROOT
HETATM    1  C2  UNL     1     -33.716  17.939  -2.605  1.00 20.00     0.005 C 
HETATM    2  C3  UNL     1     -33.954  16.506  -2.117  1.00 20.00     0.008 C 
HETATM    3  C4  UNL     1     -34.199  16.543  -4.507  1.00 20.00     0.012 C 
HETATM    4  C5  UNL     1     -34.255  17.995  -4.038  1.00 20.00    -0.014 C 
HETATM    5  C6  UNL     1     -34.658  15.781  -3.267  1.00 20.00     0.030 C 
ENDROOT
BRANCH   5   6
HETATM    6  C9  UNL     1     -34.339  14.297  -3.326  1.00 20.00     0.274 C 
HETATM    7  F12 UNL     1     -33.088  14.160  -3.845  1.00 20.00    -0.238 F 
BRANCH   6   8
HETATM    8  C1  UNL     1     -35.254  13.452  -4.207  1.00 20.00     0.208 C 
HETATM    9  O10 UNL     1     -34.696  12.565  -4.909  1.00 20.00    -0.646 OA
HETATM   10  O11 UNL     1     -36.477  13.762  -4.134  1.00 20.00    -0.646 OA
ENDBRANCH   6   8
ENDBRANCH   5   6
BRANCH   4  11
HETATM   11  C8  UNL     1     -33.478  18.944  -4.933  1.00 20.00     0.000 C 
HETATM   12  C7  UNL     1     -33.730  18.676  -6.385  1.00 20.00     0.005 C 
ENDBRANCH   4  11
TORSDOF 3
ENDMDL
MODEL 7
REMARK VINA RESULT:      -4.5      3.255      5.152
REMARK  3 active torsions:
REMARK  status: ('A' for Active; 'I' for Inactive)
REMARK    1  A    between atoms: C1_1  and  C9_9 
REMARK    2  A    between atoms: C5_5  and  C8_8 
REMARK    3  A    between atoms: C6_6  and  C9_9 
ROOT
HETATM    1  C2  UNL     1     -31.539   7.219   2.678  1.00 20.00     0.005 C 
HETATM    2  C3  UNL     1     -32.161   5.987   3.345  1.00 20.00     0.008 C 
HETATM    3  C4  UNL     1     -33.893   7.614   2.992  1.00 20.00     0.012 C 
HETATM    4  C5  UNL     1     -32.565   8.347   2.829  1.00 20.00    -0.014 C 
HETATM    5  C6  UNL     1     -33.514   6.445   3.896  1.00 20.00     0.030 C 
ENDROOT
BRANCH   5   6
HETATM    6  C9  UNL     1     -34.557   5.342   3.917  1.00 20.00     0.274 C 
HETATM    7  F12 UNL     1     -35.733   5.872   3.483  1.00 20.00    -0.238 F 
BRANCH   6   8
HETATM    8  C1  UNL     1     -34.852   4.727   5.282  1.00 20.00     0.208 C 
HETATM    9  O10 UNL     1     -34.762   5.498   6.277  1.00 20.00    -0.646 OA
HETATM   10  O11 UNL     1     -35.139   3.496   5.247  1.00 20.00    -0.646 OA
ENDBRANCH   6   8
ENDBRANCH   5   6
BRANCH   4  11
HETATM   11  C8  UNL     1     -32.557   9.323   1.665  1.00 20.00     0.000 C 
HETATM   12  C7  UNL     1     -31.818   8.777   0.482  1.00 20.00     0.005 C 
ENDBRANCH   4  11
TORSDOF 3
ENDMDL
MODEL 8
REMARK VINA RESULT:      -4.5     11.342     12.538
REMARK  3 active torsions:
REMARK  status: ('A' for Active; 'I' for Inactive)
REMARK    1  A    between atoms: C1_1  and  C9_9 
REMARK    2  A    between atoms: C5_5  and  C8_8 
REMARK    3  A    between atoms: C6_6  and  C9_9 
ROOT
HETATM    1  C2  UNL     1     -34.046  13.751  -3.494  1.00 20.00     0.005 C 
HETATM    2  C3  UNL     1     -34.443  13.243  -4.884  1.00 20.00     0.008 C 
HETATM    3  C4  UNL     1     -35.054  15.560  -4.721  1.00 20.00     0.012 C 
HETATM    4  C5  UNL     1     -34.788  15.076  -3.298  1.00 20.00    -0.014 C 
HETATM    5  C6  UNL     1     -35.434  14.269  -5.440  1.00 20.00     0.030 C 
ENDROOT
BRANCH   5   6
HETATM    6  C9  UNL     1     -35.384  14.391  -6.953  1.00 20.00     0.274 C 
HETATM    7  F12 UNL     1     -34.100  14.674  -7.307  1.00 20.00    -0.238 F 
BRANCH   6   8
HETATM    8  C1  UNL     1     -36.240  15.497  -7.561  1.00 20.00     0.208 C 
HETATM    9  O10 UNL     1     -35.638  16.552  -7.902  1.00 20.00    -0.646 OA
HETATM   10  O11 UNL     1     -37.472  15.220  -7.635  1.00 20.00    -0.646 OA
ENDBRANCH   6   8
ENDBRANCH   5   6
BRANCH   4  11
HETATM   11  C8  UNL     1     -34.014  16.078  -2.459  1.00 20.00     0.000 C 
HETATM   12  C7  UNL     1     -34.738  16.430  -1.196  1.00 20.00     0.005 C 
ENDBRANCH   4  11
TORSDOF 3
ENDMDL
MODEL 9
REMARK VINA RESULT:      -4.4     11.245     11.782
REMARK  3 active torsions:
REMARK  status: ('A' for Active; 'I' for Inactive)
REMARK    1  A    between atoms: C1_1  and  C9_9 
REMARK    2  A    between atoms: C5_5  and  C8_8 
REMARK    3  A    between atoms: C6_6  and  C9_9 
ROOT
HETATM    1  C2  UNL     1     -33.379  16.291  -2.697  1.00 20.00     0.005 C 
HETATM    2  C3  UNL     1     -33.446  15.272  -3.840  1.00 20.00     0.008 C 
HETATM    3  C4  UNL     1     -35.609  15.390  -2.802  1.00 20.00     0.012 C 
HETATM    4  C5  UNL     1     -34.625  16.050  -1.840  1.00 20.00    -0.014 C 
HETATM    5  C6  UNL     1     -34.709  14.444  -3.592  1.00 20.00     0.030 C 
ENDROOT
BRANCH   5   6
HETATM    6  C9  UNL     1     -35.353  13.935  -4.870  1.00 20.00     0.274 C 
HETATM    7  F12 UNL     1     -34.683  12.815  -5.257  1.00 20.00    -0.238 F 
BRANCH   6   8
HETATM    8  C1  UNL     1     -35.308  14.885  -6.063  1.00 20.00     0.208 C 
HETATM    9  O10 UNL     1     -36.148  15.827  -6.064  1.00 20.00    -0.646 OA
HETATM   10  O11 UNL     1     -34.430  14.596  -6.925  1.00 20.00    -0.646 OA
ENDBRANCH   6   8
ENDBRANCH   5   6
BRANCH   4  11
HETATM   11  C8  UNL     1     -35.169  17.318  -1.204  1.00 20.00     0.000 C 
HETATM   12  C7  UNL     1     -34.944  17.342   0.276  1.00 20.00     0.005 C 
ENDBRANCH   4  11
TORSDOF 3
ENDMDL
