MODEL 1
REMARK VINA RESULT:      -5.6      0.000      0.000
REMARK  2 active torsions:
REMARK  status: ('A' for Active; 'I' for Inactive)
REMARK    1  A    between atoms: C5_5  and  C6_6 
REMARK    2  A    between atoms: C7_7  and  C8_8 
ROOT
HETATM    1  C4  UNL     1     -32.279   5.776   3.040  1.00 20.00     0.011 A 
HETATM    2  C6  UNL     1     -32.897   6.596   4.135  1.00 20.00    -0.005 A 
HETATM    3  C7  UNL     1     -32.824   7.149   2.741  1.00 20.00     0.004 A 
ENDROOT
BRANCH   2   4
HETATM    4  C5  UNL     1     -34.206   6.223   4.799  1.00 20.00    -0.010 C 
HETATM    5  C2  UNL     1     -34.157   5.937   6.323  1.00 20.00     0.005 C 
HETATM    6  C1  UNL     1     -35.206   4.833   6.075  1.00 20.00     0.001 C 
HETATM    7  C3  UNL     1     -34.677   4.755   4.628  1.00 20.00     0.005 C 
ENDBRANCH   2   4
BRANCH   3   8
HETATM    8  C8  UNL     1     -31.897   8.272   2.435  1.00 20.00     0.119 C 
HETATM    9 CL9  UNL     1     -32.142   8.880   0.773  1.00 20.00    -0.130 Cl
ENDBRANCH   3   8
TORSDOF 2
ENDMDL
MODEL 2
REMARK VINA RESULT:      -4.5      2.486      4.857
REMARK  2 active torsions:
REMARK  status: ('A' for Active; 'I' for Inactive)
REMARK    1  A    between atoms: C5_5  and  C6_6 
REMARK    2  A    between atoms: C7_7  and  C8_8 
ROOT
HETATM    1  C4  UNL     1     -32.093   5.821   3.170  1.00 20.00     0.011 A 
HETATM    2  C6  UNL     1     -32.806   7.034   2.649  1.00 20.00    -0.005 A 
HETATM    3  C7  UNL     1     -32.956   6.643   4.090  1.00 20.00     0.004 A 
ENDROOT
BRANCH   2   4
HETATM    4  C5  UNL     1     -32.078   8.289   2.214  1.00 20.00    -0.010 C 
HETATM    5  C2  UNL     1     -32.931   9.578   2.085  1.00 20.00     0.005 C 
HETATM    6  C1  UNL     1     -32.061   9.943   0.863  1.00 20.00     0.001 C 
HETATM    7  C3  UNL     1     -31.789   8.433   0.697  1.00 20.00     0.005 C 
ENDBRANCH   2   4
BRANCH   3   8
HETATM    8  C8  UNL     1     -34.253   6.102   4.583  1.00 20.00     0.119 C 
HETATM    9 CL9  UNL     1     -34.274   5.993   6.366  1.00 20.00    -0.130 Cl
ENDBRANCH   3   8
TORSDOF 2
ENDMDL
MODEL 3
REMARK VINA RESULT:      -4.4      2.407      4.401
REMARK  2 active torsions:
REMARK  status: ('A' for Active; 'I' for Inactive)
REMARK    1  A    between atoms: C5_5  and  C6_6 
REMARK    2  A    between atoms: C7_7  and  C8_8 
ROOT
HETATM    1  C4  UNL     1     -35.119   5.386   3.756  1.00 20.00     0.011 A 
HETATM    2  C6  UNL     1     -34.074   6.444   3.959  1.00 20.00    -0.005 A 
HETATM    3  C7  UNL     1     -34.126   5.261   4.882  1.00 20.00     0.004 A 
ENDROOT
BRANCH   2   4
HETATM    4  C5  UNL     1     -32.938   6.669   2.984  1.00 20.00    -0.010 C 
HETATM    5  C2  UNL     1     -31.637   7.286   3.562  1.00 20.00     0.005 C 
HETATM    6  C1  UNL     1     -31.503   8.063   2.235  1.00 20.00     0.001 C 
HETATM    7  C3  UNL     1     -33.033   7.930   2.086  1.00 20.00     0.005 C 
ENDBRANCH   2   4
BRANCH   3   8
HETATM    8  C8  UNL     1     -34.567   5.439   6.293  1.00 20.00     0.119 C 
HETATM    9 CL9  UNL     1     -34.008   7.000   6.955  1.00 20.00    -0.130 Cl
ENDBRANCH   3   8
TORSDOF 2
ENDMDL
MODEL 4
REMARK VINA RESULT:      -4.1     11.282     11.878
REMARK  2 active torsions:
REMARK  status: ('A' for Active; 'I' for Inactive)
REMARK    1  A    between atoms: C5_5  and  C6_6 
REMARK    2  A    between atoms: C7_7  and  C8_8 
ROOT
HETATM    1  C4  UNL     1     -34.243  16.586  -3.434  1.00 20.00     0.011 A 
HETATM    2  C6  UNL     1     -35.020  16.307  -2.181  1.00 20.00    -0.005 A 
HETATM    3  C7  UNL     1     -34.472  15.166  -2.988  1.00 20.00     0.004 A 
ENDROOT
BRANCH   2   4
HETATM    4  C5  UNL     1     -34.503  16.654  -0.801  1.00 20.00    -0.010 C 
HETATM    5  C2  UNL     1     -35.390  17.592   0.059  1.00 20.00     0.005 C 
HETATM    6  C1  UNL     1     -34.084  18.225   0.584  1.00 20.00     0.001 C 
HETATM    7  C3  UNL     1     -33.416  17.758  -0.725  1.00 20.00     0.005 C 
ENDBRANCH   2   4
BRANCH   3   8
HETATM    8  C8  UNL     1     -35.396  14.282  -3.750  1.00 20.00     0.119 C 
HETATM    9 CL9  UNL     1     -34.495  13.164  -4.813  1.00 20.00    -0.130 Cl
ENDBRANCH   3   8
TORSDOF 2
ENDMDL
MODEL 5
REMARK VINA RESULT:      -4.1     11.040     11.857
REMARK  2 active torsions:
REMARK  status: ('A' for Active; 'I' for Inactive)
REMARK    1  A    between atoms: C5_5  and  C6_6 
REMARK    2  A    between atoms: C7_7  and  C8_8 
ROOT
HETATM    1  C4  UNL     1     -34.726  17.189  -2.991  1.00 20.00     0.011 A 
HETATM    2  C6  UNL     1     -34.088  15.887  -2.601  1.00 20.00    -0.005 A 
HETATM    3  C7  UNL     1     -34.874  16.666  -1.586  1.00 20.00     0.004 A 
ENDROOT
BRANCH   2   4
HETATM    4  C5  UNL     1     -34.553  14.553  -3.144  1.00 20.00    -0.010 C 
HETATM    5  C2  UNL     1     -33.490  13.692  -3.876  1.00 20.00     0.005 C 
HETATM    6  C1  UNL     1     -34.613  13.262  -4.845  1.00 20.00     0.001 C 
HETATM    7  C3  UNL     1     -35.328  14.582  -4.487  1.00 20.00     0.005 C 
ENDBRANCH   2   4
BRANCH   3   8
HETATM    8  C8  UNL     1     -34.171  17.339  -0.459  1.00 20.00     0.119 C 
HETATM    9 CL9  UNL     1     -35.206  17.418   0.995  1.00 20.00    -0.130 Cl
ENDBRANCH   3   8
TORSDOF 2
ENDMDL
MODEL 6
REMARK VINA RESULT:      -4.0     11.349     12.073
REMARK  2 active torsions:
REMARK  status: ('A' for Active; 'I' for Inactive)
REMARK    1  A    between atoms: C5_5  and  C6_6 
REMARK    2  A    between atoms: C7_7  and  C8_8 
ROOT
HETATM    1  C4  UNL     1     -34.721  16.586  -0.840  1.00 20.00     0.011 A 
HETATM    2  C6  UNL     1     -34.758  16.223  -2.296  1.00 20.00    -0.005 A 
HETATM    3  C7  UNL     1     -33.660  17.103  -1.776  1.00 20.00     0.004 A 
ENDROOT
BRANCH   2   4
HETATM    4  C5  UNL     1     -34.509  14.815  -2.796  1.00 20.00    -0.010 C 
HETATM    5  C2  UNL     1     -33.337  14.629  -3.794  1.00 20.00     0.005 C 
HETATM    6  C1  UNL     1     -34.210  13.577  -4.510  1.00 20.00     0.001 C 
HETATM    7  C3  UNL     1     -35.439  14.306  -3.928  1.00 20.00     0.005 C 
ENDBRANCH   2   4
BRANCH   3   8
HETATM    8  C8  UNL     1     -33.625  18.545  -2.144  1.00 20.00     0.119 C 
HETATM    9 CL9  UNL     1     -33.707  18.764  -3.915  1.00 20.00    -0.130 Cl
ENDBRANCH   3   8
TORSDOF 2
ENDMDL
MODEL 7
REMARK VINA RESULT:      -4.0      2.630      4.630
REMARK  2 active torsions:
REMARK  status: ('A' for Active; 'I' for Inactive)
REMARK    1  A    between atoms: C5_5  and  C6_6 
REMARK    2  A    between atoms: C7_7  and  C8_8 
ROOT
HETATM    1  C4  UNL     1     -33.601   6.815   6.499  1.00 20.00     0.011 A 
HETATM    2  C6  UNL     1     -33.321   6.216   5.152  1.00 20.00    -0.005 A 
HETATM    3  C7  UNL     1     -34.669   6.027   5.787  1.00 20.00     0.004 A 
ENDROOT
BRANCH   2   4
HETATM    4  C5  UNL     1     -33.114   7.056   3.909  1.00 20.00    -0.010 C 
HETATM    5  C2  UNL     1     -32.791   6.292   2.599  1.00 20.00     0.005 C 
HETATM    6  C1  UNL     1     -31.845   7.456   2.239  1.00 20.00     0.001 C 
HETATM    7  C3  UNL     1     -31.728   7.734   3.752  1.00 20.00     0.005 C 
ENDBRANCH   2   4
BRANCH   3   8
HETATM    8  C8  UNL     1     -35.071   4.685   6.291  1.00 20.00     0.119 C 
HETATM    9 CL9  UNL     1     -34.898   3.438   5.023  1.00 20.00    -0.130 Cl
ENDBRANCH   3   8
TORSDOF 2
ENDMDL
MODEL 8
REMARK VINA RESULT:      -3.9     10.779     12.345
REMARK  2 active torsions:
REMARK  status: ('A' for Active; 'I' for Inactive)
REMARK    1  A    between atoms: C5_5  and  C6_6 
REMARK    2  A    between atoms: C7_7  and  C8_8 
ROOT
HETATM    1  C4  UNL     1     -33.734  17.490  -4.136  1.00 20.00     0.011 A 
HETATM    2  C6  UNL     1     -33.579  16.182  -3.416  1.00 20.00    -0.005 A 
HETATM    3  C7  UNL     1     -34.847  16.971  -3.263  1.00 20.00     0.004 A 
ENDROOT
BRANCH   2   4
HETATM    4  C5  UNL     1     -33.526  14.852  -4.136  1.00 20.00    -0.010 C 
HETATM    5  C2  UNL     1     -34.414  14.709  -5.400  1.00 20.00     0.005 C 
HETATM    6  C1  UNL     1     -34.664  13.248  -4.971  1.00 20.00     0.001 C 
HETATM    7  C3  UNL     1     -34.363  13.698  -3.526  1.00 20.00     0.005 C 
ENDBRANCH   2   4
BRANCH   3   8
HETATM    8  C8  UNL     1     -35.156  17.637  -1.968  1.00 20.00     0.119 C 
HETATM    9 CL9  UNL     1     -34.667  16.622  -0.583  1.00 20.00    -0.130 Cl
ENDBRANCH   3   8
TORSDOF 2
ENDMDL
MODEL 9
REMARK VINA RESULT:      -3.9     11.419     12.246
REMARK  2 active torsions:
REMARK  status: ('A' for Active; 'I' for Inactive)
REMARK    1  A    between atoms: C5_5  and  C6_6 
REMARK    2  A    between atoms: C7_7  and  C8_8 
ROOT
HETATM    1  C4  UNL     1     -36.391  16.140  -3.555  1.00 20.00     0.011 A 
HETATM    2  C6  UNL     1     -35.192  15.419  -3.011  1.00 20.00    -0.005 A 
HETATM    3  C7  UNL     1     -35.288  15.700  -4.482  1.00 20.00     0.004 A 
ENDROOT
BRANCH   2   4
HETATM    4  C5  UNL     1     -34.170  16.089  -2.117  1.00 20.00    -0.010 C 
HETATM    5  C2  UNL     1     -34.683  16.631  -0.757  1.00 20.00     0.005 C 
HETATM    6  C1  UNL     1     -33.709  17.813  -0.943  1.00 20.00     0.001 C 
HETATM    7  C3  UNL     1     -33.800  17.555  -2.462  1.00 20.00     0.005 C 
ENDBRANCH   2   4
BRANCH   3   8
HETATM    8  C8  UNL     1     -35.516  14.582  -5.439  1.00 20.00     0.119 C 
HETATM    9 CL9  UNL     1     -34.666  13.100  -4.918  1.00 20.00    -0.130 Cl
ENDBRANCH   3   8
TORSDOF 2
ENDMDL
