MODEL 1
REMARK VINA RESULT:      -4.7      0.000      0.000
REMARK  1 active torsions:
REMARK  status: ('A' for Active; 'I' for Inactive)
REMARK    1  A    between atoms: C6_6  and  C11_11 
ROOT
HETATM    1  C1  UNL     1     -36.829  16.426  -3.831  1.00 20.00     0.002 C 
HETATM    2  C2  UNL     1     -36.664  14.912  -3.919  1.00 20.00     0.010 C 
HETATM    3  C3  UNL     1     -36.040  17.002  -2.655  1.00 20.00     0.009 C 
HETATM    4  C4  UNL     1     -34.870  13.137  -4.469  1.00 20.00     0.016 A 
HETATM    5  C5  UNL     1     -34.388  15.082  -2.829  1.00 20.00     0.018 C 
HETATM    6  C6  UNL     1     -34.498  14.318  -5.321  1.00 20.00     0.005 A 
HETATM    7  C7  UNL     1     -35.202  14.535  -3.988  1.00 20.00    -0.035 A 
HETATM    8  C8  UNL     1     -34.541  16.613  -2.673  1.00 20.00    -0.047 C 
HETATM    9  C9  UNL     1     -33.805  17.352  -3.808  1.00 20.00     0.015 C 
HETATM   10  C10 UNL     1     -33.901  17.042  -1.338  1.00 20.00     0.015 C 
ENDROOT
BRANCH   6  11
HETATM   11  C11 UNL     1     -35.163  14.537  -6.635  1.00 20.00     0.090 C 
HETATM   12 BR12 UNL     1     -34.749  16.315  -7.323  1.00 20.00    -0.096 Br
ENDBRANCH   6  11
TORSDOF 1
ENDMDL
MODEL 2
REMARK VINA RESULT:      -4.5      2.027      4.119
REMARK  1 active torsions:
REMARK  status: ('A' for Active; 'I' for Inactive)
REMARK    1  A    between atoms: C6_6  and  C11_11 
ROOT
HETATM    1  C1  UNL     1     -34.016  17.257  -5.773  1.00 20.00     0.002 C 
HETATM    2  C2  UNL     1     -33.124  16.268  -5.028  1.00 20.00     0.010 C 
HETATM    3  C3  UNL     1     -34.691  16.596  -6.976  1.00 20.00     0.009 C 
HETATM    4  C4  UNL     1     -33.299  14.153  -3.557  1.00 20.00     0.016 A 
HETATM    5  C5  UNL     1     -34.582  14.351  -5.797  1.00 20.00     0.018 C 
HETATM    6  C6  UNL     1     -34.553  14.922  -3.252  1.00 20.00     0.005 A 
HETATM    7  C7  UNL     1     -33.906  15.039  -4.626  1.00 20.00    -0.035 A 
HETATM    8  C8  UNL     1     -35.478  15.315  -6.610  1.00 20.00    -0.047 C 
HETATM    9  C9  UNL     1     -36.752  15.671  -5.818  1.00 20.00     0.015 C 
HETATM   10  C10 UNL     1     -35.913  14.611  -7.910  1.00 20.00     0.015 C 
ENDROOT
BRANCH   6  11
HETATM   11  C11 UNL     1     -34.536  16.024  -2.250  1.00 20.00     0.090 C 
HETATM   12 BR12 UNL     1     -36.063  17.210  -2.511  1.00 20.00    -0.096 Br
ENDBRANCH   6  11
TORSDOF 1
ENDMDL
MODEL 3
REMARK VINA RESULT:      -4.5      1.715      2.544
REMARK  1 active torsions:
REMARK  status: ('A' for Active; 'I' for Inactive)
REMARK    1  A    between atoms: C6_6  and  C11_11 
ROOT
HETATM    1  C1  UNL     1     -35.949  18.506  -2.620  1.00 20.00     0.002 C 
HETATM    2  C2  UNL     1     -36.012  17.040  -3.036  1.00 20.00     0.010 C 
HETATM    3  C3  UNL     1     -35.805  18.647  -1.104  1.00 20.00     0.009 C 
HETATM    4  C4  UNL     1     -34.510  14.942  -3.153  1.00 20.00     0.016 A 
HETATM    5  C5  UNL     1     -34.642  16.392  -1.011  1.00 20.00     0.018 C 
HETATM    6  C6  UNL     1     -33.563  16.089  -3.367  1.00 20.00     0.005 A 
HETATM    7  C7  UNL     1     -34.811  16.283  -2.516  1.00 20.00    -0.035 A 
HETATM    8  C8  UNL     1     -34.602  17.861  -0.527  1.00 20.00    -0.047 C 
HETATM    9  C9  UNL     1     -33.275  18.531  -0.932  1.00 20.00     0.015 C 
HETATM   10  C10 UNL     1     -34.689  17.878   1.011  1.00 20.00     0.015 C 
ENDROOT
BRANCH   6  11
HETATM   11  C11 UNL     1     -33.403  16.688  -4.721  1.00 20.00     0.090 C 
HETATM   12 BR12 UNL     1     -34.214  15.542  -6.076  1.00 20.00    -0.096 Br
ENDBRANCH   6  11
TORSDOF 1
ENDMDL
MODEL 4
REMARK VINA RESULT:      -4.4      1.909      4.129
REMARK  1 active torsions:
REMARK  status: ('A' for Active; 'I' for Inactive)
REMARK    1  A    between atoms: C6_6  and  C11_11 
ROOT
HETATM    1  C1  UNL     1     -34.654  17.036  -5.116  1.00 20.00     0.002 C 
HETATM    2  C2  UNL     1     -33.822  17.388  -3.888  1.00 20.00     0.010 C 
HETATM    3  C3  UNL     1     -34.523  15.553  -5.468  1.00 20.00     0.009 C 
HETATM    4  C4  UNL     1     -33.759  16.962  -1.341  1.00 20.00     0.016 A 
HETATM    5  C5  UNL     1     -34.060  15.021  -3.029  1.00 20.00     0.018 C 
HETATM    6  C6  UNL     1     -35.221  16.933  -1.687  1.00 20.00     0.005 A 
HETATM    7  C7  UNL     1     -34.188  16.502  -2.719  1.00 20.00    -0.035 A 
HETATM    8  C8  UNL     1     -34.861  14.611  -4.287  1.00 20.00    -0.047 C 
HETATM    9  C9  UNL     1     -36.375  14.630  -3.998  1.00 20.00     0.015 C 
HETATM   10  C10 UNL     1     -34.474  13.170  -4.674  1.00 20.00     0.015 C 
ENDROOT
BRANCH   6  11
HETATM   11  C11 UNL     1     -35.994  18.202  -1.793  1.00 20.00     0.090 C 
HETATM   12 BR12 UNL     1     -37.739  17.873  -2.601  1.00 20.00    -0.096 Br
ENDBRANCH   6  11
TORSDOF 1
ENDMDL
MODEL 5
REMARK VINA RESULT:      -4.4      2.685      4.475
REMARK  1 active torsions:
REMARK  status: ('A' for Active; 'I' for Inactive)
REMARK    1  A    between atoms: C6_6  and  C11_11 
ROOT
HETATM    1  C1  UNL     1     -33.303  16.040  -4.508  1.00 20.00     0.002 C 
HETATM    2  C2  UNL     1     -33.333  15.796  -3.002  1.00 20.00     0.010 C 
HETATM    3  C3  UNL     1     -34.544  15.460  -5.188  1.00 20.00     0.009 C 
HETATM    4  C4  UNL     1     -34.628  16.537  -0.894  1.00 20.00     0.016 A 
HETATM    5  C5  UNL     1     -35.861  15.776  -3.041  1.00 20.00     0.018 C 
HETATM    6  C6  UNL     1     -34.672  17.737  -1.798  1.00 20.00     0.005 A 
HETATM    7  C7  UNL     1     -34.607  16.338  -2.396  1.00 20.00    -0.035 A 
HETATM    8  C8  UNL     1     -35.873  15.968  -4.575  1.00 20.00    -0.047 C 
HETATM    9  C9  UNL     1     -36.102  17.449  -4.936  1.00 20.00     0.015 C 
HETATM   10  C10 UNL     1     -37.037  15.152  -5.169  1.00 20.00     0.015 C 
ENDROOT
BRANCH   6  11
HETATM   11  C11 UNL     1     -33.528  18.690  -1.838  1.00 20.00     0.090 C 
HETATM   12 BR12 UNL     1     -32.656  18.784  -0.094  1.00 20.00    -0.096 Br
ENDBRANCH   6  11
TORSDOF 1
ENDMDL
MODEL 6
REMARK VINA RESULT:      -4.3      1.753      2.830
REMARK  1 active torsions:
REMARK  status: ('A' for Active; 'I' for Inactive)
REMARK    1  A    between atoms: C6_6  and  C11_11 
ROOT
HETATM    1  C1  UNL     1     -35.220  13.482  -4.422  1.00 20.00     0.002 C 
HETATM    2  C2  UNL     1     -34.673  13.940  -5.770  1.00 20.00     0.010 C 
HETATM    3  C3  UNL     1     -34.549  14.229  -3.268  1.00 20.00     0.009 C 
HETATM    4  C4  UNL     1     -34.685  16.004  -7.322  1.00 20.00     0.016 A 
HETATM    5  C5  UNL     1     -34.141  16.213  -4.798  1.00 20.00     0.018 C 
HETATM    6  C6  UNL     1     -36.009  16.064  -6.613  1.00 20.00     0.005 A 
HETATM    7  C7  UNL     1     -34.806  15.438  -5.921  1.00 20.00    -0.035 A 
HETATM    8  C8  UNL     1     -34.636  15.769  -3.402  1.00 20.00    -0.047 C 
HETATM    9  C9  UNL     1     -36.080  16.251  -3.158  1.00 20.00     0.015 C 
HETATM   10  C10 UNL     1     -33.737  16.413  -2.329  1.00 20.00     0.015 C 
ENDROOT
BRANCH   6  11
HETATM   11  C11 UNL     1     -37.165  15.268  -7.111  1.00 20.00     0.090 C 
HETATM   12 BR12 UNL     1     -38.655  15.368  -5.855  1.00 20.00    -0.096 Br
ENDBRANCH   6  11
TORSDOF 1
ENDMDL
MODEL 7
REMARK VINA RESULT:      -4.3      2.176      4.337
REMARK  1 active torsions:
REMARK  status: ('A' for Active; 'I' for Inactive)
REMARK    1  A    between atoms: C6_6  and  C11_11 
ROOT
HETATM    1  C1  UNL     1     -34.276  13.681  -4.433  1.00 20.00     0.002 C 
HETATM    2  C2  UNL     1     -35.318  14.325  -3.524  1.00 20.00     0.010 C 
HETATM    3  C3  UNL     1     -34.783  13.579  -5.873  1.00 20.00     0.009 C 
HETATM    4  C4  UNL     1     -36.452  16.608  -3.108  1.00 20.00     0.016 A 
HETATM    5  C5  UNL     1     -36.259  15.609  -5.490  1.00 20.00     0.018 C 
HETATM    6  C6  UNL     1     -35.076  16.960  -3.598  1.00 20.00     0.005 A 
HETATM    7  C7  UNL     1     -35.740  15.672  -4.065  1.00 20.00    -0.035 A 
HETATM    8  C8  UNL     1     -35.253  14.936  -6.453  1.00 20.00    -0.047 C 
HETATM    9  C9  UNL     1     -34.047  15.859  -6.714  1.00 20.00     0.015 C 
HETATM   10  C10 UNL     1     -35.953  14.682  -7.803  1.00 20.00     0.015 C 
ENDROOT
BRANCH   6  11
HETATM   11  C11 UNL     1     -33.924  16.984  -2.653  1.00 20.00     0.090 C 
HETATM   12 BR12 UNL     1     -34.554  16.922  -0.807  1.00 20.00    -0.096 Br
ENDBRANCH   6  11
TORSDOF 1
ENDMDL
MODEL 8
REMARK VINA RESULT:      -4.2      1.714      3.307
REMARK  1 active torsions:
REMARK  status: ('A' for Active; 'I' for Inactive)
REMARK    1  A    between atoms: C6_6  and  C11_11 
ROOT
HETATM    1  C1  UNL     1     -35.900  15.409  -6.751  1.00 20.00     0.002 C 
HETATM    2  C2  UNL     1     -34.930  14.369  -6.200  1.00 20.00     0.010 C 
HETATM    3  C3  UNL     1     -37.306  15.214  -6.180  1.00 20.00     0.009 C 
HETATM    4  C4  UNL     1     -33.761  13.714  -3.992  1.00 20.00     0.016 A 
HETATM    5  C5  UNL     1     -36.306  14.184  -4.087  1.00 20.00     0.018 C 
HETATM    6  C6  UNL     1     -33.913  15.207  -3.904  1.00 20.00     0.005 A 
HETATM    7  C7  UNL     1     -34.928  14.386  -4.689  1.00 20.00    -0.035 A 
HETATM    8  C8  UNL     1     -37.341  15.196  -4.633  1.00 20.00    -0.047 C 
HETATM    9  C9  UNL     1     -37.074  16.605  -4.069  1.00 20.00     0.015 C 
HETATM   10  C10 UNL     1     -38.747  14.763  -4.173  1.00 20.00     0.015 C 
ENDROOT
BRANCH   6  11
HETATM   11  C11 UNL     1     -32.917  16.104  -4.555  1.00 20.00     0.090 C 
HETATM   12 BR12 UNL     1     -33.668  17.887  -4.808  1.00 20.00    -0.096 Br
ENDBRANCH   6  11
TORSDOF 1
ENDMDL
MODEL 9
REMARK VINA RESULT:      -4.2      2.441      4.309
REMARK  1 active torsions:
REMARK  status: ('A' for Active; 'I' for Inactive)
REMARK    1  A    between atoms: C6_6  and  C11_11 
ROOT
HETATM    1  C1  UNL     1     -37.070  15.566  -3.409  1.00 20.00     0.002 C 
HETATM    2  C2  UNL     1     -36.389  16.926  -3.295  1.00 20.00     0.010 C 
HETATM    3  C3  UNL     1     -36.649  14.841  -4.689  1.00 20.00     0.009 C 
HETATM    4  C4  UNL     1     -34.051  17.952  -2.908  1.00 20.00     0.016 A 
HETATM    5  C5  UNL     1     -34.432  16.077  -4.653  1.00 20.00     0.018 C 
HETATM    6  C6  UNL     1     -34.021  16.659  -2.144  1.00 20.00     0.005 A 
HETATM    7  C7  UNL     1     -34.887  16.784  -3.390  1.00 20.00    -0.035 A 
HETATM    8  C8  UNL     1     -35.114  14.702  -4.838  1.00 20.00    -0.047 C 
HETATM    9  C9  UNL     1     -34.564  13.681  -3.822  1.00 20.00     0.015 C 
HETATM   10  C10 UNL     1     -34.798  14.176  -6.252  1.00 20.00     0.015 C 
ENDROOT
BRANCH   6  11
HETATM   11  C11 UNL     1     -34.584  16.586  -0.767  1.00 20.00     0.090 C 
HETATM   12 BR12 UNL     1     -34.094  18.173   0.257  1.00 20.00    -0.096 Br
ENDBRANCH   6  11
TORSDOF 1
ENDMDL
