MODEL 1
REMARK VINA RESULT:      -4.5      0.000      0.000
REMARK  3 active torsions:
REMARK  status: ('A' for Active; 'I' for Inactive)
REMARK    1  A    between atoms: C2_2  and  C10_10 
REMARK    2  A    between atoms: C3_3  and  C9_9 
REMARK    3  A    between atoms: C4_4  and  O11_11 
ROOT
HETATM    1  C1  UNL     1     -34.580  14.168  -5.936  1.00 20.00     0.038 C 
HETATM    2  C2  UNL     1     -35.190  15.407  -5.238  1.00 20.00     0.002 C 
HETATM    3  C3  UNL     1     -34.388  14.997  -3.969  1.00 20.00     0.019 C 
HETATM    4  C4  UNL     1     -34.368  13.548  -4.535  1.00 20.00     0.123 C 
ENDROOT
BRANCH   2   5
HETATM    5  C10 UNL     1     -34.855  16.754  -5.846  1.00 20.00    -0.047 C 
HETATM    6  C6  UNL     1     -35.915  17.798  -5.441  1.00 20.00     0.015 C 
HETATM    7  C7  UNL     1     -34.822  16.650  -7.384  1.00 20.00     0.015 C 
HETATM    8  C8  UNL     1     -33.474  17.232  -5.352  1.00 20.00     0.015 C 
ENDBRANCH   2   5
BRANCH   3   9
HETATM    9  C9  UNL     1     -35.071  15.232  -2.635  1.00 20.00     0.003 C 
HETATM   10  C5  UNL     1     -34.371  16.274  -1.819  1.00 20.00     0.005 C 
ENDBRANCH   3   9
BRANCH   4  11
HETATM   11  O11 UNL     1     -35.411  12.663  -4.082  1.00 20.00    -0.395 OA
HETATM   12  H31 UNL     1     -35.254  11.824  -4.532  1.00 20.00     0.210 HD
ENDBRANCH   4  11
TORSDOF 3
ENDMDL
MODEL 2
REMARK VINA RESULT:      -4.1      1.193      2.797
REMARK  3 active torsions:
REMARK  status: ('A' for Active; 'I' for Inactive)
REMARK    1  A    between atoms: C2_2  and  C10_10 
REMARK    2  A    between atoms: C3_3  and  C9_9 
REMARK    3  A    between atoms: C4_4  and  O11_11 
ROOT
HETATM    1  C1  UNL     1     -35.332  14.980  -3.206  1.00 20.00     0.038 C 
HETATM    2  C2  UNL     1     -34.517  15.580  -4.377  1.00 20.00     0.002 C 
HETATM    3  C3  UNL     1     -35.516  14.876  -5.340  1.00 20.00     0.019 C 
HETATM    4  C4  UNL     1     -35.825  13.885  -4.181  1.00 20.00     0.123 C 
ENDROOT
BRANCH   2   5
HETATM    5  C10 UNL     1     -34.457  17.093  -4.449  1.00 20.00    -0.047 C 
HETATM    6  C6  UNL     1     -35.868  17.670  -4.684  1.00 20.00     0.015 C 
HETATM    7  C7  UNL     1     -33.541  17.535  -5.607  1.00 20.00     0.015 C 
HETATM    8  C8  UNL     1     -33.901  17.666  -3.130  1.00 20.00     0.015 C 
ENDBRANCH   2   5
BRANCH   3   9
HETATM    9  C9  UNL     1     -34.933  14.314  -6.622  1.00 20.00     0.003 C 
HETATM   10  C5  UNL     1     -35.665  14.800  -7.834  1.00 20.00     0.005 C 
ENDBRANCH   3   9
BRANCH   4  11
HETATM   11  O11 UNL     1     -35.075  12.655  -4.165  1.00 20.00    -0.395 OA
HETATM   12  H31 UNL     1     -35.665  11.985  -4.533  1.00 20.00     0.210 HD
ENDBRANCH   4  11
TORSDOF 3
ENDMDL
MODEL 3
REMARK VINA RESULT:      -4.1      1.933      2.768
REMARK  3 active torsions:
REMARK  status: ('A' for Active; 'I' for Inactive)
REMARK    1  A    between atoms: C2_2  and  C10_10 
REMARK    2  A    between atoms: C3_3  and  C9_9 
REMARK    3  A    between atoms: C4_4  and  O11_11 
ROOT
HETATM    1  C1  UNL     1     -34.305  16.108  -5.815  1.00 20.00     0.038 C 
HETATM    2  C2  UNL     1     -35.202  15.476  -4.722  1.00 20.00     0.002 C 
HETATM    3  C3  UNL     1     -34.478  16.397  -3.698  1.00 20.00     0.019 C 
HETATM    4  C4  UNL     1     -33.292  16.465  -4.702  1.00 20.00     0.123 C 
ENDROOT
BRANCH   2   5
HETATM    5  C10 UNL     1     -36.695  15.678  -4.879  1.00 20.00    -0.047 C 
HETATM    6  C6  UNL     1     -37.079  17.122  -4.497  1.00 20.00     0.015 C 
HETATM    7  C7  UNL     1     -37.463  14.703  -3.964  1.00 20.00     0.015 C 
HETATM    8  C8  UNL     1     -37.116  15.422  -6.340  1.00 20.00     0.015 C 
ENDBRANCH   2   5
BRANCH   3   9
HETATM    9  C9  UNL     1     -34.218  15.804  -2.326  1.00 20.00     0.003 C 
HETATM   10  C5  UNL     1     -34.730  16.681  -1.226  1.00 20.00     0.005 C 
ENDBRANCH   3   9
BRANCH   4  11
HETATM   11  O11 UNL     1     -32.224  15.518  -4.506  1.00 20.00    -0.395 OA
HETATM   12  H31 UNL     1     -31.463  16.039  -4.223  1.00 20.00     0.210 HD
ENDBRANCH   4  11
TORSDOF 3
ENDMDL
MODEL 4
REMARK VINA RESULT:      -4.1      2.315      3.585
REMARK  3 active torsions:
REMARK  status: ('A' for Active; 'I' for Inactive)
REMARK    1  A    between atoms: C2_2  and  C10_10 
REMARK    2  A    between atoms: C3_3  and  C9_9 
REMARK    3  A    between atoms: C4_4  and  O11_11 
ROOT
HETATM    1  C1  UNL     1     -34.499  17.072  -5.419  1.00 20.00     0.038 C 
HETATM    2  C2  UNL     1     -33.960  16.054  -4.385  1.00 20.00     0.002 C 
HETATM    3  C3  UNL     1     -34.589  16.952  -3.280  1.00 20.00     0.019 C 
HETATM    4  C4  UNL     1     -34.510  18.132  -4.292  1.00 20.00     0.123 C 
ENDROOT
BRANCH   2   5
HETATM    5  C10 UNL     1     -34.492  14.640  -4.493  1.00 20.00    -0.047 C 
HETATM    6  C6  UNL     1     -35.858  14.530  -3.784  1.00 20.00     0.015 C 
HETATM    7  C7  UNL     1     -33.510  13.650  -3.835  1.00 20.00     0.015 C 
HETATM    8  C8  UNL     1     -34.670  14.251  -5.975  1.00 20.00     0.015 C 
ENDBRANCH   2   5
BRANCH   3   9
HETATM    9  C9  UNL     1     -33.810  17.071  -1.984  1.00 20.00     0.003 C 
HETATM   10  C5  UNL     1     -34.622  16.651  -0.798  1.00 20.00     0.005 C 
ENDBRANCH   3   9
BRANCH   4  11
HETATM   11  O11 UNL     1     -33.340  18.970  -4.216  1.00 20.00    -0.395 OA
HETATM   12  H31 UNL     1     -33.648  19.814  -3.862  1.00 20.00     0.210 HD
ENDBRANCH   4  11
TORSDOF 3
ENDMDL
MODEL 5
REMARK VINA RESULT:      -4.1      1.648      3.465
REMARK  3 active torsions:
REMARK  status: ('A' for Active; 'I' for Inactive)
REMARK    1  A    between atoms: C2_2  and  C10_10 
REMARK    2  A    between atoms: C3_3  and  C9_9 
REMARK    3  A    between atoms: C4_4  and  O11_11 
ROOT
HETATM    1  C1  UNL     1     -36.296  15.903  -2.923  1.00 20.00     0.038 C 
HETATM    2  C2  UNL     1     -35.044  15.228  -3.534  1.00 20.00     0.002 C 
HETATM    3  C3  UNL     1     -35.759  15.313  -4.913  1.00 20.00     0.019 C 
HETATM    4  C4  UNL     1     -37.104  15.378  -4.133  1.00 20.00     0.123 C 
ENDROOT
BRANCH   2   5
HETATM    5  C10 UNL     1     -33.738  15.985  -3.399  1.00 20.00    -0.047 C 
HETATM    6  C6  UNL     1     -33.633  17.062  -4.497  1.00 20.00     0.015 C 
HETATM    7  C7  UNL     1     -32.546  15.017  -3.537  1.00 20.00     0.015 C 
HETATM    8  C8  UNL     1     -33.662  16.672  -2.021  1.00 20.00     0.015 C 
ENDBRANCH   2   5
BRANCH   3   9
HETATM    9  C9  UNL     1     -35.540  14.148  -5.859  1.00 20.00     0.003 C 
HETATM   10  C5  UNL     1     -35.005  14.591  -7.185  1.00 20.00     0.005 C 
ENDBRANCH   3   9
BRANCH   4  11
HETATM   11  O11 UNL     1     -37.792  14.129  -3.927  1.00 20.00    -0.395 OA
HETATM   12  H31 UNL     1     -38.425  14.295  -3.217  1.00 20.00     0.210 HD
ENDBRANCH   4  11
TORSDOF 3
ENDMDL
MODEL 6
REMARK VINA RESULT:      -4.1      1.661      3.637
REMARK  3 active torsions:
REMARK  status: ('A' for Active; 'I' for Inactive)
REMARK    1  A    between atoms: C2_2  and  C10_10 
REMARK    2  A    between atoms: C3_3  and  C9_9 
REMARK    3  A    between atoms: C4_4  and  O11_11 
ROOT
HETATM    1  C1  UNL     1     -36.312  15.916  -2.931  1.00 20.00     0.038 C 
HETATM    2  C2  UNL     1     -35.062  15.222  -3.524  1.00 20.00     0.002 C 
HETATM    3  C3  UNL     1     -35.769  15.290  -4.909  1.00 20.00     0.019 C 
HETATM    4  C4  UNL     1     -37.118  15.378  -4.137  1.00 20.00     0.123 C 
ENDROOT
BRANCH   2   5
HETATM    5  C10 UNL     1     -33.751  15.971  -3.395  1.00 20.00    -0.047 C 
HETATM    6  C6  UNL     1     -32.565  14.995  -3.529  1.00 20.00     0.015 C 
HETATM    7  C7  UNL     1     -33.669  16.666  -2.021  1.00 20.00     0.015 C 
HETATM    8  C8  UNL     1     -33.640  17.042  -4.500  1.00 20.00     0.015 C 
ENDBRANCH   2   5
BRANCH   3   9
HETATM    9  C9  UNL     1     -35.554  14.108  -5.834  1.00 20.00     0.003 C 
HETATM   10  C5  UNL     1     -35.074  14.532  -7.187  1.00 20.00     0.005 C 
ENDBRANCH   3   9
BRANCH   4  11
HETATM   11  O11 UNL     1     -37.817  14.138  -3.914  1.00 20.00    -0.395 OA
HETATM   12  H31 UNL     1     -38.181  14.201  -3.022  1.00 20.00     0.210 HD
ENDBRANCH   4  11
TORSDOF 3
ENDMDL
MODEL 7
REMARK VINA RESULT:      -4.0      1.610      2.320
REMARK  3 active torsions:
REMARK  status: ('A' for Active; 'I' for Inactive)
REMARK    1  A    between atoms: C2_2  and  C10_10 
REMARK    2  A    between atoms: C3_3  and  C9_9 
REMARK    3  A    between atoms: C4_4  and  O11_11 
ROOT
HETATM    1  C1  UNL     1     -37.198  15.601  -5.407  1.00 20.00     0.038 C 
HETATM    2  C2  UNL     1     -35.723  15.990  -5.143  1.00 20.00     0.002 C 
HETATM    3  C3  UNL     1     -35.527  14.563  -4.555  1.00 20.00     0.019 C 
HETATM    4  C4  UNL     1     -37.060  14.535  -4.294  1.00 20.00     0.123 C 
ENDROOT
BRANCH   2   5
HETATM    5  C10 UNL     1     -34.892  16.343  -6.360  1.00 20.00    -0.047 C 
HETATM    6  C6  UNL     1     -33.644  17.144  -5.937  1.00 20.00     0.015 C 
HETATM    7  C7  UNL     1     -35.721  17.196  -7.341  1.00 20.00     0.015 C 
HETATM    8  C8  UNL     1     -34.437  15.059  -7.082  1.00 20.00     0.015 C 
ENDBRANCH   2   5
BRANCH   3   9
HETATM    9  C9  UNL     1     -34.599  14.447  -3.361  1.00 20.00     0.003 C 
HETATM   10  C5  UNL     1     -33.331  13.726  -3.700  1.00 20.00     0.005 C 
ENDBRANCH   3   9
BRANCH   4  11
HETATM   11  O11 UNL     1     -37.500  14.943  -2.984  1.00 20.00    -0.395 OA
HETATM   12  H31 UNL     1     -36.975  14.426  -2.361  1.00 20.00     0.210 HD
ENDBRANCH   4  11
TORSDOF 3
ENDMDL
MODEL 8
REMARK VINA RESULT:      -4.0      1.799      2.826
REMARK  3 active torsions:
REMARK  status: ('A' for Active; 'I' for Inactive)
REMARK    1  A    between atoms: C2_2  and  C10_10 
REMARK    2  A    between atoms: C3_3  and  C9_9 
REMARK    3  A    between atoms: C4_4  and  O11_11 
ROOT
HETATM    1  C1  UNL     1     -35.557  13.398  -4.243  1.00 20.00     0.038 C 
HETATM    2  C2  UNL     1     -35.558  14.898  -3.864  1.00 20.00     0.002 C 
HETATM    3  C3  UNL     1     -34.376  15.077  -4.860  1.00 20.00     0.019 C 
HETATM    4  C4  UNL     1     -34.079  13.561  -4.670  1.00 20.00     0.123 C 
ENDROOT
BRANCH   2   5
HETATM    5  C10 UNL     1     -36.826  15.669  -4.173  1.00 20.00    -0.047 C 
HETATM    6  C6  UNL     1     -36.865  16.977  -3.358  1.00 20.00     0.015 C 
HETATM    7  C7  UNL     1     -38.064  14.823  -3.813  1.00 20.00     0.015 C 
HETATM    8  C8  UNL     1     -36.884  16.018  -5.674  1.00 20.00     0.015 C 
ENDBRANCH   2   5
BRANCH   3   9
HETATM    9  C9  UNL     1     -33.301  16.068  -4.458  1.00 20.00     0.003 C 
HETATM   10  C5  UNL     1     -33.396  17.347  -5.230  1.00 20.00     0.005 C 
ENDBRANCH   3   9
BRANCH   4  11
HETATM   11  O11 UNL     1     -33.101  13.214  -3.671  1.00 20.00    -0.395 OA
HETATM   12  H31 UNL     1     -33.570  12.670  -3.026  1.00 20.00     0.210 HD
ENDBRANCH   4  11
TORSDOF 3
ENDMDL
MODEL 9
REMARK VINA RESULT:      -3.9      2.441      4.403
REMARK  3 active torsions:
REMARK  status: ('A' for Active; 'I' for Inactive)
REMARK    1  A    between atoms: C2_2  and  C10_10 
REMARK    2  A    between atoms: C3_3  and  C9_9 
REMARK    3  A    between atoms: C4_4  and  O11_11 
ROOT
HETATM    1  C1  UNL     1     -33.697  18.172  -4.027  1.00 20.00     0.038 C 
HETATM    2  C2  UNL     1     -34.561  16.916  -4.293  1.00 20.00     0.002 C 
HETATM    3  C3  UNL     1     -33.871  16.825  -5.685  1.00 20.00     0.019 C 
HETATM    4  C4  UNL     1     -33.572  18.347  -5.559  1.00 20.00     0.123 C 
ENDROOT
BRANCH   2   5
HETATM    5  C10 UNL     1     -34.351  15.745  -3.355  1.00 20.00    -0.047 C 
HETATM    6  C6  UNL     1     -35.450  14.685  -3.575  1.00 20.00     0.015 C 
HETATM    7  C7  UNL     1     -34.407  16.220  -1.889  1.00 20.00     0.015 C 
HETATM    8  C8  UNL     1     -32.977  15.095  -3.614  1.00 20.00     0.015 C 
ENDBRANCH   2   5
BRANCH   3   9
HETATM    9  C9  UNL     1     -34.740  16.363  -6.839  1.00 20.00     0.003 C 
HETATM   10  C5  UNL     1     -34.429  14.957  -7.251  1.00 20.00     0.005 C 
ENDBRANCH   3   9
BRANCH   4  11
HETATM   11  O11 UNL     1     -34.524  19.244  -6.162  1.00 20.00    -0.395 OA
HETATM   12  H31 UNL     1     -34.048  19.686  -6.877  1.00 20.00     0.210 HD
ENDBRANCH   4  11
TORSDOF 3
ENDMDL
