MODEL 1
REMARK VINA RESULT:      -4.7      0.000      0.000
REMARK  2 active torsions:
REMARK  status: ('A' for Active; 'I' for Inactive)
REMARK    1  A    between atoms: C4_4  and  C6_6 
REMARK    2  A    between atoms: C5_5  and  C8_8 
ROOT
HETATM    1  C3  UNL     1     -34.363   7.228   3.808  1.00 20.00     0.016 A 
HETATM    2  C5  UNL     1     -33.124   6.455   4.158  1.00 20.00     0.009 A 
HETATM    3  C6  UNL     1     -34.402   5.708   3.776  1.00 20.00    -0.035 A 
HETATM    4  C7  UNL     1     -34.487   5.064   2.413  1.00 20.00     0.016 C 
ENDROOT
BRANCH   3   5
HETATM    5  C4  UNL     1     -35.164   4.932   4.861  1.00 20.00    -0.006 A 
HETATM    6  C1  UNL     1     -34.522   3.847   5.682  1.00 20.00     0.006 A 
HETATM    7  C2  UNL     1     -34.922   5.143   6.330  1.00 20.00     0.006 A 
ENDBRANCH   3   5
BRANCH   2   8
HETATM    8  C8  UNL     1     -31.924   6.511   3.274  1.00 20.00     0.120 C 
HETATM    9 CL9  UNL     1     -31.980   7.936   2.200  1.00 20.00    -0.130 Cl
ENDBRANCH   2   8
TORSDOF 2
ENDMDL
MODEL 2
REMARK VINA RESULT:      -4.5      1.137      1.971
REMARK  2 active torsions:
REMARK  status: ('A' for Active; 'I' for Inactive)
REMARK    1  A    between atoms: C4_4  and  C6_6 
REMARK    2  A    between atoms: C5_5  and  C8_8 
ROOT
HETATM    1  C3  UNL     1     -32.216   5.699   3.265  1.00 20.00     0.016 A 
HETATM    2  C5  UNL     1     -32.940   6.912   2.753  1.00 20.00     0.009 A 
HETATM    3  C6  UNL     1     -33.343   6.296   4.093  1.00 20.00    -0.035 A 
HETATM    4  C7  UNL     1     -32.943   7.003   5.366  1.00 20.00     0.016 C 
ENDROOT
BRANCH   3   5
HETATM    5  C4  UNL     1     -34.691   5.568   4.202  1.00 20.00    -0.006 A 
HETATM    6  C1  UNL     1     -34.795   4.089   4.457  1.00 20.00     0.006 A 
HETATM    7  C2  UNL     1     -35.238   5.066   5.510  1.00 20.00     0.006 A 
ENDBRANCH   3   5
BRANCH   2   8
HETATM    8  C8  UNL     1     -32.235   8.220   2.642  1.00 20.00     0.120 C 
HETATM    9 CL9  UNL     1     -32.029   8.700   0.935  1.00 20.00    -0.130 Cl
ENDBRANCH   2   8
TORSDOF 2
ENDMDL
MODEL 3
REMARK VINA RESULT:      -4.4      2.338      4.011
REMARK  2 active torsions:
REMARK  status: ('A' for Active; 'I' for Inactive)
REMARK    1  A    between atoms: C4_4  and  C6_6 
REMARK    2  A    between atoms: C5_5  and  C8_8 
ROOT
HETATM    1  C3  UNL     1     -35.151   6.287   3.430  1.00 20.00     0.016 A 
HETATM    2  C5  UNL     1     -34.633   4.960   3.907  1.00 20.00     0.009 A 
HETATM    3  C6  UNL     1     -33.808   6.226   4.141  1.00 20.00    -0.035 A 
HETATM    4  C7  UNL     1     -33.754   6.810   5.532  1.00 20.00     0.016 C 
ENDROOT
BRANCH   3   5
HETATM    5  C4  UNL     1     -32.505   6.423   3.351  1.00 20.00    -0.006 A 
HETATM    6  C1  UNL     1     -32.280   7.599   2.440  1.00 20.00     0.006 A 
HETATM    7  C2  UNL     1     -31.489   7.471   3.711  1.00 20.00     0.006 A 
ENDBRANCH   3   5
BRANCH   2   8
HETATM    8  C8  UNL     1     -35.326   4.230   5.006  1.00 20.00     0.120 C 
HETATM    9 CL9  UNL     1     -34.159   3.624   6.214  1.00 20.00    -0.130 Cl
ENDBRANCH   2   8
TORSDOF 2
ENDMDL
MODEL 4
REMARK VINA RESULT:      -4.4     11.443     12.265
REMARK  2 active torsions:
REMARK  status: ('A' for Active; 'I' for Inactive)
REMARK    1  A    between atoms: C4_4  and  C6_6 
REMARK    2  A    between atoms: C5_5  and  C8_8 
ROOT
HETATM    1  C3  UNL     1     -35.631  16.412  -2.814  1.00 20.00     0.016 A 
HETATM    2  C5  UNL     1     -34.618  16.144  -1.738  1.00 20.00     0.009 A 
HETATM    3  C6  UNL     1     -34.392  15.596  -3.147  1.00 20.00    -0.035 A 
HETATM    4  C7  UNL     1     -33.362  16.261  -4.028  1.00 20.00     0.016 C 
ENDROOT
BRANCH   3   5
HETATM    5  C4  UNL     1     -34.504  14.082  -3.385  1.00 20.00    -0.006 A 
HETATM    6  C1  UNL     1     -35.528  13.481  -4.309  1.00 20.00     0.006 A 
HETATM    7  C2  UNL     1     -34.069  13.428  -4.666  1.00 20.00     0.006 A 
ENDBRANCH   3   5
BRANCH   2   8
HETATM    8  C8  UNL     1     -33.813  17.260  -1.164  1.00 20.00     0.120 C 
HETATM    9 CL9  UNL     1     -34.407  17.718   0.456  1.00 20.00    -0.130 Cl
ENDBRANCH   2   8
TORSDOF 2
ENDMDL
MODEL 5
REMARK VINA RESULT:      -4.3     11.602     12.436
REMARK  2 active torsions:
REMARK  status: ('A' for Active; 'I' for Inactive)
REMARK    1  A    between atoms: C4_4  and  C6_6 
REMARK    2  A    between atoms: C5_5  and  C8_8 
ROOT
HETATM    1  C3  UNL     1     -33.542  15.512  -3.813  1.00 20.00     0.016 A 
HETATM    2  C5  UNL     1     -34.380  14.380  -3.289  1.00 20.00     0.009 A 
HETATM    3  C6  UNL     1     -34.700  15.817  -2.876  1.00 20.00    -0.035 A 
HETATM    4  C7  UNL     1     -35.902  16.497  -3.487  1.00 20.00     0.016 C 
ENDROOT
BRANCH   3   5
HETATM    5  C4  UNL     1     -34.429  16.254  -1.428  1.00 20.00    -0.006 A 
HETATM    6  C1  UNL     1     -33.682  17.515  -1.089  1.00 20.00     0.006 A 
HETATM    7  C2  UNL     1     -35.148  17.404  -0.780  1.00 20.00     0.006 A 
ENDBRANCH   3   5
BRANCH   2   8
HETATM    8  C8  UNL     1     -35.244  13.591  -4.212  1.00 20.00     0.120 C 
HETATM    9 CL9  UNL     1     -34.893  13.983  -5.918  1.00 20.00    -0.130 Cl
ENDBRANCH   2   8
TORSDOF 2
ENDMDL
MODEL 6
REMARK VINA RESULT:      -4.1     11.757     12.955
REMARK  2 active torsions:
REMARK  status: ('A' for Active; 'I' for Inactive)
REMARK    1  A    between atoms: C4_4  and  C6_6 
REMARK    2  A    between atoms: C5_5  and  C8_8 
ROOT
HETATM    1  C3  UNL     1     -34.760  16.636  -1.031  1.00 20.00     0.016 A 
HETATM    2  C5  UNL     1     -33.451  17.357  -1.191  1.00 20.00     0.009 A 
HETATM    3  C6  UNL     1     -34.158  16.785  -2.420  1.00 20.00    -0.035 A 
HETATM    4  C7  UNL     1     -34.861  17.734  -3.361  1.00 20.00     0.016 C 
ENDROOT
BRANCH   3   5
HETATM    5  C4  UNL     1     -33.547  15.569  -3.131  1.00 20.00    -0.006 A 
HETATM    6  C1  UNL     1     -34.337  14.325  -3.436  1.00 20.00     0.006 A 
HETATM    7  C2  UNL     1     -33.873  15.213  -4.555  1.00 20.00     0.006 A 
ENDBRANCH   3   5
BRANCH   2   8
HETATM    8  C8  UNL     1     -33.358  18.820  -0.919  1.00 20.00     0.120 C 
HETATM    9 CL9  UNL     1     -31.954  19.195   0.118  1.00 20.00    -0.130 Cl
ENDBRANCH   2   8
TORSDOF 2
ENDMDL
MODEL 7
REMARK VINA RESULT:      -4.1     11.640     12.740
REMARK  2 active torsions:
REMARK  status: ('A' for Active; 'I' for Inactive)
REMARK    1  A    between atoms: C4_4  and  C6_6 
REMARK    2  A    between atoms: C5_5  and  C8_8 
ROOT
HETATM    1  C3  UNL     1     -36.728  14.685  -3.853  1.00 20.00     0.016 A 
HETATM    2  C5  UNL     1     -35.966  15.295  -4.995  1.00 20.00     0.009 A 
HETATM    3  C6  UNL     1     -35.289  15.127  -3.634  1.00 20.00    -0.035 A 
HETATM    4  C7  UNL     1     -34.265  14.032  -3.463  1.00 20.00     0.016 C 
ENDROOT
BRANCH   3   5
HETATM    5  C4  UNL     1     -34.985  16.377  -2.795  1.00 20.00    -0.006 A 
HETATM    6  C1  UNL     1     -34.776  16.323  -1.306  1.00 20.00     0.006 A 
HETATM    7  C2  UNL     1     -33.626  16.654  -2.215  1.00 20.00     0.006 A 
ENDBRANCH   3   5
BRANCH   2   8
HETATM    8  C8  UNL     1     -35.604  14.474  -6.185  1.00 20.00     0.120 C 
HETATM    9 CL9  UNL     1     -34.228  15.191  -7.070  1.00 20.00    -0.130 Cl
ENDBRANCH   2   8
TORSDOF 2
ENDMDL
MODEL 8
REMARK VINA RESULT:      -4.1      9.352     10.694
REMARK  2 active torsions:
REMARK  status: ('A' for Active; 'I' for Inactive)
REMARK    1  A    between atoms: C4_4  and  C6_6 
REMARK    2  A    between atoms: C5_5  and  C8_8 
ROOT
HETATM    1  C3  UNL     1     -42.937   4.693  -2.931  1.00 20.00     0.016 A 
HETATM    2  C5  UNL     1     -42.050   3.486  -2.815  1.00 20.00     0.009 A 
HETATM    3  C6  UNL     1     -42.194   4.439  -1.628  1.00 20.00    -0.035 A 
HETATM    4  C7  UNL     1     -43.031   4.006  -0.448  1.00 20.00     0.016 C 
ENDROOT
BRANCH   3   5
HETATM    5  C4  UNL     1     -41.002   5.323  -1.233  1.00 20.00    -0.006 A 
HETATM    6  C1  UNL     1     -41.100   6.821  -1.137  1.00 20.00     0.006 A 
HETATM    7  C2  UNL     1     -40.902   5.999   0.106  1.00 20.00     0.006 A 
ENDBRANCH   3   5
BRANCH   2   8
HETATM    8  C8  UNL     1     -42.635   2.116  -2.830  1.00 20.00     0.120 C 
HETATM    9 CL9  UNL     1     -41.607   0.984  -3.753  1.00 20.00    -0.130 Cl
ENDBRANCH   2   8
TORSDOF 2
ENDMDL
MODEL 9
REMARK VINA RESULT:      -4.1     11.630     13.163
REMARK  2 active torsions:
REMARK  status: ('A' for Active; 'I' for Inactive)
REMARK    1  A    between atoms: C4_4  and  C6_6 
REMARK    2  A    between atoms: C5_5  and  C8_8 
ROOT
HETATM    1  C3  UNL     1     -33.219  15.771  -4.002  1.00 20.00     0.016 A 
HETATM    2  C5  UNL     1     -34.526  16.231  -3.420  1.00 20.00     0.009 A 
HETATM    3  C6  UNL     1     -34.509  15.108  -4.457  1.00 20.00    -0.035 A 
HETATM    4  C7  UNL     1     -34.739  13.689  -3.994  1.00 20.00     0.016 C 
ENDROOT
BRANCH   3   5
HETATM    5  C4  UNL     1     -35.065  15.383  -5.862  1.00 20.00    -0.006 A 
HETATM    6  C1  UNL     1     -34.244  15.198  -7.109  1.00 20.00     0.006 A 
HETATM    7  C2  UNL     1     -35.404  14.284  -6.831  1.00 20.00     0.006 A 
ENDBRANCH   3   5
BRANCH   2   8
HETATM    8  C8  UNL     1     -34.835  15.999  -1.981  1.00 20.00     0.120 C 
HETATM    9 CL9  UNL     1     -33.902  17.105  -0.934  1.00 20.00    -0.130 Cl
ENDBRANCH   2   8
TORSDOF 2
ENDMDL
