MODEL 1
REMARK VINA RESULT:      -4.2      0.000      0.000
REMARK  3 active torsions:
REMARK  status: ('A' for Active; 'I' for Inactive)
REMARK    1  A    between atoms: C4_4  and  C6_6 
REMARK    2  A    between atoms: C5_5  and  C8_8 
REMARK    3  A    between atoms: C6_6  and  C9_9 
ROOT
HETATM    1  C3  UNL     1     -35.526  16.521  -2.907  1.00 20.00     0.017 A 
HETATM    2  C5  UNL     1     -34.586  16.224  -1.774  1.00 20.00     0.009 A 
HETATM    3  C6  UNL     1     -34.334  15.609  -3.149  1.00 20.00    -0.032 A 
ENDROOT
BRANCH   3   4
HETATM    4  C4  UNL     1     -34.543  14.099  -3.342  1.00 20.00    -0.006 A 
HETATM    5  C1  UNL     1     -35.495  13.536  -4.360  1.00 20.00     0.006 A 
HETATM    6  C2  UNL     1     -34.014  13.352  -4.534  1.00 20.00     0.006 A 
ENDBRANCH   3   4
BRANCH   3   7
HETATM    7  C9  UNL     1     -33.218  16.166  -4.001  1.00 20.00     0.006 C 
HETATM    8  C7  UNL     1     -33.733  16.936  -5.182  1.00 20.00     0.006 C 
ENDBRANCH   3   7
BRANCH   2   9
HETATM    9  C8  UNL     1     -33.731  17.301  -1.199  1.00 20.00     0.120 C 
HETATM   10 CL10 UNL     1     -34.297  17.777   0.426  1.00 20.00    -0.130 Cl
ENDBRANCH   2   9
TORSDOF 3
ENDMDL
MODEL 2
REMARK VINA RESULT:      -4.1      2.496      4.176
REMARK  3 active torsions:
REMARK  status: ('A' for Active; 'I' for Inactive)
REMARK    1  A    between atoms: C4_4  and  C6_6 
REMARK    2  A    between atoms: C5_5  and  C8_8 
REMARK    3  A    between atoms: C6_6  and  C9_9 
ROOT
HETATM    1  C3  UNL     1     -33.595  15.596  -3.843  1.00 20.00     0.017 A 
HETATM    2  C5  UNL     1     -34.364  14.416  -3.324  1.00 20.00     0.009 A 
HETATM    3  C6  UNL     1     -34.737  15.824  -2.866  1.00 20.00    -0.032 A 
ENDROOT
BRANCH   3   4
HETATM    4  C4  UNL     1     -34.442  16.240  -1.416  1.00 20.00    -0.006 A 
HETATM    5  C1  UNL     1     -33.684  17.491  -1.070  1.00 20.00     0.006 A 
HETATM    6  C2  UNL     1     -35.146  17.384  -0.742  1.00 20.00     0.006 A 
ENDBRANCH   3   4
BRANCH   3   7
HETATM    7  C9  UNL     1     -35.986  16.462  -3.424  1.00 20.00     0.006 C 
HETATM    8  C7  UNL     1     -35.679  17.537  -4.425  1.00 20.00     0.006 C 
ENDBRANCH   3   7
BRANCH   2   9
HETATM    9  C8  UNL     1     -35.218  13.609  -4.241  1.00 20.00     0.120 C 
HETATM   10 CL10 UNL     1     -34.915  14.034  -5.948  1.00 20.00    -0.130 Cl
ENDBRANCH   2   9
TORSDOF 3
ENDMDL
MODEL 3
REMARK VINA RESULT:      -4.0     10.775     11.913
REMARK  3 active torsions:
REMARK  status: ('A' for Active; 'I' for Inactive)
REMARK    1  A    between atoms: C4_4  and  C6_6 
REMARK    2  A    between atoms: C5_5  and  C8_8 
REMARK    3  A    between atoms: C6_6  and  C9_9 
ROOT
HETATM    1  C3  UNL     1     -31.966   5.903   3.583  1.00 20.00     0.017 A 
HETATM    2  C5  UNL     1     -32.595   6.849   2.600  1.00 20.00     0.009 A 
HETATM    3  C6  UNL     1     -33.427   6.289   3.752  1.00 20.00    -0.032 A 
ENDROOT
BRANCH   3   4
HETATM    4  C4  UNL     1     -34.536   5.269   3.446  1.00 20.00    -0.006 A 
HETATM    5  C1  UNL     1     -35.161   4.408   4.508  1.00 20.00     0.006 A 
HETATM    6  C2  UNL     1     -35.969   5.486   3.842  1.00 20.00     0.006 A 
ENDBRANCH   3   4
BRANCH   3   7
HETATM    7  C9  UNL     1     -33.757   7.192   4.916  1.00 20.00     0.006 C 
HETATM    8  C7  UNL     1     -33.457   6.550   6.239  1.00 20.00     0.006 C 
ENDBRANCH   3   7
BRANCH   2   9
HETATM    9  C8  UNL     1     -32.157   8.271   2.534  1.00 20.00     0.120 C 
HETATM   10 CL10 UNL     1     -31.896   8.790   0.846  1.00 20.00    -0.130 Cl
ENDBRANCH   2   9
TORSDOF 3
ENDMDL
MODEL 4
REMARK VINA RESULT:      -3.9      2.799      4.198
REMARK  3 active torsions:
REMARK  status: ('A' for Active; 'I' for Inactive)
REMARK    1  A    between atoms: C4_4  and  C6_6 
REMARK    2  A    between atoms: C5_5  and  C8_8 
REMARK    3  A    between atoms: C6_6  and  C9_9 
ROOT
HETATM    1  C3  UNL     1     -35.541  15.377  -4.494  1.00 20.00     0.017 A 
HETATM    2  C5  UNL     1     -34.872  16.548  -5.156  1.00 20.00     0.009 A 
HETATM    3  C6  UNL     1     -34.384  16.069  -3.790  1.00 20.00    -0.032 A 
ENDROOT
BRANCH   3   4
HETATM    4  C4  UNL     1     -34.644  16.945  -2.555  1.00 20.00    -0.006 A 
HETATM    5  C1  UNL     1     -34.752  16.378  -1.167  1.00 20.00     0.006 A 
HETATM    6  C2  UNL     1     -33.582  17.246  -1.536  1.00 20.00     0.006 A 
ENDBRANCH   3   4
BRANCH   3   7
HETATM    7  C9  UNL     1     -33.086  15.302  -3.711  1.00 20.00     0.006 C 
HETATM    8  C7  UNL     1     -33.302  13.818  -3.675  1.00 20.00     0.006 C 
ENDBRANCH   3   7
BRANCH   2   9
HETATM    9  C8  UNL     1     -34.087  16.360  -6.409  1.00 20.00     0.120 C 
HETATM   10 CL10 UNL     1     -34.499  14.815  -7.205  1.00 20.00    -0.130 Cl
ENDBRANCH   2   9
TORSDOF 3
ENDMDL
MODEL 5
REMARK VINA RESULT:      -3.9      1.669      2.639
REMARK  3 active torsions:
REMARK  status: ('A' for Active; 'I' for Inactive)
REMARK    1  A    between atoms: C4_4  and  C6_6 
REMARK    2  A    between atoms: C5_5  and  C8_8 
REMARK    3  A    between atoms: C6_6  and  C9_9 
ROOT
HETATM    1  C3  UNL     1     -33.659  16.550  -4.114  1.00 20.00     0.017 A 
HETATM    2  C5  UNL     1     -35.082  16.842  -3.732  1.00 20.00     0.009 A 
HETATM    3  C6  UNL     1     -34.762  15.614  -4.583  1.00 20.00    -0.032 A 
ENDROOT
BRANCH   3   4
HETATM    4  C4  UNL     1     -35.186  15.599  -6.060  1.00 20.00    -0.006 A 
HETATM    5  C1  UNL     1     -34.254  15.190  -7.166  1.00 20.00     0.006 A 
HETATM    6  C2  UNL     1     -35.433  14.325  -6.819  1.00 20.00     0.006 A 
ENDBRANCH   3   4
BRANCH   3   7
HETATM    7  C9  UNL     1     -34.811  14.251  -3.937  1.00 20.00     0.006 C 
HETATM    8  C7  UNL     1     -33.446  13.653  -3.763  1.00 20.00     0.006 C 
ENDBRANCH   3   7
BRANCH   2   9
HETATM    9  C8  UNL     1     -35.515  16.752  -2.309  1.00 20.00     0.120 C 
HETATM   10 CL10 UNL     1     -34.112  16.722  -1.206  1.00 20.00    -0.130 Cl
ENDBRANCH   2   9
TORSDOF 3
ENDMDL
MODEL 6
REMARK VINA RESULT:      -3.8     11.380     12.500
REMARK  3 active torsions:
REMARK  status: ('A' for Active; 'I' for Inactive)
REMARK    1  A    between atoms: C4_4  and  C6_6 
REMARK    2  A    between atoms: C5_5  and  C8_8 
REMARK    3  A    between atoms: C6_6  and  C9_9 
ROOT
HETATM    1  C3  UNL     1     -33.751   7.363   4.353  1.00 20.00     0.017 A 
HETATM    2  C5  UNL     1     -32.588   6.541   3.875  1.00 20.00     0.009 A 
HETATM    3  C6  UNL     1     -33.892   5.851   4.272  1.00 20.00    -0.032 A 
ENDROOT
BRANCH   3   4
HETATM    4  C4  UNL     1     -33.930   5.009   5.557  1.00 20.00    -0.006 A 
HETATM    5  C1  UNL     1     -34.986   5.187   6.612  1.00 20.00     0.006 A 
HETATM    6  C2  UNL     1     -34.949   3.930   5.790  1.00 20.00     0.006 A 
ENDBRANCH   3   4
BRANCH   3   7
HETATM    7  C9  UNL     1     -34.790   5.313   3.184  1.00 20.00     0.006 C 
HETATM    8  C7  UNL     1     -36.144   5.959   3.192  1.00 20.00     0.006 C 
ENDBRANCH   3   7
BRANCH   2   9
HETATM    9  C8  UNL     1     -32.122   6.642   2.464  1.00 20.00     0.120 C 
HETATM   10 CL10 UNL     1     -32.114   8.337   1.904  1.00 20.00    -0.130 Cl
ENDBRANCH   2   9
TORSDOF 3
ENDMDL
MODEL 7
REMARK VINA RESULT:      -3.8      2.636      4.020
REMARK  3 active torsions:
REMARK  status: ('A' for Active; 'I' for Inactive)
REMARK    1  A    between atoms: C4_4  and  C6_6 
REMARK    2  A    between atoms: C5_5  and  C8_8 
REMARK    3  A    between atoms: C6_6  and  C9_9 
ROOT
HETATM    1  C3  UNL     1     -36.610  15.505  -3.374  1.00 20.00     0.017 A 
HETATM    2  C5  UNL     1     -35.699  16.160  -4.372  1.00 20.00     0.009 A 
HETATM    3  C6  UNL     1     -35.121  15.197  -3.336  1.00 20.00    -0.032 A 
ENDROOT
BRANCH   3   4
HETATM    4  C4  UNL     1     -34.245  15.756  -2.204  1.00 20.00    -0.006 A 
HETATM    5  C1  UNL     1     -33.895  17.214  -2.095  1.00 20.00     0.006 A 
HETATM    6  C2  UNL     1     -34.804  16.583  -1.080  1.00 20.00     0.006 A 
ENDBRANCH   3   4
BRANCH   3   7
HETATM    7  C9  UNL     1     -34.705  13.816  -3.781  1.00 20.00     0.006 C 
HETATM    8  C7  UNL     1     -33.219  13.622  -3.723  1.00 20.00     0.006 C 
ENDBRANCH   3   7
BRANCH   2   9
HETATM    9  C8  UNL     1     -35.801  15.827  -5.820  1.00 20.00     0.120 C 
HETATM   10 CL10 UNL     1     -34.236  16.057  -6.649  1.00 20.00    -0.130 Cl
ENDBRANCH   2   9
TORSDOF 3
ENDMDL
MODEL 8
REMARK VINA RESULT:      -3.8      1.363      1.959
REMARK  3 active torsions:
REMARK  status: ('A' for Active; 'I' for Inactive)
REMARK    1  A    between atoms: C4_4  and  C6_6 
REMARK    2  A    between atoms: C5_5  and  C8_8 
REMARK    3  A    between atoms: C6_6  and  C9_9 
ROOT
HETATM    1  C3  UNL     1     -34.715  16.416  -1.192  1.00 20.00     0.017 A 
HETATM    2  C5  UNL     1     -33.473  17.190  -1.528  1.00 20.00     0.009 A 
HETATM    3  C6  UNL     1     -34.261  16.499  -2.640  1.00 20.00    -0.032 A 
ENDROOT
BRANCH   3   4
HETATM    4  C4  UNL     1     -33.653  15.268  -3.331  1.00 20.00    -0.006 A 
HETATM    5  C1  UNL     1     -34.420  13.990  -3.529  1.00 20.00     0.006 A 
HETATM    6  C2  UNL     1     -34.051  14.836  -4.715  1.00 20.00     0.006 A 
ENDBRANCH   3   4
BRANCH   3   7
HETATM    7  C9  UNL     1     -35.103  17.343  -3.566  1.00 20.00     0.006 C 
HETATM    8  C7  UNL     1     -36.572  17.171  -3.316  1.00 20.00     0.006 C 
ENDBRANCH   3   7
BRANCH   2   9
HETATM    9  C8  UNL     1     -33.436  18.670  -1.360  1.00 20.00     0.120 C 
HETATM   10 CL10 UNL     1     -32.261  19.149  -0.104  1.00 20.00    -0.130 Cl
ENDBRANCH   2   9
TORSDOF 3
ENDMDL
MODEL 9
REMARK VINA RESULT:      -3.7      1.527      2.350
REMARK  3 active torsions:
REMARK  status: ('A' for Active; 'I' for Inactive)
REMARK    1  A    between atoms: C4_4  and  C6_6 
REMARK    2  A    between atoms: C5_5  and  C8_8 
REMARK    3  A    between atoms: C6_6  and  C9_9 
ROOT
HETATM    1  C3  UNL     1     -34.680  14.986  -3.052  1.00 20.00     0.017 A 
HETATM    2  C5  UNL     1     -33.616  16.041  -2.949  1.00 20.00     0.009 A 
HETATM    3  C6  UNL     1     -34.523  15.995  -4.178  1.00 20.00    -0.032 A 
ENDROOT
BRANCH   3   4
HETATM    4  C4  UNL     1     -33.930  15.560  -5.527  1.00 20.00    -0.006 A 
HETATM    5  C1  UNL     1     -34.670  14.675  -6.491  1.00 20.00     0.006 A 
HETATM    6  C2  UNL     1     -34.410  16.113  -6.840  1.00 20.00     0.006 A 
ENDBRANCH   3   4
BRANCH   3   7
HETATM    7  C9  UNL     1     -35.613  17.030  -4.315  1.00 20.00     0.006 C 
HETATM    8  C7  UNL     1     -36.980  16.450  -4.093  1.00 20.00     0.006 C 
ENDBRANCH   3   7
BRANCH   2   9
HETATM    9  C8  UNL     1     -33.708  17.108  -1.914  1.00 20.00     0.120 C 
HETATM   10 CL10 UNL     1     -34.754  16.604  -0.557  1.00 20.00    -0.130 Cl
ENDBRANCH   2   9
TORSDOF 3
ENDMDL
