MODEL 1
REMARK VINA RESULT:      -4.7      0.000      0.000
REMARK  2 active torsions:
REMARK  status: ('A' for Active; 'I' for Inactive)
REMARK    1  A    between atoms: C2_2  and  C6_6 
REMARK    2  A    between atoms: C7_7  and  C10_10 
ROOT
HETATM    1  C1  UNL     1     -34.784  15.240  -2.971  1.00 20.00     0.022 A 
HETATM    2  C2  UNL     1     -34.471  16.630  -2.986  1.00 20.00    -0.040 A 
HETATM    3  C3  UNL     1     -34.578  14.650  -4.199  1.00 20.00    -0.020 A 
HETATM    4  C4  UNL     1     -34.038  17.050  -4.224  1.00 20.00    -0.014 A 
HETATM    5  C8  UNL     1     -34.786  13.239  -4.588  1.00 20.00     0.056 C 
HETATM    6  C9  UNL     1     -33.619  18.403  -4.652  1.00 20.00     0.057 C 
HETATM    7  S11 UNL     1     -34.009  15.771  -5.362  1.00 20.00    -0.100 SA
ENDROOT
BRANCH   2   8
HETATM    8  C6  UNL     1     -34.605  17.529  -1.778  1.00 20.00     0.025 A 
HETATM    9  C5  UNL     1     -34.663  16.934  -0.388  1.00 20.00     0.016 A 
HETATM   10  C7  UNL     1     -33.441  17.688  -0.821  1.00 20.00     0.008 A 
BRANCH  10  11
HETATM   11  C10 UNL     1     -33.136  19.023  -0.233  1.00 20.00     0.119 C 
HETATM   12 CL12 UNL     1     -31.684  18.958   0.802  1.00 20.00    -0.130 Cl
ENDBRANCH  10  11
ENDBRANCH   2   8
TORSDOF 2
ENDMDL
MODEL 2
REMARK VINA RESULT:      -4.6      3.161      5.022
REMARK  2 active torsions:
REMARK  status: ('A' for Active; 'I' for Inactive)
REMARK    1  A    between atoms: C2_2  and  C6_6 
REMARK    2  A    between atoms: C7_7  and  C10_10 
ROOT
HETATM    1  C1  UNL     1     -34.479  15.901  -1.917  1.00 20.00     0.022 A 
HETATM    2  C2  UNL     1     -34.136  16.042  -3.293  1.00 20.00    -0.040 A 
HETATM    3  C3  UNL     1     -34.471  17.109  -1.255  1.00 20.00    -0.020 A 
HETATM    4  C4  UNL     1     -33.880  17.353  -3.631  1.00 20.00    -0.014 A 
HETATM    5  C8  UNL     1     -34.768  17.382   0.167  1.00 20.00     0.056 C 
HETATM    6  C9  UNL     1     -33.496  17.915  -4.945  1.00 20.00     0.057 C 
HETATM    7  S11 UNL     1     -34.053  18.406  -2.293  1.00 20.00    -0.100 SA
ENDROOT
BRANCH   2   8
HETATM    8  C6  UNL     1     -34.064  14.882  -4.259  1.00 20.00     0.025 A 
HETATM    9  C5  UNL     1     -34.862  13.622  -3.998  1.00 20.00     0.016 A 
HETATM   10  C7  UNL     1     -35.263  14.536  -5.117  1.00 20.00     0.008 A 
BRANCH  10  11
HETATM   11  C10 UNL     1     -35.071  14.117  -6.534  1.00 20.00     0.119 C 
HETATM   12 CL12 UNL     1     -34.810  15.526  -7.598  1.00 20.00    -0.130 Cl
ENDBRANCH  10  11
ENDBRANCH   2   8
TORSDOF 2
ENDMDL
MODEL 3
REMARK VINA RESULT:      -4.4      3.394      4.967
REMARK  2 active torsions:
REMARK  status: ('A' for Active; 'I' for Inactive)
REMARK    1  A    between atoms: C2_2  and  C6_6 
REMARK    2  A    between atoms: C7_7  and  C10_10 
ROOT
HETATM    1  C1  UNL     1     -34.584  16.598  -0.759  1.00 20.00     0.022 A 
HETATM    2  C2  UNL     1     -34.064  17.042  -2.009  1.00 20.00    -0.040 A 
HETATM    3  C3  UNL     1     -34.874  17.650   0.083  1.00 20.00    -0.020 A 
HETATM    4  C4  UNL     1     -33.975  18.415  -2.075  1.00 20.00    -0.014 A 
HETATM    5  C8  UNL     1     -35.424  17.606   1.455  1.00 20.00     0.056 C 
HETATM    6  C9  UNL     1     -33.491  19.262  -3.188  1.00 20.00     0.057 C 
HETATM    7  S11 UNL     1     -34.518  19.163  -0.635  1.00 20.00    -0.100 SA
ENDROOT
BRANCH   2   8
HETATM    8  C6  UNL     1     -33.659  16.105  -3.124  1.00 20.00     0.025 A 
HETATM    9  C5  UNL     1     -34.327  14.755  -3.266  1.00 20.00     0.016 A 
HETATM   10  C7  UNL     1     -34.614  15.833  -4.268  1.00 20.00     0.008 A 
BRANCH  10  11
HETATM   11  C10 UNL     1     -34.097  15.719  -5.661  1.00 20.00     0.119 C 
HETATM   12 CL12 UNL     1     -34.914  14.406  -6.550  1.00 20.00    -0.130 Cl
ENDBRANCH  10  11
ENDBRANCH   2   8
TORSDOF 2
ENDMDL
MODEL 4
REMARK VINA RESULT:      -4.3      1.535      1.857
REMARK  2 active torsions:
REMARK  status: ('A' for Active; 'I' for Inactive)
REMARK    1  A    between atoms: C2_2  and  C6_6 
REMARK    2  A    between atoms: C7_7  and  C10_10 
ROOT
HETATM    1  C1  UNL     1     -34.404  15.306  -2.884  1.00 20.00     0.022 A 
HETATM    2  C2  UNL     1     -35.354  16.305  -2.521  1.00 20.00    -0.040 A 
HETATM    3  C3  UNL     1     -34.912  14.423  -3.812  1.00 20.00    -0.020 A 
HETATM    4  C4  UNL     1     -36.551  16.147  -3.184  1.00 20.00    -0.014 A 
HETATM    5  C8  UNL     1     -34.247  13.258  -4.434  1.00 20.00     0.056 C 
HETATM    6  C9  UNL     1     -37.780  16.966  -3.090  1.00 20.00     0.057 C 
HETATM    7  S11 UNL     1     -36.527  14.800  -4.241  1.00 20.00    -0.100 SA
ENDROOT
BRANCH   2   8
HETATM    8  C6  UNL     1     -35.070  17.402  -1.521  1.00 20.00     0.025 A 
HETATM    9  C5  UNL     1     -34.796  17.062  -0.072  1.00 20.00     0.016 A 
HETATM   10  C7  UNL     1     -33.679  17.556  -0.942  1.00 20.00     0.008 A 
BRANCH  10  11
HETATM   11  C10 UNL     1     -33.106  18.914  -0.727  1.00 20.00     0.119 C 
HETATM   12 CL12 UNL     1     -31.740  18.868   0.421  1.00 20.00    -0.130 Cl
ENDBRANCH  10  11
ENDBRANCH   2   8
TORSDOF 2
ENDMDL
MODEL 5
REMARK VINA RESULT:      -4.3      2.085      2.630
REMARK  2 active torsions:
REMARK  status: ('A' for Active; 'I' for Inactive)
REMARK    1  A    between atoms: C2_2  and  C6_6 
REMARK    2  A    between atoms: C7_7  and  C10_10 
ROOT
HETATM    1  C1  UNL     1     -36.188  15.812  -2.917  1.00 20.00     0.022 A 
HETATM    2  C2  UNL     1     -34.783  15.645  -2.744  1.00 20.00    -0.040 A 
HETATM    3  C3  UNL     1     -36.720  14.865  -3.766  1.00 20.00    -0.020 A 
HETATM    4  C4  UNL     1     -34.295  14.579  -3.467  1.00 20.00    -0.014 A 
HETATM    5  C8  UNL     1     -38.125  14.701  -4.196  1.00 20.00     0.056 C 
HETATM    6  C9  UNL     1     -32.905  14.077  -3.558  1.00 20.00     0.057 C 
HETATM    7  S11 UNL     1     -35.527  13.783  -4.349  1.00 20.00    -0.100 SA
ENDROOT
BRANCH   2   8
HETATM    8  C6  UNL     1     -33.938  16.542  -1.869  1.00 20.00     0.025 A 
HETATM    9  C5  UNL     1     -33.730  17.995  -2.241  1.00 20.00     0.016 A 
HETATM   10  C7  UNL     1     -34.591  17.646  -1.063  1.00 20.00     0.008 A 
BRANCH  10  11
HETATM   11  C10 UNL     1     -34.122  17.937   0.320  1.00 20.00     0.119 C 
HETATM   12 CL12 UNL     1     -35.333  17.441   1.533  1.00 20.00    -0.130 Cl
ENDBRANCH  10  11
ENDBRANCH   2   8
TORSDOF 2
ENDMDL
MODEL 6
REMARK VINA RESULT:      -4.3      3.427      5.415
REMARK  2 active torsions:
REMARK  status: ('A' for Active; 'I' for Inactive)
REMARK    1  A    between atoms: C2_2  and  C6_6 
REMARK    2  A    between atoms: C7_7  and  C10_10 
ROOT
HETATM    1  C1  UNL     1     -35.191  17.437   0.795  1.00 20.00     0.022 A 
HETATM    2  C2  UNL     1     -34.016  17.749   0.051  1.00 20.00    -0.040 A 
HETATM    3  C3  UNL     1     -35.256  18.140   1.978  1.00 20.00    -0.020 A 
HETATM    4  C4  UNL     1     -33.227  18.677   0.694  1.00 20.00    -0.014 A 
HETATM    5  C8  UNL     1     -36.306  18.097   3.018  1.00 20.00     0.056 C 
HETATM    6  C9  UNL     1     -31.938  19.261   0.261  1.00 20.00     0.057 C 
HETATM    7  S11 UNL     1     -33.904  19.170   2.188  1.00 20.00    -0.100 SA
ENDROOT
BRANCH   2   8
HETATM    8  C6  UNL     1     -33.684  17.126  -1.285  1.00 20.00     0.025 A 
HETATM    9  C5  UNL     1     -34.640  16.143  -1.927  1.00 20.00     0.016 A 
HETATM   10  C7  UNL     1     -34.475  17.512  -2.517  1.00 20.00     0.008 A 
BRANCH  10  11
HETATM   11  C10 UNL     1     -33.782  17.686  -3.825  1.00 20.00     0.119 C 
HETATM   12 CL12 UNL     1     -33.452  16.111  -4.597  1.00 20.00    -0.130 Cl
ENDBRANCH  10  11
ENDBRANCH   2   8
TORSDOF 2
ENDMDL
MODEL 7
REMARK VINA RESULT:      -4.3      1.693      2.930
REMARK  2 active torsions:
REMARK  status: ('A' for Active; 'I' for Inactive)
REMARK    1  A    between atoms: C2_2  and  C6_6 
REMARK    2  A    between atoms: C7_7  and  C10_10 
ROOT
HETATM    1  C1  UNL     1     -34.140  17.056  -5.395  1.00 20.00     0.022 A 
HETATM    2  C2  UNL     1     -34.035  16.166  -4.286  1.00 20.00    -0.040 A 
HETATM    3  C3  UNL     1     -34.494  16.399  -6.553  1.00 20.00    -0.020 A 
HETATM    4  C4  UNL     1     -34.312  14.863  -4.640  1.00 20.00    -0.014 A 
HETATM    5  C8  UNL     1     -34.701  16.963  -7.904  1.00 20.00     0.056 C 
HETATM    6  C9  UNL     1     -34.313  13.651  -3.791  1.00 20.00     0.057 C 
HETATM    7  S11 UNL     1     -34.698  14.717  -6.301  1.00 20.00    -0.100 SA
ENDROOT
BRANCH   2   8
HETATM    8  C6  UNL     1     -33.660  16.611  -2.891  1.00 20.00     0.025 A 
HETATM    9  C5  UNL     1     -33.727  18.075  -2.514  1.00 20.00     0.016 A 
HETATM   10  C7  UNL     1     -34.730  17.116  -1.946  1.00 20.00     0.008 A 
BRANCH  10  11
HETATM   11  C10 UNL     1     -34.684  16.751  -0.502  1.00 20.00     0.119 C 
HETATM   12 CL12 UNL     1     -33.936  18.047   0.471  1.00 20.00    -0.130 Cl
ENDBRANCH  10  11
ENDBRANCH   2   8
TORSDOF 2
ENDMDL
MODEL 8
REMARK VINA RESULT:      -4.0      3.341      5.260
REMARK  2 active torsions:
REMARK  status: ('A' for Active; 'I' for Inactive)
REMARK    1  A    between atoms: C2_2  and  C6_6 
REMARK    2  A    between atoms: C7_7  and  C10_10 
ROOT
HETATM    1  C1  UNL     1     -33.686  17.397  -1.015  1.00 20.00     0.022 A 
HETATM    2  C2  UNL     1     -34.772  17.207  -1.919  1.00 20.00    -0.040 A 
HETATM    3  C3  UNL     1     -34.027  18.214   0.040  1.00 20.00    -0.020 A 
HETATM    4  C4  UNL     1     -35.901  17.888  -1.520  1.00 20.00    -0.014 A 
HETATM    5  C8  UNL     1     -33.187  18.649   1.176  1.00 20.00     0.056 C 
HETATM    6  C9  UNL     1     -37.228  17.950  -2.174  1.00 20.00     0.057 C 
HETATM    7  S11 UNL     1     -35.651  18.750  -0.062  1.00 20.00    -0.100 SA
ENDROOT
BRANCH   2   8
HETATM    8  C6  UNL     1     -34.682  16.359  -3.166  1.00 20.00     0.025 A 
HETATM    9  C5  UNL     1     -33.518  15.412  -3.362  1.00 20.00     0.016 A 
HETATM   10  C7  UNL     1     -34.882  14.860  -3.077  1.00 20.00     0.008 A 
BRANCH  10  11
HETATM   11  C10 UNL     1     -35.639  14.144  -4.142  1.00 20.00     0.119 C 
HETATM   12 CL12 UNL     1     -34.590  13.001  -5.025  1.00 20.00    -0.130 Cl
ENDBRANCH  10  11
ENDBRANCH   2   8
TORSDOF 2
ENDMDL
MODEL 9
REMARK VINA RESULT:      -4.0      4.100      6.301
REMARK  2 active torsions:
REMARK  status: ('A' for Active; 'I' for Inactive)
REMARK    1  A    between atoms: C2_2  and  C6_6 
REMARK    2  A    between atoms: C7_7  and  C10_10 
ROOT
HETATM    1  C1  UNL     1     -34.171  18.157   2.111  1.00 20.00     0.022 A 
HETATM    2  C2  UNL     1     -35.198  18.168   1.122  1.00 20.00    -0.040 A 
HETATM    3  C3  UNL     1     -34.671  18.360   3.378  1.00 20.00    -0.020 A 
HETATM    4  C4  UNL     1     -36.443  18.380   1.671  1.00 20.00    -0.014 A 
HETATM    5  C8  UNL     1     -33.936  18.417   4.659  1.00 20.00     0.056 C 
HETATM    6  C9  UNL     1     -37.756  18.460   0.993  1.00 20.00     0.057 C 
HETATM    7  S11 UNL     1     -36.372  18.563   3.372  1.00 20.00    -0.100 SA
ENDROOT
BRANCH   2   8
HETATM    8  C6  UNL     1     -34.938  17.972  -0.354  1.00 20.00     0.025 A 
HETATM    9  C5  UNL     1     -33.537  17.684  -0.850  1.00 20.00     0.016 A 
HETATM   10  C7  UNL     1     -34.572  16.600  -0.882  1.00 20.00     0.008 A 
BRANCH  10  11
HETATM   11  C10 UNL     1     -35.125  16.129  -2.183  1.00 20.00     0.119 C 
HETATM   12 CL12 UNL     1     -33.870  15.329  -3.168  1.00 20.00    -0.130 Cl
ENDBRANCH  10  11
ENDBRANCH   2   8
TORSDOF 2
ENDMDL
