MODEL 1
REMARK VINA RESULT:      -4.9      0.000      0.000
REMARK  1 active torsions:
REMARK  status: ('A' for Active; 'I' for Inactive)
REMARK    1  A    between atoms: C5_5  and  C10_10 
ROOT
HETATM    1  C1  UNL     1     -34.324  16.190  -6.865  1.00 20.00     0.002 C 
HETATM    2  C2  UNL     1     -33.437  16.508  -5.668  1.00 20.00     0.011 C 
HETATM    3  C3  UNL     1     -34.668  14.722  -6.669  1.00 20.00     0.010 C 
HETATM    4  C4  UNL     1     -32.853  15.138  -3.549  1.00 20.00     0.017 A 
HETATM    5  C5  UNL     1     -33.908  16.113  -3.124  1.00 20.00     0.009 A 
HETATM    6  C6  UNL     1     -33.906  15.578  -4.556  1.00 20.00    -0.028 A 
HETATM    7  C7  UNL     1     -34.936  14.593  -5.143  1.00 20.00    -0.040 C 
HETATM    8  C8  UNL     1     -36.382  15.031  -4.849  1.00 20.00     0.015 C 
HETATM    9  C9  UNL     1     -34.749  13.130  -4.733  1.00 20.00     0.015 C 
ENDROOT
BRANCH   5  10
HETATM   10  C10 UNL     1     -34.863  15.716  -2.054  1.00 20.00     0.120 C 
HETATM   11 CL11 UNL     1     -34.622  16.687  -0.575  1.00 20.00    -0.130 Cl
ENDBRANCH   5  10
TORSDOF 1
ENDMDL
MODEL 2
REMARK VINA RESULT:      -4.7      1.064      2.730
REMARK  1 active torsions:
REMARK  status: ('A' for Active; 'I' for Inactive)
REMARK    1  A    between atoms: C5_5  and  C10_10 
ROOT
HETATM    1  C1  UNL     1     -35.186  13.430  -4.731  1.00 20.00     0.002 C 
HETATM    2  C2  UNL     1     -36.004  14.348  -3.832  1.00 20.00     0.011 C 
HETATM    3  C3  UNL     1     -34.280  14.391  -5.485  1.00 20.00     0.010 C 
HETATM    4  C4  UNL     1     -35.796  16.877  -3.313  1.00 20.00     0.017 A 
HETATM    5  C5  UNL     1     -35.168  16.172  -2.151  1.00 20.00     0.009 A 
HETATM    6  C6  UNL     1     -35.102  15.542  -3.543  1.00 20.00    -0.028 A 
HETATM    7  C7  UNL     1     -33.834  15.420  -4.409  1.00 20.00    -0.040 C 
HETATM    8  C8  UNL     1     -32.651  14.836  -3.616  1.00 20.00     0.015 C 
HETATM    9  C9  UNL     1     -33.396  16.707  -5.111  1.00 20.00     0.015 C 
ENDROOT
BRANCH   5  10
HETATM   10  C10 UNL     1     -34.033  16.825  -1.443  1.00 20.00     0.120 C 
HETATM   11 CL11 UNL     1     -34.518  17.385   0.182  1.00 20.00    -0.130 Cl
ENDBRANCH   5  10
TORSDOF 1
ENDMDL
MODEL 3
REMARK VINA RESULT:      -4.7      2.354      4.039
REMARK  1 active torsions:
REMARK  status: ('A' for Active; 'I' for Inactive)
REMARK    1  A    between atoms: C5_5  and  C10_10 
ROOT
HETATM    1  C1  UNL     1     -35.435  16.596  -2.337  1.00 20.00     0.002 C 
HETATM    2  C2  UNL     1     -36.113  15.463  -3.099  1.00 20.00     0.011 C 
HETATM    3  C3  UNL     1     -33.980  16.160  -2.279  1.00 20.00     0.010 C 
HETATM    4  C4  UNL     1     -35.143  13.421  -4.363  1.00 20.00     0.017 A 
HETATM    5  C5  UNL     1     -35.475  14.432  -5.418  1.00 20.00     0.009 A 
HETATM    6  C6  UNL     1     -35.044  14.903  -4.029  1.00 20.00    -0.028 A 
HETATM    7  C7  UNL     1     -33.699  15.574  -3.691  1.00 20.00    -0.040 C 
HETATM    8  C8  UNL     1     -33.374  16.728  -4.657  1.00 20.00     0.015 C 
HETATM    9  C9  UNL     1     -32.500  14.628  -3.601  1.00 20.00     0.015 C 
ENDROOT
BRANCH   5  10
HETATM   10  C10 UNL     1     -34.638  14.485  -6.647  1.00 20.00     0.120 C 
HETATM   11 CL11 UNL     1     -35.111  15.853  -7.695  1.00 20.00    -0.130 Cl
ENDBRANCH   5  10
TORSDOF 1
ENDMDL
MODEL 4
REMARK VINA RESULT:      -4.6      2.552      3.918
REMARK  1 active torsions:
REMARK  status: ('A' for Active; 'I' for Inactive)
REMARK    1  A    between atoms: C5_5  and  C10_10 
ROOT
HETATM    1  C1  UNL     1     -33.027  15.320  -3.537  1.00 20.00     0.002 C 
HETATM    2  C2  UNL     1     -33.279  16.179  -4.770  1.00 20.00     0.011 C 
HETATM    3  C3  UNL     1     -34.421  14.867  -3.132  1.00 20.00     0.010 C 
HETATM    4  C4  UNL     1     -35.417  16.580  -6.178  1.00 20.00     0.017 A 
HETATM    5  C5  UNL     1     -34.607  15.580  -6.945  1.00 20.00     0.009 A 
HETATM    6  C6  UNL     1     -34.532  15.602  -5.418  1.00 20.00    -0.028 A 
HETATM    7  C7  UNL     1     -35.120  14.530  -4.479  1.00 20.00    -0.040 C 
HETATM    8  C8  UNL     1     -34.719  13.108  -4.910  1.00 20.00     0.015 C 
HETATM    9  C9  UNL     1     -36.635  14.598  -4.277  1.00 20.00     0.015 C 
ENDROOT
BRANCH   5  10
HETATM   10  C10 UNL     1     -35.317  14.558  -7.761  1.00 20.00     0.120 C 
HETATM   11 CL11 UNL     1     -37.056  14.940  -7.910  1.00 20.00    -0.130 Cl
ENDBRANCH   5  10
TORSDOF 1
ENDMDL
MODEL 5
REMARK VINA RESULT:      -4.5      1.236      2.406
REMARK  1 active torsions:
REMARK  status: ('A' for Active; 'I' for Inactive)
REMARK    1  A    between atoms: C5_5  and  C10_10 
ROOT
HETATM    1  C1  UNL     1     -34.447  14.784  -6.831  1.00 20.00     0.002 C 
HETATM    2  C2  UNL     1     -34.698  14.176  -5.457  1.00 20.00     0.011 C 
HETATM    3  C3  UNL     1     -35.201  16.104  -6.775  1.00 20.00     0.010 C 
HETATM    4  C4  UNL     1     -35.793  15.149  -3.320  1.00 20.00     0.017 A 
HETATM    5  C5  UNL     1     -34.314  15.237  -3.095  1.00 20.00     0.009 A 
HETATM    6  C6  UNL     1     -34.872  15.360  -4.513  1.00 20.00    -0.028 A 
HETATM    7  C7  UNL     1     -34.906  16.653  -5.351  1.00 20.00    -0.040 C 
HETATM    8  C8  UNL     1     -33.542  17.366  -5.362  1.00 20.00     0.015 C 
HETATM    9  C9  UNL     1     -36.004  17.649  -4.971  1.00 20.00     0.015 C 
ENDROOT
BRANCH   5  10
HETATM   10  C10 UNL     1     -33.779  16.359  -2.276  1.00 20.00     0.120 C 
HETATM   11 CL11 UNL     1     -34.691  16.541  -0.751  1.00 20.00    -0.130 Cl
ENDBRANCH   5  10
TORSDOF 1
ENDMDL
MODEL 6
REMARK VINA RESULT:      -4.5      2.005      2.827
REMARK  1 active torsions:
REMARK  status: ('A' for Active; 'I' for Inactive)
REMARK    1  A    between atoms: C5_5  and  C10_10 
ROOT
HETATM    1  C1  UNL     1     -34.082  13.273  -4.535  1.00 20.00     0.002 C 
HETATM    2  C2  UNL     1     -33.438  14.179  -3.492  1.00 20.00     0.011 C 
HETATM    3  C3  UNL     1     -35.569  13.551  -4.373  1.00 20.00     0.010 C 
HETATM    4  C4  UNL     1     -34.425  16.046  -1.992  1.00 20.00     0.017 A 
HETATM    5  C5  UNL     1     -33.754  16.752  -3.131  1.00 20.00     0.009 A 
HETATM    6  C6  UNL     1     -34.375  15.373  -3.357  1.00 20.00    -0.028 A 
HETATM    7  C7  UNL     1     -35.651  15.090  -4.174  1.00 20.00    -0.040 C 
HETATM    8  C8  UNL     1     -35.614  15.776  -5.551  1.00 20.00     0.015 C 
HETATM    9  C9  UNL     1     -36.967  15.425  -3.469  1.00 20.00     0.015 C 
ENDROOT
BRANCH   5  10
HETATM   10  C10 UNL     1     -34.320  18.043  -3.608  1.00 20.00     0.120 C 
HETATM   11 CL11 UNL     1     -33.447  18.643  -5.046  1.00 20.00    -0.130 Cl
ENDBRANCH   5  10
TORSDOF 1
ENDMDL
MODEL 7
REMARK VINA RESULT:      -4.4      2.008      3.564
REMARK  1 active torsions:
REMARK  status: ('A' for Active; 'I' for Inactive)
REMARK    1  A    between atoms: C5_5  and  C10_10 
ROOT
HETATM    1  C1  UNL     1     -33.189  13.647  -3.648  1.00 20.00     0.002 C 
HETATM    2  C2  UNL     1     -34.461  13.393  -4.448  1.00 20.00     0.011 C 
HETATM    3  C3  UNL     1     -32.981  15.148  -3.785  1.00 20.00     0.010 C 
HETATM    4  C4  UNL     1     -36.169  15.017  -5.524  1.00 20.00     0.017 A 
HETATM    5  C5  UNL     1     -36.793  14.563  -4.240  1.00 20.00     0.009 A 
HETATM    6  C6  UNL     1     -35.272  14.679  -4.341  1.00 20.00    -0.028 A 
HETATM    7  C7  UNL     1     -34.408  15.746  -3.641  1.00 20.00    -0.040 C 
HETATM    8  C8  UNL     1     -34.751  15.872  -2.146  1.00 20.00     0.015 C 
HETATM    9  C9  UNL     1     -34.428  17.132  -4.290  1.00 20.00     0.015 C 
ENDROOT
BRANCH   5  10
HETATM   10  C10 UNL     1     -37.684  15.502  -3.506  1.00 20.00     0.120 C 
HETATM   11 CL11 UNL     1     -38.084  16.931  -4.501  1.00 20.00    -0.130 Cl
ENDBRANCH   5  10
TORSDOF 1
ENDMDL
MODEL 8
REMARK VINA RESULT:      -4.4      2.369      3.903
REMARK  1 active torsions:
REMARK  status: ('A' for Active; 'I' for Inactive)
REMARK    1  A    between atoms: C5_5  and  C10_10 
ROOT
HETATM    1  C1  UNL     1     -34.360  17.785  -1.478  1.00 20.00     0.002 C 
HETATM    2  C2  UNL     1     -34.418  16.263  -1.528  1.00 20.00     0.011 C 
HETATM    3  C3  UNL     1     -33.669  18.154  -2.782  1.00 20.00     0.010 C 
HETATM    4  C4  UNL     1     -33.865  14.583  -3.420  1.00 20.00     0.017 A 
HETATM    5  C5  UNL     1     -35.357  14.716  -3.418  1.00 20.00     0.009 A 
HETATM    6  C6  UNL     1     -34.492  15.907  -3.008  1.00 20.00    -0.028 A 
HETATM    7  C7  UNL     1     -34.295  17.195  -3.832  1.00 20.00    -0.040 C 
HETATM    8  C8  UNL     1     -35.636  17.780  -4.310  1.00 20.00     0.015 C 
HETATM    9  C9  UNL     1     -33.337  17.071  -5.019  1.00 20.00     0.015 C 
ENDROOT
BRANCH   5  10
HETATM   10  C10 UNL     1     -36.091  14.583  -4.706  1.00 20.00     0.120 C 
HETATM   11 CL11 UNL     1     -35.013  14.010  -6.011  1.00 20.00    -0.130 Cl
ENDBRANCH   5  10
TORSDOF 1
ENDMDL
MODEL 9
REMARK VINA RESULT:      -4.3      2.161      3.211
REMARK  1 active torsions:
REMARK  status: ('A' for Active; 'I' for Inactive)
REMARK    1  A    between atoms: C5_5  and  C10_10 
ROOT
HETATM    1  C1  UNL     1     -34.809  13.262  -4.884  1.00 20.00     0.002 C 
HETATM    2  C2  UNL     1     -34.460  14.375  -5.863  1.00 20.00     0.011 C 
HETATM    3  C3  UNL     1     -34.294  13.789  -3.553  1.00 20.00     0.010 C 
HETATM    4  C4  UNL     1     -33.554  16.773  -5.490  1.00 20.00     0.017 A 
HETATM    5  C5  UNL     1     -35.026  16.926  -5.721  1.00 20.00     0.009 A 
HETATM    6  C6  UNL     1     -34.495  15.661  -5.047  1.00 20.00    -0.028 A 
HETATM    7  C7  UNL     1     -34.683  15.294  -3.562  1.00 20.00    -0.040 C 
HETATM    8  C8  UNL     1     -36.149  15.436  -3.117  1.00 20.00     0.015 C 
HETATM    9  C9  UNL     1     -33.774  16.042  -2.584  1.00 20.00     0.015 C 
ENDROOT
BRANCH   5  10
HETATM   10  C10 UNL     1     -35.747  18.033  -5.036  1.00 20.00     0.120 C 
HETATM   11 CL11 UNL     1     -37.504  17.957  -5.353  1.00 20.00    -0.130 Cl
ENDBRANCH   5  10
TORSDOF 1
ENDMDL
