MODEL 1
REMARK VINA RESULT:      -4.0      0.000      0.000
REMARK  1 active torsions:
REMARK  status: ('A' for Active; 'I' for Inactive)
REMARK    1  A    between atoms: C6_6  and  C8_8 
ROOT
HETATM    1  C1  UNL     1     -33.256  14.275  -3.747  1.00 20.00     0.011 C 
HETATM    2  C2  UNL     1     -33.282  15.791  -3.549  1.00 20.00     0.011 C 
HETATM    3  C3  UNL     1     -34.810  16.255  -1.493  1.00 20.00     0.017 A 
HETATM    4  C4  UNL     1     -34.335  13.779  -4.701  1.00 20.00     0.074 C 
HETATM    5  C5  UNL     1     -35.795  15.962  -3.883  1.00 20.00     0.083 C 
HETATM    6  C6  UNL     1     -34.679  17.569  -2.213  1.00 20.00     0.009 A 
HETATM    7  C7  UNL     1     -34.611  16.264  -2.996  1.00 20.00    -0.027 A 
HETATM    8  S9  UNL     1     -35.999  14.176  -4.089  1.00 20.00    -0.168 SA
ENDROOT
BRANCH   6   9
HETATM    9  C8  UNL     1     -33.492  18.439  -1.978  1.00 20.00     0.120 C 
HETATM   10 CL10 UNL     1     -32.893  18.279  -0.304  1.00 20.00    -0.130 Cl
ENDBRANCH   6   9
TORSDOF 1
ENDMDL
MODEL 2
REMARK VINA RESULT:      -3.9      1.414      1.570
REMARK  1 active torsions:
REMARK  status: ('A' for Active; 'I' for Inactive)
REMARK    1  A    between atoms: C6_6  and  C8_8 
ROOT
HETATM    1  C1  UNL     1     -34.787  13.551  -3.936  1.00 20.00     0.011 C 
HETATM    2  C2  UNL     1     -34.065  14.747  -3.314  1.00 20.00     0.011 C 
HETATM    3  C3  UNL     1     -35.872  16.569  -2.873  1.00 20.00     0.017 A 
HETATM    4  C4  UNL     1     -34.812  13.595  -5.459  1.00 20.00     0.074 C 
HETATM    5  C5  UNL     1     -34.715  16.331  -5.191  1.00 20.00     0.083 C 
HETATM    6  C6  UNL     1     -34.548  17.278  -2.805  1.00 20.00     0.009 A 
HETATM    7  C7  UNL     1     -34.712  16.060  -3.706  1.00 20.00    -0.027 A 
HETATM    8  S9  UNL     1     -35.677  15.073  -6.067  1.00 20.00    -0.168 SA
ENDROOT
BRANCH   6   9
HETATM    9  C8  UNL     1     -33.748  17.258  -1.548  1.00 20.00     0.120 C 
HETATM   10 CL10 UNL     1     -34.773  16.879  -0.136  1.00 20.00    -0.130 Cl
ENDBRANCH   6   9
TORSDOF 1
ENDMDL
MODEL 3
REMARK VINA RESULT:      -3.9      2.099      2.521
REMARK  1 active torsions:
REMARK  status: ('A' for Active; 'I' for Inactive)
REMARK    1  A    between atoms: C6_6  and  C8_8 
ROOT
HETATM    1  C1  UNL     1     -34.075  16.936  -6.389  1.00 20.00     0.011 C 
HETATM    2  C2  UNL     1     -34.366  17.065  -4.893  1.00 20.00     0.011 C 
HETATM    3  C3  UNL     1     -33.089  15.131  -3.708  1.00 20.00     0.017 A 
HETATM    4  C4  UNL     1     -35.104  16.087  -7.125  1.00 20.00     0.074 C 
HETATM    5  C5  UNL     1     -35.454  14.776  -4.733  1.00 20.00     0.083 C 
HETATM    6  C6  UNL     1     -34.104  15.624  -2.714  1.00 20.00     0.009 A 
HETATM    7  C7  UNL     1     -34.397  15.715  -4.207  1.00 20.00    -0.027 A 
HETATM    8  S9  UNL     1     -35.155  14.390  -6.476  1.00 20.00    -0.168 SA
ENDROOT
BRANCH   6   9
HETATM    9  C8  UNL     1     -33.810  16.815  -1.868  1.00 20.00     0.120 C 
HETATM   10 CL10 UNL     1     -34.740  16.771  -0.344  1.00 20.00    -0.130 Cl
ENDBRANCH   6   9
TORSDOF 1
ENDMDL
MODEL 4
REMARK VINA RESULT:      -3.8      1.423      1.826
REMARK  1 active torsions:
REMARK  status: ('A' for Active; 'I' for Inactive)
REMARK    1  A    between atoms: C6_6  and  C8_8 
ROOT
HETATM    1  C1  UNL     1     -35.424  13.983  -4.150  1.00 20.00     0.011 C 
HETATM    2  C2  UNL     1     -34.605  14.763  -3.120  1.00 20.00     0.011 C 
HETATM    3  C3  UNL     1     -35.253  17.270  -3.387  1.00 20.00     0.017 A 
HETATM    4  C4  UNL     1     -34.700  13.811  -5.480  1.00 20.00     0.074 C 
HETATM    5  C5  UNL     1     -33.422  16.170  -4.874  1.00 20.00     0.083 C 
HETATM    6  C6  UNL     1     -33.967  17.259  -2.607  1.00 20.00     0.009 A 
HETATM    7  C7  UNL     1     -34.255  16.152  -3.615  1.00 20.00    -0.027 A 
HETATM    8  S9  UNL     1     -34.327  15.415  -6.248  1.00 20.00    -0.168 SA
ENDROOT
BRANCH   6   9
HETATM    9  C8  UNL     1     -33.985  17.042  -1.133  1.00 20.00     0.120 C 
HETATM   10 CL10 UNL     1     -32.982  18.253  -0.289  1.00 20.00    -0.130 Cl
ENDBRANCH   6   9
TORSDOF 1
ENDMDL
MODEL 5
REMARK VINA RESULT:      -3.8      3.017      4.296
REMARK  1 active torsions:
REMARK  status: ('A' for Active; 'I' for Inactive)
REMARK    1  A    between atoms: C6_6  and  C8_8 
ROOT
HETATM    1  C1  UNL     1     -34.569  16.563  -0.995  1.00 20.00     0.011 C 
HETATM    2  C2  UNL     1     -35.176  16.083  -2.315  1.00 20.00     0.011 C 
HETATM    3  C3  UNL     1     -33.215  15.875  -4.013  1.00 20.00     0.017 A 
HETATM    4  C4  UNL     1     -34.566  18.080  -0.857  1.00 20.00     0.074 C 
HETATM    5  C5  UNL     1     -34.427  18.140  -3.603  1.00 20.00     0.083 C 
HETATM    6  C6  UNL     1     -34.472  15.883  -4.837  1.00 20.00     0.009 A 
HETATM    7  C7  UNL     1     -34.428  16.634  -3.511  1.00 20.00    -0.027 A 
HETATM    8  S9  UNL     1     -33.590  18.866  -2.172  1.00 20.00    -0.168 SA
ENDROOT
BRANCH   6   9
HETATM    9  C8  UNL     1     -35.249  14.627  -5.035  1.00 20.00     0.120 C 
HETATM   10 CL10 UNL     1     -34.248  13.188  -4.699  1.00 20.00    -0.130 Cl
ENDBRANCH   6   9
TORSDOF 1
ENDMDL
MODEL 6
REMARK VINA RESULT:      -3.8     11.051     11.929
REMARK  1 active torsions:
REMARK  status: ('A' for Active; 'I' for Inactive)
REMARK    1  A    between atoms: C6_6  and  C8_8 
ROOT
HETATM    1  C1  UNL     1     -34.987   4.920   3.407  1.00 20.00     0.011 C 
HETATM    2  C2  UNL     1     -34.349   6.234   2.953  1.00 20.00     0.011 C 
HETATM    3  C3  UNL     1     -31.796   6.031   3.419  1.00 20.00     0.017 A 
HETATM    4  C4  UNL     1     -35.461   4.956   4.854  1.00 20.00     0.074 C 
HETATM    5  C5  UNL     1     -33.460   6.798   5.265  1.00 20.00     0.083 C 
HETATM    6  C6  UNL     1     -32.062   7.497   3.223  1.00 20.00     0.009 A 
HETATM    7  C7  UNL     1     -33.148   6.599   3.802  1.00 20.00    -0.027 A 
HETATM    8  S9  UNL     1     -34.084   5.265   5.999  1.00 20.00    -0.168 SA
ENDROOT
BRANCH   6   9
HETATM    9  C8  UNL     1     -32.129   8.072   1.849  1.00 20.00     0.120 C 
HETATM   10 CL10 UNL     1     -32.604   9.792   1.890  1.00 20.00    -0.130 Cl
ENDBRANCH   6   9
TORSDOF 1
ENDMDL
MODEL 7
REMARK VINA RESULT:      -3.7      3.160      4.196
REMARK  1 active torsions:
REMARK  status: ('A' for Active; 'I' for Inactive)
REMARK    1  A    between atoms: C6_6  and  C8_8 
ROOT
HETATM    1  C1  UNL     1     -33.736  18.063  -5.298  1.00 20.00     0.011 C 
HETATM    2  C2  UNL     1     -33.294  16.712  -4.732  1.00 20.00     0.011 C 
HETATM    3  C3  UNL     1     -35.385  15.645  -3.608  1.00 20.00     0.017 A 
HETATM    4  C4  UNL     1     -33.537  19.213  -4.319  1.00 20.00     0.074 C 
HETATM    5  C5  UNL     1     -33.868  17.335  -2.337  1.00 20.00     0.083 C 
HETATM    6  C6  UNL     1     -34.200  14.891  -3.071  1.00 20.00     0.009 A 
HETATM    7  C7  UNL     1     -34.052  16.355  -3.470  1.00 20.00    -0.027 A 
HETATM    8  S9  UNL     1     -34.499  18.968  -2.797  1.00 20.00    -0.168 SA
ENDROOT
BRANCH   6   9
HETATM    9  C8  UNL     1     -33.606  13.770  -3.852  1.00 20.00     0.120 C 
HETATM   10 CL10 UNL     1     -34.761  13.139  -5.058  1.00 20.00    -0.130 Cl
ENDBRANCH   6   9
TORSDOF 1
ENDMDL
MODEL 8
REMARK VINA RESULT:      -3.7     13.755     15.185
REMARK  1 active torsions:
REMARK  status: ('A' for Active; 'I' for Inactive)
REMARK    1  A    between atoms: C6_6  and  C8_8 
ROOT
HETATM    1  C1  UNL     1     -40.892   5.698  -0.995  1.00 20.00     0.011 C 
HETATM    2  C2  UNL     1     -40.909   4.273  -1.553  1.00 20.00     0.011 C 
HETATM    3  C3  UNL     1     -42.949   4.119  -3.162  1.00 20.00     0.017 A 
HETATM    4  C4  UNL     1     -41.665   5.836   0.310  1.00 20.00     0.074 C 
HETATM    5  C5  UNL     1     -43.204   3.745  -0.600  1.00 20.00     0.083 C 
HETATM    6  C6  UNL     1     -42.556   2.700  -2.860  1.00 20.00     0.009 A 
HETATM    7  C7  UNL     1     -42.320   3.791  -1.823  1.00 20.00    -0.027 A 
HETATM    8  S9  UNL     1     -43.417   5.403   0.095  1.00 20.00    -0.168 SA
ENDROOT
BRANCH   6   9
HETATM    9  C8  UNL     1     -41.453   2.047  -3.620  1.00 20.00     0.120 C 
HETATM   10 CL10 UNL     1     -41.752   0.299  -3.820  1.00 20.00    -0.130 Cl
ENDBRANCH   6   9
TORSDOF 1
ENDMDL
MODEL 9
REMARK VINA RESULT:      -3.7      1.533      1.973
REMARK  1 active torsions:
REMARK  status: ('A' for Active; 'I' for Inactive)
REMARK    1  A    between atoms: C6_6  and  C8_8 
ROOT
HETATM    1  C1  UNL     1     -34.397  16.023  -6.124  1.00 20.00     0.011 C 
HETATM    2  C2  UNL     1     -34.965  16.543  -4.803  1.00 20.00     0.011 C 
HETATM    3  C3  UNL     1     -33.477  15.562  -2.906  1.00 20.00     0.017 A 
HETATM    4  C4  UNL     1     -35.043  14.721  -6.579  1.00 20.00     0.074 C 
HETATM    5  C5  UNL     1     -35.468  14.220  -3.909  1.00 20.00     0.083 C 
HETATM    6  C6  UNL     1     -34.738  16.033  -2.237  1.00 20.00     0.009 A 
HETATM    7  C7  UNL     1     -34.782  15.544  -3.679  1.00 20.00    -0.027 A 
HETATM    8  S9  UNL     1     -34.787  13.392  -5.367  1.00 20.00    -0.168 SA
ENDROOT
BRANCH   6   9
HETATM    9  C8  UNL     1     -34.898  17.466  -1.858  1.00 20.00     0.120 C 
HETATM   10 CL10 UNL     1     -34.071  17.824  -0.318  1.00 20.00    -0.130 Cl
ENDBRANCH   6   9
TORSDOF 1
ENDMDL
