MODEL 1
REMARK VINA RESULT:      -4.8      0.000      0.000
REMARK  2 active torsions:
REMARK  status: ('A' for Active; 'I' for Inactive)
REMARK    1  A    between atoms: C2_2  and  C7_7 
REMARK    2  A    between atoms: C3_3  and  C8_8 
ROOT
HETATM    1  C1  UNL     1     -33.798   4.883   2.759  1.00 20.00     0.016 A 
HETATM    2  C2  UNL     1     -33.577   6.350   2.992  1.00 20.00     0.009 A 
HETATM    3  C3  UNL     1     -34.500   5.565   3.922  1.00 20.00    -0.036 A 
HETATM    4  C4  UNL     1     -35.979   5.820   3.801  1.00 20.00     0.016 C 
ENDROOT
BRANCH   3   5
HETATM    5  C8  UNL     1     -34.050   5.224   5.318  1.00 20.00    -0.014 C 
HETATM    6  C5  UNL     1     -34.226   6.417   6.268  1.00 20.00     0.010 C 
HETATM    7  C6  UNL     1     -34.805   4.007   5.868  1.00 20.00     0.010 C 
ENDBRANCH   3   5
BRANCH   2   8
HETATM    8  C7  UNL     1     -32.239   6.850   3.418  1.00 20.00     0.120 C 
HETATM    9 CL9  UNL     1     -31.712   8.224   2.408  1.00 20.00    -0.130 Cl
ENDBRANCH   2   8
TORSDOF 2
ENDMDL
MODEL 2
REMARK VINA RESULT:      -4.1     11.707     12.888
REMARK  2 active torsions:
REMARK  status: ('A' for Active; 'I' for Inactive)
REMARK    1  A    between atoms: C2_2  and  C7_7 
REMARK    2  A    between atoms: C3_3  and  C8_8 
ROOT
HETATM    1  C1  UNL     1     -32.927  15.088  -3.591  1.00 20.00     0.016 A 
HETATM    2  C2  UNL     1     -33.873  16.167  -3.147  1.00 20.00     0.009 A 
HETATM    3  C3  UNL     1     -33.998  15.580  -4.551  1.00 20.00    -0.036 A 
HETATM    4  C4  UNL     1     -33.567  16.451  -5.702  1.00 20.00     0.016 C 
ENDROOT
BRANCH   3   5
HETATM    5  C8  UNL     1     -35.134  14.649  -4.880  1.00 20.00    -0.014 C 
HETATM    6  C5  UNL     1     -35.748  14.978  -6.249  1.00 20.00     0.010 C 
HETATM    7  C6  UNL     1     -34.683  13.182  -4.854  1.00 20.00     0.010 C 
ENDBRANCH   3   5
BRANCH   2   8
HETATM    8  C7  UNL     1     -34.867  15.897  -2.069  1.00 20.00     0.120 C 
HETATM    9 CL9  UNL     1     -34.460  16.788  -0.578  1.00 20.00    -0.130 Cl
ENDBRANCH   2   8
TORSDOF 2
ENDMDL
MODEL 3
REMARK VINA RESULT:      -4.1      1.515      2.798
REMARK  2 active torsions:
REMARK  status: ('A' for Active; 'I' for Inactive)
REMARK    1  A    between atoms: C2_2  and  C7_7 
REMARK    2  A    between atoms: C3_3  and  C8_8 
ROOT
HETATM    1  C1  UNL     1     -31.457   7.445   3.872  1.00 20.00     0.016 A 
HETATM    2  C2  UNL     1     -32.026   7.690   2.503  1.00 20.00     0.009 A 
HETATM    3  C3  UNL     1     -32.551   6.529   3.346  1.00 20.00    -0.036 A 
HETATM    4  C4  UNL     1     -32.160   5.138   2.921  1.00 20.00     0.016 C 
ENDROOT
BRANCH   3   5
HETATM    5  C8  UNL     1     -33.913   6.616   3.981  1.00 20.00    -0.014 C 
HETATM    6  C5  UNL     1     -34.849   5.523   3.445  1.00 20.00     0.010 C 
HETATM    7  C6  UNL     1     -33.824   6.518   5.510  1.00 20.00     0.010 C 
ENDBRANCH   3   5
BRANCH   2   8
HETATM    8  C7  UNL     1     -32.828   8.916   2.230  1.00 20.00     0.120 C 
HETATM    9 CL9  UNL     1     -32.410   9.623   0.646  1.00 20.00    -0.130 Cl
ENDBRANCH   2   8
TORSDOF 2
ENDMDL
MODEL 4
REMARK VINA RESULT:      -4.0     11.580     12.824
REMARK  2 active torsions:
REMARK  status: ('A' for Active; 'I' for Inactive)
REMARK    1  A    between atoms: C2_2  and  C7_7 
REMARK    2  A    between atoms: C3_3  and  C8_8 
ROOT
HETATM    1  C1  UNL     1     -34.900  14.033  -5.550  1.00 20.00     0.016 A 
HETATM    2  C2  UNL     1     -35.673  13.810  -4.282  1.00 20.00     0.009 A 
HETATM    3  C3  UNL     1     -34.309  14.495  -4.228  1.00 20.00    -0.036 A 
HETATM    4  C4  UNL     1     -33.164  13.703  -3.653  1.00 20.00     0.016 C 
ENDROOT
BRANCH   3   5
HETATM    5  C8  UNL     1     -34.220  15.975  -3.970  1.00 20.00    -0.014 C 
HETATM    6  C5  UNL     1     -33.730  16.266  -2.544  1.00 20.00     0.010 C 
HETATM    7  C6  UNL     1     -33.298  16.665  -4.986  1.00 20.00     0.010 C 
ENDBRANCH   3   5
BRANCH   2   8
HETATM    8  C7  UNL     1     -36.951  14.538  -4.043  1.00 20.00     0.120 C 
HETATM    9 CL9  UNL     1     -37.583  15.248  -5.554  1.00 20.00    -0.130 Cl
ENDBRANCH   2   8
TORSDOF 2
ENDMDL
MODEL 5
REMARK VINA RESULT:      -4.0      0.992      2.177
REMARK  2 active torsions:
REMARK  status: ('A' for Active; 'I' for Inactive)
REMARK    1  A    between atoms: C2_2  and  C7_7 
REMARK    2  A    between atoms: C3_3  and  C8_8 
ROOT
HETATM    1  C1  UNL     1     -34.163   7.559   4.282  1.00 20.00     0.016 A 
HETATM    2  C2  UNL     1     -32.804   6.921   4.346  1.00 20.00     0.009 A 
HETATM    3  C3  UNL     1     -33.984   6.266   5.061  1.00 20.00    -0.036 A 
HETATM    4  C4  UNL     1     -34.005   6.340   6.565  1.00 20.00     0.016 C 
ENDROOT
BRANCH   3   5
HETATM    5  C8  UNL     1     -34.601   5.012   4.501  1.00 20.00    -0.014 C 
HETATM    6  C5  UNL     1     -34.941   4.011   5.616  1.00 20.00     0.010 C 
HETATM    7  C6  UNL     1     -35.861   5.325   3.683  1.00 20.00     0.010 C 
ENDBRANCH   3   5
BRANCH   2   8
HETATM    8  C7  UNL     1     -32.185   6.347   3.118  1.00 20.00     0.120 C 
HETATM    9 CL9  UNL     1     -31.910   7.606   1.884  1.00 20.00    -0.130 Cl
ENDBRANCH   2   8
TORSDOF 2
ENDMDL
MODEL 6
REMARK VINA RESULT:      -4.0     11.738     13.066
REMARK  2 active torsions:
REMARK  status: ('A' for Active; 'I' for Inactive)
REMARK    1  A    between atoms: C2_2  and  C7_7 
REMARK    2  A    between atoms: C3_3  and  C8_8 
ROOT
HETATM    1  C1  UNL     1     -36.047  14.899  -3.473  1.00 20.00     0.016 A 
HETATM    2  C2  UNL     1     -34.605  14.957  -3.056  1.00 20.00     0.009 A 
HETATM    3  C3  UNL     1     -34.961  14.690  -4.517  1.00 20.00    -0.036 A 
HETATM    4  C4  UNL     1     -34.741  13.293  -5.034  1.00 20.00     0.016 C 
ENDROOT
BRANCH   3   5
HETATM    5  C8  UNL     1     -34.758  15.765  -5.551  1.00 20.00    -0.014 C 
HETATM    6  C5  UNL     1     -34.255  15.176  -6.877  1.00 20.00     0.010 C 
HETATM    7  C6  UNL     1     -36.047  16.560  -5.793  1.00 20.00     0.010 C 
ENDBRANCH   3   5
BRANCH   2   8
HETATM    8  C7  UNL     1     -34.008  16.242  -2.594  1.00 20.00     0.120 C 
HETATM    9 CL9  UNL     1     -34.467  16.599  -0.907  1.00 20.00    -0.130 Cl
ENDBRANCH   2   8
TORSDOF 2
ENDMDL
MODEL 7
REMARK VINA RESULT:      -3.9     11.742     12.945
REMARK  2 active torsions:
REMARK  status: ('A' for Active; 'I' for Inactive)
REMARK    1  A    between atoms: C2_2  and  C7_7 
REMARK    2  A    between atoms: C3_3  and  C8_8 
ROOT
HETATM    1  C1  UNL     1     -34.600  15.678  -2.320  1.00 20.00     0.016 A 
HETATM    2  C2  UNL     1     -33.693  16.378  -3.291  1.00 20.00     0.009 A 
HETATM    3  C3  UNL     1     -34.326  15.042  -3.673  1.00 20.00    -0.036 A 
HETATM    4  C4  UNL     1     -33.422  13.839  -3.716  1.00 20.00     0.016 C 
ENDROOT
BRANCH   3   5
HETATM    5  C8  UNL     1     -35.448  15.000  -4.676  1.00 20.00    -0.014 C 
HETATM    6  C5  UNL     1     -35.081  14.133  -5.889  1.00 20.00     0.010 C 
HETATM    7  C6  UNL     1     -36.746  14.482  -4.043  1.00 20.00     0.010 C 
ENDBRANCH   3   5
BRANCH   2   8
HETATM    8  C7  UNL     1     -34.105  17.671  -3.906  1.00 20.00     0.120 C 
HETATM    9 CL9  UNL     1     -33.428  17.850  -5.548  1.00 20.00    -0.130 Cl
ENDBRANCH   2   8
TORSDOF 2
ENDMDL
MODEL 8
REMARK VINA RESULT:      -3.9     11.534     12.617
REMARK  2 active torsions:
REMARK  status: ('A' for Active; 'I' for Inactive)
REMARK    1  A    between atoms: C2_2  and  C7_7 
REMARK    2  A    between atoms: C3_3  and  C8_8 
ROOT
HETATM    1  C1  UNL     1     -35.416  17.132  -3.201  1.00 20.00     0.016 A 
HETATM    2  C2  UNL     1     -35.409  16.395  -1.892  1.00 20.00     0.009 A 
HETATM    3  C3  UNL     1     -35.064  15.653  -3.181  1.00 20.00    -0.036 A 
HETATM    4  C4  UNL     1     -36.085  14.680  -3.710  1.00 20.00     0.016 C 
ENDROOT
BRANCH   3   5
HETATM    5  C8  UNL     1     -33.639  15.261  -3.466  1.00 20.00    -0.014 C 
HETATM    6  C5  UNL     1     -33.527  13.765  -3.795  1.00 20.00     0.010 C 
HETATM    7  C6  UNL     1     -33.049  16.089  -4.615  1.00 20.00     0.010 C 
ENDBRANCH   3   5
BRANCH   2   8
HETATM    8  C7  UNL     1     -34.392  16.719  -0.852  1.00 20.00     0.120 C 
HETATM    9 CL9  UNL     1     -33.475  18.189  -1.281  1.00 20.00    -0.130 Cl
ENDBRANCH   2   8
TORSDOF 2
ENDMDL
MODEL 9
REMARK VINA RESULT:      -3.9     11.819     13.228
REMARK  2 active torsions:
REMARK  status: ('A' for Active; 'I' for Inactive)
REMARK    1  A    between atoms: C2_2  and  C7_7 
REMARK    2  A    between atoms: C3_3  and  C8_8 
ROOT
HETATM    1  C1  UNL     1     -35.206  13.695  -4.218  1.00 20.00     0.016 A 
HETATM    2  C2  UNL     1     -35.486  14.836  -3.283  1.00 20.00     0.009 A 
HETATM    3  C3  UNL     1     -34.340  14.943  -4.286  1.00 20.00    -0.036 A 
HETATM    4  C4  UNL     1     -32.938  14.857  -3.741  1.00 20.00     0.016 C 
ENDROOT
BRANCH   3   5
HETATM    5  C8  UNL     1     -34.474  15.834  -5.492  1.00 20.00    -0.014 C 
HETATM    6  C5  UNL     1     -33.436  16.965  -5.469  1.00 20.00     0.010 C 
HETATM    7  C6  UNL     1     -34.342  15.035  -6.796  1.00 20.00     0.010 C 
ENDBRANCH   3   5
BRANCH   2   8
HETATM    8  C7  UNL     1     -36.746  15.622  -3.411  1.00 20.00     0.120 C 
HETATM    9 CL9  UNL     1     -38.072  14.616  -4.055  1.00 20.00    -0.130 Cl
ENDBRANCH   2   8
TORSDOF 2
ENDMDL
