MODEL 1
REMARK VINA RESULT:      -4.3      0.000      0.000
REMARK  1 active torsions:
REMARK  status: ('A' for Active; 'I' for Inactive)
REMARK    1  A    between atoms: C6_6  and  C8_8 
ROOT
HETATM    1  C1  UNL     1     -35.122   4.769   4.144  1.00 20.00     0.027 C 
HETATM    2  C2  UNL     1     -34.569   5.964   3.371  1.00 20.00     0.014 C 
HETATM    3  C3  UNL     1     -31.972   5.930   3.445  1.00 20.00     0.018 A 
HETATM    4  C4  UNL     1     -35.183   5.075   5.636  1.00 20.00     0.167 C 
HETATM    5  C5  UNL     1     -33.400   6.633   5.499  1.00 20.00     0.177 C 
HETATM    6  C6  UNL     1     -32.353   7.373   3.254  1.00 20.00     0.011 A 
HETATM    7  C7  UNL     1     -33.283   6.438   4.007  1.00 20.00    -0.014 A 
HETATM    8  O9  UNL     1     -33.889   5.441   6.120  1.00 20.00    -0.390 OA
ENDROOT
BRANCH   6   9
HETATM    9  C8  UNL     1     -32.666   7.895   1.894  1.00 20.00     0.120 C 
HETATM   10 CL10 UNL     1     -32.528   9.675   1.837  1.00 20.00    -0.130 Cl
ENDBRANCH   6   9
TORSDOF 1
ENDMDL
MODEL 2
REMARK VINA RESULT:      -4.2     11.402     12.385
REMARK  1 active torsions:
REMARK  status: ('A' for Active; 'I' for Inactive)
REMARK    1  A    between atoms: C6_6  and  C8_8 
ROOT
HETATM    1  C1  UNL     1     -34.378  15.473  -6.580  1.00 20.00     0.027 C 
HETATM    2  C2  UNL     1     -34.491  16.111  -5.197  1.00 20.00     0.014 C 
HETATM    3  C3  UNL     1     -32.949  14.852  -3.525  1.00 20.00     0.018 A 
HETATM    4  C4  UNL     1     -35.291  14.257  -6.688  1.00 20.00     0.167 C 
HETATM    5  C5  UNL     1     -35.196  13.844  -4.355  1.00 20.00     0.177 C 
HETATM    6  C6  UNL     1     -34.047  15.454  -2.690  1.00 20.00     0.011 A 
HETATM    7  C7  UNL     1     -34.323  15.055  -4.129  1.00 20.00    -0.014 A 
HETATM    8  O9  UNL     1     -34.978  13.311  -5.664  1.00 20.00    -0.390 OA
ENDROOT
BRANCH   6   9
HETATM    9  C8  UNL     1     -33.966  16.876  -2.252  1.00 20.00     0.120 C 
HETATM   10 CL10 UNL     1     -34.372  17.044  -0.521  1.00 20.00    -0.130 Cl
ENDBRANCH   6   9
TORSDOF 1
ENDMDL
MODEL 3
REMARK VINA RESULT:      -4.2     11.073     11.975
REMARK  1 active torsions:
REMARK  status: ('A' for Active; 'I' for Inactive)
REMARK    1  A    between atoms: C6_6  and  C8_8 
ROOT
HETATM    1  C1  UNL     1     -33.278  13.975  -3.680  1.00 20.00     0.027 C 
HETATM    2  C2  UNL     1     -33.269  15.494  -3.519  1.00 20.00     0.014 C 
HETATM    3  C3  UNL     1     -34.740  16.167  -1.485  1.00 20.00     0.018 A 
HETATM    4  C4  UNL     1     -34.512  13.524  -4.452  1.00 20.00     0.167 C 
HETATM    5  C5  UNL     1     -35.776  15.400  -3.742  1.00 20.00     0.177 C 
HETATM    6  C6  UNL     1     -34.749  17.359  -2.403  1.00 20.00     0.011 A 
HETATM    7  C7  UNL     1     -34.601  15.962  -2.979  1.00 20.00    -0.014 A 
HETATM    8  O9  UNL     1     -35.699  13.973  -3.796  1.00 20.00    -0.390 OA
ENDROOT
BRANCH   6   9
HETATM    9  C8  UNL     1     -33.626  18.339  -2.374  1.00 20.00     0.120 C 
HETATM   10 CL10 UNL     1     -32.968  18.521  -0.724  1.00 20.00    -0.130 Cl
ENDBRANCH   6   9
TORSDOF 1
ENDMDL
MODEL 4
REMARK VINA RESULT:      -4.1      1.265      2.075
REMARK  1 active torsions:
REMARK  status: ('A' for Active; 'I' for Inactive)
REMARK    1  A    between atoms: C6_6  and  C8_8 
ROOT
HETATM    1  C1  UNL     1     -34.709   5.728   6.549  1.00 20.00     0.027 C 
HETATM    2  C2  UNL     1     -33.583   6.135   5.601  1.00 20.00     0.014 C 
HETATM    3  C3  UNL     1     -34.566   6.682   3.258  1.00 20.00     0.018 A 
HETATM    4  C4  UNL     1     -35.053   4.254   6.374  1.00 20.00     0.167 C 
HETATM    5  C5  UNL     1     -34.326   4.241   4.117  1.00 20.00     0.177 C 
HETATM    6  C6  UNL     1     -33.144   6.257   3.012  1.00 20.00     0.011 A 
HETATM    7  C7  UNL     1     -33.908   5.690   4.194  1.00 20.00    -0.014 A 
HETATM    8  O9  UNL     1     -35.408   3.986   5.016  1.00 20.00    -0.390 OA
ENDROOT
BRANCH   6   9
HETATM    9  C8  UNL     1     -32.028   7.233   3.169  1.00 20.00     0.120 C 
HETATM   10 CL10 UNL     1     -31.936   8.341   1.773  1.00 20.00    -0.130 Cl
ENDBRANCH   6   9
TORSDOF 1
ENDMDL
MODEL 5
REMARK VINA RESULT:      -4.1     10.934     11.789
REMARK  1 active torsions:
REMARK  status: ('A' for Active; 'I' for Inactive)
REMARK    1  A    between atoms: C6_6  and  C8_8 
ROOT
HETATM    1  C1  UNL     1     -36.074  14.426  -4.529  1.00 20.00     0.027 C 
HETATM    2  C2  UNL     1     -35.775  15.338  -3.340  1.00 20.00     0.014 C 
HETATM    3  C3  UNL     1     -33.708  16.821  -3.872  1.00 20.00     0.018 A 
HETATM    4  C4  UNL     1     -35.197  13.181  -4.484  1.00 20.00     0.167 C 
HETATM    5  C5  UNL     1     -33.481  14.299  -3.288  1.00 20.00     0.177 C 
HETATM    6  C6  UNL     1     -33.746  16.702  -2.373  1.00 20.00     0.011 A 
HETATM    7  C7  UNL     1     -34.286  15.575  -3.235  1.00 20.00    -0.014 A 
HETATM    8  O9  UNL     1     -33.816  13.547  -4.458  1.00 20.00    -0.390 OA
ENDROOT
BRANCH   6   9
HETATM    9  C8  UNL     1     -34.630  17.593  -1.569  1.00 20.00     0.120 C 
HETATM   10 CL10 UNL     1     -34.815  16.986   0.100  1.00 20.00    -0.130 Cl
ENDBRANCH   6   9
TORSDOF 1
ENDMDL
MODEL 6
REMARK VINA RESULT:      -4.0     11.814     12.525
REMARK  1 active torsions:
REMARK  status: ('A' for Active; 'I' for Inactive)
REMARK    1  A    between atoms: C6_6  and  C8_8 
ROOT
HETATM    1  C1  UNL     1     -34.105  17.205  -0.576  1.00 20.00     0.027 C 
HETATM    2  C2  UNL     1     -34.846  16.375  -1.622  1.00 20.00     0.014 C 
HETATM    3  C3  UNL     1     -33.189  15.624  -3.477  1.00 20.00     0.018 A 
HETATM    4  C4  UNL     1     -33.988  18.657  -1.027  1.00 20.00     0.167 C 
HETATM    5  C5  UNL     1     -34.070  18.064  -3.321  1.00 20.00     0.177 C 
HETATM    6  C6  UNL     1     -34.543  15.655  -4.132  1.00 20.00     0.011 A 
HETATM    7  C7  UNL     1     -34.235  16.601  -2.985  1.00 20.00    -0.014 A 
HETATM    8  O9  UNL     1     -33.331  18.730  -2.294  1.00 20.00    -0.390 OA
ENDROOT
BRANCH   6   9
HETATM    9  C8  UNL     1     -35.473  14.499  -3.992  1.00 20.00     0.120 C 
HETATM   10 CL10 UNL     1     -34.802  13.032  -4.759  1.00 20.00    -0.130 Cl
ENDBRANCH   6   9
TORSDOF 1
ENDMDL
MODEL 7
REMARK VINA RESULT:      -4.0     11.429     12.949
REMARK  1 active torsions:
REMARK  status: ('A' for Active; 'I' for Inactive)
REMARK    1  A    between atoms: C6_6  and  C8_8 
ROOT
HETATM    1  C1  UNL     1     -34.129  15.544  -6.815  1.00 20.00     0.027 C 
HETATM    2  C2  UNL     1     -34.099  16.049  -5.374  1.00 20.00     0.014 C 
HETATM    3  C3  UNL     1     -34.606  14.085  -3.749  1.00 20.00     0.018 A 
HETATM    4  C4  UNL     1     -35.558  15.506  -7.342  1.00 20.00     0.167 C 
HETATM    5  C5  UNL     1     -36.466  15.211  -5.172  1.00 20.00     0.177 C 
HETATM    6  C6  UNL     1     -35.033  15.332  -3.023  1.00 20.00     0.011 A 
HETATM    7  C7  UNL     1     -35.097  15.280  -4.539  1.00 20.00    -0.014 A 
HETATM    8  O9  UNL     1     -36.375  14.691  -6.500  1.00 20.00    -0.390 OA
ENDROOT
BRANCH   6   9
HETATM    9  C8  UNL     1     -34.031  16.156  -2.290  1.00 20.00     0.120 C 
HETATM   10 CL10 UNL     1     -34.623  16.599  -0.664  1.00 20.00    -0.130 Cl
ENDBRANCH   6   9
TORSDOF 1
ENDMDL
MODEL 8
REMARK VINA RESULT:      -3.9      9.979     11.165
REMARK  1 active torsions:
REMARK  status: ('A' for Active; 'I' for Inactive)
REMARK    1  A    between atoms: C6_6  and  C8_8 
ROOT
HETATM    1  C1  UNL     1     -40.815   5.738  -0.076  1.00 20.00     0.027 C 
HETATM    2  C2  UNL     1     -41.888   4.699  -0.394  1.00 20.00     0.014 C 
HETATM    3  C3  UNL     1     -41.314   3.505  -2.630  1.00 20.00     0.018 A 
HETATM    4  C4  UNL     1     -41.091   7.041  -0.817  1.00 20.00     0.167 C 
HETATM    5  C5  UNL     1     -42.248   5.929  -2.563  1.00 20.00     0.177 C 
HETATM    6  C6  UNL     1     -42.809   3.406  -2.490  1.00 20.00     0.011 A 
HETATM    7  C7  UNL     1     -42.070   4.589  -1.890  1.00 20.00    -0.014 A 
HETATM    8  O9  UNL     1     -41.169   6.804  -2.224  1.00 20.00    -0.390 OA
ENDROOT
BRANCH   6   9
HETATM    9  C8  UNL     1     -43.417   2.332  -1.655  1.00 20.00     0.120 C 
HETATM   10 CL10 UNL     1     -43.322   0.746  -2.471  1.00 20.00    -0.130 Cl
ENDBRANCH   6   9
TORSDOF 1
ENDMDL
MODEL 9
REMARK VINA RESULT:      -3.8     11.765     13.380
REMARK  1 active torsions:
REMARK  status: ('A' for Active; 'I' for Inactive)
REMARK    1  A    between atoms: C6_6  and  C8_8 
ROOT
HETATM    1  C1  UNL     1     -33.734  13.948  -4.119  1.00 20.00     0.027 C 
HETATM    2  C2  UNL     1     -34.996  14.362  -4.874  1.00 20.00     0.014 C 
HETATM    3  C3  UNL     1     -34.387  14.978  -7.324  1.00 20.00     0.018 A 
HETATM    4  C4  UNL     1     -32.990  15.173  -3.602  1.00 20.00     0.167 C 
HETATM    5  C5  UNL     1     -33.843  16.554  -5.331  1.00 20.00     0.177 C 
HETATM    6  C6  UNL     1     -35.638  15.753  -7.010  1.00 20.00     0.011 A 
HETATM    7  C7  UNL     1     -34.658  15.418  -5.901  1.00 20.00    -0.014 A 
HETATM    8  O9  UNL     1     -32.672  16.052  -4.683  1.00 20.00    -0.390 OA
ENDROOT
BRANCH   6   9
HETATM    9  C8  UNL     1     -36.974  15.103  -7.125  1.00 20.00     0.120 C 
HETATM   10 CL10 UNL     1     -38.200  15.970  -6.158  1.00 20.00    -0.130 Cl
ENDBRANCH   6   9
TORSDOF 1
ENDMDL
