MODEL 1
REMARK VINA RESULT:      -4.4      0.000      0.000
REMARK  1 active torsions:
REMARK  status: ('A' for Active; 'I' for Inactive)
REMARK    1  A    between atoms: C4_4  and  C10_10 
ROOT
HETATM    1  C1  UNL     1     -36.508  16.609  -3.020  1.00 20.00     0.007 C 
HETATM    2  C2  UNL     1     -35.593  17.771  -2.641  1.00 20.00     0.009 C 
HETATM    3  C3  UNL     1     -33.617  16.203  -2.613  1.00 20.00     0.013 C 
HETATM    4  C4  UNL     1     -35.761  15.509  -3.789  1.00 20.00     0.003 C 
HETATM    5  C5  UNL     1     -34.527  15.019  -2.995  1.00 20.00    -0.013 C 
HETATM    6  C6  UNL     1     -34.344  17.333  -1.850  1.00 20.00    -0.047 C 
HETATM    7  C7  UNL     1     -33.705  13.986  -3.775  1.00 20.00     0.010 C 
HETATM    8  C8  UNL     1     -33.392  18.536  -1.712  1.00 20.00     0.015 C 
HETATM    9  C9  UNL     1     -34.732  16.872  -0.432  1.00 20.00     0.015 C 
ENDROOT
BRANCH   4  10
HETATM   10  C10 UNL     1     -36.734  14.373  -4.120  1.00 20.00     0.119 C 
HETATM   11 CL11 UNL     1     -38.388  14.855  -3.710  1.00 20.00    -0.130 Cl
ENDBRANCH   4  10
TORSDOF 1
ENDMDL
MODEL 2
REMARK VINA RESULT:      -4.4      2.423      2.856
REMARK  1 active torsions:
REMARK  status: ('A' for Active; 'I' for Inactive)
REMARK    1  A    between atoms: C4_4  and  C10_10 
ROOT
HETATM    1  C1  UNL     1     -33.996  17.111  -4.880  1.00 20.00     0.007 C 
HETATM    2  C2  UNL     1     -33.823  17.336  -3.380  1.00 20.00     0.009 C 
HETATM    3  C3  UNL     1     -34.762  15.039  -2.928  1.00 20.00     0.013 C 
HETATM    4  C4  UNL     1     -33.923  15.623  -5.255  1.00 20.00     0.003 C 
HETATM    5  C5  UNL     1     -34.944  14.795  -4.439  1.00 20.00    -0.013 C 
HETATM    6  C6  UNL     1     -34.817  16.529  -2.522  1.00 20.00    -0.047 C 
HETATM    7  C7  UNL     1     -34.833  13.292  -4.721  1.00 20.00     0.010 C 
HETATM    8  C8  UNL     1     -34.418  16.658  -1.040  1.00 20.00     0.015 C 
HETATM    9  C9  UNL     1     -36.246  17.084  -2.676  1.00 20.00     0.015 C 
ENDROOT
BRANCH   4  10
HETATM   10  C10 UNL     1     -34.119  15.472  -6.767  1.00 20.00     0.119 C 
HETATM   11 CL11 UNL     1     -34.541  17.036  -7.481  1.00 20.00    -0.130 Cl
ENDBRANCH   4  10
TORSDOF 1
ENDMDL
MODEL 3
REMARK VINA RESULT:      -4.4      2.437      4.358
REMARK  1 active torsions:
REMARK  status: ('A' for Active; 'I' for Inactive)
REMARK    1  A    between atoms: C4_4  and  C10_10 
ROOT
HETATM    1  C1  UNL     1     -33.455  15.591  -3.047  1.00 20.00     0.007 C 
HETATM    2  C2  UNL     1     -33.317  15.430  -4.559  1.00 20.00     0.009 C 
HETATM    3  C3  UNL     1     -35.813  15.692  -4.813  1.00 20.00     0.013 C 
HETATM    4  C4  UNL     1     -34.679  16.437  -2.663  1.00 20.00     0.003 C 
HETATM    5  C5  UNL     1     -35.970  15.857  -3.289  1.00 20.00    -0.013 C 
HETATM    6  C6  UNL     1     -34.582  14.858  -5.231  1.00 20.00    -0.047 C 
HETATM    7  C7  UNL     1     -37.198  16.730  -3.003  1.00 20.00     0.010 C 
HETATM    8  C8  UNL     1     -34.417  14.942  -6.760  1.00 20.00     0.015 C 
HETATM    9  C9  UNL     1     -34.775  13.376  -4.856  1.00 20.00     0.015 C 
ENDROOT
BRANCH   4  10
HETATM   10  C10 UNL     1     -34.763  16.542  -1.138  1.00 20.00     0.119 C 
HETATM   11 CL11 UNL     1     -33.552  17.691  -0.544  1.00 20.00    -0.130 Cl
ENDBRANCH   4  10
TORSDOF 1
ENDMDL
MODEL 4
REMARK VINA RESULT:      -4.3      2.026      2.993
REMARK  1 active torsions:
REMARK  status: ('A' for Active; 'I' for Inactive)
REMARK    1  A    between atoms: C4_4  and  C10_10 
ROOT
HETATM    1  C1  UNL     1     -33.609  15.181  -4.398  1.00 20.00     0.007 C 
HETATM    2  C2  UNL     1     -33.419  15.642  -2.955  1.00 20.00     0.009 C 
HETATM    3  C3  UNL     1     -35.918  15.876  -2.703  1.00 20.00     0.013 C 
HETATM    4  C4  UNL     1     -34.967  14.496  -4.614  1.00 20.00     0.003 C 
HETATM    5  C5  UNL     1     -36.128  15.412  -4.158  1.00 20.00    -0.013 C 
HETATM    6  C6  UNL     1     -34.554  16.556  -2.451  1.00 20.00    -0.047 C 
HETATM    7  C7  UNL     1     -37.493  14.723  -4.273  1.00 20.00     0.010 C 
HETATM    8  C8  UNL     1     -34.380  16.781  -0.938  1.00 20.00     0.015 C 
HETATM    9  C9  UNL     1     -34.494  17.931  -3.144  1.00 20.00     0.015 C 
ENDROOT
BRANCH   4  10
HETATM   10  C10 UNL     1     -35.094  14.076  -6.082  1.00 20.00     0.119 C 
HETATM   11 CL11 UNL     1     -34.230  15.224  -7.117  1.00 20.00    -0.130 Cl
ENDBRANCH   4  10
TORSDOF 1
ENDMDL
MODEL 5
REMARK VINA RESULT:      -4.3      2.383      4.362
REMARK  1 active torsions:
REMARK  status: ('A' for Active; 'I' for Inactive)
REMARK    1  A    between atoms: C4_4  and  C10_10 
ROOT
HETATM    1  C1  UNL     1     -34.515  15.132  -3.028  1.00 20.00     0.007 C 
HETATM    2  C2  UNL     1     -34.636  14.286  -4.294  1.00 20.00     0.009 C 
HETATM    3  C3  UNL     1     -34.485  16.375  -5.700  1.00 20.00     0.013 C 
HETATM    4  C4  UNL     1     -33.737  16.433  -3.272  1.00 20.00     0.003 C 
HETATM    5  C5  UNL     1     -34.362  17.243  -4.433  1.00 20.00    -0.013 C 
HETATM    6  C6  UNL     1     -35.251  15.051  -5.483  1.00 20.00    -0.047 C 
HETATM    7  C7  UNL     1     -33.554  18.503  -4.764  1.00 20.00     0.010 C 
HETATM    8  C8  UNL     1     -35.126  14.187  -6.751  1.00 20.00     0.015 C 
HETATM    9  C9  UNL     1     -36.749  15.321  -5.241  1.00 20.00     0.015 C 
ENDROOT
BRANCH   4  10
HETATM   10  C10 UNL     1     -33.669  17.234  -1.968  1.00 20.00     0.119 C 
HETATM   11 CL11 UNL     1     -34.706  16.485  -0.743  1.00 20.00    -0.130 Cl
ENDBRANCH   4  10
TORSDOF 1
ENDMDL
MODEL 6
REMARK VINA RESULT:      -4.3      2.493      4.210
REMARK  1 active torsions:
REMARK  status: ('A' for Active; 'I' for Inactive)
REMARK    1  A    between atoms: C4_4  and  C10_10 
ROOT
HETATM    1  C1  UNL     1     -35.360  16.945  -4.221  1.00 20.00     0.007 C 
HETATM    2  C2  UNL     1     -36.219  16.415  -5.367  1.00 20.00     0.009 C 
HETATM    3  C3  UNL     1     -34.712  14.401  -5.561  1.00 20.00     0.013 C 
HETATM    4  C4  UNL     1     -34.660  15.816  -3.450  1.00 20.00     0.003 C 
HETATM    5  C5  UNL     1     -33.835  14.922  -4.406  1.00 20.00    -0.013 C 
HETATM    6  C6  UNL     1     -35.441  15.513  -6.346  1.00 20.00    -0.047 C 
HETATM    7  C7  UNL     1     -33.197  13.729  -3.682  1.00 20.00     0.010 C 
HETATM    8  C8  UNL     1     -36.436  14.864  -7.325  1.00 20.00     0.015 C 
HETATM    9  C9  UNL     1     -34.440  16.344  -7.172  1.00 20.00     0.015 C 
ENDROOT
BRANCH   4  10
HETATM   10  C10 UNL     1     -33.808  16.421  -2.330  1.00 20.00     0.119 C 
HETATM   11 CL11 UNL     1     -34.733  16.463  -0.821  1.00 20.00    -0.130 Cl
ENDBRANCH   4  10
TORSDOF 1
ENDMDL
MODEL 7
REMARK VINA RESULT:      -4.2      2.513      3.323
REMARK  1 active torsions:
REMARK  status: ('A' for Active; 'I' for Inactive)
REMARK    1  A    between atoms: C4_4  and  C10_10 
ROOT
HETATM    1  C1  UNL     1     -35.388  14.160  -4.895  1.00 20.00     0.007 C 
HETATM    2  C2  UNL     1     -35.140  14.775  -3.520  1.00 20.00     0.009 C 
HETATM    3  C3  UNL     1     -33.998  16.744  -4.608  1.00 20.00     0.013 C 
HETATM    4  C4  UNL     1     -35.491  15.226  -5.997  1.00 20.00     0.003 C 
HETATM    5  C5  UNL     1     -34.241  16.137  -6.004  1.00 20.00    -0.013 C 
HETATM    6  C6  UNL     1     -33.904  15.696  -3.476  1.00 20.00    -0.047 C 
HETATM    7  C7  UNL     1     -34.353  17.271  -7.030  1.00 20.00     0.010 C 
HETATM    8  C8  UNL     1     -33.872  16.426  -2.121  1.00 20.00     0.015 C 
HETATM    9  C9  UNL     1     -32.607  14.873  -3.601  1.00 20.00     0.015 C 
ENDROOT
BRANCH   4  10
HETATM   10  C10 UNL     1     -35.724  14.539  -7.346  1.00 20.00     0.119 C 
HETATM   11 CL11 UNL     1     -37.367  14.871  -7.918  1.00 20.00    -0.130 Cl
ENDBRANCH   4  10
TORSDOF 1
ENDMDL
MODEL 8
REMARK VINA RESULT:      -4.2      3.000      4.171
REMARK  1 active torsions:
REMARK  status: ('A' for Active; 'I' for Inactive)
REMARK    1  A    between atoms: C4_4  and  C10_10 
ROOT
HETATM    1  C1  UNL     1     -33.710  16.965  -5.459  1.00 20.00     0.007 C 
HETATM    2  C2  UNL     1     -33.082  15.898  -4.565  1.00 20.00     0.009 C 
HETATM    3  C3  UNL     1     -34.537  14.142  -5.642  1.00 20.00     0.013 C 
HETATM    4  C4  UNL     1     -34.208  16.385  -6.791  1.00 20.00     0.003 C 
HETATM    5  C5  UNL     1     -35.181  15.206  -6.552  1.00 20.00    -0.013 C 
HETATM    6  C6  UNL     1     -34.013  14.698  -4.300  1.00 20.00    -0.047 C 
HETATM    7  C7  UNL     1     -35.626  14.544  -7.862  1.00 20.00     0.010 C 
HETATM    8  C8  UNL     1     -33.214  13.595  -3.580  1.00 20.00     0.015 C 
HETATM    9  C9  UNL     1     -35.183  15.108  -3.385  1.00 20.00     0.015 C 
ENDROOT
BRANCH   4  10
HETATM   10  C10 UNL     1     -34.837  17.505  -7.626  1.00 20.00     0.119 C 
HETATM   11 CL11 UNL     1     -36.260  18.154  -6.795  1.00 20.00    -0.130 Cl
ENDBRANCH   4  10
TORSDOF 1
ENDMDL
MODEL 9
REMARK VINA RESULT:      -4.2      2.528      4.349
REMARK  1 active torsions:
REMARK  status: ('A' for Active; 'I' for Inactive)
REMARK    1  A    between atoms: C4_4  and  C10_10 
ROOT
HETATM    1  C1  UNL     1     -34.413  15.802  -2.349  1.00 20.00     0.007 C 
HETATM    2  C2  UNL     1     -34.413  14.507  -3.157  1.00 20.00     0.009 C 
HETATM    3  C3  UNL     1     -34.328  15.843  -5.295  1.00 20.00     0.013 C 
HETATM    4  C4  UNL     1     -33.710  16.949  -3.091  1.00 20.00     0.003 C 
HETATM    5  C5  UNL     1     -34.326  17.160  -4.494  1.00 20.00    -0.013 C 
HETATM    6  C6  UNL     1     -35.015  14.667  -4.567  1.00 20.00    -0.047 C 
HETATM    7  C7  UNL     1     -33.586  18.236  -5.299  1.00 20.00     0.010 C 
HETATM    8  C8  UNL     1     -34.770  13.373  -5.366  1.00 20.00     0.015 C 
HETATM    9  C9  UNL     1     -36.538  14.891  -4.488  1.00 20.00     0.015 C 
ENDROOT
BRANCH   4  10
HETATM   10  C10 UNL     1     -33.762  18.215  -2.230  1.00 20.00     0.119 C 
HETATM   11 CL11 UNL     1     -33.700  17.783  -0.514  1.00 20.00    -0.130 Cl
ENDBRANCH   4  10
TORSDOF 1
ENDMDL
