MODEL 1
REMARK VINA RESULT:      -5.1      0.000      0.000
REMARK  1 active torsions:
REMARK  status: ('A' for Active; 'I' for Inactive)
REMARK    1  A    between atoms: C7_7  and  C11_11 
ROOT
HETATM    1  C1  UNL     1     -34.371   4.714   3.669  1.00 20.00     0.005 C 
HETATM    2  C2  UNL     1     -33.232   5.344   2.866  1.00 20.00     0.010 C 
HETATM    3  C3  UNL     1     -34.000   7.405   4.157  1.00 20.00     0.014 C 
HETATM    4  C4  UNL     1     -31.491   7.169   3.529  1.00 20.00     0.016 A 
HETATM    5  C5  UNL     1     -34.223   5.036   5.158  1.00 20.00    -0.015 C 
HETATM    6  C6  UNL     1     -34.310   6.564   5.413  1.00 20.00    -0.014 C 
HETATM    7  C7  UNL     1     -32.177   7.621   2.275  1.00 20.00     0.009 A 
HETATM    8  C8  UNL     1     -32.936   6.774   3.287  1.00 20.00    -0.035 A 
HETATM    9  C9  UNL     1     -35.270   4.281   5.979  1.00 20.00     0.010 C 
HETATM   10  C10 UNL     1     -33.405   6.964   6.584  1.00 20.00     0.010 C 
ENDROOT
BRANCH   7  11
HETATM   11  C11 UNL     1     -32.466   9.066   2.052  1.00 20.00     0.120 C 
HETATM   12 CL12 UNL     1     -32.547   9.449   0.310  1.00 20.00    -0.130 Cl
ENDBRANCH   7  11
TORSDOF 1
ENDMDL
MODEL 2
REMARK VINA RESULT:      -4.8     11.212     12.823
REMARK  1 active torsions:
REMARK  status: ('A' for Active; 'I' for Inactive)
REMARK    1  A    between atoms: C7_7  and  C11_11 
ROOT
HETATM    1  C1  UNL     1     -34.392  16.628  -6.362  1.00 20.00     0.005 C 
HETATM    2  C2  UNL     1     -33.649  16.963  -5.068  1.00 20.00     0.010 C 
HETATM    3  C3  UNL     1     -35.362  15.322  -4.133  1.00 20.00     0.014 C 
HETATM    4  C4  UNL     1     -33.013  15.460  -3.035  1.00 20.00     0.016 A 
HETATM    5  C5  UNL     1     -34.487  15.111  -6.552  1.00 20.00    -0.015 C 
HETATM    6  C6  UNL     1     -35.299  14.453  -5.406  1.00 20.00    -0.014 C 
HETATM    7  C7  UNL     1     -33.769  16.645  -2.513  1.00 20.00     0.009 A 
HETATM    8  C8  UNL     1     -34.086  16.098  -3.898  1.00 20.00    -0.035 A 
HETATM    9  C9  UNL     1     -35.091  14.776  -7.917  1.00 20.00     0.010 C 
HETATM   10  C10 UNL     1     -34.750  13.055  -5.095  1.00 20.00     0.010 C 
ENDROOT
BRANCH   7  11
HETATM   11  C11 UNL     1     -34.696  16.498  -1.355  1.00 20.00     0.120 C 
HETATM   12 CL12 UNL     1     -34.224  17.570  -0.008  1.00 20.00    -0.130 Cl
ENDBRANCH   7  11
TORSDOF 1
ENDMDL
MODEL 3
REMARK VINA RESULT:      -4.8     11.091     12.816
REMARK  1 active torsions:
REMARK  status: ('A' for Active; 'I' for Inactive)
REMARK    1  A    between atoms: C7_7  and  C11_11 
ROOT
HETATM    1  C1  UNL     1     -34.190  14.197  -4.844  1.00 20.00     0.005 C 
HETATM    2  C2  UNL     1     -34.618  14.505  -3.409  1.00 20.00     0.010 C 
HETATM    3  C3  UNL     1     -33.728  16.803  -4.065  1.00 20.00     0.014 C 
HETATM    4  C4  UNL     1     -35.698  16.644  -2.379  1.00 20.00     0.016 A 
HETATM    5  C5  UNL     1     -34.779  15.224  -5.815  1.00 20.00    -0.015 C 
HETATM    6  C6  UNL     1     -34.255  16.652  -5.507  1.00 20.00    -0.014 C 
HETATM    7  C7  UNL     1     -34.466  16.323  -1.587  1.00 20.00     0.009 A 
HETATM    8  C8  UNL     1     -34.519  15.983  -3.071  1.00 20.00    -0.035 A 
HETATM    9  C9  UNL     1     -34.481  14.829  -7.263  1.00 20.00     0.010 C 
HETATM   10  C10 UNL     1     -35.334  17.696  -5.815  1.00 20.00     0.010 C 
ENDROOT
BRANCH   7  11
HETATM   11  C11 UNL     1     -33.615  17.417  -1.039  1.00 20.00     0.120 C 
HETATM   12 CL12 UNL     1     -34.201  17.955   0.559  1.00 20.00    -0.130 Cl
ENDBRANCH   7  11
TORSDOF 1
ENDMDL
MODEL 4
REMARK VINA RESULT:      -4.7     11.474     12.793
REMARK  1 active torsions:
REMARK  status: ('A' for Active; 'I' for Inactive)
REMARK    1  A    between atoms: C7_7  and  C11_11 
ROOT
HETATM    1  C1  UNL     1     -33.336  15.834  -3.001  1.00 20.00     0.005 C 
HETATM    2  C2  UNL     1     -33.223  15.968  -4.520  1.00 20.00     0.010 C 
HETATM    3  C3  UNL     1     -35.583  15.013  -4.377  1.00 20.00     0.014 C 
HETATM    4  C4  UNL     1     -34.998  16.654  -6.303  1.00 20.00     0.016 A 
HETATM    5  C5  UNL     1     -34.622  16.495  -2.496  1.00 20.00    -0.015 C 
HETATM    6  C6  UNL     1     -35.878  15.801  -3.084  1.00 20.00    -0.014 C 
HETATM    7  C7  UNL     1     -34.420  15.332  -6.713  1.00 20.00     0.009 A 
HETATM    8  C8  UNL     1     -34.533  15.681  -5.235  1.00 20.00    -0.035 A 
HETATM    9  C9  UNL     1     -34.660  16.498  -0.966  1.00 20.00     0.010 C 
HETATM   10  C10 UNL     1     -37.001  16.822  -3.303  1.00 20.00     0.010 C 
ENDROOT
BRANCH   7  11
HETATM   11  C11 UNL     1     -35.277  14.304  -7.368  1.00 20.00     0.120 C 
HETATM   12 CL12 UNL     1     -36.864  14.980  -7.828  1.00 20.00    -0.130 Cl
ENDBRANCH   7  11
TORSDOF 1
ENDMDL
MODEL 5
REMARK VINA RESULT:      -4.4     11.417     13.210
REMARK  1 active torsions:
REMARK  status: ('A' for Active; 'I' for Inactive)
REMARK    1  A    between atoms: C7_7  and  C11_11 
ROOT
HETATM    1  C1  UNL     1     -34.916  14.803  -3.256  1.00 20.00     0.005 C 
HETATM    2  C2  UNL     1     -34.986  14.123  -4.624  1.00 20.00     0.010 C 
HETATM    3  C3  UNL     1     -35.629  16.491  -5.320  1.00 20.00     0.014 C 
HETATM    4  C4  UNL     1     -34.322  14.993  -6.992  1.00 20.00     0.016 A 
HETATM    5  C5  UNL     1     -34.049  16.063  -3.325  1.00 20.00    -0.015 C 
HETATM    6  C6  UNL     1     -34.656  17.110  -4.295  1.00 20.00    -0.014 C 
HETATM    7  C7  UNL     1     -35.744  14.520  -7.057  1.00 20.00     0.009 A 
HETATM    8  C8  UNL     1     -35.202  15.108  -5.761  1.00 20.00    -0.035 A 
HETATM    9  C9  UNL     1     -33.851  16.657  -1.928  1.00 20.00     0.010 C 
HETATM   10  C10 UNL     1     -33.543  17.900  -4.995  1.00 20.00     0.010 C 
ENDROOT
BRANCH   7  11
HETATM   11  C11 UNL     1     -36.736  15.229  -7.914  1.00 20.00     0.120 C 
HETATM   12 CL12 UNL     1     -38.394  15.035  -7.281  1.00 20.00    -0.130 Cl
ENDBRANCH   7  11
TORSDOF 1
ENDMDL
MODEL 6
REMARK VINA RESULT:      -4.4     11.223     12.233
REMARK  1 active torsions:
REMARK  status: ('A' for Active; 'I' for Inactive)
REMARK    1  A    between atoms: C7_7  and  C11_11 
ROOT
HETATM    1  C1  UNL     1     -32.896  18.626   1.138  1.00 20.00     0.005 C 
HETATM    2  C2  UNL     1     -32.784  18.495  -0.382  1.00 20.00     0.010 C 
HETATM    3  C3  UNL     1     -34.773  16.947   0.009  1.00 20.00     0.014 C 
HETATM    4  C4  UNL     1     -34.632  18.289  -2.210  1.00 20.00     0.016 A 
HETATM    5  C5  UNL     1     -34.331  18.973   1.545  1.00 20.00    -0.015 C 
HETATM    6  C6  UNL     1     -35.317  17.848   1.136  1.00 20.00    -0.014 C 
HETATM    7  C7  UNL     1     -33.687  17.136  -2.378  1.00 20.00     0.009 A 
HETATM    8  C8  UNL     1     -33.936  17.713  -0.991  1.00 20.00    -0.035 A 
HETATM    9  C9  UNL     1     -34.410  19.256   3.047  1.00 20.00     0.010 C 
HETATM   10  C10 UNL     1     -36.680  18.442   0.760  1.00 20.00     0.010 C 
ENDROOT
BRANCH   7  11
HETATM   11  C11 UNL     1     -34.193  15.800  -2.801  1.00 20.00     0.120 C 
HETATM   12 CL12 UNL     1     -32.936  14.875  -3.666  1.00 20.00    -0.130 Cl
ENDBRANCH   7  11
TORSDOF 1
ENDMDL
MODEL 7
REMARK VINA RESULT:      -4.4     11.241     12.845
REMARK  1 active torsions:
REMARK  status: ('A' for Active; 'I' for Inactive)
REMARK    1  A    between atoms: C7_7  and  C11_11 
ROOT
HETATM    1  C1  UNL     1     -33.992  15.950  -6.120  1.00 20.00     0.005 C 
HETATM    2  C2  UNL     1     -33.309  16.196  -4.774  1.00 20.00     0.010 C 
HETATM    3  C3  UNL     1     -35.721  16.661  -4.091  1.00 20.00     0.014 C 
HETATM    4  C4  UNL     1     -34.086  15.645  -2.347  1.00 20.00     0.016 A 
HETATM    5  C5  UNL     1     -35.160  14.973  -5.961  1.00 20.00    -0.015 C 
HETATM    6  C6  UNL     1     -36.252  15.553  -5.024  1.00 20.00    -0.014 C 
HETATM    7  C7  UNL     1     -33.755  17.106  -2.404  1.00 20.00     0.009 A 
HETATM    8  C8  UNL     1     -34.300  16.407  -3.642  1.00 20.00    -0.035 A 
HETATM    9  C9  UNL     1     -35.745  14.606  -7.326  1.00 20.00     0.010 C 
HETATM   10  C10 UNL     1     -36.922  14.429  -4.224  1.00 20.00     0.010 C 
ENDROOT
BRANCH   7  11
HETATM   11  C11 UNL     1     -34.549  18.092  -1.616  1.00 20.00     0.120 C 
HETATM   12 CL12 UNL     1     -35.009  17.428  -0.025  1.00 20.00    -0.130 Cl
ENDBRANCH   7  11
TORSDOF 1
ENDMDL
MODEL 8
REMARK VINA RESULT:      -4.3     11.082     12.369
REMARK  1 active torsions:
REMARK  status: ('A' for Active; 'I' for Inactive)
REMARK    1  A    between atoms: C7_7  and  C11_11 
ROOT
HETATM    1  C1  UNL     1     -34.872  17.074  -0.895  1.00 20.00     0.005 C 
HETATM    2  C2  UNL     1     -33.806  16.404  -1.762  1.00 20.00     0.010 C 
HETATM    3  C3  UNL     1     -35.880  15.732  -3.085  1.00 20.00     0.014 C 
HETATM    4  C4  UNL     1     -33.647  16.129  -4.351  1.00 20.00     0.016 A 
HETATM    5  C5  UNL     1     -35.799  17.940  -1.753  1.00 20.00    -0.015 C 
HETATM    6  C6  UNL     1     -36.567  17.081  -2.792  1.00 20.00    -0.014 C 
HETATM    7  C7  UNL     1     -33.521  14.767  -3.734  1.00 20.00     0.009 A 
HETATM    8  C8  UNL     1     -34.371  15.830  -3.051  1.00 20.00    -0.035 A 
HETATM    9  C9  UNL     1     -36.767  18.731  -0.870  1.00 20.00     0.010 C 
HETATM   10  C10 UNL     1     -36.795  17.879  -4.081  1.00 20.00     0.010 C 
ENDROOT
BRANCH   7  11
HETATM   11  C11 UNL     1     -34.107  13.576  -4.410  1.00 20.00     0.120 C 
HETATM   12 CL12 UNL     1     -34.752  13.996  -6.021  1.00 20.00    -0.130 Cl
ENDBRANCH   7  11
TORSDOF 1
ENDMDL
MODEL 9
REMARK VINA RESULT:      -4.3     11.379     13.052
REMARK  1 active torsions:
REMARK  status: ('A' for Active; 'I' for Inactive)
REMARK    1  A    between atoms: C7_7  and  C11_11 
ROOT
HETATM    1  C1  UNL     1     -34.881  15.504  -2.170  1.00 20.00     0.005 C 
HETATM    2  C2  UNL     1     -34.413  15.154  -3.583  1.00 20.00     0.010 C 
HETATM    3  C3  UNL     1     -35.250  17.524  -4.013  1.00 20.00     0.014 C 
HETATM    4  C4  UNL     1     -33.249  16.618  -5.400  1.00 20.00     0.016 A 
HETATM    5  C5  UNL     1     -34.284  16.840  -1.720  1.00 20.00    -0.015 C 
HETATM    6  C6  UNL     1     -34.760  18.002  -2.631  1.00 20.00    -0.014 C 
HETATM    7  C7  UNL     1     -34.473  16.007  -6.015  1.00 20.00     0.009 A 
HETATM    8  C8  UNL     1     -34.462  16.341  -4.530  1.00 20.00    -0.035 A 
HETATM    9  C9  UNL     1     -34.625  17.115  -0.253  1.00 20.00     0.010 C 
HETATM   10  C10 UNL     1     -33.657  19.059  -2.769  1.00 20.00     0.010 C 
ENDROOT
BRANCH   7  11
HETATM   11  C11 UNL     1     -35.280  16.770  -7.009  1.00 20.00     0.120 C 
HETATM   12 CL12 UNL     1     -34.335  18.109  -7.719  1.00 20.00    -0.130 Cl
ENDBRANCH   7  11
TORSDOF 1
ENDMDL
