MODEL 1
REMARK VINA RESULT:      -5.0      0.000      0.000
REMARK  2 active torsions:
REMARK  status: ('A' for Active; 'I' for Inactive)
REMARK    1  A    between atoms: C6_6  and  C7_7 
REMARK    2  A    between atoms: C8_8  and  C9_9 
ROOT
HETATM    1  C1  UNL     1     -34.087   6.522   5.765  1.00 20.00     0.031 C 
HETATM    2  C2  UNL     1     -35.265   5.509   3.793  1.00 20.00     0.031 C 
HETATM    3  C4  UNL     1     -34.011   5.118   6.352  1.00 20.00     0.168 C 
HETATM    4  C5  UNL     1     -35.123   4.161   4.491  1.00 20.00     0.168 C 
HETATM    5  C6  UNL     1     -34.184   6.504   4.234  1.00 20.00    -0.006 C 
HETATM    6  O10 UNL     1     -35.110   4.323   5.909  1.00 20.00    -0.391 OA
ENDROOT
BRANCH   5   7
HETATM    7  C7  UNL     1     -32.831   6.190   3.587  1.00 20.00    -0.005 A 
HETATM    8  C3  UNL     1     -31.617   6.977   3.979  1.00 20.00     0.011 A 
HETATM    9  C8  UNL     1     -32.190   7.117   2.594  1.00 20.00     0.004 A 
BRANCH   9  10
HETATM   10  C9  UNL     1     -32.813   8.400   2.163  1.00 20.00     0.119 C 
HETATM   11 CL11 UNL     1     -32.084   8.996   0.646  1.00 20.00    -0.130 Cl
ENDBRANCH   9  10
ENDBRANCH   5   7
TORSDOF 2
ENDMDL
MODEL 2
REMARK VINA RESULT:      -4.6     11.441     12.442
REMARK  2 active torsions:
REMARK  status: ('A' for Active; 'I' for Inactive)
REMARK    1  A    between atoms: C6_6  and  C7_7 
REMARK    2  A    between atoms: C8_8  and  C9_9 
ROOT
HETATM    1  C1  UNL     1     -33.794  16.172  -4.689  1.00 20.00     0.031 C 
HETATM    2  C2  UNL     1     -33.372  13.887  -3.739  1.00 20.00     0.031 C 
HETATM    3  C4  UNL     1     -34.799  15.518  -5.629  1.00 20.00     0.168 C 
HETATM    4  C5  UNL     1     -34.401  13.361  -4.734  1.00 20.00     0.168 C 
HETATM    5  C6  UNL     1     -33.601  15.365  -3.399  1.00 20.00    -0.006 C 
HETATM    6  O10 UNL     1     -34.428  14.170  -5.910  1.00 20.00    -0.391 OA
ENDROOT
BRANCH   5   7
HETATM    7  C7  UNL     1     -34.780  15.546  -2.438  1.00 20.00    -0.005 A 
HETATM    8  C3  UNL     1     -35.622  16.783  -2.518  1.00 20.00     0.011 A 
HETATM    9  C8  UNL     1     -34.747  16.545  -1.317  1.00 20.00     0.004 A 
BRANCH   9  10
HETATM   10  C9  UNL     1     -33.575  17.428  -1.052  1.00 20.00     0.119 C 
HETATM   11 CL11 UNL     1     -33.710  18.221   0.541  1.00 20.00    -0.130 Cl
ENDBRANCH   9  10
ENDBRANCH   5   7
TORSDOF 2
ENDMDL
MODEL 3
REMARK VINA RESULT:      -4.4     11.405     12.437
REMARK  2 active torsions:
REMARK  status: ('A' for Active; 'I' for Inactive)
REMARK    1  A    between atoms: C6_6  and  C7_7 
REMARK    2  A    between atoms: C8_8  and  C9_9 
ROOT
HETATM    1  C1  UNL     1     -35.026  16.299  -4.303  1.00 20.00     0.031 C 
HETATM    2  C2  UNL     1     -32.896  15.140  -3.655  1.00 20.00     0.031 C 
HETATM    3  C4  UNL     1     -35.641  14.916  -4.481  1.00 20.00     0.168 C 
HETATM    4  C5  UNL     1     -33.631  13.821  -3.870  1.00 20.00     0.168 C 
HETATM    5  C6  UNL     1     -33.855  16.287  -3.313  1.00 20.00    -0.006 C 
HETATM    6  O10 UNL     1     -34.649  13.964  -4.861  1.00 20.00    -0.391 OA
ENDROOT
BRANCH   5   7
HETATM    7  C7  UNL     1     -34.343  16.199  -1.864  1.00 20.00    -0.005 A 
HETATM    8  C3  UNL     1     -35.424  17.121  -1.385  1.00 20.00     0.011 A 
HETATM    9  C8  UNL     1     -34.023  17.262  -0.850  1.00 20.00     0.004 A 
BRANCH   9  10
HETATM   10  C9  UNL     1     -33.213  18.470  -1.172  1.00 20.00     0.119 C 
HETATM   11 CL11 UNL     1     -32.061  18.845   0.140  1.00 20.00    -0.130 Cl
ENDBRANCH   9  10
ENDBRANCH   5   7
TORSDOF 2
ENDMDL
MODEL 4
REMARK VINA RESULT:      -4.0     11.392     12.413
REMARK  2 active torsions:
REMARK  status: ('A' for Active; 'I' for Inactive)
REMARK    1  A    between atoms: C6_6  and  C7_7 
REMARK    2  A    between atoms: C8_8  and  C9_9 
ROOT
HETATM    1  C1  UNL     1     -33.694  16.594  -2.101  1.00 20.00     0.031 C 
HETATM    2  C2  UNL     1     -35.533  16.991  -3.764  1.00 20.00     0.031 C 
HETATM    3  C4  UNL     1     -34.749  16.726  -1.010  1.00 20.00     0.168 C 
HETATM    4  C5  UNL     1     -36.485  17.101  -2.578  1.00 20.00     0.168 C 
HETATM    5  C6  UNL     1     -34.298  16.141  -3.437  1.00 20.00    -0.006 C 
HETATM    6  O10 UNL     1     -35.803  17.593  -1.425  1.00 20.00    -0.391 OA
ENDROOT
BRANCH   5   7
HETATM    7  C7  UNL     1     -34.630  14.646  -3.427  1.00 20.00    -0.005 A 
HETATM    8  C3  UNL     1     -33.576  13.647  -3.800  1.00 20.00     0.011 A 
HETATM    9  C8  UNL     1     -34.769  13.853  -4.696  1.00 20.00     0.004 A 
BRANCH   9  10
HETATM   10  C9  UNL     1     -34.599  14.454  -6.049  1.00 20.00     0.119 C 
HETATM   11 CL11 UNL     1     -36.177  14.860  -6.780  1.00 20.00    -0.130 Cl
ENDBRANCH   9  10
ENDBRANCH   5   7
TORSDOF 2
ENDMDL
MODEL 5
REMARK VINA RESULT:      -4.0     11.380     12.625
REMARK  2 active torsions:
REMARK  status: ('A' for Active; 'I' for Inactive)
REMARK    1  A    between atoms: C6_6  and  C7_7 
REMARK    2  A    between atoms: C8_8  and  C9_9 
ROOT
HETATM    1  C1  UNL     1     -35.476  17.551  -2.889  1.00 20.00     0.031 C 
HETATM    2  C2  UNL     1     -34.612  16.677  -0.700  1.00 20.00     0.031 C 
HETATM    3  C4  UNL     1     -34.771  18.862  -2.563  1.00 20.00     0.168 C 
HETATM    4  C5  UNL     1     -33.955  18.038  -0.497  1.00 20.00     0.168 C 
HETATM    5  C6  UNL     1     -34.824  16.355  -2.185  1.00 20.00    -0.006 C 
HETATM    6  O10 UNL     1     -34.701  19.063  -1.152  1.00 20.00    -0.391 OA
ENDROOT
BRANCH   5   7
HETATM    7  C7  UNL     1     -33.515  15.945  -2.866  1.00 20.00    -0.005 A 
HETATM    8  C3  UNL     1     -33.418  15.955  -4.361  1.00 20.00     0.011 A 
HETATM    9  C8  UNL     1     -33.378  14.649  -3.613  1.00 20.00     0.004 A 
BRANCH   9  10
HETATM   10  C9  UNL     1     -34.494  13.670  -3.748  1.00 20.00     0.119 C 
HETATM   11 CL11 UNL     1     -34.797  13.266  -5.461  1.00 20.00    -0.130 Cl
ENDBRANCH   9  10
ENDBRANCH   5   7
TORSDOF 2
ENDMDL
MODEL 6
REMARK VINA RESULT:      -3.9     12.122     13.573
REMARK  2 active torsions:
REMARK  status: ('A' for Active; 'I' for Inactive)
REMARK    1  A    between atoms: C6_6  and  C7_7 
REMARK    2  A    between atoms: C8_8  and  C9_9 
ROOT
HETATM    1  C1  UNL     1     -34.896  14.367  -6.032  1.00 20.00     0.031 C 
HETATM    2  C2  UNL     1     -36.011  16.559  -5.525  1.00 20.00     0.031 C 
HETATM    3  C4  UNL     1     -34.422  14.992  -7.339  1.00 20.00     0.168 C 
HETATM    4  C5  UNL     1     -35.474  17.060  -6.860  1.00 20.00     0.168 C 
HETATM    5  C6  UNL     1     -35.157  15.422  -4.949  1.00 20.00    -0.006 C 
HETATM    6  O10 UNL     1     -35.342  15.985  -7.790  1.00 20.00    -0.391 OA
ENDROOT
BRANCH   5   7
HETATM    7  C7  UNL     1     -33.850  15.948  -4.349  1.00 20.00    -0.005 A 
HETATM    8  C3  UNL     1     -33.014  15.053  -3.483  1.00 20.00     0.011 A 
HETATM    9  C8  UNL     1     -33.711  16.246  -2.882  1.00 20.00     0.004 A 
BRANCH   9  10
HETATM   10  C9  UNL     1     -34.822  16.056  -1.908  1.00 20.00     0.119 C 
HETATM   11 CL11 UNL     1     -34.496  16.917  -0.378  1.00 20.00    -0.130 Cl
ENDBRANCH   9  10
ENDBRANCH   5   7
TORSDOF 2
ENDMDL
MODEL 7
REMARK VINA RESULT:      -3.8     11.488     12.369
REMARK  2 active torsions:
REMARK  status: ('A' for Active; 'I' for Inactive)
REMARK    1  A    between atoms: C6_6  and  C7_7 
REMARK    2  A    between atoms: C8_8  and  C9_9 
ROOT
HETATM    1  C1  UNL     1     -34.301  14.315  -3.457  1.00 20.00     0.031 C 
HETATM    2  C2  UNL     1     -36.725  14.919  -3.712  1.00 20.00     0.031 C 
HETATM    3  C4  UNL     1     -34.206  14.347  -4.978  1.00 20.00     0.168 C 
HETATM    4  C5  UNL     1     -36.493  14.917  -5.219  1.00 20.00     0.168 C 
HETATM    5  C6  UNL     1     -35.436  15.203  -2.930  1.00 20.00    -0.006 C 
HETATM    6  O10 UNL     1     -35.457  14.002  -5.571  1.00 20.00    -0.391 OA
ENDROOT
BRANCH   5   7
HETATM    7  C7  UNL     1     -35.060  16.687  -2.983  1.00 20.00    -0.005 A 
HETATM    8  C3  UNL     1     -33.644  17.107  -2.724  1.00 20.00     0.011 A 
HETATM    9  C8  UNL     1     -34.728  17.468  -1.743  1.00 20.00     0.004 A 
BRANCH   9  10
HETATM   10  C9  UNL     1     -34.739  16.867  -0.379  1.00 20.00     0.119 C 
HETATM   11 CL11 UNL     1     -34.179  18.037   0.848  1.00 20.00    -0.130 Cl
ENDBRANCH   9  10
ENDBRANCH   5   7
TORSDOF 2
ENDMDL
MODEL 8
REMARK VINA RESULT:      -3.8     11.434     13.360
REMARK  2 active torsions:
REMARK  status: ('A' for Active; 'I' for Inactive)
REMARK    1  A    between atoms: C6_6  and  C7_7 
REMARK    2  A    between atoms: C8_8  and  C9_9 
ROOT
HETATM    1  C1  UNL     1     -34.759  16.116  -4.858  1.00 20.00     0.031 C 
HETATM    2  C2  UNL     1     -35.158  13.768  -4.063  1.00 20.00     0.031 C 
HETATM    3  C4  UNL     1     -33.284  15.895  -4.546  1.00 20.00     0.168 C 
HETATM    4  C5  UNL     1     -33.660  13.679  -3.795  1.00 20.00     0.168 C 
HETATM    5  C6  UNL     1     -35.491  14.799  -5.149  1.00 20.00    -0.006 C 
HETATM    6  O10 UNL     1     -33.125  14.964  -3.477  1.00 20.00    -0.391 OA
ENDROOT
BRANCH   5   7
HETATM    7  C7  UNL     1     -35.163  14.269  -6.548  1.00 20.00    -0.005 A 
HETATM    8  C3  UNL     1     -34.502  15.168  -7.549  1.00 20.00     0.011 A 
HETATM    9  C8  UNL     1     -35.922  14.716  -7.766  1.00 20.00     0.004 A 
BRANCH   9  10
HETATM   10  C9  UNL     1     -37.042  15.697  -7.708  1.00 20.00     0.119 C 
HETATM   11 CL11 UNL     1     -38.557  14.919  -7.174  1.00 20.00    -0.130 Cl
ENDBRANCH   9  10
ENDBRANCH   5   7
TORSDOF 2
ENDMDL
MODEL 9
REMARK VINA RESULT:      -3.8     11.501     13.181
REMARK  2 active torsions:
REMARK  status: ('A' for Active; 'I' for Inactive)
REMARK    1  A    between atoms: C6_6  and  C7_7 
REMARK    2  A    between atoms: C8_8  and  C9_9 
ROOT
HETATM    1  C1  UNL     1     -33.728  15.472  -3.318  1.00 20.00     0.031 C 
HETATM    2  C2  UNL     1     -35.545  14.431  -4.703  1.00 20.00     0.031 C 
HETATM    3  C4  UNL     1     -32.911  14.209  -3.568  1.00 20.00     0.168 C 
HETATM    4  C5  UNL     1     -34.626  13.226  -4.875  1.00 20.00     0.168 C 
HETATM    5  C6  UNL     1     -34.761  15.720  -4.425  1.00 20.00    -0.006 C 
HETATM    6  O10 UNL     1     -33.765  13.080  -3.746  1.00 20.00    -0.391 OA
ENDROOT
BRANCH   5   7
HETATM    7  C7  UNL     1     -34.105  16.266  -5.696  1.00 20.00    -0.005 A 
HETATM    8  C3  UNL     1     -33.636  17.689  -5.740  1.00 20.00     0.011 A 
HETATM    9  C8  UNL     1     -34.801  17.254  -6.590  1.00 20.00     0.004 A 
BRANCH   9  10
HETATM   10  C9  UNL     1     -36.170  17.773  -6.312  1.00 20.00     0.119 C 
HETATM   11 CL11 UNL     1     -37.421  16.658  -6.929  1.00 20.00    -0.130 Cl
ENDBRANCH   9  10
ENDBRANCH   5   7
TORSDOF 2
ENDMDL
