MODEL 1
REMARK VINA RESULT:      -4.2      0.000      0.000
REMARK  3 active torsions:
REMARK  status: ('A' for Active; 'I' for Inactive)
REMARK    1  A    between atoms: C4_4  and  C6_6 
REMARK    2  A    between atoms: C5_5  and  C8_8 
REMARK    3  A    between atoms: C6_6  and  C9_9 
ROOT
HETATM    1  C3  UNL     1     -34.434   7.193   3.723  1.00 20.00     0.017 A 
HETATM    2  C5  UNL     1     -33.496   6.095   3.307  1.00 20.00     0.009 A 
HETATM    3  C6  UNL     1     -34.104   6.081   4.704  1.00 20.00    -0.032 A 
ENDROOT
BRANCH   3   4
HETATM    4  C4  UNL     1     -35.159   5.017   5.049  1.00 20.00    -0.006 A 
HETATM    5  C1  UNL     1     -34.855   3.545   5.052  1.00 20.00     0.006 A 
HETATM    6  C2  UNL     1     -35.147   4.255   6.345  1.00 20.00     0.006 A 
ENDBRANCH   3   4
BRANCH   3   7
HETATM    7  C9  UNL     1     -33.231   6.453   5.879  1.00 20.00     0.006 C 
HETATM    8  C7  UNL     1     -33.919   7.395   6.822  1.00 20.00     0.006 C 
ENDBRANCH   3   7
BRANCH   2   9
HETATM    9  C8  UNL     1     -32.058   6.386   3.051  1.00 20.00     0.120 C 
HETATM   10 CL10 UNL     1     -31.853   7.948   2.211  1.00 20.00    -0.130 Cl
ENDBRANCH   2   9
TORSDOF 3
ENDMDL
MODEL 2
REMARK VINA RESULT:      -4.1     12.030     13.011
REMARK  3 active torsions:
REMARK  status: ('A' for Active; 'I' for Inactive)
REMARK    1  A    between atoms: C4_4  and  C6_6 
REMARK    2  A    between atoms: C5_5  and  C8_8 
REMARK    3  A    between atoms: C6_6  and  C9_9 
ROOT
HETATM    1  C3  UNL     1     -34.239  14.501  -3.387  1.00 20.00     0.017 A 
HETATM    2  C5  UNL     1     -33.536  15.752  -3.831  1.00 20.00     0.009 A 
HETATM    3  C6  UNL     1     -34.722  15.850  -2.882  1.00 20.00    -0.032 A 
ENDROOT
BRANCH   3   4
HETATM    4  C4  UNL     1     -34.479  16.260  -1.420  1.00 20.00    -0.006 A 
HETATM    5  C1  UNL     1     -33.691  17.483  -1.041  1.00 20.00     0.006 A 
HETATM    6  C2  UNL     1     -35.171  17.431  -0.781  1.00 20.00     0.006 A 
ENDBRANCH   3   4
BRANCH   3   7
HETATM    7  C9  UNL     1     -36.045  16.339  -3.421  1.00 20.00     0.006 C 
HETATM    8  C7  UNL     1     -37.044  15.229  -3.570  1.00 20.00     0.006 C 
ENDBRANCH   3   7
BRANCH   2   9
HETATM    9  C8  UNL     1     -33.596  16.189  -5.254  1.00 20.00     0.120 C 
HETATM   10 CL10 UNL     1     -34.300  14.918  -6.292  1.00 20.00    -0.130 Cl
ENDBRANCH   2   9
TORSDOF 3
ENDMDL
MODEL 3
REMARK VINA RESULT:      -4.1     11.858     13.309
REMARK  3 active torsions:
REMARK  status: ('A' for Active; 'I' for Inactive)
REMARK    1  A    between atoms: C4_4  and  C6_6 
REMARK    2  A    between atoms: C5_5  and  C8_8 
REMARK    3  A    between atoms: C6_6  and  C9_9 
ROOT
HETATM    1  C3  UNL     1     -32.841  15.643  -4.269  1.00 20.00     0.017 A 
HETATM    2  C5  UNL     1     -33.705  16.826  -4.603  1.00 20.00     0.009 A 
HETATM    3  C6  UNL     1     -34.003  16.001  -3.358  1.00 20.00    -0.032 A 
ENDROOT
BRANCH   3   4
HETATM    4  C4  UNL     1     -33.739  16.615  -1.973  1.00 20.00    -0.006 A 
HETATM    5  C1  UNL     1     -34.415  17.873  -1.501  1.00 20.00     0.006 A 
HETATM    6  C2  UNL     1     -34.742  16.556  -0.855  1.00 20.00     0.006 A 
ENDBRANCH   3   4
BRANCH   3   7
HETATM    7  C9  UNL     1     -35.188  15.065  -3.374  1.00 20.00     0.006 C 
HETATM    8  C7  UNL     1     -34.805  13.672  -3.778  1.00 20.00     0.006 C 
ENDBRANCH   3   7
BRANCH   2   9
HETATM    9  C8  UNL     1     -34.573  16.810  -5.814  1.00 20.00     0.120 C 
HETATM   10 CL10 UNL     1     -34.132  15.471  -6.909  1.00 20.00    -0.130 Cl
ENDBRANCH   2   9
TORSDOF 3
ENDMDL
MODEL 4
REMARK VINA RESULT:      -4.1     12.069     13.045
REMARK  3 active torsions:
REMARK  status: ('A' for Active; 'I' for Inactive)
REMARK    1  A    between atoms: C4_4  and  C6_6 
REMARK    2  A    between atoms: C5_5  and  C8_8 
REMARK    3  A    between atoms: C6_6  and  C9_9 
ROOT
HETATM    1  C3  UNL     1     -35.174  13.338  -4.237  1.00 20.00     0.017 A 
HETATM    2  C5  UNL     1     -34.412  14.276  -5.129  1.00 20.00     0.009 A 
HETATM    3  C6  UNL     1     -35.131  14.819  -3.901  1.00 20.00    -0.032 A 
ENDROOT
BRANCH   3   4
HETATM    4  C4  UNL     1     -34.300  15.316  -2.707  1.00 20.00    -0.006 A 
HETATM    5  C1  UNL     1     -33.737  16.708  -2.634  1.00 20.00     0.006 A 
HETATM    6  C2  UNL     1     -34.836  16.291  -1.697  1.00 20.00     0.006 A 
ENDBRANCH   3   4
BRANCH   3   7
HETATM    7  C9  UNL     1     -36.412  15.593  -4.094  1.00 20.00     0.006 C 
HETATM    8  C7  UNL     1     -37.627  14.766  -3.791  1.00 20.00     0.006 C 
ENDBRANCH   3   7
BRANCH   2   9
HETATM    9  C8  UNL     1     -34.872  14.538  -6.521  1.00 20.00     0.120 C 
HETATM   10 CL10 UNL     1     -34.299  16.125  -7.106  1.00 20.00    -0.130 Cl
ENDBRANCH   2   9
TORSDOF 3
ENDMDL
MODEL 5
REMARK VINA RESULT:      -4.1     12.084     13.133
REMARK  3 active torsions:
REMARK  status: ('A' for Active; 'I' for Inactive)
REMARK    1  A    between atoms: C4_4  and  C6_6 
REMARK    2  A    between atoms: C5_5  and  C8_8 
REMARK    3  A    between atoms: C6_6  and  C9_9 
ROOT
HETATM    1  C3  UNL     1     -35.544  15.636  -3.909  1.00 20.00     0.017 A 
HETATM    2  C5  UNL     1     -34.772  14.373  -3.650  1.00 20.00     0.009 A 
HETATM    3  C6  UNL     1     -34.091  15.724  -3.474  1.00 20.00    -0.032 A 
ENDROOT
BRANCH   3   4
HETATM    4  C4  UNL     1     -33.736  16.204  -2.057  1.00 20.00    -0.006 A 
HETATM    5  C1  UNL     1     -33.840  17.645  -1.639  1.00 20.00     0.006 A 
HETATM    6  C2  UNL     1     -34.779  16.624  -1.059  1.00 20.00     0.006 A 
ENDBRANCH   3   4
BRANCH   3   7
HETATM    7  C9  UNL     1     -33.100  16.179  -4.519  1.00 20.00     0.006 C 
HETATM    8  C7  UNL     1     -33.602  17.354  -5.305  1.00 20.00     0.006 C 
ENDBRANCH   3   7
BRANCH   2   9
HETATM    9  C8  UNL     1     -34.450  13.441  -4.767  1.00 20.00     0.120 C 
HETATM   10 CL10 UNL     1     -35.227  13.961  -6.288  1.00 20.00    -0.130 Cl
ENDBRANCH   2   9
TORSDOF 3
ENDMDL
MODEL 6
REMARK VINA RESULT:      -4.0     11.886     13.010
REMARK  3 active torsions:
REMARK  status: ('A' for Active; 'I' for Inactive)
REMARK    1  A    between atoms: C4_4  and  C6_6 
REMARK    2  A    between atoms: C5_5  and  C8_8 
REMARK    3  A    between atoms: C6_6  and  C9_9 
ROOT
HETATM    1  C3  UNL     1     -36.382  16.254  -3.241  1.00 20.00     0.017 A 
HETATM    2  C5  UNL     1     -35.503  16.558  -4.420  1.00 20.00     0.009 A 
HETATM    3  C6  UNL     1     -34.968  15.700  -3.282  1.00 20.00    -0.032 A 
ENDROOT
BRANCH   3   4
HETATM    4  C4  UNL     1     -34.732  14.200  -3.523  1.00 20.00    -0.006 A 
HETATM    5  C1  UNL     1     -34.338  13.647  -4.865  1.00 20.00     0.006 A 
HETATM    6  C2  UNL     1     -33.360  13.617  -3.723  1.00 20.00     0.006 A 
ENDBRANCH   3   4
BRANCH   3   7
HETATM    7  C9  UNL     1     -33.976  16.308  -2.319  1.00 20.00     0.006 C 
HETATM    8  C7  UNL     1     -34.580  16.569  -0.971  1.00 20.00     0.006 C 
ENDBRANCH   3   7
BRANCH   2   9
HETATM    9  C8  UNL     1     -35.037  17.950  -4.676  1.00 20.00     0.120 C 
HETATM   10 CL10 UNL     1     -33.530  17.963  -5.634  1.00 20.00    -0.130 Cl
ENDBRANCH   2   9
TORSDOF 3
ENDMDL
MODEL 7
REMARK VINA RESULT:      -4.0     11.625     12.783
REMARK  3 active torsions:
REMARK  status: ('A' for Active; 'I' for Inactive)
REMARK    1  A    between atoms: C4_4  and  C6_6 
REMARK    2  A    between atoms: C5_5  and  C8_8 
REMARK    3  A    between atoms: C6_6  and  C9_9 
ROOT
HETATM    1  C3  UNL     1     -34.187  17.270  -3.305  1.00 20.00     0.017 A 
HETATM    2  C5  UNL     1     -33.932  16.384  -2.119  1.00 20.00     0.009 A 
HETATM    3  C6  UNL     1     -34.678  15.833  -3.327  1.00 20.00    -0.032 A 
ENDROOT
BRANCH   3   4
HETATM    4  C4  UNL     1     -33.986  14.793  -4.223  1.00 20.00    -0.006 A 
HETATM    5  C1  UNL     1     -33.227  13.620  -3.667  1.00 20.00     0.006 A 
HETATM    6  C2  UNL     1     -34.517  13.398  -4.406  1.00 20.00     0.006 A 
ENDBRANCH   3   4
BRANCH   3   7
HETATM    7  C9  UNL     1     -36.171  15.627  -3.226  1.00 20.00     0.006 C 
HETATM    8  C7  UNL     1     -36.912  16.284  -4.354  1.00 20.00     0.006 C 
ENDBRANCH   3   7
BRANCH   2   9
HETATM    9  C8  UNL     1     -34.594  16.660  -0.813  1.00 20.00     0.120 C 
HETATM   10 CL10 UNL     1     -33.796  18.008   0.045  1.00 20.00    -0.130 Cl
ENDBRANCH   2   9
TORSDOF 3
ENDMDL
MODEL 8
REMARK VINA RESULT:      -3.9      1.390      2.597
REMARK  3 active torsions:
REMARK  status: ('A' for Active; 'I' for Inactive)
REMARK    1  A    between atoms: C4_4  and  C6_6 
REMARK    2  A    between atoms: C5_5  and  C8_8 
REMARK    3  A    between atoms: C6_6  and  C9_9 
ROOT
HETATM    1  C3  UNL     1     -31.913   6.036   3.861  1.00 20.00     0.017 A 
HETATM    2  C5  UNL     1     -32.378   7.379   3.373  1.00 20.00     0.009 A 
HETATM    3  C6  UNL     1     -33.397   6.361   3.869  1.00 20.00    -0.032 A 
ENDROOT
BRANCH   3   4
HETATM    4  C4  UNL     1     -34.124   6.618   5.199  1.00 20.00    -0.006 A 
HETATM    5  C1  UNL     1     -34.214   5.584   6.287  1.00 20.00     0.006 A 
HETATM    6  C2  UNL     1     -33.392   6.825   6.496  1.00 20.00     0.006 A 
ENDBRANCH   3   4
BRANCH   3   7
HETATM    7  C9  UNL     1     -34.253   5.639   2.857  1.00 20.00     0.006 C 
HETATM    8  C7  UNL     1     -35.693   5.574   3.273  1.00 20.00     0.006 C 
ENDBRANCH   3   7
BRANCH   2   9
HETATM    9  C8  UNL     1     -32.237   7.753   1.938  1.00 20.00     0.120 C 
HETATM   10 CL10 UNL     1     -32.467   9.507   1.700  1.00 20.00    -0.130 Cl
ENDBRANCH   2   9
TORSDOF 3
ENDMDL
MODEL 9
REMARK VINA RESULT:      -3.9     12.181     13.109
REMARK  3 active torsions:
REMARK  status: ('A' for Active; 'I' for Inactive)
REMARK    1  A    between atoms: C4_4  and  C6_6 
REMARK    2  A    between atoms: C5_5  and  C8_8 
REMARK    3  A    between atoms: C6_6  and  C9_9 
ROOT
HETATM    1  C3  UNL     1     -36.098  16.943  -3.186  1.00 20.00     0.017 A 
HETATM    2  C5  UNL     1     -35.917  15.452  -3.141  1.00 20.00     0.009 A 
HETATM    3  C6  UNL     1     -34.739  16.366  -2.830  1.00 20.00    -0.032 A 
ENDROOT
BRANCH   3   4
HETATM    4  C4  UNL     1     -34.217  16.449  -1.386  1.00 20.00    -0.006 A 
HETATM    5  C1  UNL     1     -33.596  17.695  -0.819  1.00 20.00     0.006 A 
HETATM    6  C2  UNL     1     -34.929  17.221  -0.311  1.00 20.00     0.006 A 
ENDBRANCH   3   4
BRANCH   3   7
HETATM    7  C9  UNL     1     -33.648  16.520  -3.863  1.00 20.00     0.006 C 
HETATM    8  C7  UNL     1     -33.682  17.865  -4.528  1.00 20.00     0.006 C 
ENDBRANCH   3   7
BRANCH   2   9
HETATM    9  C8  UNL     1     -36.010  14.642  -4.387  1.00 20.00     0.120 C 
HETATM   10 CL10 UNL     1     -35.036  13.150  -4.264  1.00 20.00    -0.130 Cl
ENDBRANCH   2   9
TORSDOF 3
ENDMDL
