MODEL 1
REMARK VINA RESULT:      -5.4      0.000      0.000
REMARK  2 active torsions:
REMARK  status: ('A' for Active; 'I' for Inactive)
REMARK    1  A    between atoms: C6_6  and  C10_10 
REMARK    2  A    between atoms: C7_7  and  C9_9 
ROOT
HETATM    1  C1  UNL     1     -35.744  16.818  -4.800  1.00 20.00     0.001 C 
HETATM    2  C2  UNL     1     -34.829  15.923  -5.635  1.00 20.00     0.013 C 
HETATM    3  C3  UNL     1     -34.961  17.588  -3.740  1.00 20.00     0.010 C 
HETATM    4  C4  UNL     1     -33.229  15.736  -3.683  1.00 20.00     0.023 C 
HETATM    5  C5  UNL     1     -34.723  16.150  -1.580  1.00 20.00     0.016 A 
HETATM    6  C6  UNL     1     -33.988  14.967  -4.776  1.00 20.00     0.094 C 
HETATM    7  C7  UNL     1     -33.592  17.140  -1.548  1.00 20.00     0.009 A 
HETATM    8  C8  UNL     1     -34.134  16.654  -2.883  1.00 20.00    -0.035 A 
ENDROOT
BRANCH   6   9
HETATM    9  C10 UNL     1     -34.835  13.835  -4.190  1.00 20.00     0.391 C 
HETATM   10  F11 UNL     1     -36.057  14.290  -3.875  1.00 20.00    -0.171 F 
HETATM   11  F12 UNL     1     -34.959  12.842  -5.083  1.00 20.00    -0.171 F 
HETATM   12  F13 UNL     1     -34.253  13.351  -3.082  1.00 20.00    -0.171 F 
ENDBRANCH   6   9
BRANCH   7  13
HETATM   13  C9  UNL     1     -33.818  18.522  -1.038  1.00 20.00     0.120 C 
HETATM   14 CL14 UNL     1     -32.358  19.160  -0.233  1.00 20.00    -0.130 Cl
ENDBRANCH   7  13
TORSDOF 2
ENDMDL
MODEL 2
REMARK VINA RESULT:      -5.3      0.027      1.011
REMARK  2 active torsions:
REMARK  status: ('A' for Active; 'I' for Inactive)
REMARK    1  A    between atoms: C6_6  and  C10_10 
REMARK    2  A    between atoms: C7_7  and  C9_9 
ROOT
HETATM    1  C1  UNL     1     -35.781  16.826  -4.773  1.00 20.00     0.001 C 
HETATM    2  C2  UNL     1     -34.871  15.939  -5.621  1.00 20.00     0.013 C 
HETATM    3  C3  UNL     1     -34.990  17.598  -3.720  1.00 20.00     0.010 C 
HETATM    4  C4  UNL     1     -33.248  15.755  -3.689  1.00 20.00     0.023 C 
HETATM    5  C5  UNL     1     -34.719  16.154  -1.568  1.00 20.00     0.016 A 
HETATM    6  C6  UNL     1     -34.015  14.985  -4.775  1.00 20.00     0.094 C 
HETATM    7  C7  UNL     1     -33.593  17.150  -1.545  1.00 20.00     0.009 A 
HETATM    8  C8  UNL     1     -34.148  16.665  -2.876  1.00 20.00    -0.035 A 
ENDROOT
BRANCH   6   9
HETATM    9  C10 UNL     1     -34.849  13.846  -4.183  1.00 20.00     0.391 C 
HETATM   10  F11 UNL     1     -34.257  13.368  -3.079  1.00 20.00    -0.171 F 
HETATM   11  F12 UNL     1     -36.073  14.290  -3.863  1.00 20.00    -0.171 F 
HETATM   12  F13 UNL     1     -34.969  12.852  -5.077  1.00 20.00    -0.171 F 
ENDBRANCH   6   9
BRANCH   7  13
HETATM   13  C9  UNL     1     -33.820  18.529  -1.028  1.00 20.00     0.120 C 
HETATM   14 CL14 UNL     1     -32.349  19.180  -0.254  1.00 20.00    -0.130 Cl
ENDBRANCH   7  13
TORSDOF 2
ENDMDL
MODEL 3
REMARK VINA RESULT:      -5.2     12.738     14.527
REMARK  2 active torsions:
REMARK  status: ('A' for Active; 'I' for Inactive)
REMARK    1  A    between atoms: C6_6  and  C10_10 
REMARK    2  A    between atoms: C7_7  and  C9_9 
ROOT
HETATM    1  C1  UNL     1     -43.417   4.848   0.239  1.00 20.00     0.001 C 
HETATM    2  C2  UNL     1     -42.129   5.514   0.720  1.00 20.00     0.013 C 
HETATM    3  C3  UNL     1     -43.127   3.608  -0.603  1.00 20.00     0.010 C 
HETATM    4  C4  UNL     1     -40.905   4.610  -1.302  1.00 20.00     0.023 C 
HETATM    5  C5  UNL     1     -42.775   4.280  -3.095  1.00 20.00     0.016 A 
HETATM    6  C6  UNL     1     -41.167   5.848  -0.430  1.00 20.00     0.094 C 
HETATM    7  C7  UNL     1     -42.068   2.965  -2.915  1.00 20.00     0.009 A 
HETATM    8  C8  UNL     1     -42.186   3.929  -1.743  1.00 20.00    -0.035 A 
ENDROOT
BRANCH   6   9
HETATM    9  C10 UNL     1     -41.664   7.034  -1.260  1.00 20.00     0.391 C 
HETATM   10  F11 UNL     1     -41.233   6.923  -2.525  1.00 20.00    -0.171 F 
HETATM   11  F12 UNL     1     -43.005   7.067  -1.259  1.00 20.00    -0.171 F 
HETATM   12  F13 UNL     1     -41.202   8.183  -0.743  1.00 20.00    -0.171 F 
ENDBRANCH   6   9
BRANCH   7  13
HETATM   13  C9  UNL     1     -42.831   1.687  -2.990  1.00 20.00     0.120 C 
HETATM   14 CL14 UNL     1     -41.840   0.386  -3.708  1.00 20.00    -0.130 Cl
ENDBRANCH   7  13
TORSDOF 2
ENDMDL
MODEL 4
REMARK VINA RESULT:      -5.1      2.044      2.912
REMARK  2 active torsions:
REMARK  status: ('A' for Active; 'I' for Inactive)
REMARK    1  A    between atoms: C6_6  and  C10_10 
REMARK    2  A    between atoms: C7_7  and  C9_9 
ROOT
HETATM    1  C1  UNL     1     -33.691  13.632  -4.100  1.00 20.00     0.001 C 
HETATM    2  C2  UNL     1     -35.040  13.219  -4.686  1.00 20.00     0.013 C 
HETATM    3  C3  UNL     1     -33.845  14.740  -3.062  1.00 20.00     0.010 C 
HETATM    4  C4  UNL     1     -35.947  15.538  -4.236  1.00 20.00     0.023 C 
HETATM    5  C5  UNL     1     -33.831  17.070  -4.229  1.00 20.00     0.016 A 
HETATM    6  C6  UNL     1     -35.824  14.405  -5.267  1.00 20.00     0.094 C 
HETATM    7  C7  UNL     1     -34.548  17.263  -2.921  1.00 20.00     0.009 A 
HETATM    8  C8  UNL     1     -34.610  15.917  -3.627  1.00 20.00    -0.035 A 
ENDROOT
BRANCH   6   9
HETATM    9  C10 UNL     1     -35.218  14.897  -6.583  1.00 20.00     0.391 C 
HETATM   10  F11 UNL     1     -35.592  16.164  -6.817  1.00 20.00    -0.171 F 
HETATM   11  F12 UNL     1     -33.879  14.844  -6.522  1.00 20.00    -0.171 F 
HETATM   12  F13 UNL     1     -35.636  14.126  -7.599  1.00 20.00    -0.171 F 
ENDBRANCH   6   9
BRANCH   7  13
HETATM   13  C9  UNL     1     -33.775  17.484  -1.666  1.00 20.00     0.120 C 
HETATM   14 CL14 UNL     1     -34.712  16.979  -0.233  1.00 20.00    -0.130 Cl
ENDBRANCH   7  13
TORSDOF 2
ENDMDL
MODEL 5
REMARK VINA RESULT:      -5.1      3.366      4.964
REMARK  2 active torsions:
REMARK  status: ('A' for Active; 'I' for Inactive)
REMARK    1  A    between atoms: C6_6  and  C10_10 
REMARK    2  A    between atoms: C7_7  and  C9_9 
ROOT
HETATM    1  C1  UNL     1     -34.394  13.384  -3.971  1.00 20.00     0.001 C 
HETATM    2  C2  UNL     1     -33.117  14.135  -3.599  1.00 20.00     0.013 C 
HETATM    3  C3  UNL     1     -34.821  13.679  -5.406  1.00 20.00     0.010 C 
HETATM    4  C4  UNL     1     -33.695  15.947  -5.268  1.00 20.00     0.023 C 
HETATM    5  C5  UNL     1     -36.295  15.826  -5.480  1.00 20.00     0.016 A 
HETATM    6  C6  UNL     1     -33.227  15.649  -3.835  1.00 20.00     0.094 C 
HETATM    7  C7  UNL     1     -35.711  15.675  -6.857  1.00 20.00     0.009 A 
HETATM    8  C8  UNL     1     -34.940  15.168  -5.647  1.00 20.00    -0.035 A 
ENDROOT
BRANCH   6   9
HETATM    9  C10 UNL     1     -34.123  16.323  -2.793  1.00 20.00     0.391 C 
HETATM   10  F11 UNL     1     -35.116  15.495  -2.435  1.00 20.00    -0.171 F 
HETATM   11  F12 UNL     1     -33.406  16.639  -1.704  1.00 20.00    -0.171 F 
HETATM   12  F13 UNL     1     -34.656  17.445  -3.302  1.00 20.00    -0.171 F 
ENDBRANCH   6   9
BRANCH   7  13
HETATM   13  C9  UNL     1     -36.350  14.765  -7.848  1.00 20.00     0.120 C 
HETATM   14 CL14 UNL     1     -38.116  15.022  -7.918  1.00 20.00    -0.130 Cl
ENDBRANCH   7  13
TORSDOF 2
ENDMDL
MODEL 6
REMARK VINA RESULT:      -5.1      1.578      2.003
REMARK  2 active torsions:
REMARK  status: ('A' for Active; 'I' for Inactive)
REMARK    1  A    between atoms: C6_6  and  C10_10 
REMARK    2  A    between atoms: C7_7  and  C9_9 
ROOT
HETATM    1  C1  UNL     1     -35.778  17.518  -5.511  1.00 20.00     0.001 C 
HETATM    2  C2  UNL     1     -34.903  16.999  -6.651  1.00 20.00     0.013 C 
HETATM    3  C3  UNL     1     -34.963  17.753  -4.241  1.00 20.00     0.010 C 
HETATM    4  C4  UNL     1     -33.325  15.959  -4.970  1.00 20.00     0.023 C 
HETATM    5  C5  UNL     1     -34.807  15.550  -2.858  1.00 20.00     0.016 A 
HETATM    6  C6  UNL     1     -34.114  15.738  -6.269  1.00 20.00     0.094 C 
HETATM    7  C7  UNL     1     -33.629  16.387  -2.443  1.00 20.00     0.009 A 
HETATM    8  C8  UNL     1     -34.188  16.513  -3.852  1.00 20.00    -0.035 A 
ENDROOT
BRANCH   6   9
HETATM    9  C10 UNL     1     -35.019  14.506  -6.182  1.00 20.00     0.391 C 
HETATM   10  F11 UNL     1     -35.229  14.001  -7.407  1.00 20.00    -0.171 F 
HETATM   11  F12 UNL     1     -34.446  13.566  -5.417  1.00 20.00    -0.171 F 
HETATM   12  F13 UNL     1     -36.202  14.842  -5.643  1.00 20.00    -0.171 F 
ENDBRANCH   6   9
BRANCH   7  13
HETATM   13  C9  UNL     1     -33.789  17.451  -1.411  1.00 20.00     0.120 C 
HETATM   14 CL14 UNL     1     -34.860  16.911  -0.088  1.00 20.00    -0.130 Cl
ENDBRANCH   7  13
TORSDOF 2
ENDMDL
MODEL 7
REMARK VINA RESULT:      -5.0      1.856      2.630
REMARK  2 active torsions:
REMARK  status: ('A' for Active; 'I' for Inactive)
REMARK    1  A    between atoms: C6_6  and  C10_10 
REMARK    2  A    between atoms: C7_7  and  C9_9 
ROOT
HETATM    1  C1  UNL     1     -32.930  15.006  -3.721  1.00 20.00     0.001 C 
HETATM    2  C2  UNL     1     -33.743  13.748  -4.025  1.00 20.00     0.013 C 
HETATM    3  C3  UNL     1     -33.602  15.863  -2.652  1.00 20.00     0.010 C 
HETATM    4  C4  UNL     1     -35.863  14.953  -3.353  1.00 20.00     0.023 C 
HETATM    5  C5  UNL     1     -35.325  17.478  -3.751  1.00 20.00     0.016 A 
HETATM    6  C6  UNL     1     -35.197  14.058  -4.409  1.00 20.00     0.094 C 
HETATM    7  C7  UNL     1     -35.760  17.316  -2.320  1.00 20.00     0.009 A 
HETATM    8  C8  UNL     1     -35.034  16.180  -3.024  1.00 20.00    -0.035 A 
ENDROOT
BRANCH   6   9
HETATM    9  C10 UNL     1     -35.298  14.661  -5.812  1.00 20.00     0.391 C 
HETATM   10  F11 UNL     1     -34.246  15.460  -6.046  1.00 20.00    -0.171 F 
HETATM   11  F12 UNL     1     -35.318  13.687  -6.733  1.00 20.00    -0.171 F 
HETATM   12  F13 UNL     1     -36.424  15.384  -5.921  1.00 20.00    -0.171 F 
ENDBRANCH   6   9
BRANCH   7  13
HETATM   13  C9  UNL     1     -35.131  18.137  -1.247  1.00 20.00     0.120 C 
HETATM   14 CL14 UNL     1     -35.077  17.246   0.300  1.00 20.00    -0.130 Cl
ENDBRANCH   7  13
TORSDOF 2
ENDMDL
MODEL 8
REMARK VINA RESULT:      -4.9      1.284      1.655
REMARK  2 active torsions:
REMARK  status: ('A' for Active; 'I' for Inactive)
REMARK    1  A    between atoms: C6_6  and  C10_10 
REMARK    2  A    between atoms: C7_7  and  C9_9 
ROOT
HETATM    1  C1  UNL     1     -36.527  15.724  -4.843  1.00 20.00     0.001 C 
HETATM    2  C2  UNL     1     -35.600  15.178  -5.928  1.00 20.00     0.013 C 
HETATM    3  C3  UNL     1     -35.883  16.884  -4.087  1.00 20.00     0.010 C 
HETATM    4  C4  UNL     1     -33.588  15.931  -4.591  1.00 20.00     0.023 C 
HETATM    5  C5  UNL     1     -34.434  15.979  -2.121  1.00 20.00     0.016 A 
HETATM    6  C6  UNL     1     -34.220  14.777  -5.386  1.00 20.00     0.094 C 
HETATM    7  C7  UNL     1     -33.886  17.340  -2.449  1.00 20.00     0.009 A 
HETATM    8  C8  UNL     1     -34.526  16.497  -3.542  1.00 20.00    -0.035 A 
ENDROOT
BRANCH   6   9
HETATM    9  C10 UNL     1     -34.285  13.489  -4.563  1.00 20.00     0.391 C 
HETATM   10  F11 UNL     1     -33.195  13.381  -3.788  1.00 20.00    -0.171 F 
HETATM   11  F12 UNL     1     -35.374  13.496  -3.780  1.00 20.00    -0.171 F 
HETATM   12  F13 UNL     1     -34.345  12.424  -5.379  1.00 20.00    -0.171 F 
ENDBRANCH   6   9
BRANCH   7  13
HETATM   13  C9  UNL     1     -34.529  18.563  -1.891  1.00 20.00     0.120 C 
HETATM   14 CL14 UNL     1     -35.540  18.171  -0.472  1.00 20.00    -0.130 Cl
ENDBRANCH   7  13
TORSDOF 2
ENDMDL
MODEL 9
REMARK VINA RESULT:      -4.7      2.964      3.817
REMARK  2 active torsions:
REMARK  status: ('A' for Active; 'I' for Inactive)
REMARK    1  A    between atoms: C6_6  and  C10_10 
REMARK    2  A    between atoms: C7_7  and  C9_9 
ROOT
HETATM    1  C1  UNL     1     -34.312  16.596  -5.479  1.00 20.00     0.001 C 
HETATM    2  C2  UNL     1     -33.309  16.353  -4.352  1.00 20.00     0.013 C 
HETATM    3  C3  UNL     1     -35.685  16.980  -4.933  1.00 20.00     0.010 C 
HETATM    4  C4  UNL     1     -35.199  15.679  -2.811  1.00 20.00     0.023 C 
HETATM    5  C5  UNL     1     -37.077  14.838  -4.421  1.00 20.00     0.016 A 
HETATM    6  C6  UNL     1     -33.800  15.315  -3.332  1.00 20.00     0.094 C 
HETATM    7  C7  UNL     1     -37.656  15.926  -3.561  1.00 20.00     0.009 A 
HETATM    8  C8  UNL     1     -36.182  15.960  -3.933  1.00 20.00    -0.035 A 
ENDROOT
BRANCH   6   9
HETATM    9  C10 UNL     1     -33.756  13.895  -3.901  1.00 20.00     0.391 C 
HETATM   10  F11 UNL     1     -32.564  13.334  -3.647  1.00 20.00    -0.171 F 
HETATM   11  F12 UNL     1     -34.717  13.145  -3.342  1.00 20.00    -0.171 F 
HETATM   12  F13 UNL     1     -33.947  13.925  -5.229  1.00 20.00    -0.171 F 
ENDBRANCH   6   9
BRANCH   7  13
HETATM   13  C9  UNL     1     -38.655  16.878  -4.126  1.00 20.00     0.120 C 
HETATM   14 CL14 UNL     1     -39.349  16.258  -5.650  1.00 20.00    -0.130 Cl
ENDBRANCH   7  13
TORSDOF 2
ENDMDL
