MODEL 1
REMARK VINA RESULT:      -4.7      0.000      0.000
REMARK  1 active torsions:
REMARK  status: ('A' for Active; 'I' for Inactive)
REMARK    1  A    between atoms: C5_5  and  C10_10 
ROOT
HETATM    1  C1  UNL     1     -34.709  13.060  -4.775  1.00 20.00     0.002 C 
HETATM    2  C2  UNL     1     -33.775  13.835  -3.852  1.00 20.00     0.011 C 
HETATM    3  C3  UNL     1     -35.320  14.145  -5.648  1.00 20.00     0.010 C 
HETATM    4  C4  UNL     1     -33.454  16.376  -3.470  1.00 20.00     0.017 A 
HETATM    5  C5  UNL     1     -34.308  15.900  -2.335  1.00 20.00     0.005 A 
HETATM    6  C6  UNL     1     -34.409  15.212  -3.696  1.00 20.00    -0.029 A 
HETATM    7  C7  UNL     1     -35.606  15.312  -4.662  1.00 20.00    -0.040 C 
HETATM    8  C8  UNL     1     -35.694  16.617  -5.459  1.00 20.00     0.015 C 
HETATM    9  C9  UNL     1     -36.944  15.052  -3.949  1.00 20.00     0.015 C 
ENDROOT
BRANCH   5  10
HETATM   10  C10 UNL     1     -35.317  16.829  -1.759  1.00 20.00     0.090 C 
HETATM   11 BR11 UNL     1     -34.779  17.402   0.029  1.00 20.00    -0.096 Br
ENDBRANCH   5  10
TORSDOF 1
ENDMDL
MODEL 2
REMARK VINA RESULT:      -4.7      1.313      1.802
REMARK  1 active torsions:
REMARK  status: ('A' for Active; 'I' for Inactive)
REMARK    1  A    between atoms: C5_5  and  C10_10 
ROOT
HETATM    1  C1  UNL     1     -34.969  14.389  -6.727  1.00 20.00     0.002 C 
HETATM    2  C2  UNL     1     -34.504  13.947  -5.343  1.00 20.00     0.011 C 
HETATM    3  C3  UNL     1     -34.344  15.766  -6.883  1.00 20.00     0.010 C 
HETATM    4  C4  UNL     1     -33.275  15.221  -3.453  1.00 20.00     0.017 A 
HETATM    5  C5  UNL     1     -34.721  15.207  -3.059  1.00 20.00     0.005 A 
HETATM    6  C6  UNL     1     -34.342  15.232  -4.540  1.00 20.00    -0.029 A 
HETATM    7  C7  UNL     1     -34.529  16.430  -5.490  1.00 20.00    -0.040 C 
HETATM    8  C8  UNL     1     -33.496  17.551  -5.339  1.00 20.00     0.015 C 
HETATM    9  C9  UNL     1     -35.948  17.021  -5.399  1.00 20.00     0.015 C 
ENDROOT
BRANCH   5  10
HETATM   10  C10 UNL     1     -35.265  16.355  -2.286  1.00 20.00     0.090 C 
HETATM   11 BR11 UNL     1     -33.839  17.253  -1.300  1.00 20.00    -0.096 Br
ENDBRANCH   5  10
TORSDOF 1
ENDMDL
MODEL 3
REMARK VINA RESULT:      -4.6      1.238      2.314
REMARK  1 active torsions:
REMARK  status: ('A' for Active; 'I' for Inactive)
REMARK    1  A    between atoms: C5_5  and  C10_10 
ROOT
HETATM    1  C1  UNL     1     -34.387  15.016  -7.248  1.00 20.00     0.002 C 
HETATM    2  C2  UNL     1     -34.213  16.316  -6.471  1.00 20.00     0.011 C 
HETATM    3  C3  UNL     1     -35.503  14.306  -6.497  1.00 20.00     0.010 C 
HETATM    4  C4  UNL     1     -35.206  17.121  -4.220  1.00 20.00     0.017 A 
HETATM    5  C5  UNL     1     -33.816  16.656  -3.906  1.00 20.00     0.005 A 
HETATM    6  C6  UNL     1     -34.601  15.987  -5.035  1.00 20.00    -0.029 A 
HETATM    7  C7  UNL     1     -35.175  14.557  -4.999  1.00 20.00    -0.040 C 
HETATM    8  C8  UNL     1     -36.460  14.390  -4.181  1.00 20.00     0.015 C 
HETATM    9  C9  UNL     1     -34.129  13.529  -4.533  1.00 20.00     0.015 C 
ENDROOT
BRANCH   5  10
HETATM   10  C10 UNL     1     -33.544  16.060  -2.571  1.00 20.00     0.090 C 
HETATM   11 BR11 UNL     1     -34.750  16.807  -1.229  1.00 20.00    -0.096 Br
ENDBRANCH   5  10
TORSDOF 1
ENDMDL
MODEL 4
REMARK VINA RESULT:      -4.6      2.635      4.157
REMARK  1 active torsions:
REMARK  status: ('A' for Active; 'I' for Inactive)
REMARK    1  A    between atoms: C5_5  and  C10_10 
ROOT
HETATM    1  C1  UNL     1     -34.645  16.289  -1.612  1.00 20.00     0.002 C 
HETATM    2  C2  UNL     1     -35.812  15.884  -2.506  1.00 20.00     0.011 C 
HETATM    3  C3  UNL     1     -33.724  17.043  -2.558  1.00 20.00     0.010 C 
HETATM    4  C4  UNL     1     -36.146  16.031  -5.070  1.00 20.00     0.017 A 
HETATM    5  C5  UNL     1     -35.764  14.608  -4.791  1.00 20.00     0.005 A 
HETATM    6  C6  UNL     1     -35.219  15.725  -3.901  1.00 20.00    -0.029 A 
HETATM    7  C7  UNL     1     -33.757  16.210  -3.869  1.00 20.00    -0.040 C 
HETATM    8  C8  UNL     1     -33.342  17.113  -5.035  1.00 20.00     0.015 C 
HETATM    9  C9  UNL     1     -32.765  15.039  -3.746  1.00 20.00     0.015 C 
ENDROOT
BRANCH   5  10
HETATM   10  C10 UNL     1     -34.985  13.862  -5.815  1.00 20.00     0.090 C 
HETATM   11 BR11 UNL     1     -35.109  14.749  -7.550  1.00 20.00    -0.096 Br
ENDBRANCH   5  10
TORSDOF 1
ENDMDL
MODEL 5
REMARK VINA RESULT:      -4.4      1.529      2.496
REMARK  1 active torsions:
REMARK  status: ('A' for Active; 'I' for Inactive)
REMARK    1  A    between atoms: C5_5  and  C10_10 
ROOT
HETATM    1  C1  UNL     1     -36.008  14.137  -4.482  1.00 20.00     0.002 C 
HETATM    2  C2  UNL     1     -36.184  15.068  -3.287  1.00 20.00     0.011 C 
HETATM    3  C3  UNL     1     -34.521  13.815  -4.460  1.00 20.00     0.010 C 
HETATM    4  C4  UNL     1     -34.461  16.211  -1.729  1.00 20.00     0.017 A 
HETATM    5  C5  UNL     1     -34.881  17.264  -2.710  1.00 20.00     0.005 A 
HETATM    6  C6  UNL     1     -34.854  15.797  -3.140  1.00 20.00    -0.029 A 
HETATM    7  C7  UNL     1     -33.842  15.171  -4.120  1.00 20.00    -0.040 C 
HETATM    8  C8  UNL     1     -32.454  14.891  -3.535  1.00 20.00     0.015 C 
HETATM    9  C9  UNL     1     -33.701  16.000  -5.409  1.00 20.00     0.015 C 
ENDROOT
BRANCH   5  10
HETATM   10  C10 UNL     1     -33.895  18.301  -3.114  1.00 20.00     0.090 C 
HETATM   11 BR11 UNL     1     -33.231  19.261  -1.548  1.00 20.00    -0.096 Br
ENDBRANCH   5  10
TORSDOF 1
ENDMDL
MODEL 6
REMARK VINA RESULT:      -4.4      2.570      3.929
REMARK  1 active torsions:
REMARK  status: ('A' for Active; 'I' for Inactive)
REMARK    1  A    between atoms: C5_5  and  C10_10 
ROOT
HETATM    1  C1  UNL     1     -33.708  16.215  -2.615  1.00 20.00     0.002 C 
HETATM    2  C2  UNL     1     -33.378  15.049  -3.540  1.00 20.00     0.011 C 
HETATM    3  C3  UNL     1     -35.190  16.031  -2.332  1.00 20.00     0.010 C 
HETATM    4  C4  UNL     1     -34.891  13.316  -4.728  1.00 20.00     0.017 A 
HETATM    5  C5  UNL     1     -34.553  14.339  -5.769  1.00 20.00     0.005 A 
HETATM    6  C6  UNL     1     -34.665  14.760  -4.303  1.00 20.00    -0.029 A 
HETATM    7  C7  UNL     1     -35.793  15.622  -3.705  1.00 20.00    -0.040 C 
HETATM    8  C8  UNL     1     -37.116  14.890  -3.462  1.00 20.00     0.015 C 
HETATM    9  C9  UNL     1     -36.052  16.891  -4.538  1.00 20.00     0.015 C 
ENDROOT
BRANCH   5  10
HETATM   10  C10 UNL     1     -35.549  14.637  -6.832  1.00 20.00     0.090 C 
HETATM   11 BR11 UNL     1     -34.962  16.150  -7.917  1.00 20.00    -0.096 Br
ENDBRANCH   5  10
TORSDOF 1
ENDMDL
MODEL 7
REMARK VINA RESULT:      -4.4      2.891      4.245
REMARK  1 active torsions:
REMARK  status: ('A' for Active; 'I' for Inactive)
REMARK    1  A    between atoms: C5_5  and  C10_10 
ROOT
HETATM    1  C1  UNL     1     -35.675  16.745  -2.473  1.00 20.00     0.002 C 
HETATM    2  C2  UNL     1     -35.356  17.424  -3.801  1.00 20.00     0.011 C 
HETATM    3  C3  UNL     1     -34.441  15.896  -2.208  1.00 20.00     0.010 C 
HETATM    4  C4  UNL     1     -33.431  17.068  -5.496  1.00 20.00     0.017 A 
HETATM    5  C5  UNL     1     -34.610  16.338  -6.063  1.00 20.00     0.005 A 
HETATM    6  C6  UNL     1     -34.450  16.452  -4.546  1.00 20.00    -0.029 A 
HETATM    7  C7  UNL     1     -34.086  15.294  -3.597  1.00 20.00    -0.040 C 
HETATM    8  C8  UNL     1     -32.608  14.892  -3.593  1.00 20.00     0.015 C 
HETATM    9  C9  UNL     1     -34.959  14.051  -3.844  1.00 20.00     0.015 C 
ENDROOT
BRANCH   5  10
HETATM   10  C10 UNL     1     -34.374  15.110  -6.867  1.00 20.00     0.090 C 
HETATM   11 BR11 UNL     1     -35.960  14.660  -7.913  1.00 20.00    -0.096 Br
ENDBRANCH   5  10
TORSDOF 1
ENDMDL
MODEL 8
REMARK VINA RESULT:      -4.3      2.584      3.969
REMARK  1 active torsions:
REMARK  status: ('A' for Active; 'I' for Inactive)
REMARK    1  A    between atoms: C5_5  and  C10_10 
ROOT
HETATM    1  C1  UNL     1     -33.255  16.319  -3.823  1.00 20.00     0.002 C 
HETATM    2  C2  UNL     1     -33.499  16.540  -5.312  1.00 20.00     0.011 C 
HETATM    3  C3  UNL     1     -33.457  14.822  -3.652  1.00 20.00     0.010 C 
HETATM    4  C4  UNL     1     -34.397  14.964  -7.159  1.00 20.00     0.017 A 
HETATM    5  C5  UNL     1     -35.558  15.823  -6.761  1.00 20.00     0.005 A 
HETATM    6  C6  UNL     1     -34.494  15.462  -5.724  1.00 20.00    -0.029 A 
HETATM    7  C7  UNL     1     -34.694  14.500  -4.537  1.00 20.00    -0.040 C 
HETATM    8  C8  UNL     1     -34.670  13.010  -4.891  1.00 20.00     0.015 C 
HETATM    9  C9  UNL     1     -35.975  14.821  -3.746  1.00 20.00     0.015 C 
ENDROOT
BRANCH   5  10
HETATM   10  C10 UNL     1     -36.929  15.252  -6.828  1.00 20.00     0.090 C 
HETATM   11 BR11 UNL     1     -38.253  16.584  -6.292  1.00 20.00    -0.096 Br
ENDBRANCH   5  10
TORSDOF 1
ENDMDL
MODEL 9
REMARK VINA RESULT:      -4.3      1.086      2.715
REMARK  1 active torsions:
REMARK  status: ('A' for Active; 'I' for Inactive)
REMARK    1  A    between atoms: C5_5  and  C10_10 
ROOT
HETATM    1  C1  UNL     1     -34.730  16.497  -6.458  1.00 20.00     0.002 C 
HETATM    2  C2  UNL     1     -35.781  16.788  -5.391  1.00 20.00     0.011 C 
HETATM    3  C3  UNL     1     -34.334  15.056  -6.177  1.00 20.00     0.010 C 
HETATM    4  C4  UNL     1     -36.553  15.434  -3.324  1.00 20.00     0.017 A 
HETATM    5  C5  UNL     1     -35.616  16.478  -2.798  1.00 20.00     0.005 A 
HETATM    6  C6  UNL     1     -35.405  15.912  -4.202  1.00 20.00    -0.029 A 
HETATM    7  C7  UNL     1     -34.256  14.977  -4.626  1.00 20.00    -0.040 C 
HETATM    8  C8  UNL     1     -34.413  13.514  -4.201  1.00 20.00     0.015 C 
HETATM    9  C9  UNL     1     -32.885  15.505  -4.164  1.00 20.00     0.015 C 
ENDROOT
BRANCH   5  10
HETATM   10  C10 UNL     1     -34.787  16.160  -1.604  1.00 20.00     0.090 C 
HETATM   11 BR11 UNL     1     -33.722  17.711  -1.079  1.00 20.00    -0.096 Br
ENDBRANCH   5  10
TORSDOF 1
ENDMDL
