MODEL 1
REMARK VINA RESULT:      -4.7      0.000      0.000
REMARK  1 active torsions:
REMARK  status: ('A' for Active; 'I' for Inactive)
REMARK    1  A    between atoms: C5_5  and  C10_10 
ROOT
HETATM    1  C1  UNL     1     -35.286  14.567  -6.297  1.00 20.00     0.019 C 
HETATM    2  C2  UNL     1     -32.949  15.566  -3.920  1.00 20.00     0.018 A 
HETATM    3  C3  UNL     1     -35.688  15.843  -7.024  1.00 20.00     0.075 C 
HETATM    4  C4  UNL     1     -34.764  17.169  -4.814  1.00 20.00     0.084 C 
HETATM    5  C5  UNL     1     -33.921  15.757  -2.790  1.00 20.00     0.010 A 
HETATM    6  C6  UNL     1     -34.418  15.805  -4.239  1.00 20.00    -0.020 A 
HETATM    7  C7  UNL     1     -35.321  14.636  -4.744  1.00 20.00    -0.038 C 
HETATM    8  C8  UNL     1     -34.879  13.236  -4.246  1.00 20.00     0.015 C 
HETATM    9  C9  UNL     1     -36.766  14.842  -4.239  1.00 20.00     0.015 C 
HETATM   10  S11 UNL     1     -34.572  17.205  -6.609  1.00 20.00    -0.168 SA
ENDROOT
BRANCH   5  11
HETATM   11  C10 UNL     1     -33.830  16.963  -1.918  1.00 20.00     0.120 C 
HETATM   12 CL12 UNL     1     -34.745  16.733  -0.403  1.00 20.00    -0.130 Cl
ENDBRANCH   5  11
TORSDOF 1
ENDMDL
MODEL 2
REMARK VINA RESULT:      -4.4      2.563      3.212
REMARK  1 active torsions:
REMARK  status: ('A' for Active; 'I' for Inactive)
REMARK    1  A    between atoms: C5_5  and  C10_10 
ROOT
HETATM    1  C1  UNL     1     -35.676  14.043  -4.037  1.00 20.00     0.019 C 
HETATM    2  C2  UNL     1     -33.904  16.170  -6.146  1.00 20.00     0.018 A 
HETATM    3  C3  UNL     1     -37.107  14.565  -4.054  1.00 20.00     0.075 C 
HETATM    4  C4  UNL     1     -36.032  16.936  -4.903  1.00 20.00     0.084 C 
HETATM    5  C5  UNL     1     -33.437  17.122  -5.081  1.00 20.00     0.010 A 
HETATM    6  C6  UNL     1     -34.676  16.253  -4.837  1.00 20.00    -0.020 A 
HETATM    7  C7  UNL     1     -34.572  15.108  -3.781  1.00 20.00    -0.038 C 
HETATM    8  C8  UNL     1     -33.226  14.340  -3.810  1.00 20.00     0.015 C 
HETATM    9  C9  UNL     1     -34.705  15.700  -2.360  1.00 20.00     0.015 C 
HETATM   10  S11 UNL     1     -37.339  15.781  -5.372  1.00 20.00    -0.168 SA
ENDROOT
BRANCH   5  11
HETATM   11  C10 UNL     1     -33.504  18.594  -5.308  1.00 20.00     0.120 C 
HETATM   12 CL12 UNL     1     -33.713  18.971  -7.039  1.00 20.00    -0.130 Cl
ENDBRANCH   5  11
TORSDOF 1
ENDMDL
MODEL 3
REMARK VINA RESULT:      -4.4      1.471      2.025
REMARK  1 active torsions:
REMARK  status: ('A' for Active; 'I' for Inactive)
REMARK    1  A    between atoms: C5_5  and  C10_10 
ROOT
HETATM    1  C1  UNL     1     -34.328  15.563  -5.485  1.00 20.00     0.019 C 
HETATM    2  C2  UNL     1     -33.795  17.583  -2.701  1.00 20.00     0.018 A 
HETATM    3  C3  UNL     1     -35.797  15.750  -5.840  1.00 20.00     0.075 C 
HETATM    4  C4  UNL     1     -36.117  16.601  -3.257  1.00 20.00     0.084 C 
HETATM    5  C5  UNL     1     -34.052  16.524  -1.667  1.00 20.00     0.010 A 
HETATM    6  C6  UNL     1     -34.626  16.364  -3.078  1.00 20.00    -0.020 A 
HETATM    7  C7  UNL     1     -34.029  15.249  -3.992  1.00 20.00    -0.038 C 
HETATM    8  C8  UNL     1     -32.489  15.104  -3.888  1.00 20.00     0.015 C 
HETATM    9  C9  UNL     1     -34.623  13.879  -3.594  1.00 20.00     0.015 C 
HETATM   10  S11 UNL     1     -36.511  17.144  -4.933  1.00 20.00    -0.168 SA
ENDROOT
BRANCH   5  11
HETATM   11  C10 UNL     1     -34.892  16.828  -0.473  1.00 20.00     0.120 C 
HETATM   12 CL12 UNL     1     -34.119  18.058   0.563  1.00 20.00    -0.130 Cl
ENDBRANCH   5  11
TORSDOF 1
ENDMDL
MODEL 4
REMARK VINA RESULT:      -4.2      1.899      2.698
REMARK  1 active torsions:
REMARK  status: ('A' for Active; 'I' for Inactive)
REMARK    1  A    between atoms: C5_5  and  C10_10 
ROOT
HETATM    1  C1  UNL     1     -35.881  14.075  -4.185  1.00 20.00     0.019 C 
HETATM    2  C2  UNL     1     -34.871  16.155  -1.585  1.00 20.00     0.018 A 
HETATM    3  C3  UNL     1     -34.595  13.490  -4.753  1.00 20.00     0.075 C 
HETATM    4  C4  UNL     1     -33.335  15.626  -3.591  1.00 20.00     0.084 C 
HETATM    5  C5  UNL     1     -34.799  17.421  -2.393  1.00 20.00     0.010 A 
HETATM    6  C6  UNL     1     -34.704  16.062  -3.096  1.00 20.00    -0.020 A 
HETATM    7  C7  UNL     1     -35.897  15.618  -3.999  1.00 20.00    -0.038 C 
HETATM    8  C8  UNL     1     -37.293  15.962  -3.419  1.00 20.00     0.015 C 
HETATM    9  C9  UNL     1     -35.806  16.333  -5.366  1.00 20.00     0.015 C 
HETATM   10  S11 UNL     1     -33.192  13.827  -3.661  1.00 20.00    -0.168 SA
ENDROOT
BRANCH   5  11
HETATM   11  C10 UNL     1     -33.638  18.344  -2.241  1.00 20.00     0.120 C 
HETATM   12 CL12 UNL     1     -32.988  18.295  -0.580  1.00 20.00    -0.130 Cl
ENDBRANCH   5  11
TORSDOF 1
ENDMDL
MODEL 5
REMARK VINA RESULT:      -4.2      1.850      2.891
REMARK  1 active torsions:
REMARK  status: ('A' for Active; 'I' for Inactive)
REMARK    1  A    between atoms: C5_5  and  C10_10 
ROOT
HETATM    1  C1  UNL     1     -35.281  15.622  -6.082  1.00 20.00     0.019 C 
HETATM    2  C2  UNL     1     -36.379  16.192  -2.829  1.00 20.00     0.018 A 
HETATM    3  C3  UNL     1     -34.636  14.243  -6.050  1.00 20.00     0.075 C 
HETATM    4  C4  UNL     1     -34.395  14.625  -3.350  1.00 20.00     0.084 C 
HETATM    5  C5  UNL     1     -35.150  16.914  -2.355  1.00 20.00     0.010 A 
HETATM    6  C6  UNL     1     -35.063  15.974  -3.562  1.00 20.00    -0.020 A 
HETATM    7  C7  UNL     1     -34.824  16.607  -4.969  1.00 20.00    -0.038 C 
HETATM    8  C8  UNL     1     -35.611  17.920  -5.213  1.00 20.00     0.015 C 
HETATM    9  C9  UNL     1     -33.328  16.959  -5.132  1.00 20.00     0.015 C 
HETATM   10  S11 UNL     1     -35.016  13.384  -4.505  1.00 20.00    -0.168 SA
ENDROOT
BRANCH   5  11
HETATM   11  C10 UNL     1     -34.556  16.593  -1.025  1.00 20.00     0.120 C 
HETATM   12 CL12 UNL     1     -33.401  17.853  -0.513  1.00 20.00    -0.130 Cl
ENDBRANCH   5  11
TORSDOF 1
ENDMDL
MODEL 6
REMARK VINA RESULT:      -4.2      2.268      3.765
REMARK  1 active torsions:
REMARK  status: ('A' for Active; 'I' for Inactive)
REMARK    1  A    between atoms: C5_5  and  C10_10 
ROOT
HETATM    1  C1  UNL     1     -33.133  15.312  -3.736  1.00 20.00     0.019 C 
HETATM    2  C2  UNL     1     -35.776  16.650  -5.562  1.00 20.00     0.018 A 
HETATM    3  C3  UNL     1     -33.418  13.819  -3.654  1.00 20.00     0.075 C 
HETATM    4  C4  UNL     1     -36.022  14.480  -4.185  1.00 20.00     0.084 C 
HETATM    5  C5  UNL     1     -36.638  17.006  -4.383  1.00 20.00     0.010 A 
HETATM    6  C6  UNL     1     -35.559  15.927  -4.239  1.00 20.00    -0.020 A 
HETATM    7  C7  UNL     1     -34.314  16.248  -3.355  1.00 20.00    -0.038 C 
HETATM    8  C8  UNL     1     -33.780  17.694  -3.515  1.00 20.00     0.015 C 
HETATM    9  C9  UNL     1     -34.681  16.082  -1.863  1.00 20.00     0.015 C 
HETATM   10  S11 UNL     1     -34.749  13.349  -4.786  1.00 20.00    -0.168 SA
ENDROOT
BRANCH   5  11
HETATM   11  C10 UNL     1     -38.098  16.704  -4.402  1.00 20.00     0.120 C 
HETATM   12 CL12 UNL     1     -38.835  16.980  -2.801  1.00 20.00    -0.130 Cl
ENDBRANCH   5  11
TORSDOF 1
ENDMDL
MODEL 7
REMARK VINA RESULT:      -4.1      1.308      1.871
REMARK  1 active torsions:
REMARK  status: ('A' for Active; 'I' for Inactive)
REMARK    1  A    between atoms: C5_5  and  C10_10 
ROOT
HETATM    1  C1  UNL     1     -37.099  15.103  -6.456  1.00 20.00     0.019 C 
HETATM    2  C2  UNL     1     -35.085  14.112  -3.797  1.00 20.00     0.018 A 
HETATM    3  C3  UNL     1     -36.153  15.765  -7.450  1.00 20.00     0.075 C 
HETATM    4  C4  UNL     1     -34.457  16.094  -5.326  1.00 20.00     0.084 C 
HETATM    5  C5  UNL     1     -35.276  15.349  -2.965  1.00 20.00     0.010 A 
HETATM    6  C6  UNL     1     -35.513  15.405  -4.478  1.00 20.00    -0.020 A 
HETATM    7  C7  UNL     1     -36.978  15.587  -4.984  1.00 20.00    -0.038 C 
HETATM    8  C8  UNL     1     -38.030  14.778  -4.183  1.00 20.00     0.015 C 
HETATM    9  C9  UNL     1     -37.387  17.073  -4.863  1.00 20.00     0.015 C 
HETATM   10  S11 UNL     1     -34.427  15.448  -7.011  1.00 20.00    -0.168 SA
ENDROOT
BRANCH   5  11
HETATM   11  C10 UNL     1     -34.107  15.992  -2.298  1.00 20.00     0.120 C 
HETATM   12 CL12 UNL     1     -34.573  16.707  -0.731  1.00 20.00    -0.130 Cl
ENDBRANCH   5  11
TORSDOF 1
ENDMDL
MODEL 8
REMARK VINA RESULT:      -4.1      2.615      4.127
REMARK  1 active torsions:
REMARK  status: ('A' for Active; 'I' for Inactive)
REMARK    1  A    between atoms: C5_5  and  C10_10 
ROOT
HETATM    1  C1  UNL     1     -34.099  15.922  -2.280  1.00 20.00     0.019 C 
HETATM    2  C2  UNL     1     -36.681  14.518  -4.143  1.00 20.00     0.018 A 
HETATM    3  C3  UNL     1     -34.504  17.374  -2.064  1.00 20.00     0.075 C 
HETATM    4  C4  UNL     1     -36.141  17.041  -4.233  1.00 20.00     0.084 C 
HETATM    5  C5  UNL     1     -36.071  14.760  -5.495  1.00 20.00     0.010 A 
HETATM    6  C6  UNL     1     -35.631  15.610  -4.298  1.00 20.00    -0.020 A 
HETATM    7  C7  UNL     1     -34.187  15.406  -3.744  1.00 20.00    -0.038 C 
HETATM    8  C8  UNL     1     -33.728  13.926  -3.702  1.00 20.00     0.015 C 
HETATM    9  C9  UNL     1     -33.176  16.150  -4.645  1.00 20.00     0.015 C 
HETATM   10  S11 UNL     1     -36.230  17.642  -2.533  1.00 20.00    -0.168 SA
ENDROOT
BRANCH   5  11
HETATM   11  C10 UNL     1     -36.905  15.290  -6.611  1.00 20.00     0.120 C 
HETATM   12 CL12 UNL     1     -38.642  15.205  -6.215  1.00 20.00    -0.130 Cl
ENDBRANCH   5  11
TORSDOF 1
ENDMDL
MODEL 9
REMARK VINA RESULT:      -4.0      2.212      3.217
REMARK  1 active torsions:
REMARK  status: ('A' for Active; 'I' for Inactive)
REMARK    1  A    between atoms: C5_5  and  C10_10 
ROOT
HETATM    1  C1  UNL     1     -33.311  16.329  -4.840  1.00 20.00     0.019 C 
HETATM    2  C2  UNL     1     -36.204  15.489  -3.099  1.00 20.00     0.018 A 
HETATM    3  C3  UNL     1     -33.619  17.662  -5.509  1.00 20.00     0.075 C 
HETATM    4  C4  UNL     1     -36.256  16.993  -5.196  1.00 20.00     0.084 C 
HETATM    5  C5  UNL     1     -36.825  14.657  -4.186  1.00 20.00     0.010 A 
HETATM    6  C6  UNL     1     -35.770  15.710  -4.541  1.00 20.00    -0.020 A 
HETATM    7  C7  UNL     1     -34.375  15.213  -5.035  1.00 20.00    -0.038 C 
HETATM    8  C8  UNL     1     -33.838  13.975  -4.271  1.00 20.00     0.015 C 
HETATM    9  C9  UNL     1     -34.467  14.801  -6.521  1.00 20.00     0.015 C 
HETATM   10  S11 UNL     1     -35.147  18.377  -4.857  1.00 20.00    -0.168 SA
ENDROOT
BRANCH   5  11
HETATM   11  C10 UNL     1     -38.272  14.808  -4.514  1.00 20.00     0.120 C 
HETATM   12 CL12 UNL     1     -39.175  15.501  -3.140  1.00 20.00    -0.130 Cl
ENDBRANCH   5  11
TORSDOF 1
ENDMDL
