MODEL 1
REMARK VINA RESULT:      -4.1      0.000      0.000
REMARK  1 active torsions:
REMARK  status: ('A' for Active; 'I' for Inactive)
REMARK    1  A    between atoms: C6_6  and  C8_8 
ROOT
HETATM    1  C1  UNL     1     -34.884  13.401  -5.519  1.00 20.00     0.011 C 
HETATM    2  C2  UNL     1     -35.175  13.959  -4.127  1.00 20.00     0.011 C 
HETATM    3  C3  UNL     1     -33.046  15.268  -3.396  1.00 20.00     0.017 A 
HETATM    4  C4  UNL     1     -35.341  14.334  -6.633  1.00 20.00     0.074 C 
HETATM    5  C5  UNL     1     -34.901  16.382  -4.838  1.00 20.00     0.083 C 
HETATM    6  C6  UNL     1     -34.154  15.624  -2.444  1.00 20.00     0.009 A 
HETATM    7  C7  UNL     1     -34.478  15.284  -3.893  1.00 20.00    -0.027 A 
HETATM    8  S9  UNL     1     -34.494  15.940  -6.549  1.00 20.00    -0.168 SA
ENDROOT
BRANCH   6   9
HETATM    9  C8  UNL     1     -34.255  17.004  -1.889  1.00 20.00     0.120 C 
HETATM   10 CL10 UNL     1     -34.767  16.978  -0.179  1.00 20.00    -0.130 Cl
ENDBRANCH   6   9
TORSDOF 1
ENDMDL
MODEL 2
REMARK VINA RESULT:      -4.0      3.067      4.498
REMARK  1 active torsions:
REMARK  status: ('A' for Active; 'I' for Inactive)
REMARK    1  A    between atoms: C6_6  and  C8_8 
ROOT
HETATM    1  C1  UNL     1     -34.853  17.077  -0.251  1.00 20.00     0.011 C 
HETATM    2  C2  UNL     1     -33.748  16.996  -1.302  1.00 20.00     0.011 C 
HETATM    3  C3  UNL     1     -34.524  15.234  -3.057  1.00 20.00     0.017 A 
HETATM    4  C4  UNL     1     -35.881  18.158  -0.560  1.00 20.00     0.074 C 
HETATM    5  C5  UNL     1     -35.256  17.724  -3.212  1.00 20.00     0.083 C 
HETATM    6  C6  UNL     1     -33.352  15.977  -3.637  1.00 20.00     0.009 A 
HETATM    7  C7  UNL     1     -34.301  16.686  -2.679  1.00 20.00    -0.027 A 
HETATM    8  S9  UNL     1     -36.717  17.852  -2.144  1.00 20.00    -0.168 SA
ENDROOT
BRANCH   6   9
HETATM    9  C8  UNL     1     -33.298  16.272  -5.097  1.00 20.00     0.120 C 
HETATM   10 CL10 UNL     1     -34.316  15.137  -6.025  1.00 20.00    -0.130 Cl
ENDBRANCH   6   9
TORSDOF 1
ENDMDL
MODEL 3
REMARK VINA RESULT:      -4.0      2.724      4.233
REMARK  1 active torsions:
REMARK  status: ('A' for Active; 'I' for Inactive)
REMARK    1  A    between atoms: C6_6  and  C8_8 
ROOT
HETATM    1  C1  UNL     1     -34.831  17.711  -1.286  1.00 20.00     0.011 C 
HETATM    2  C2  UNL     1     -34.431  16.252  -1.496  1.00 20.00     0.011 C 
HETATM    3  C3  UNL     1     -35.805  15.396  -3.536  1.00 20.00     0.017 A 
HETATM    4  C4  UNL     1     -33.924  18.683  -2.028  1.00 20.00     0.074 C 
HETATM    5  C5  UNL     1     -33.544  16.642  -3.845  1.00 20.00     0.083 C 
HETATM    6  C6  UNL     1     -34.730  14.384  -3.248  1.00 20.00     0.009 A 
HETATM    7  C7  UNL     1     -34.481  15.859  -2.960  1.00 20.00    -0.027 A 
HETATM    8  S9  UNL     1     -33.973  18.404  -3.824  1.00 20.00    -0.168 SA
ENDROOT
BRANCH   6   9
HETATM    9  C8  UNL     1     -34.070  13.650  -4.364  1.00 20.00     0.120 C 
HETATM   10 CL10 UNL     1     -34.960  13.867  -5.897  1.00 20.00    -0.130 Cl
ENDBRANCH   6   9
TORSDOF 1
ENDMDL
MODEL 4
REMARK VINA RESULT:      -3.9     12.675     13.946
REMARK  1 active torsions:
REMARK  status: ('A' for Active; 'I' for Inactive)
REMARK    1  A    between atoms: C6_6  and  C8_8 
ROOT
HETATM    1  C1  UNL     1     -40.857   5.835  -0.172  1.00 20.00     0.011 C 
HETATM    2  C2  UNL     1     -40.796   4.683  -1.172  1.00 20.00     0.011 C 
HETATM    3  C3  UNL     1     -43.203   3.698  -1.310  1.00 20.00     0.017 A 
HETATM    4  C4  UNL     1     -41.133   7.178  -0.837  1.00 20.00     0.074 C 
HETATM    5  C5  UNL     1     -42.479   5.730  -2.762  1.00 20.00     0.083 C 
HETATM    6  C6  UNL     1     -42.407   3.130  -2.453  1.00 20.00     0.009 A 
HETATM    7  C7  UNL     1     -42.098   4.528  -1.934  1.00 20.00    -0.027 A 
HETATM    8  S9  UNL     1     -42.733   7.179  -1.700  1.00 20.00    -0.168 SA
ENDROOT
BRANCH   6   9
HETATM    9  C8  UNL     1     -43.058   2.876  -3.770  1.00 20.00     0.120 C 
HETATM   10 CL10 UNL     1     -42.188   1.617  -4.690  1.00 20.00    -0.130 Cl
ENDBRANCH   6   9
TORSDOF 1
ENDMDL
MODEL 5
REMARK VINA RESULT:      -3.9      2.098      2.699
REMARK  1 active torsions:
REMARK  status: ('A' for Active; 'I' for Inactive)
REMARK    1  A    between atoms: C6_6  and  C8_8 
ROOT
HETATM    1  C1  UNL     1     -33.166  15.487  -3.827  1.00 20.00     0.011 C 
HETATM    2  C2  UNL     1     -34.194  15.494  -2.696  1.00 20.00     0.011 C 
HETATM    3  C3  UNL     1     -33.477  17.388  -1.059  1.00 20.00     0.017 A 
HETATM    4  C4  UNL     1     -33.579  16.361  -5.003  1.00 20.00     0.074 C 
HETATM    5  C5  UNL     1     -34.946  17.878  -3.148  1.00 20.00     0.083 C 
HETATM    6  C6  UNL     1     -34.874  16.967  -0.693  1.00 20.00     0.009 A 
HETATM    7  C7  UNL     1     -34.412  16.888  -2.142  1.00 20.00    -0.027 A 
HETATM    8  S9  UNL     1     -33.768  18.100  -4.509  1.00 20.00    -0.168 SA
ENDROOT
BRANCH   6   9
HETATM    9  C8  UNL     1     -35.859  17.974  -0.206  1.00 20.00     0.120 C 
HETATM   10 CL10 UNL     1     -35.957  17.973   1.577  1.00 20.00    -0.130 Cl
ENDBRANCH   6   9
TORSDOF 1
ENDMDL
MODEL 6
REMARK VINA RESULT:      -3.9      1.757      2.353
REMARK  1 active torsions:
REMARK  status: ('A' for Active; 'I' for Inactive)
REMARK    1  A    between atoms: C6_6  and  C8_8 
ROOT
HETATM    1  C1  UNL     1     -36.182  14.474  -3.813  1.00 20.00     0.011 C 
HETATM    2  C2  UNL     1     -35.986  15.978  -3.631  1.00 20.00     0.011 C 
HETATM    3  C3  UNL     1     -34.760  16.292  -1.355  1.00 20.00     0.017 A 
HETATM    4  C4  UNL     1     -35.043  13.821  -4.585  1.00 20.00     0.074 C 
HETATM    5  C5  UNL     1     -33.451  15.824  -3.552  1.00 20.00     0.083 C 
HETATM    6  C6  UNL     1     -34.704  17.602  -2.093  1.00 20.00     0.009 A 
HETATM    7  C7  UNL     1     -34.713  16.292  -2.870  1.00 20.00    -0.027 A 
HETATM    8  S9  UNL     1     -33.454  14.018  -3.725  1.00 20.00    -0.168 SA
ENDROOT
BRANCH   6   9
HETATM    9  C8  UNL     1     -33.502  18.475  -1.983  1.00 20.00     0.120 C 
HETATM   10 CL10 UNL     1     -32.793  18.399  -0.346  1.00 20.00    -0.130 Cl
ENDBRANCH   6   9
TORSDOF 1
ENDMDL
MODEL 7
REMARK VINA RESULT:      -3.8     11.691     12.469
REMARK  1 active torsions:
REMARK  status: ('A' for Active; 'I' for Inactive)
REMARK    1  A    between atoms: C6_6  and  C8_8 
ROOT
HETATM    1  C1  UNL     1     -33.807   5.604   6.340  1.00 20.00     0.011 C 
HETATM    2  C2  UNL     1     -33.354   6.830   5.549  1.00 20.00     0.011 C 
HETATM    3  C3  UNL     1     -31.976   5.937   3.528  1.00 20.00     0.017 A 
HETATM    4  C4  UNL     1     -35.177   5.098   5.908  1.00 20.00     0.074 C 
HETATM    5  C5  UNL     1     -34.566   6.138   3.427  1.00 20.00     0.083 C 
HETATM    6  C6  UNL     1     -32.271   7.391   3.278  1.00 20.00     0.009 A 
HETATM    7  C7  UNL     1     -33.259   6.540   4.064  1.00 20.00    -0.027 A 
HETATM    8  S9  UNL     1     -35.185   4.599   4.161  1.00 20.00    -0.168 SA
ENDROOT
BRANCH   6   9
HETATM    9  C8  UNL     1     -32.536   7.877   1.895  1.00 20.00     0.120 C 
HETATM   10 CL10 UNL     1     -32.517   9.661   1.821  1.00 20.00    -0.130 Cl
ENDBRANCH   6   9
TORSDOF 1
ENDMDL
MODEL 8
REMARK VINA RESULT:      -3.7      1.595      1.980
REMARK  1 active torsions:
REMARK  status: ('A' for Active; 'I' for Inactive)
REMARK    1  A    between atoms: C6_6  and  C8_8 
ROOT
HETATM    1  C1  UNL     1     -35.018  14.654  -7.405  1.00 20.00     0.011 C 
HETATM    2  C2  UNL     1     -34.471  14.671  -5.979  1.00 20.00     0.011 C 
HETATM    3  C3  UNL     1     -33.465  17.044  -5.603  1.00 20.00     0.017 A 
HETATM    4  C4  UNL     1     -36.487  15.050  -7.477  1.00 20.00     0.074 C 
HETATM    5  C5  UNL     1     -35.992  16.561  -5.222  1.00 20.00     0.083 C 
HETATM    6  C6  UNL     1     -33.562  16.367  -4.263  1.00 20.00     0.009 A 
HETATM    7  C7  UNL     1     -34.579  16.046  -5.350  1.00 20.00    -0.027 A 
HETATM    8  S9  UNL     1     -36.755  16.737  -6.858  1.00 20.00    -0.168 SA
ENDROOT
BRANCH   6   9
HETATM    9  C8  UNL     1     -33.895  17.156  -3.044  1.00 20.00     0.120 C 
HETATM   10 CL10 UNL     1     -34.518  16.105  -1.742  1.00 20.00    -0.130 Cl
ENDBRANCH   6   9
TORSDOF 1
ENDMDL
MODEL 9
REMARK VINA RESULT:      -3.7      1.443      2.121
REMARK  1 active torsions:
REMARK  status: ('A' for Active; 'I' for Inactive)
REMARK    1  A    between atoms: C6_6  and  C8_8 
ROOT
HETATM    1  C1  UNL     1     -35.068  15.614  -6.169  1.00 20.00     0.011 C 
HETATM    2  C2  UNL     1     -34.219  16.499  -5.260  1.00 20.00     0.011 C 
HETATM    3  C3  UNL     1     -35.612  16.884  -3.093  1.00 20.00     0.017 A 
HETATM    4  C4  UNL     1     -34.781  14.130  -5.982  1.00 20.00     0.074 C 
HETATM    5  C5  UNL     1     -34.106  14.785  -3.388  1.00 20.00     0.083 C 
HETATM    6  C6  UNL     1     -34.205  17.341  -2.823  1.00 20.00     0.009 A 
HETATM    7  C7  UNL     1     -34.457  16.195  -3.794  1.00 20.00    -0.027 A 
HETATM    8  S9  UNL     1     -35.136  13.590  -4.283  1.00 20.00    -0.168 SA
ENDROOT
BRANCH   6   9
HETATM    9  C8  UNL     1     -33.597  17.148  -1.476  1.00 20.00     0.120 C 
HETATM   10 CL10 UNL     1     -34.851  16.870  -0.235  1.00 20.00    -0.130 Cl
ENDBRANCH   6   9
TORSDOF 1
ENDMDL
