MODEL 1
REMARK VINA RESULT:      -4.1      0.000      0.000
REMARK  4 active torsions:
REMARK  status: ('A' for Active; 'I' for Inactive)
REMARK    1  A    between atoms: C4_4  and  C6_6 
REMARK    2  A    between atoms: C5_5  and  C8_8 
REMARK    3  A    between atoms: C6_6  and  C9_9 
REMARK    4  A    between atoms: C9_9  and  O10_10 
ROOT
HETATM    1  C3  UNL     1     -35.709  16.508  -2.685  1.00 20.00     0.019 A 
HETATM    2  C5  UNL     1     -34.675  16.211  -1.637  1.00 20.00     0.011 A 
HETATM    3  C6  UNL     1     -34.459  15.732  -3.072  1.00 20.00    -0.010 A 
ENDROOT
BRANCH   3   4
HETATM    4  C4  UNL     1     -34.546  14.229  -3.377  1.00 20.00    -0.004 A 
HETATM    5  C1  UNL     1     -34.503  13.681  -4.777  1.00 20.00     0.006 A 
HETATM    6  C2  UNL     1     -33.361  13.423  -3.833  1.00 20.00     0.006 A 
ENDBRANCH   3   4
BRANCH   3   7
HETATM    7  C9  UNL     1     -33.455  16.456  -3.937  1.00 20.00     0.177 C 
BRANCH   7   8
HETATM    8  O10 UNL     1     -34.148  17.222  -4.913  1.00 20.00    -0.395 OA
HETATM    9  C7  UNL     1     -33.561  18.505  -5.082  1.00 20.00     0.201 C 
ENDBRANCH   7   8
ENDBRANCH   3   7
BRANCH   2  10
HETATM   10  C8  UNL     1     -33.883  17.316  -1.025  1.00 20.00     0.120 C 
HETATM   11 CL11 UNL     1     -34.502  17.734   0.596  1.00 20.00    -0.130 Cl
ENDBRANCH   2  10
TORSDOF 4
ENDMDL
MODEL 2
REMARK VINA RESULT:      -4.0      2.591      4.042
REMARK  4 active torsions:
REMARK  status: ('A' for Active; 'I' for Inactive)
REMARK    1  A    between atoms: C4_4  and  C6_6 
REMARK    2  A    between atoms: C5_5  and  C8_8 
REMARK    3  A    between atoms: C6_6  and  C9_9 
REMARK    4  A    between atoms: C9_9  and  O10_10 
ROOT
HETATM    1  C3  UNL     1     -33.582  15.588  -3.839  1.00 20.00     0.019 A 
HETATM    2  C5  UNL     1     -34.358  14.410  -3.323  1.00 20.00     0.011 A 
HETATM    3  C6  UNL     1     -34.732  15.821  -2.870  1.00 20.00    -0.010 A 
ENDROOT
BRANCH   3   4
HETATM    4  C4  UNL     1     -34.448  16.238  -1.420  1.00 20.00    -0.004 A 
HETATM    5  C1  UNL     1     -33.679  17.482  -1.068  1.00 20.00     0.006 A 
HETATM    6  C2  UNL     1     -35.147  17.392  -0.755  1.00 20.00     0.006 A 
ENDBRANCH   3   4
BRANCH   3   7
HETATM    7  C9  UNL     1     -35.975  16.461  -3.440  1.00 20.00     0.177 C 
BRANCH   7   8
HETATM    8  O10 UNL     1     -35.599  17.414  -4.425  1.00 20.00    -0.395 OA
HETATM    9  C7  UNL     1     -36.443  17.345  -5.567  1.00 20.00     0.201 C 
ENDBRANCH   7   8
ENDBRANCH   3   7
BRANCH   2  10
HETATM   10  C8  UNL     1     -35.208  13.604  -4.246  1.00 20.00     0.120 C 
HETATM   11 CL11 UNL     1     -34.886  14.021  -5.951  1.00 20.00    -0.130 Cl
ENDBRANCH   2  10
TORSDOF 4
ENDMDL
MODEL 3
REMARK VINA RESULT:      -4.0      2.457      3.886
REMARK  4 active torsions:
REMARK  status: ('A' for Active; 'I' for Inactive)
REMARK    1  A    between atoms: C4_4  and  C6_6 
REMARK    2  A    between atoms: C5_5  and  C8_8 
REMARK    3  A    between atoms: C6_6  and  C9_9 
REMARK    4  A    between atoms: C9_9  and  O10_10 
ROOT
HETATM    1  C3  UNL     1     -33.391  15.030  -3.477  1.00 20.00     0.019 A 
HETATM    2  C5  UNL     1     -34.835  14.624  -3.408  1.00 20.00     0.011 A 
HETATM    3  C6  UNL     1     -34.415  16.016  -2.937  1.00 20.00    -0.010 A 
ENDROOT
BRANCH   3   4
HETATM    4  C4  UNL     1     -34.460  16.340  -1.436  1.00 20.00    -0.004 A 
HETATM    5  C1  UNL     1     -33.728  17.508  -0.836  1.00 20.00     0.006 A 
HETATM    6  C2  UNL     1     -35.231  17.504  -0.879  1.00 20.00     0.006 A 
ENDBRANCH   3   4
BRANCH   3   7
HETATM    7  C9  UNL     1     -34.733  17.205  -3.811  1.00 20.00     0.177 C 
BRANCH   7   8
HETATM    8  O10 UNL     1     -33.531  17.696  -4.385  1.00 20.00    -0.395 OA
HETATM    9  C7  UNL     1     -33.709  18.042  -5.753  1.00 20.00     0.201 C 
ENDBRANCH   7   8
ENDBRANCH   3   7
BRANCH   2  10
HETATM   10  C8  UNL     1     -35.614  14.393  -4.658  1.00 20.00     0.120 C 
HETATM   11 CL11 UNL     1     -34.555  14.425  -6.095  1.00 20.00    -0.130 Cl
ENDBRANCH   2  10
TORSDOF 4
ENDMDL
MODEL 4
REMARK VINA RESULT:      -4.0      2.400      3.385
REMARK  4 active torsions:
REMARK  status: ('A' for Active; 'I' for Inactive)
REMARK    1  A    between atoms: C4_4  and  C6_6 
REMARK    2  A    between atoms: C5_5  and  C8_8 
REMARK    3  A    between atoms: C6_6  and  C9_9 
REMARK    4  A    between atoms: C9_9  and  O10_10 
ROOT
HETATM    1  C3  UNL     1     -34.300  14.155  -3.383  1.00 20.00     0.019 A 
HETATM    2  C5  UNL     1     -33.804  15.510  -3.798  1.00 20.00     0.011 A 
HETATM    3  C6  UNL     1     -34.920  14.835  -4.593  1.00 20.00    -0.010 A 
ENDROOT
BRANCH   3   4
HETATM    4  C4  UNL     1     -34.621  14.318  -6.009  1.00 20.00    -0.004 A 
HETATM    5  C1  UNL     1     -35.611  14.418  -7.136  1.00 20.00     0.006 A 
HETATM    6  C2  UNL     1     -34.349  15.236  -7.168  1.00 20.00     0.006 A 
ENDBRANCH   3   4
BRANCH   3   7
HETATM    7  C9  UNL     1     -36.334  15.340  -4.433  1.00 20.00     0.177 C 
BRANCH   7   8
HETATM    8  O10 UNL     1     -37.145  14.298  -3.909  1.00 20.00    -0.395 OA
HETATM    9  C7  UNL     1     -38.521  14.653  -3.916  1.00 20.00     0.201 C 
ENDBRANCH   7   8
ENDBRANCH   3   7
BRANCH   2  10
HETATM   10  C8  UNL     1     -34.034  16.697  -2.926  1.00 20.00     0.120 C 
HETATM   11 CL11 UNL     1     -34.627  16.211  -1.315  1.00 20.00    -0.130 Cl
ENDBRANCH   2  10
TORSDOF 4
ENDMDL
MODEL 5
REMARK VINA RESULT:      -3.9      2.616      4.164
REMARK  4 active torsions:
REMARK  status: ('A' for Active; 'I' for Inactive)
REMARK    1  A    between atoms: C4_4  and  C6_6 
REMARK    2  A    between atoms: C5_5  and  C8_8 
REMARK    3  A    between atoms: C6_6  and  C9_9 
REMARK    4  A    between atoms: C9_9  and  O10_10 
ROOT
HETATM    1  C3  UNL     1     -33.840  16.364  -3.344  1.00 20.00     0.019 A 
HETATM    2  C5  UNL     1     -34.542  15.092  -2.963  1.00 20.00     0.011 A 
HETATM    3  C6  UNL     1     -34.921  16.402  -2.274  1.00 20.00    -0.010 A 
ENDROOT
BRANCH   3   4
HETATM    4  C4  UNL     1     -34.542  16.607  -0.800  1.00 20.00    -0.004 A 
HETATM    5  C1  UNL     1     -33.820  17.832  -0.309  1.00 20.00     0.006 A 
HETATM    6  C2  UNL     1     -35.249  17.590   0.091  1.00 20.00     0.006 A 
ENDBRANCH   3   4
BRANCH   3   7
HETATM    7  C9  UNL     1     -36.221  17.072  -2.651  1.00 20.00     0.177 C 
BRANCH   7   8
HETATM    8  O10 UNL     1     -35.943  18.209  -3.456  1.00 20.00    -0.395 OA
HETATM    9  C7  UNL     1     -36.718  18.207  -4.648  1.00 20.00     0.201 C 
ENDBRANCH   7   8
ENDBRANCH   3   7
BRANCH   2  10
HETATM   10  C8  UNL     1     -35.435  14.402  -3.937  1.00 20.00     0.120 C 
HETATM   11 CL11 UNL     1     -34.576  13.082  -4.778  1.00 20.00    -0.130 Cl
ENDBRANCH   2  10
TORSDOF 4
ENDMDL
MODEL 6
REMARK VINA RESULT:      -3.8      2.167      3.185
REMARK  4 active torsions:
REMARK  status: ('A' for Active; 'I' for Inactive)
REMARK    1  A    between atoms: C4_4  and  C6_6 
REMARK    2  A    between atoms: C5_5  and  C8_8 
REMARK    3  A    between atoms: C6_6  and  C9_9 
REMARK    4  A    between atoms: C9_9  and  O10_10 
ROOT
HETATM    1  C3  UNL     1     -34.191  14.281  -3.434  1.00 20.00     0.019 A 
HETATM    2  C5  UNL     1     -33.883  15.668  -2.945  1.00 20.00     0.011 A 
HETATM    3  C6  UNL     1     -34.634  15.477  -4.263  1.00 20.00    -0.010 A 
ENDROOT
BRANCH   3   4
HETATM    4  C4  UNL     1     -33.921  15.810  -5.582  1.00 20.00    -0.004 A 
HETATM    5  C1  UNL     1     -34.326  15.205  -6.899  1.00 20.00     0.006 A 
HETATM    6  C2  UNL     1     -34.542  16.672  -6.646  1.00 20.00     0.006 A 
ENDBRANCH   3   4
BRANCH   3   7
HETATM    7  C9  UNL     1     -36.117  15.759  -4.302  1.00 20.00     0.177 C 
BRANCH   7   8
HETATM    8  O10 UNL     1     -36.828  14.538  -4.155  1.00 20.00    -0.395 OA
HETATM    9  C7  UNL     1     -38.218  14.764  -3.962  1.00 20.00     0.201 C 
ENDBRANCH   7   8
ENDBRANCH   3   7
BRANCH   2  10
HETATM   10  C8  UNL     1     -34.534  16.195  -1.712  1.00 20.00     0.120 C 
HETATM   11 CL11 UNL     1     -33.573  17.512  -0.986  1.00 20.00    -0.130 Cl
ENDBRANCH   2  10
TORSDOF 4
ENDMDL
MODEL 7
REMARK VINA RESULT:      -3.8      2.670      4.337
REMARK  4 active torsions:
REMARK  status: ('A' for Active; 'I' for Inactive)
REMARK    1  A    between atoms: C4_4  and  C6_6 
REMARK    2  A    between atoms: C5_5  and  C8_8 
REMARK    3  A    between atoms: C6_6  and  C9_9 
REMARK    4  A    between atoms: C9_9  and  O10_10 
ROOT
HETATM    1  C3  UNL     1     -33.667  17.155  -4.012  1.00 20.00     0.019 A 
HETATM    2  C5  UNL     1     -33.638  15.653  -4.008  1.00 20.00     0.011 A 
HETATM    3  C6  UNL     1     -34.610  16.395  -3.092  1.00 20.00    -0.010 A 
ENDROOT
BRANCH   3   4
HETATM    4  C4  UNL     1     -34.366  16.381  -1.576  1.00 20.00    -0.004 A 
HETATM    5  C1  UNL     1     -33.633  17.482  -0.861  1.00 20.00     0.006 A 
HETATM    6  C2  UNL     1     -35.105  17.281  -0.626  1.00 20.00     0.006 A 
ENDBRANCH   3   4
BRANCH   3   7
HETATM    7  C9  UNL     1     -36.076  16.422  -3.457  1.00 20.00     0.177 C 
BRANCH   7   8
HETATM    8  O10 UNL     1     -36.682  15.206  -3.040  1.00 20.00    -0.395 OA
HETATM    9  C7  UNL     1     -37.674  14.775  -3.962  1.00 20.00     0.201 C 
ENDBRANCH   7   8
ENDBRANCH   3   7
BRANCH   2  10
HETATM   10  C8  UNL     1     -34.080  14.887  -5.208  1.00 20.00     0.120 C 
HETATM   11 CL11 UNL     1     -34.423  13.184  -4.798  1.00 20.00    -0.130 Cl
ENDBRANCH   2  10
TORSDOF 4
ENDMDL
MODEL 8
REMARK VINA RESULT:      -3.8      1.737      2.281
REMARK  4 active torsions:
REMARK  status: ('A' for Active; 'I' for Inactive)
REMARK    1  A    between atoms: C4_4  and  C6_6 
REMARK    2  A    between atoms: C5_5  and  C8_8 
REMARK    3  A    between atoms: C6_6  and  C9_9 
REMARK    4  A    between atoms: C9_9  and  O10_10 
ROOT
HETATM    1  C3  UNL     1     -34.731  16.558  -0.924  1.00 20.00     0.019 A 
HETATM    2  C5  UNL     1     -33.468  17.345  -1.131  1.00 20.00     0.011 A 
HETATM    3  C6  UNL     1     -34.192  16.742  -2.334  1.00 20.00    -0.010 A 
ENDROOT
BRANCH   3   4
HETATM    4  C4  UNL     1     -33.550  15.560  -3.077  1.00 20.00    -0.004 A 
HETATM    5  C1  UNL     1     -34.327  14.340  -3.487  1.00 20.00     0.006 A 
HETATM    6  C2  UNL     1     -33.800  15.283  -4.533  1.00 20.00     0.006 A 
ENDBRANCH   3   4
BRANCH   3   7
HETATM    7  C9  UNL     1     -34.978  17.657  -3.243  1.00 20.00     0.177 C 
BRANCH   7   8
HETATM    8  O10 UNL     1     -36.366  17.477  -3.000  1.00 20.00    -0.395 OA
HETATM    9  C7  UNL     1     -37.047  17.039  -4.168  1.00 20.00     0.201 C 
ENDBRANCH   7   8
ENDBRANCH   3   7
BRANCH   2  10
HETATM   10  C8  UNL     1     -33.437  18.809  -0.855  1.00 20.00     0.120 C 
HETATM   11 CL11 UNL     1     -31.983  19.261   0.077  1.00 20.00    -0.130 Cl
ENDBRANCH   2  10
TORSDOF 4
ENDMDL
MODEL 9
REMARK VINA RESULT:      -3.7      2.759      4.335
REMARK  4 active torsions:
REMARK  status: ('A' for Active; 'I' for Inactive)
REMARK    1  A    between atoms: C4_4  and  C6_6 
REMARK    2  A    between atoms: C5_5  and  C8_8 
REMARK    3  A    between atoms: C6_6  and  C9_9 
REMARK    4  A    between atoms: C9_9  and  O10_10 
ROOT
HETATM    1  C3  UNL     1     -34.742  17.938  -4.011  1.00 20.00     0.019 A 
HETATM    2  C5  UNL     1     -33.619  17.085  -4.528  1.00 20.00     0.011 A 
HETATM    3  C6  UNL     1     -34.463  16.597  -3.351  1.00 20.00    -0.010 A 
ENDROOT
BRANCH   3   4
HETATM    4  C4  UNL     1     -33.831  16.540  -1.952  1.00 20.00    -0.004 A 
HETATM    5  C1  UNL     1     -33.650  17.761  -1.093  1.00 20.00     0.006 A 
HETATM    6  C2  UNL     1     -34.635  16.698  -0.691  1.00 20.00     0.006 A 
ENDBRANCH   3   4
BRANCH   3   7
HETATM    7  C9  UNL     1     -35.477  15.503  -3.589  1.00 20.00     0.177 C 
BRANCH   7   8
HETATM    8  O10 UNL     1     -34.879  14.245  -3.312  1.00 20.00    -0.395 OA
HETATM    9  C7  UNL     1     -35.063  13.332  -4.386  1.00 20.00     0.201 C 
ENDBRANCH   7   8
ENDBRANCH   3   7
BRANCH   2  10
HETATM   10  C8  UNL     1     -33.696  16.479  -5.887  1.00 20.00     0.120 C 
HETATM   11 CL11 UNL     1     -34.346  17.639  -7.077  1.00 20.00    -0.130 Cl
ENDBRANCH   2  10
TORSDOF 4
ENDMDL
