MODEL 1
REMARK VINA RESULT:      -4.1      0.000      0.000
REMARK  4 active torsions:
REMARK  status: ('A' for Active; 'I' for Inactive)
REMARK    1  A    between atoms: C2_2  and  C6_6 
REMARK    2  A    between atoms: C3_3  and  C7_7 
REMARK    3  A    between atoms: C7_7  and  C8_8 
REMARK    4  A    between atoms: C8_8  and  O9_9 
ROOT
HETATM    1  C1  UNL     1     -34.968   3.972   4.858  1.00 20.00     0.016 A 
HETATM    2  C2  UNL     1     -35.007   5.243   5.656  1.00 20.00     0.008 A 
HETATM    3  C3  UNL     1     -34.746   5.301   4.157  1.00 20.00    -0.037 A 
HETATM    4  C4  UNL     1     -35.854   5.833   3.287  1.00 20.00     0.015 C 
ENDROOT
BRANCH   3   5
HETATM    5  C7  UNL     1     -33.364   5.609   3.643  1.00 20.00     0.035 C 
BRANCH   5   6
HETATM    6  C8  UNL     1     -33.203   7.075   3.256  1.00 20.00     0.167 C 
BRANCH   6   7
HETATM    7  O9  UNL     1     -32.000   7.236   2.519  1.00 20.00    -0.396 OA
HETATM    8  C5  UNL     1     -32.007   8.441   1.764  1.00 20.00     0.201 C 
ENDBRANCH   6   7
ENDBRANCH   5   6
ENDBRANCH   3   5
BRANCH   2   9
HETATM    9  C6  UNL     1     -33.951   5.528   6.668  1.00 20.00     0.120 C 
HETATM   10 CL10 UNL     1     -33.687   7.285   6.850  1.00 20.00    -0.130 Cl
ENDBRANCH   2   9
TORSDOF 4
ENDMDL
MODEL 2
REMARK VINA RESULT:      -4.0     11.340     12.562
REMARK  4 active torsions:
REMARK  status: ('A' for Active; 'I' for Inactive)
REMARK    1  A    between atoms: C2_2  and  C6_6 
REMARK    2  A    between atoms: C3_3  and  C7_7 
REMARK    3  A    between atoms: C7_7  and  C8_8 
REMARK    4  A    between atoms: C8_8  and  O9_9 
ROOT
HETATM    1  C1  UNL     1     -33.380  16.128  -4.234  1.00 20.00     0.016 A 
HETATM    2  C2  UNL     1     -33.526  16.051  -2.742  1.00 20.00     0.008 A 
HETATM    3  C3  UNL     1     -34.421  15.199  -3.633  1.00 20.00    -0.037 A 
HETATM    4  C4  UNL     1     -34.148  13.718  -3.666  1.00 20.00     0.015 C 
ENDROOT
BRANCH   3   5
HETATM    5  C7  UNL     1     -35.874  15.557  -3.806  1.00 20.00     0.035 C 
BRANCH   5   6
HETATM    6  C8  UNL     1     -36.714  14.364  -4.251  1.00 20.00     0.167 C 
BRANCH   6   7
HETATM    7  O9  UNL     1     -37.918  14.332  -3.499  1.00 20.00    -0.396 OA
HETATM    8  C5  UNL     1     -39.035  14.729  -4.282  1.00 20.00     0.201 C 
ENDBRANCH   6   7
ENDBRANCH   5   6
ENDBRANCH   3   5
BRANCH   2   9
HETATM    9  C6  UNL     1     -34.038  17.222  -1.975  1.00 20.00     0.120 C 
HETATM   10 CL10 UNL     1     -34.671  16.725  -0.380  1.00 20.00    -0.130 Cl
ENDBRANCH   2   9
TORSDOF 4
ENDMDL
MODEL 3
REMARK VINA RESULT:      -3.9     12.237     13.185
REMARK  4 active torsions:
REMARK  status: ('A' for Active; 'I' for Inactive)
REMARK    1  A    between atoms: C2_2  and  C6_6 
REMARK    2  A    between atoms: C3_3  and  C7_7 
REMARK    3  A    between atoms: C7_7  and  C8_8 
REMARK    4  A    between atoms: C8_8  and  O9_9 
ROOT
HETATM    1  C1  UNL     1     -33.723  14.613  -3.391  1.00 20.00     0.016 A 
HETATM    2  C2  UNL     1     -33.407  16.018  -3.816  1.00 20.00     0.008 A 
HETATM    3  C3  UNL     1     -34.673  15.739  -3.017  1.00 20.00    -0.037 A 
HETATM    4  C4  UNL     1     -34.694  16.196  -1.582  1.00 20.00     0.015 C 
ENDROOT
BRANCH   3   5
HETATM    5  C7  UNL     1     -36.018  15.785  -3.693  1.00 20.00     0.035 C 
BRANCH   5   6
HETATM    6  C8  UNL     1     -36.493  14.403  -4.131  1.00 20.00     0.167 C 
BRANCH   6   7
HETATM    7  O9  UNL     1     -37.815  14.190  -3.659  1.00 20.00    -0.396 OA
HETATM    8  C5  UNL     1     -38.544  15.408  -3.582  1.00 20.00     0.201 C 
ENDBRANCH   6   7
ENDBRANCH   5   6
ENDBRANCH   3   5
BRANCH   2   9
HETATM    9  C6  UNL     1     -33.434  16.391  -5.259  1.00 20.00     0.120 C 
HETATM   10 CL10 UNL     1     -33.493  18.163  -5.468  1.00 20.00    -0.130 Cl
ENDBRANCH   2   9
TORSDOF 4
ENDMDL
MODEL 4
REMARK VINA RESULT:      -3.9     11.680     12.858
REMARK  4 active torsions:
REMARK  status: ('A' for Active; 'I' for Inactive)
REMARK    1  A    between atoms: C2_2  and  C6_6 
REMARK    2  A    between atoms: C3_3  and  C7_7 
REMARK    3  A    between atoms: C7_7  and  C8_8 
REMARK    4  A    between atoms: C8_8  and  O9_9 
ROOT
HETATM    1  C1  UNL     1     -33.014  15.133  -3.756  1.00 20.00     0.016 A 
HETATM    2  C2  UNL     1     -34.179  15.226  -2.813  1.00 20.00     0.008 A 
HETATM    3  C3  UNL     1     -34.393  14.702  -4.228  1.00 20.00    -0.037 A 
HETATM    4  C4  UNL     1     -34.657  13.227  -4.380  1.00 20.00     0.015 C 
ENDROOT
BRANCH   3   5
HETATM    5  C7  UNL     1     -35.089  15.558  -5.252  1.00 20.00     0.035 C 
BRANCH   5   6
HETATM    6  C8  UNL     1     -34.177  15.919  -6.420  1.00 20.00     0.167 C 
BRANCH   6   7
HETATM    7  O9  UNL     1     -34.213  14.877  -7.384  1.00 20.00    -0.396 OA
HETATM    8  C5  UNL     1     -35.545  14.574  -7.777  1.00 20.00     0.201 C 
ENDBRANCH   6   7
ENDBRANCH   5   6
ENDBRANCH   3   5
BRANCH   2   9
HETATM    9  C6  UNL     1     -34.679  16.557  -2.366  1.00 20.00     0.120 C 
HETATM   10 CL10 UNL     1     -34.645  16.697  -0.587  1.00 20.00    -0.130 Cl
ENDBRANCH   2   9
TORSDOF 4
ENDMDL
MODEL 5
REMARK VINA RESULT:      -3.8     11.678     12.441
REMARK  4 active torsions:
REMARK  status: ('A' for Active; 'I' for Inactive)
REMARK    1  A    between atoms: C2_2  and  C6_6 
REMARK    2  A    between atoms: C3_3  and  C7_7 
REMARK    3  A    between atoms: C7_7  and  C8_8 
REMARK    4  A    between atoms: C8_8  and  O9_9 
ROOT
HETATM    1  C1  UNL     1     -33.664  16.583  -3.903  1.00 20.00     0.016 A 
HETATM    2  C2  UNL     1     -33.828  16.271  -2.444  1.00 20.00     0.008 A 
HETATM    3  C3  UNL     1     -33.781  15.135  -3.458  1.00 20.00    -0.037 A 
HETATM    4  C4  UNL     1     -32.536  14.287  -3.482  1.00 20.00     0.015 C 
ENDROOT
BRANCH   3   5
HETATM    5  C7  UNL     1     -35.038  14.386  -3.811  1.00 20.00     0.035 C 
BRANCH   5   6
HETATM    6  C8  UNL     1     -34.821  13.394  -4.949  1.00 20.00     0.167 C 
BRANCH   6   7
HETATM    7  O9  UNL     1     -34.820  14.091  -6.186  1.00 20.00    -0.396 OA
HETATM    8  C5  UNL     1     -36.026  14.821  -6.375  1.00 20.00     0.201 C 
ENDBRANCH   6   7
ENDBRANCH   5   6
ENDBRANCH   3   5
BRANCH   2   9
HETATM    9  C6  UNL     1     -35.077  16.657  -1.728  1.00 20.00     0.120 C 
HETATM   10 CL10 UNL     1     -34.753  17.023  -0.011  1.00 20.00    -0.130 Cl
ENDBRANCH   2   9
TORSDOF 4
ENDMDL
MODEL 6
REMARK VINA RESULT:      -3.8     11.912     12.777
REMARK  4 active torsions:
REMARK  status: ('A' for Active; 'I' for Inactive)
REMARK    1  A    between atoms: C2_2  and  C6_6 
REMARK    2  A    between atoms: C3_3  and  C7_7 
REMARK    3  A    between atoms: C7_7  and  C8_8 
REMARK    4  A    between atoms: C8_8  and  O9_9 
ROOT
HETATM    1  C1  UNL     1     -34.718  13.216  -4.307  1.00 20.00     0.016 A 
HETATM    2  C2  UNL     1     -34.564  14.305  -5.330  1.00 20.00     0.008 A 
HETATM    3  C3  UNL     1     -34.167  14.568  -3.883  1.00 20.00    -0.037 A 
HETATM    4  C4  UNL     1     -32.694  14.666  -3.582  1.00 20.00     0.015 C 
ENDROOT
BRANCH   3   5
HETATM    5  C7  UNL     1     -35.029  15.442  -3.011  1.00 20.00     0.035 C 
BRANCH   5   6
HETATM    6  C8  UNL     1     -34.204  16.365  -2.121  1.00 20.00     0.167 C 
BRANCH   6   7
HETATM    7  O9  UNL     1     -34.731  16.338  -0.802  1.00 20.00    -0.396 OA
HETATM    8  C5  UNL     1     -34.393  17.516  -0.081  1.00 20.00     0.201 C 
ENDBRANCH   6   7
ENDBRANCH   5   6
ENDBRANCH   3   5
BRANCH   2   9
HETATM    9  C6  UNL     1     -35.766  14.922  -5.958  1.00 20.00     0.120 C 
HETATM   10 CL10 UNL     1     -35.814  14.604  -7.715  1.00 20.00    -0.130 Cl
ENDBRANCH   2   9
TORSDOF 4
ENDMDL
MODEL 7
REMARK VINA RESULT:      -3.6      2.625      4.431
REMARK  4 active torsions:
REMARK  status: ('A' for Active; 'I' for Inactive)
REMARK    1  A    between atoms: C2_2  and  C6_6 
REMARK    2  A    between atoms: C3_3  and  C7_7 
REMARK    3  A    between atoms: C7_7  and  C8_8 
REMARK    4  A    between atoms: C8_8  and  O9_9 
ROOT
HETATM    1  C1  UNL     1     -31.738   6.101   3.416  1.00 20.00     0.016 A 
HETATM    2  C2  UNL     1     -32.187   7.506   3.139  1.00 20.00     0.008 A 
HETATM    3  C3  UNL     1     -33.136   6.533   3.827  1.00 20.00    -0.037 A 
HETATM    4  C4  UNL     1     -33.403   6.754   5.292  1.00 20.00     0.015 C 
ENDROOT
BRANCH   3   5
HETATM    5  C7  UNL     1     -34.304   5.957   3.071  1.00 20.00     0.035 C 
BRANCH   5   6
HETATM    6  C8  UNL     1     -35.403   5.454   4.002  1.00 20.00     0.167 C 
BRANCH   6   7
HETATM    7  O9  UNL     1     -35.133   4.107   4.361  1.00 20.00    -0.396 OA
HETATM    8  C5  UNL     1     -35.026   3.954   5.771  1.00 20.00     0.201 C 
ENDBRANCH   6   7
ENDBRANCH   5   6
ENDBRANCH   3   5
BRANCH   2   9
HETATM    9  C6  UNL     1     -32.389   7.968   1.736  1.00 20.00     0.120 C 
HETATM   10 CL10 UNL     1     -32.531   9.746   1.654  1.00 20.00    -0.130 Cl
ENDBRANCH   2   9
TORSDOF 4
ENDMDL
MODEL 8
REMARK VINA RESULT:      -3.6     12.086     13.347
REMARK  4 active torsions:
REMARK  status: ('A' for Active; 'I' for Inactive)
REMARK    1  A    between atoms: C2_2  and  C6_6 
REMARK    2  A    between atoms: C3_3  and  C7_7 
REMARK    3  A    between atoms: C7_7  and  C8_8 
REMARK    4  A    between atoms: C8_8  and  O9_9 
ROOT
HETATM    1  C1  UNL     1     -34.200  15.344  -6.438  1.00 20.00     0.016 A 
HETATM    2  C2  UNL     1     -33.702  15.647  -5.054  1.00 20.00     0.008 A 
HETATM    3  C3  UNL     1     -34.945  14.787  -5.237  1.00 20.00    -0.037 A 
HETATM    4  C4  UNL     1     -34.811  13.316  -4.945  1.00 20.00     0.015 C 
ENDROOT
BRANCH   3   5
HETATM    5  C7  UNL     1     -36.306  15.352  -4.924  1.00 20.00     0.035 C 
BRANCH   5   6
HETATM    6  C8  UNL     1     -36.830  14.882  -3.571  1.00 20.00     0.167 C 
BRANCH   6   7
HETATM    7  O9  UNL     1     -38.035  14.155  -3.762  1.00 20.00    -0.396 OA
HETATM    8  C5  UNL     1     -38.941  14.855  -4.604  1.00 20.00     0.201 C 
ENDBRANCH   6   7
ENDBRANCH   5   6
ENDBRANCH   3   5
BRANCH   2   9
HETATM    9  C6  UNL     1     -33.758  17.039  -4.523  1.00 20.00     0.120 C 
HETATM   10 CL10 UNL     1     -33.720  17.052  -2.738  1.00 20.00    -0.130 Cl
ENDBRANCH   2   9
TORSDOF 4
ENDMDL
MODEL 9
REMARK VINA RESULT:      -3.6     11.868     13.032
REMARK  4 active torsions:
REMARK  status: ('A' for Active; 'I' for Inactive)
REMARK    1  A    between atoms: C2_2  and  C6_6 
REMARK    2  A    between atoms: C3_3  and  C7_7 
REMARK    3  A    between atoms: C7_7  and  C8_8 
REMARK    4  A    between atoms: C8_8  and  O9_9 
ROOT
HETATM    1  C1  UNL     1     -35.703  15.416  -3.326  1.00 20.00     0.016 A 
HETATM    2  C2  UNL     1     -34.552  14.534  -2.940  1.00 20.00     0.008 A 
HETATM    3  C3  UNL     1     -34.481  16.030  -2.663  1.00 20.00    -0.037 A 
HETATM    4  C4  UNL     1     -34.604  16.470  -1.228  1.00 20.00     0.015 C 
ENDROOT
BRANCH   3   5
HETATM    5  C7  UNL     1     -33.591  16.910  -3.499  1.00 20.00     0.035 C 
BRANCH   5   6
HETATM    6  C8  UNL     1     -34.382  17.768  -4.482  1.00 20.00     0.167 C 
BRANCH   6   7
HETATM    7  O9  UNL     1     -33.765  17.708  -5.760  1.00 20.00    -0.396 OA
HETATM    8  C5  UNL     1     -34.266  16.625  -6.532  1.00 20.00     0.201 C 
ENDBRANCH   6   7
ENDBRANCH   5   6
ENDBRANCH   3   5
BRANCH   2   9
HETATM    9  C6  UNL     1     -33.727  13.871  -3.990  1.00 20.00     0.120 C 
HETATM   10 CL10 UNL     1     -34.753  13.177  -5.276  1.00 20.00    -0.130 Cl
ENDBRANCH   2   9
TORSDOF 4
ENDMDL
