MODEL 1
REMARK VINA RESULT:      -4.5      0.000      0.000
REMARK  1 active torsions:
REMARK  status: ('A' for Active; 'I' for Inactive)
REMARK    1  A    between atoms: C5_5  and  C10_10 
ROOT
HETATM    1  C1  UNL     1     -34.842  15.517  -2.277  1.00 20.00     0.019 C 
HETATM    2  C2  UNL     1     -33.288  16.755  -5.476  1.00 20.00     0.017 A 
HETATM    3  C3  UNL     1     -34.056  16.727  -1.790  1.00 20.00     0.075 C 
HETATM    4  C4  UNL     1     -35.338  17.542  -4.116  1.00 20.00     0.084 C 
HETATM    5  C5  UNL     1     -34.512  16.311  -6.212  1.00 20.00     0.006 A 
HETATM    6  C6  UNL     1     -34.534  16.381  -4.675  1.00 20.00    -0.020 A 
HETATM    7  C7  UNL     1     -34.547  15.113  -3.761  1.00 20.00    -0.038 C 
HETATM    8  C8  UNL     1     -35.681  14.153  -4.177  1.00 20.00     0.015 C 
HETATM    9  C9  UNL     1     -33.216  14.332  -3.763  1.00 20.00     0.015 C 
HETATM   10  S11 UNL     1     -34.522  18.252  -2.661  1.00 20.00    -0.168 SA
ENDROOT
BRANCH   5  11
HETATM   11  C10 UNL     1     -34.446  15.092  -7.061  1.00 20.00     0.090 C 
HETATM   12 BR12 UNL     1     -36.168  14.755  -7.918  1.00 20.00    -0.096 Br
ENDBRANCH   5  11
TORSDOF 1
ENDMDL
MODEL 2
REMARK VINA RESULT:      -4.4      3.019      4.316
REMARK  1 active torsions:
REMARK  status: ('A' for Active; 'I' for Inactive)
REMARK    1  A    between atoms: C5_5  and  C10_10 
ROOT
HETATM    1  C1  UNL     1     -34.460  15.071  -6.555  1.00 20.00     0.019 C 
HETATM    2  C2  UNL     1     -36.444  15.084  -3.355  1.00 20.00     0.017 A 
HETATM    3  C3  UNL     1     -35.834  14.630  -7.042  1.00 20.00     0.075 C 
HETATM    4  C4  UNL     1     -36.288  16.759  -5.315  1.00 20.00     0.084 C 
HETATM    5  C5  UNL     1     -35.632  16.249  -2.886  1.00 20.00     0.006 A 
HETATM    6  C6  UNL     1     -35.565  15.822  -4.362  1.00 20.00    -0.020 A 
HETATM    7  C7  UNL     1     -34.317  15.126  -4.996  1.00 20.00    -0.038 C 
HETATM    8  C8  UNL     1     -33.036  15.939  -4.711  1.00 20.00     0.015 C 
HETATM    9  C9  UNL     1     -34.098  13.678  -4.509  1.00 20.00     0.015 C 
HETATM   10  S11 UNL     1     -37.134  15.827  -6.619  1.00 20.00    -0.168 SA
ENDROOT
BRANCH   5  11
HETATM   11  C10 UNL     1     -34.600  16.038  -1.836  1.00 20.00     0.090 C 
HETATM   12 BR12 UNL     1     -34.870  17.273  -0.347  1.00 20.00    -0.096 Br
ENDBRANCH   5  11
TORSDOF 1
ENDMDL
MODEL 3
REMARK VINA RESULT:      -4.4      2.825      4.138
REMARK  1 active torsions:
REMARK  status: ('A' for Active; 'I' for Inactive)
REMARK    1  A    between atoms: C5_5  and  C10_10 
ROOT
HETATM    1  C1  UNL     1     -34.577  14.519  -6.047  1.00 20.00     0.019 C 
HETATM    2  C2  UNL     1     -35.559  17.244  -3.642  1.00 20.00     0.017 A 
HETATM    3  C3  UNL     1     -35.197  15.547  -6.984  1.00 20.00     0.075 C 
HETATM    4  C4  UNL     1     -33.561  16.982  -5.256  1.00 20.00     0.084 C 
HETATM    5  C5  UNL     1     -34.356  16.914  -2.816  1.00 20.00     0.006 A 
HETATM    6  C6  UNL     1     -34.484  16.338  -4.238  1.00 20.00    -0.020 A 
HETATM    7  C7  UNL     1     -34.778  14.830  -4.526  1.00 20.00    -0.038 C 
HETATM    8  C8  UNL     1     -33.783  13.925  -3.768  1.00 20.00     0.015 C 
HETATM    9  C9  UNL     1     -36.213  14.395  -4.160  1.00 20.00     0.015 C 
HETATM   10  S11 UNL     1     -34.394  17.172  -6.855  1.00 20.00    -0.168 SA
ENDROOT
BRANCH   5  11
HETATM   11  C10 UNL     1     -34.536  16.193  -1.528  1.00 20.00     0.090 C 
HETATM   12 BR12 UNL     1     -34.846  17.456  -0.071  1.00 20.00    -0.096 Br
ENDBRANCH   5  11
TORSDOF 1
ENDMDL
MODEL 4
REMARK VINA RESULT:      -4.4      3.009      4.487
REMARK  1 active torsions:
REMARK  status: ('A' for Active; 'I' for Inactive)
REMARK    1  A    between atoms: C5_5  and  C10_10 
ROOT
HETATM    1  C1  UNL     1     -35.491  15.969  -6.094  1.00 20.00     0.019 C 
HETATM    2  C2  UNL     1     -33.095  15.420  -3.241  1.00 20.00     0.017 A 
HETATM    3  C3  UNL     1     -34.743  14.725  -6.555  1.00 20.00     0.075 C 
HETATM    4  C4  UNL     1     -35.337  14.305  -3.873  1.00 20.00     0.084 C 
HETATM    5  C5  UNL     1     -34.136  15.941  -2.301  1.00 20.00     0.006 A 
HETATM    6  C6  UNL     1     -34.528  15.583  -3.745  1.00 20.00    -0.020 A 
HETATM    7  C7  UNL     1     -34.879  16.656  -4.827  1.00 20.00    -0.038 C 
HETATM    8  C8  UNL     1     -35.958  17.627  -4.302  1.00 20.00     0.015 C 
HETATM    9  C9  UNL     1     -33.664  17.482  -5.301  1.00 20.00     0.015 C 
HETATM   10  S11 UNL     1     -34.843  13.372  -5.347  1.00 20.00    -0.168 SA
ENDROOT
BRANCH   5  11
HETATM   11  C10 UNL     1     -33.973  17.299  -1.718  1.00 20.00     0.090 C 
HETATM   12 BR12 UNL     1     -34.867  17.415   0.015  1.00 20.00    -0.096 Br
ENDBRANCH   5  11
TORSDOF 1
ENDMDL
MODEL 5
REMARK VINA RESULT:      -4.3      3.124      4.276
REMARK  1 active torsions:
REMARK  status: ('A' for Active; 'I' for Inactive)
REMARK    1  A    between atoms: C5_5  and  C10_10 
ROOT
HETATM    1  C1  UNL     1     -34.574  14.854  -5.295  1.00 20.00     0.019 C 
HETATM    2  C2  UNL     1     -34.899  16.284  -1.827  1.00 20.00     0.017 A 
HETATM    3  C3  UNL     1     -35.505  13.847  -4.632  1.00 20.00     0.075 C 
HETATM    4  C4  UNL     1     -36.448  16.354  -3.892  1.00 20.00     0.084 C 
HETATM    5  C5  UNL     1     -34.805  17.658  -2.412  1.00 20.00     0.006 A 
HETATM    6  C6  UNL     1     -35.037  16.451  -3.339  1.00 20.00    -0.020 A 
HETATM    7  C7  UNL     1     -33.944  15.895  -4.308  1.00 20.00    -0.038 C 
HETATM    8  C8  UNL     1     -33.369  17.025  -5.188  1.00 20.00     0.015 C 
HETATM    9  C9  UNL     1     -32.776  15.189  -3.589  1.00 20.00     0.015 C 
HETATM   10  S11 UNL     1     -36.999  14.628  -3.955  1.00 20.00    -0.168 SA
ENDROOT
BRANCH   5  11
HETATM   11  C10 UNL     1     -33.549  18.436  -2.238  1.00 20.00     0.090 C 
HETATM   12 BR12 UNL     1     -33.037  18.502  -0.354  1.00 20.00    -0.096 Br
ENDBRANCH   5  11
TORSDOF 1
ENDMDL
MODEL 6
REMARK VINA RESULT:      -4.1      2.831      3.910
REMARK  1 active torsions:
REMARK  status: ('A' for Active; 'I' for Inactive)
REMARK    1  A    between atoms: C5_5  and  C10_10 
ROOT
HETATM    1  C1  UNL     1     -33.159  15.214  -3.632  1.00 20.00     0.019 C 
HETATM    2  C2  UNL     1     -36.907  15.562  -3.539  1.00 20.00     0.017 A 
HETATM    3  C3  UNL     1     -33.604  13.757  -3.635  1.00 20.00     0.075 C 
HETATM    4  C4  UNL     1     -35.251  15.058  -5.456  1.00 20.00     0.084 C 
HETATM    5  C5  UNL     1     -36.787  16.803  -4.366  1.00 20.00     0.006 A 
HETATM    6  C6  UNL     1     -35.572  15.871  -4.213  1.00 20.00    -0.020 A 
HETATM    7  C7  UNL     1     -34.312  16.239  -3.364  1.00 20.00    -0.038 C 
HETATM    8  C8  UNL     1     -33.762  17.621  -3.776  1.00 20.00     0.015 C 
HETATM    9  C9  UNL     1     -34.569  16.245  -1.842  1.00 20.00     0.015 C 
HETATM   10  S11 UNL     1     -34.727  13.380  -5.013  1.00 20.00    -0.168 SA
ENDROOT
BRANCH   5  11
HETATM   11  C10 UNL     1     -36.997  18.127  -3.721  1.00 20.00     0.090 C 
HETATM   12 BR12 UNL     1     -38.268  17.979  -2.245  1.00 20.00    -0.096 Br
ENDBRANCH   5  11
TORSDOF 1
ENDMDL
MODEL 7
REMARK VINA RESULT:      -4.1      3.255      4.732
REMARK  1 active torsions:
REMARK  status: ('A' for Active; 'I' for Inactive)
REMARK    1  A    between atoms: C5_5  and  C10_10 
ROOT
HETATM    1  C1  UNL     1     -35.994  17.491  -5.151  1.00 20.00     0.019 C 
HETATM    2  C2  UNL     1     -33.709  15.731  -2.731  1.00 20.00     0.017 A 
HETATM    3  C3  UNL     1     -35.608  16.247  -5.941  1.00 20.00     0.075 C 
HETATM    4  C4  UNL     1     -36.184  15.366  -3.369  1.00 20.00     0.084 C 
HETATM    5  C5  UNL     1     -34.544  16.251  -1.604  1.00 20.00     0.006 A 
HETATM    6  C6  UNL     1     -35.070  16.346  -3.047  1.00 20.00    -0.020 A 
HETATM    7  C7  UNL     1     -35.177  17.695  -3.831  1.00 20.00    -0.038 C 
HETATM    8  C8  UNL     1     -35.950  18.746  -3.006  1.00 20.00     0.015 C 
HETATM    9  C9  UNL     1     -33.811  18.291  -4.230  1.00 20.00     0.015 C 
HETATM   10  S11 UNL     1     -36.004  14.714  -5.051  1.00 20.00    -0.168 SA
ENDROOT
BRANCH   5  11
HETATM   11  C10 UNL     1     -34.015  17.355  -0.759  1.00 20.00     0.090 C 
HETATM   12 BR12 UNL     1     -35.179  17.660   0.780  1.00 20.00    -0.096 Br
ENDBRANCH   5  11
TORSDOF 1
ENDMDL
MODEL 8
REMARK VINA RESULT:      -4.0      3.108      4.357
REMARK  1 active torsions:
REMARK  status: ('A' for Active; 'I' for Inactive)
REMARK    1  A    between atoms: C5_5  and  C10_10 
ROOT
HETATM    1  C1  UNL     1     -37.014  15.498  -6.048  1.00 20.00     0.019 C 
HETATM    2  C2  UNL     1     -33.934  16.616  -4.191  1.00 20.00     0.017 A 
HETATM    3  C3  UNL     1     -36.093  15.901  -7.192  1.00 20.00     0.075 C 
HETATM    4  C4  UNL     1     -34.521  14.430  -5.436  1.00 20.00     0.084 C 
HETATM    5  C5  UNL     1     -34.210  15.570  -3.157  1.00 20.00     0.006 A 
HETATM    6  C6  UNL     1     -34.970  15.534  -4.495  1.00 20.00    -0.020 A 
HETATM    7  C7  UNL     1     -36.486  15.893  -4.627  1.00 20.00    -0.038 C 
HETATM    8  C8  UNL     1     -37.327  15.085  -3.617  1.00 20.00     0.015 C 
HETATM    9  C9  UNL     1     -36.789  17.393  -4.431  1.00 20.00     0.015 C 
HETATM   10  S11 UNL     1     -34.511  15.010  -7.153  1.00 20.00    -0.168 SA
ENDROOT
BRANCH   5  11
HETATM   11  C10 UNL     1     -34.736  15.985  -1.829  1.00 20.00     0.090 C 
HETATM   12 BR12 UNL     1     -33.760  17.538  -1.158  1.00 20.00    -0.096 Br
ENDBRANCH   5  11
TORSDOF 1
ENDMDL
MODEL 9
REMARK VINA RESULT:      -3.9      2.342      3.321
REMARK  1 active torsions:
REMARK  status: ('A' for Active; 'I' for Inactive)
REMARK    1  A    between atoms: C5_5  and  C10_10 
ROOT
HETATM    1  C1  UNL     1     -36.195  14.589  -4.034  1.00 20.00     0.019 C 
HETATM    2  C2  UNL     1     -33.405  16.514  -5.674  1.00 20.00     0.017 A 
HETATM    3  C3  UNL     1     -35.232  13.472  -4.416  1.00 20.00     0.075 C 
HETATM    4  C4  UNL     1     -33.662  15.485  -3.319  1.00 20.00     0.084 C 
HETATM    5  C5  UNL     1     -33.653  17.638  -4.718  1.00 20.00     0.006 A 
HETATM    6  C6  UNL     1     -34.296  16.264  -4.458  1.00 20.00    -0.020 A 
HETATM    7  C7  UNL     1     -35.825  15.989  -4.630  1.00 20.00    -0.038 C 
HETATM    8  C8  UNL     1     -36.657  17.024  -3.843  1.00 20.00     0.015 C 
HETATM    9  C9  UNL     1     -36.297  15.995  -6.099  1.00 20.00     0.015 C 
HETATM   10  S11 UNL     1     -33.574  13.718  -3.715  1.00 20.00    -0.168 SA
ENDROOT
BRANCH   5  11
HETATM   11  C10 UNL     1     -34.323  18.872  -5.207  1.00 20.00     0.090 C 
HETATM   12 BR12 UNL     1     -33.983  19.129  -7.113  1.00 20.00    -0.096 Br
ENDBRANCH   5  11
TORSDOF 1
ENDMDL
