MODEL 1
REMARK VINA RESULT:      -4.4      0.000      0.000
REMARK  2 active torsions:
REMARK  status: ('A' for Active; 'I' for Inactive)
REMARK    1  A    between atoms: C4_4  and  C7_7 
REMARK    2  A    between atoms: C6_6  and  C10_10 
ROOT
HETATM    1  C1  UNL     1     -34.170  13.428  -4.348  1.00 20.00     0.015 A 
HETATM    2  C2  UNL     1     -35.545  13.389  -4.415  1.00 20.00     0.051 A 
HETATM    3  C3  UNL     1     -33.695  14.637  -3.765  1.00 20.00    -0.048 A 
HETATM    4  C4  UNL     1     -34.727  15.478  -3.408  1.00 20.00    -0.003 A 
HETATM    5  C8  UNL     1     -32.257  14.942  -3.575  1.00 20.00     0.049 C 
HETATM    6  S11 UNL     1     -36.259  14.807  -3.774  1.00 20.00    -0.105 SA
ENDROOT
BRANCH   4   7
HETATM    7  C7  UNL     1     -34.546  16.876  -2.748  1.00 20.00    -0.005 A 
HETATM    8  C5  UNL     1     -35.629  17.312  -1.771  1.00 20.00     0.021 A 
HETATM    9  C6  UNL     1     -34.298  16.868  -1.239  1.00 20.00     0.010 A 
HETATM   10  C9  UNL     1     -33.909  17.919  -3.619  1.00 20.00     0.021 C 
BRANCH   9  11
HETATM   11  C10 UNL     1     -33.391  17.844  -0.572  1.00 20.00     0.091 C 
HETATM   12 BR12 UNL     1     -34.130  18.396   1.148  1.00 20.00    -0.096 Br
ENDBRANCH   9  11
ENDBRANCH   4   7
TORSDOF 2
ENDMDL
MODEL 2
REMARK VINA RESULT:      -4.4      2.159      2.836
REMARK  2 active torsions:
REMARK  status: ('A' for Active; 'I' for Inactive)
REMARK    1  A    between atoms: C4_4  and  C7_7 
REMARK    2  A    between atoms: C6_6  and  C10_10 
ROOT
HETATM    1  C1  UNL     1     -35.331  14.365  -7.160  1.00 20.00     0.015 A 
HETATM    2  C2  UNL     1     -35.160  15.576  -7.794  1.00 20.00     0.051 A 
HETATM    3  C3  UNL     1     -34.868  14.395  -5.813  1.00 20.00    -0.048 A 
HETATM    4  C4  UNL     1     -34.360  15.629  -5.469  1.00 20.00    -0.003 A 
HETATM    5  C8  UNL     1     -34.930  13.226  -4.903  1.00 20.00     0.049 C 
HETATM    6  S11 UNL     1     -34.444  16.744  -6.767  1.00 20.00    -0.105 SA
ENDROOT
BRANCH   4   7
HETATM    7  C7  UNL     1     -33.775  15.991  -4.074  1.00 20.00    -0.005 A 
HETATM    8  C5  UNL     1     -33.802  17.462  -3.685  1.00 20.00     0.021 A 
HETATM    9  C6  UNL     1     -34.781  16.518  -3.050  1.00 20.00     0.010 A 
HETATM   10  C9  UNL     1     -32.606  15.158  -3.633  1.00 20.00     0.021 C 
BRANCH   9  11
HETATM   11  C10 UNL     1     -34.687  16.201  -1.598  1.00 20.00     0.091 C 
HETATM   12 BR12 UNL     1     -33.936  17.712  -0.617  1.00 20.00    -0.096 Br
ENDBRANCH   9  11
ENDBRANCH   4   7
TORSDOF 2
ENDMDL
MODEL 3
REMARK VINA RESULT:      -4.3      1.531      2.083
REMARK  2 active torsions:
REMARK  status: ('A' for Active; 'I' for Inactive)
REMARK    1  A    between atoms: C4_4  and  C7_7 
REMARK    2  A    between atoms: C6_6  and  C10_10 
ROOT
HETATM    1  C1  UNL     1     -35.082  13.621  -4.172  1.00 20.00     0.015 A 
HETATM    2  C2  UNL     1     -33.706  13.585  -4.222  1.00 20.00     0.051 A 
HETATM    3  C3  UNL     1     -35.566  14.811  -3.557  1.00 20.00    -0.048 A 
HETATM    4  C4  UNL     1     -34.540  15.641  -3.160  1.00 20.00    -0.003 A 
HETATM    5  C8  UNL     1     -37.007  15.105  -3.370  1.00 20.00     0.049 C 
HETATM    6  S11 UNL     1     -33.002  14.985  -3.532  1.00 20.00    -0.105 SA
ENDROOT
BRANCH   4   7
HETATM    7  C7  UNL     1     -34.731  17.016  -2.458  1.00 20.00    -0.005 A 
HETATM    8  C5  UNL     1     -35.037  16.983  -0.968  1.00 20.00     0.021 A 
HETATM    9  C6  UNL     1     -33.666  17.386  -1.425  1.00 20.00     0.010 A 
HETATM   10  C9  UNL     1     -35.380  18.080  -3.296  1.00 20.00     0.021 C 
BRANCH   9  11
HETATM   11  C10 UNL     1     -33.190  18.784  -1.232  1.00 20.00     0.091 C 
HETATM   12 BR12 UNL     1     -32.079  18.911   0.368  1.00 20.00    -0.096 Br
ENDBRANCH   9  11
ENDBRANCH   4   7
TORSDOF 2
ENDMDL
MODEL 4
REMARK VINA RESULT:      -4.2      1.480      1.821
REMARK  2 active torsions:
REMARK  status: ('A' for Active; 'I' for Inactive)
REMARK    1  A    between atoms: C4_4  and  C7_7 
REMARK    2  A    between atoms: C6_6  and  C10_10 
ROOT
HETATM    1  C1  UNL     1     -34.286  15.221  -6.267  1.00 20.00     0.015 A 
HETATM    2  C2  UNL     1     -34.899  14.086  -5.783  1.00 20.00     0.051 A 
HETATM    3  C3  UNL     1     -34.274  16.274  -5.309  1.00 20.00    -0.048 A 
HETATM    4  C4  UNL     1     -34.881  15.905  -4.127  1.00 20.00    -0.003 A 
HETATM    5  C8  UNL     1     -33.679  17.607  -5.569  1.00 20.00     0.049 C 
HETATM    6  S11 UNL     1     -35.457  14.293  -4.178  1.00 20.00    -0.105 SA
ENDROOT
BRANCH   4   7
HETATM    7  C7  UNL     1     -35.033  16.824  -2.882  1.00 20.00    -0.005 A 
HETATM    8  C5  UNL     1     -34.831  16.170  -1.523  1.00 20.00     0.021 A 
HETATM    9  C6  UNL     1     -33.757  17.062  -2.074  1.00 20.00     0.010 A 
HETATM   10  C9  UNL     1     -36.068  17.905  -3.005  1.00 20.00     0.021 C 
BRANCH   9  11
HETATM   11  C10 UNL     1     -33.455  18.366  -1.419  1.00 20.00     0.091 C 
HETATM   12 BR12 UNL     1     -33.948  18.312   0.468  1.00 20.00    -0.096 Br
ENDBRANCH   9  11
ENDBRANCH   4   7
TORSDOF 2
ENDMDL
MODEL 5
REMARK VINA RESULT:      -4.2      3.208      4.986
REMARK  2 active torsions:
REMARK  status: ('A' for Active; 'I' for Inactive)
REMARK    1  A    between atoms: C4_4  and  C7_7 
REMARK    2  A    between atoms: C6_6  and  C10_10 
ROOT
HETATM    1  C1  UNL     1     -33.775  18.785  -2.132  1.00 20.00     0.015 A 
HETATM    2  C2  UNL     1     -33.508  19.263  -3.396  1.00 20.00     0.051 A 
HETATM    3  C3  UNL     1     -34.110  17.400  -2.143  1.00 20.00    -0.048 A 
HETATM    4  C4  UNL     1     -34.085  16.872  -3.415  1.00 20.00    -0.003 A 
HETATM    5  C8  UNL     1     -34.446  16.633  -0.919  1.00 20.00     0.049 C 
HETATM    6  S11 UNL     1     -33.658  18.044  -4.589  1.00 20.00    -0.105 SA
ENDROOT
BRANCH   4   7
HETATM    7  C7  UNL     1     -34.403  15.391  -3.769  1.00 20.00    -0.005 A 
HETATM    8  C5  UNL     1     -35.806  14.899  -3.446  1.00 20.00     0.021 A 
HETATM    9  C6  UNL     1     -35.439  15.181  -4.873  1.00 20.00     0.010 A 
HETATM   10  C9  UNL     1     -33.257  14.434  -3.608  1.00 20.00     0.021 C 
BRANCH   9  11
HETATM   11  C10 UNL     1     -35.344  14.067  -5.859  1.00 20.00     0.091 C 
HETATM   12 BR12 UNL     1     -35.074  14.771  -7.659  1.00 20.00    -0.096 Br
ENDBRANCH   9  11
ENDBRANCH   4   7
TORSDOF 2
ENDMDL
MODEL 6
REMARK VINA RESULT:      -4.1      2.329      3.414
REMARK  2 active torsions:
REMARK  status: ('A' for Active; 'I' for Inactive)
REMARK    1  A    between atoms: C4_4  and  C7_7 
REMARK    2  A    between atoms: C6_6  and  C10_10 
ROOT
HETATM    1  C1  UNL     1     -37.178  15.172  -6.785  1.00 20.00     0.015 A 
HETATM    2  C2  UNL     1     -36.168  15.372  -7.701  1.00 20.00     0.051 A 
HETATM    3  C3  UNL     1     -36.681  15.060  -5.455  1.00 20.00    -0.048 A 
HETATM    4  C4  UNL     1     -35.309  15.178  -5.404  1.00 20.00    -0.003 A 
HETATM    5  C8  UNL     1     -37.551  14.838  -4.275  1.00 20.00     0.049 C 
HETATM    6  S11 UNL     1     -34.627  15.425  -6.956  1.00 20.00    -0.105 SA
ENDROOT
BRANCH   4   7
HETATM    7  C7  UNL     1     -34.458  15.101  -4.104  1.00 20.00    -0.005 A 
HETATM    8  C5  UNL     1     -33.315  16.098  -3.978  1.00 20.00     0.021 A 
HETATM    9  C6  UNL     1     -34.563  16.308  -3.172  1.00 20.00     0.010 A 
HETATM   10  C9  UNL     1     -34.266  13.721  -3.544  1.00 20.00     0.021 C 
BRANCH   9  11
HETATM   11  C10 UNL     1     -34.530  16.179  -1.688  1.00 20.00     0.091 C 
HETATM   12 BR12 UNL     1     -33.679  17.742  -0.886  1.00 20.00    -0.096 Br
ENDBRANCH   9  11
ENDBRANCH   4   7
TORSDOF 2
ENDMDL
MODEL 7
REMARK VINA RESULT:      -4.1      3.119      4.867
REMARK  2 active torsions:
REMARK  status: ('A' for Active; 'I' for Inactive)
REMARK    1  A    between atoms: C4_4  and  C7_7 
REMARK    2  A    between atoms: C6_6  and  C10_10 
ROOT
HETATM    1  C1  UNL     1     -33.727  18.511  -2.778  1.00 20.00     0.015 A 
HETATM    2  C2  UNL     1     -34.154  18.168  -1.514  1.00 20.00     0.051 A 
HETATM    3  C3  UNL     1     -33.814  17.418  -3.687  1.00 20.00    -0.048 A 
HETATM    4  C4  UNL     1     -34.304  16.280  -3.083  1.00 20.00    -0.003 A 
HETATM    5  C8  UNL     1     -33.417  17.510  -5.113  1.00 20.00     0.049 C 
HETATM    6  S11 UNL     1     -34.658  16.534  -1.427  1.00 20.00    -0.105 SA
ENDROOT
BRANCH   4   7
HETATM    7  C7  UNL     1     -34.520  14.916  -3.799  1.00 20.00    -0.005 A 
HETATM    8  C5  UNL     1     -35.919  14.322  -3.725  1.00 20.00     0.021 A 
HETATM    9  C6  UNL     1     -35.454  14.944  -5.009  1.00 20.00     0.010 A 
HETATM   10  C9  UNL     1     -33.345  13.982  -3.766  1.00 20.00     0.021 C 
BRANCH   9  11
HETATM   11  C10 UNL     1     -35.227  14.100  -6.215  1.00 20.00     0.091 C 
HETATM   12 BR12 UNL     1     -34.899  15.219  -7.780  1.00 20.00    -0.096 Br
ENDBRANCH   9  11
ENDBRANCH   4   7
TORSDOF 2
ENDMDL
MODEL 8
REMARK VINA RESULT:      -4.1      3.333      4.752
REMARK  2 active torsions:
REMARK  status: ('A' for Active; 'I' for Inactive)
REMARK    1  A    between atoms: C4_4  and  C7_7 
REMARK    2  A    between atoms: C6_6  and  C10_10 
ROOT
HETATM    1  C1  UNL     1     -34.451  16.542  -1.025  1.00 20.00     0.015 A 
HETATM    2  C2  UNL     1     -33.780  17.704  -0.710  1.00 20.00     0.051 A 
HETATM    3  C3  UNL     1     -34.827  16.497  -2.398  1.00 20.00    -0.048 A 
HETATM    4  C4  UNL     1     -34.431  17.627  -3.080  1.00 20.00    -0.003 A 
HETATM    5  C8  UNL     1     -35.563  15.361  -3.004  1.00 20.00     0.049 C 
HETATM    6  S11 UNL     1     -33.607  18.733  -2.067  1.00 20.00    -0.105 SA
ENDROOT
BRANCH   4   7
HETATM    7  C7  UNL     1     -34.690  17.887  -4.592  1.00 20.00    -0.005 A 
HETATM    8  C5  UNL     1     -33.584  18.597  -5.360  1.00 20.00     0.021 A 
HETATM    9  C6  UNL     1     -33.785  17.123  -5.560  1.00 20.00     0.010 A 
HETATM   10  C9  UNL     1     -36.115  18.185  -4.957  1.00 20.00     0.021 C 
BRANCH   9  11
HETATM   11  C10 UNL     1     -34.271  16.602  -6.868  1.00 20.00     0.091 C 
HETATM   12 BR12 UNL     1     -34.773  14.723  -6.710  1.00 20.00    -0.096 Br
ENDBRANCH   9  11
ENDBRANCH   4   7
TORSDOF 2
ENDMDL
MODEL 9
REMARK VINA RESULT:      -4.1      3.236      5.410
REMARK  2 active torsions:
REMARK  status: ('A' for Active; 'I' for Inactive)
REMARK    1  A    between atoms: C4_4  and  C7_7 
REMARK    2  A    between atoms: C6_6  and  C10_10 
ROOT
HETATM    1  C1  UNL     1     -33.324  18.802   2.423  1.00 20.00     0.015 A 
HETATM    2  C2  UNL     1     -34.509  18.276   2.890  1.00 20.00     0.051 A 
HETATM    3  C3  UNL     1     -33.209  18.690   1.008  1.00 20.00    -0.048 A 
HETATM    4  C4  UNL     1     -34.311  18.083   0.446  1.00 20.00    -0.003 A 
HETATM    5  C8  UNL     1     -32.033  19.173   0.244  1.00 20.00     0.049 C 
HETATM    6  S11 UNL     1     -35.478  17.652   1.623  1.00 20.00    -0.105 SA
ENDROOT
BRANCH   4   7
HETATM    7  C7  UNL     1     -34.497  17.811  -1.075  1.00 20.00    -0.005 A 
HETATM    8  C5  UNL     1     -33.409  16.996  -1.759  1.00 20.00     0.021 A 
HETATM    9  C6  UNL     1     -34.731  16.350  -1.462  1.00 20.00     0.010 A 
HETATM   10  C9  UNL     1     -35.152  18.918  -1.849  1.00 20.00     0.021 C 
BRANCH   9  11
HETATM   11  C10 UNL     1     -35.639  15.953  -2.574  1.00 20.00     0.091 C 
HETATM   12 BR12 UNL     1     -34.813  14.560  -3.665  1.00 20.00    -0.096 Br
ENDBRANCH   9  11
ENDBRANCH   4   7
TORSDOF 2
ENDMDL
