MODEL 1
REMARK VINA RESULT:      -4.4      0.000      0.000
REMARK  1 active torsions:
REMARK  status: ('A' for Active; 'I' for Inactive)
REMARK    1  A    between atoms: C4_4  and  C9_9 
ROOT
HETATM    1  C1  UNL     1     -34.904  13.568  -4.273  1.00 20.00     0.131 C 
HETATM    2  C2  UNL     1     -35.910  14.731  -4.209  1.00 20.00     0.084 C 
HETATM    3  C3  UNL     1     -34.001  14.212  -3.193  1.00 20.00     0.056 C 
HETATM    4  C4  UNL     1     -35.207  15.172  -2.894  1.00 20.00     0.011 C 
HETATM    5  C5  UNL     1     -32.698  14.780  -3.724  1.00 20.00     0.018 C 
HETATM    6  O10 UNL     1     -34.842  12.545  -4.922  1.00 20.00    -0.298 OA
ENDROOT
BRANCH   4   7
HETATM    7  C9  UNL     1     -34.948  16.660  -2.755  1.00 20.00    -0.047 C 
HETATM    8  C6  UNL     1     -33.969  16.920  -1.593  1.00 20.00     0.015 C 
HETATM    9  C7  UNL     1     -36.268  17.403  -2.470  1.00 20.00     0.015 C 
HETATM   10  C8  UNL     1     -34.335  17.215  -4.056  1.00 20.00     0.015 C 
ENDBRANCH   4   7
TORSDOF 1
ENDMDL
MODEL 2
REMARK VINA RESULT:      -4.2      1.544      2.352
REMARK  1 active torsions:
REMARK  status: ('A' for Active; 'I' for Inactive)
REMARK    1  A    between atoms: C4_4  and  C9_9 
ROOT
HETATM    1  C1  UNL     1     -37.049  14.586  -3.808  1.00 20.00     0.131 C 
HETATM    2  C2  UNL     1     -36.508  15.851  -3.116  1.00 20.00     0.084 C 
HETATM    3  C3  UNL     1     -35.624  14.019  -4.017  1.00 20.00     0.056 C 
HETATM    4  C4  UNL     1     -35.143  15.116  -3.002  1.00 20.00     0.011 C 
HETATM    5  C5  UNL     1     -35.141  14.058  -5.455  1.00 20.00     0.018 C 
HETATM    6  O10 UNL     1     -38.162  14.192  -4.084  1.00 20.00    -0.298 OA
ENDROOT
BRANCH   4   7
HETATM    7  C9  UNL     1     -33.919  15.947  -3.340  1.00 20.00    -0.047 C 
HETATM    8  C6  UNL     1     -32.718  15.026  -3.632  1.00 20.00     0.015 C 
HETATM    9  C7  UNL     1     -33.564  16.870  -2.157  1.00 20.00     0.015 C 
HETATM   10  C8  UNL     1     -34.195  16.815  -4.583  1.00 20.00     0.015 C 
ENDBRANCH   4   7
TORSDOF 1
ENDMDL
MODEL 3
REMARK VINA RESULT:      -4.2      2.204      3.210
REMARK  1 active torsions:
REMARK  status: ('A' for Active; 'I' for Inactive)
REMARK    1  A    between atoms: C4_4  and  C9_9 
ROOT
HETATM    1  C1  UNL     1     -37.194  14.751  -4.176  1.00 20.00     0.131 C 
HETATM    2  C2  UNL     1     -37.000  15.611  -5.439  1.00 20.00     0.084 C 
HETATM    3  C3  UNL     1     -35.721  14.949  -3.744  1.00 20.00     0.056 C 
HETATM    4  C4  UNL     1     -35.661  16.095  -4.816  1.00 20.00     0.011 C 
HETATM    5  C5  UNL     1     -34.850  13.717  -3.909  1.00 20.00     0.018 C 
HETATM    6  O10 UNL     1     -38.136  14.150  -3.706  1.00 20.00    -0.298 OA
ENDROOT
BRANCH   4   7
HETATM    7  C9  UNL     1     -34.479  16.156  -5.766  1.00 20.00    -0.047 C 
HETATM    8  C6  UNL     1     -34.448  14.896  -6.653  1.00 20.00     0.015 C 
HETATM    9  C7  UNL     1     -33.163  16.236  -4.967  1.00 20.00     0.015 C 
HETATM   10  C8  UNL     1     -34.590  17.399  -6.670  1.00 20.00     0.015 C 
ENDBRANCH   4   7
TORSDOF 1
ENDMDL
MODEL 4
REMARK VINA RESULT:      -4.1      1.542      2.544
REMARK  1 active torsions:
REMARK  status: ('A' for Active; 'I' for Inactive)
REMARK    1  A    between atoms: C4_4  and  C9_9 
ROOT
HETATM    1  C1  UNL     1     -33.782  13.659  -3.741  1.00 20.00     0.131 C 
HETATM    2  C2  UNL     1     -35.188  13.388  -4.307  1.00 20.00     0.084 C 
HETATM    3  C3  UNL     1     -34.171  15.091  -3.302  1.00 20.00     0.056 C 
HETATM    4  C4  UNL     1     -35.660  14.659  -3.545  1.00 20.00     0.011 C 
HETATM    5  C5  UNL     1     -33.557  16.193  -4.147  1.00 20.00     0.018 C 
HETATM    6  O10 UNL     1     -32.764  13.004  -3.672  1.00 20.00    -0.298 OA
ENDROOT
BRANCH   4   7
HETATM    7  C9  UNL     1     -36.580  15.585  -4.320  1.00 20.00    -0.047 C 
HETATM    8  C6  UNL     1     -36.118  15.682  -5.788  1.00 20.00     0.015 C 
HETATM    9  C7  UNL     1     -36.558  16.994  -3.696  1.00 20.00     0.015 C 
HETATM   10  C8  UNL     1     -38.023  15.047  -4.287  1.00 20.00     0.015 C 
ENDBRANCH   4   7
TORSDOF 1
ENDMDL
MODEL 5
REMARK VINA RESULT:      -4.1      1.252      2.249
REMARK  1 active torsions:
REMARK  status: ('A' for Active; 'I' for Inactive)
REMARK    1  A    between atoms: C4_4  and  C9_9 
ROOT
HETATM    1  C1  UNL     1     -34.565  13.661  -4.557  1.00 20.00     0.131 C 
HETATM    2  C2  UNL     1     -34.553  14.454  -3.237  1.00 20.00     0.084 C 
HETATM    3  C3  UNL     1     -34.125  14.900  -5.374  1.00 20.00     0.056 C 
HETATM    4  C4  UNL     1     -33.771  15.563  -3.995  1.00 20.00     0.011 C 
HETATM    5  C5  UNL     1     -35.217  15.498  -6.240  1.00 20.00     0.018 C 
HETATM    6  O10 UNL     1     -34.824  12.512  -4.844  1.00 20.00    -0.298 OA
ENDROOT
BRANCH   4   7
HETATM    7  C9  UNL     1     -34.223  16.986  -3.724  1.00 20.00    -0.047 C 
HETATM    8  C6  UNL     1     -35.760  17.077  -3.798  1.00 20.00     0.015 C 
HETATM    9  C7  UNL     1     -33.617  17.941  -4.772  1.00 20.00     0.015 C 
HETATM   10  C8  UNL     1     -33.765  17.429  -2.321  1.00 20.00     0.015 C 
ENDBRANCH   4   7
TORSDOF 1
ENDMDL
MODEL 6
REMARK VINA RESULT:      -4.1      0.894      1.871
REMARK  1 active torsions:
REMARK  status: ('A' for Active; 'I' for Inactive)
REMARK    1  A    between atoms: C4_4  and  C9_9 
ROOT
HETATM    1  C1  UNL     1     -34.745  13.675  -4.458  1.00 20.00     0.131 C 
HETATM    2  C2  UNL     1     -33.731  14.544  -3.693  1.00 20.00     0.084 C 
HETATM    3  C3  UNL     1     -35.740  14.853  -4.595  1.00 20.00     0.056 C 
HETATM    4  C4  UNL     1     -34.553  15.780  -4.152  1.00 20.00     0.011 C 
HETATM    5  C5  UNL     1     -36.973  14.736  -3.718  1.00 20.00     0.018 C 
HETATM    6  O10 UNL     1     -34.760  12.515  -4.811  1.00 20.00    -0.298 OA
ENDROOT
BRANCH   4   7
HETATM    7  C9  UNL     1     -34.799  16.837  -3.090  1.00 20.00    -0.047 C 
HETATM    8  C6  UNL     1     -34.778  16.194  -1.690  1.00 20.00     0.015 C 
HETATM    9  C7  UNL     1     -36.172  17.501  -3.314  1.00 20.00     0.015 C 
HETATM   10  C8  UNL     1     -33.705  17.920  -3.158  1.00 20.00     0.015 C 
ENDBRANCH   4   7
TORSDOF 1
ENDMDL
MODEL 7
REMARK VINA RESULT:      -4.1      1.692      2.461
REMARK  1 active torsions:
REMARK  status: ('A' for Active; 'I' for Inactive)
REMARK    1  A    between atoms: C4_4  and  C9_9 
ROOT
HETATM    1  C1  UNL     1     -35.187  14.704  -6.517  1.00 20.00     0.131 C 
HETATM    2  C2  UNL     1     -34.285  15.895  -6.143  1.00 20.00     0.084 C 
HETATM    3  C3  UNL     1     -35.654  14.522  -5.052  1.00 20.00     0.056 C 
HETATM    4  C4  UNL     1     -35.029  15.937  -4.779  1.00 20.00     0.011 C 
HETATM    5  C5  UNL     1     -35.082  13.299  -4.361  1.00 20.00     0.018 C 
HETATM    6  O10 UNL     1     -35.431  14.130  -7.556  1.00 20.00    -0.298 OA
ENDROOT
BRANCH   4   7
HETATM    7  C9  UNL     1     -34.150  16.131  -3.557  1.00 20.00    -0.047 C 
HETATM    8  C6  UNL     1     -34.921  15.736  -2.282  1.00 20.00     0.015 C 
HETATM    9  C7  UNL     1     -33.721  17.607  -3.444  1.00 20.00     0.015 C 
HETATM   10  C8  UNL     1     -32.888  15.252  -3.668  1.00 20.00     0.015 C 
ENDBRANCH   4   7
TORSDOF 1
ENDMDL
MODEL 8
REMARK VINA RESULT:      -4.1      0.893      2.081
REMARK  1 active torsions:
REMARK  status: ('A' for Active; 'I' for Inactive)
REMARK    1  A    between atoms: C4_4  and  C9_9 
ROOT
HETATM    1  C1  UNL     1     -34.753  13.679  -4.457  1.00 20.00     0.131 C 
HETATM    2  C2  UNL     1     -33.737  14.549  -3.695  1.00 20.00     0.084 C 
HETATM    3  C3  UNL     1     -35.747  14.856  -4.595  1.00 20.00     0.056 C 
HETATM    4  C4  UNL     1     -34.560  15.785  -4.155  1.00 20.00     0.011 C 
HETATM    5  C5  UNL     1     -36.980  14.740  -3.717  1.00 20.00     0.018 C 
HETATM    6  O10 UNL     1     -34.767  12.518  -4.808  1.00 20.00    -0.298 OA
ENDROOT
BRANCH   4   7
HETATM    7  C9  UNL     1     -34.805  16.842  -3.095  1.00 20.00    -0.047 C 
HETATM    8  C6  UNL     1     -33.715  17.929  -3.169  1.00 20.00     0.015 C 
HETATM    9  C7  UNL     1     -34.777  16.202  -1.693  1.00 20.00     0.015 C 
HETATM   10  C8  UNL     1     -36.181  17.502  -3.313  1.00 20.00     0.015 C 
ENDBRANCH   4   7
TORSDOF 1
ENDMDL
MODEL 9
REMARK VINA RESULT:      -4.1      2.250      3.442
REMARK  1 active torsions:
REMARK  status: ('A' for Active; 'I' for Inactive)
REMARK    1  A    between atoms: C4_4  and  C9_9 
ROOT
HETATM    1  C1  UNL     1     -34.759  16.008  -2.283  1.00 20.00     0.131 C 
HETATM    2  C2  UNL     1     -35.956  15.523  -3.121  1.00 20.00     0.084 C 
HETATM    3  C3  UNL     1     -33.858  16.132  -3.536  1.00 20.00     0.056 C 
HETATM    4  C4  UNL     1     -35.176  15.996  -4.379  1.00 20.00     0.011 C 
HETATM    5  C5  UNL     1     -32.783  15.066  -3.640  1.00 20.00     0.018 C 
HETATM    6  O10 UNL     1     -34.589  16.210  -1.100  1.00 20.00    -0.298 OA
ENDROOT
BRANCH   4   7
HETATM    7  C9  UNL     1     -35.199  15.047  -5.562  1.00 20.00    -0.047 C 
HETATM    8  C6  UNL     1     -34.140  15.468  -6.600  1.00 20.00     0.015 C 
HETATM    9  C7  UNL     1     -36.589  15.069  -6.230  1.00 20.00     0.015 C 
HETATM   10  C8  UNL     1     -34.894  13.610  -5.094  1.00 20.00     0.015 C 
ENDBRANCH   4   7
TORSDOF 1
ENDMDL
