MODEL 1
REMARK VINA RESULT:      -4.9      0.000      0.000
REMARK  3 active torsions:
REMARK  status: ('A' for Active; 'I' for Inactive)
REMARK    1  A    between atoms: C4_4  and  C5_5 
REMARK    2  A    between atoms: C6_6  and  C7_7 
REMARK    3  A    between atoms: C7_7  and  O8_8 
ROOT
HETATM    1  C3  UNL     1     -34.889   5.422   3.477  1.00 20.00     0.012 A 
HETATM    2  C5  UNL     1     -33.828   6.384   3.941  1.00 20.00    -0.004 A 
HETATM    3  C6  UNL     1     -34.112   5.136   4.736  1.00 20.00     0.014 A 
ENDROOT
BRANCH   2   4
HETATM    4  C4  UNL     1     -32.524   6.591   3.186  1.00 20.00    -0.010 A 
HETATM    5  C1  UNL     1     -32.235   7.834   2.393  1.00 20.00     0.005 A 
HETATM    6  C2  UNL     1     -31.462   7.549   3.650  1.00 20.00     0.005 A 
ENDBRANCH   2   4
BRANCH   3   7
HETATM    7  C7  UNL     1     -34.779   5.226   6.065  1.00 20.00     0.169 C 
BRANCH   7   8
HETATM    8  O8  UNL     1     -35.563   4.056   6.296  1.00 20.00    -0.400 OA
HETATM    9  H20 UNL     1     -35.054   3.501   6.907  1.00 20.00     0.209 HD
ENDBRANCH   7   8
ENDBRANCH   3   7
TORSDOF 3
ENDMDL
MODEL 2
REMARK VINA RESULT:      -4.7      2.623      4.231
REMARK  3 active torsions:
REMARK  status: ('A' for Active; 'I' for Inactive)
REMARK    1  A    between atoms: C4_4  and  C5_5 
REMARK    2  A    between atoms: C6_6  and  C7_7 
REMARK    3  A    between atoms: C7_7  and  O8_8 
ROOT
HETATM    1  C3  UNL     1     -33.831   5.472   2.552  1.00 20.00     0.012 A 
HETATM    2  C5  UNL     1     -33.627   5.506   4.043  1.00 20.00    -0.004 A 
HETATM    3  C6  UNL     1     -33.389   6.746   3.222  1.00 20.00     0.014 A 
ENDROOT
BRANCH   2   4
HETATM    4  C4  UNL     1     -34.779   5.390   5.029  1.00 20.00    -0.010 A 
HETATM    5  C1  UNL     1     -34.974   4.189   5.912  1.00 20.00     0.005 A 
HETATM    6  C2  UNL     1     -34.589   5.511   6.516  1.00 20.00     0.005 A 
ENDBRANCH   2   4
BRANCH   3   7
HETATM    7  C7  UNL     1     -32.005   7.260   3.018  1.00 20.00     0.169 C 
BRANCH   7   8
HETATM    8  O8  UNL     1     -32.015   8.318   2.061  1.00 20.00    -0.400 OA
HETATM    9  H20 UNL     1     -31.289   8.913   2.304  1.00 20.00     0.209 HD
ENDBRANCH   7   8
ENDBRANCH   3   7
TORSDOF 3
ENDMDL
MODEL 3
REMARK VINA RESULT:      -4.2     11.445     12.094
REMARK  3 active torsions:
REMARK  status: ('A' for Active; 'I' for Inactive)
REMARK    1  A    between atoms: C4_4  and  C5_5 
REMARK    2  A    between atoms: C6_6  and  C7_7 
REMARK    3  A    between atoms: C7_7  and  O8_8 
ROOT
HETATM    1  C3  UNL     1     -33.359  15.633  -3.610  1.00 20.00     0.012 A 
HETATM    2  C5  UNL     1     -34.613  15.923  -2.829  1.00 20.00    -0.004 A 
HETATM    3  C6  UNL     1     -34.321  14.519  -3.291  1.00 20.00     0.014 A 
ENDROOT
BRANCH   2   4
HETATM    4  C4  UNL     1     -34.590  16.318  -1.361  1.00 20.00    -0.010 A 
HETATM    5  C1  UNL     1     -33.758  17.457  -0.840  1.00 20.00     0.005 A 
HETATM    6  C2  UNL     1     -35.258  17.563  -0.845  1.00 20.00     0.005 A 
ENDBRANCH   2   4
BRANCH   3   7
HETATM    7  C7  UNL     1     -35.135  13.899  -4.374  1.00 20.00     0.169 C 
BRANCH   7   8
HETATM    8  O8  UNL     1     -35.379  12.525  -4.073  1.00 20.00    -0.400 OA
HETATM    9  H20 UNL     1     -34.872  12.009  -4.720  1.00 20.00     0.209 HD
ENDBRANCH   7   8
ENDBRANCH   3   7
TORSDOF 3
ENDMDL
MODEL 4
REMARK VINA RESULT:      -4.2      1.610      2.345
REMARK  3 active torsions:
REMARK  status: ('A' for Active; 'I' for Inactive)
REMARK    1  A    between atoms: C4_4  and  C5_5 
REMARK    2  A    between atoms: C6_6  and  C7_7 
REMARK    3  A    between atoms: C7_7  and  O8_8 
ROOT
HETATM    1  C3  UNL     1     -32.205   5.807   3.012  1.00 20.00     0.012 A 
HETATM    2  C5  UNL     1     -32.814   7.147   2.696  1.00 20.00    -0.004 A 
HETATM    3  C6  UNL     1     -32.786   6.649   4.118  1.00 20.00     0.014 A 
ENDROOT
BRANCH   2   4
HETATM    4  C4  UNL     1     -31.984   8.334   2.233  1.00 20.00    -0.010 A 
HETATM    5  C1  UNL     1     -31.849   8.713   0.784  1.00 20.00     0.005 A 
HETATM    6  C2  UNL     1     -32.602   9.609   1.728  1.00 20.00     0.005 A 
ENDBRANCH   2   4
BRANCH   3   7
HETATM    7  C7  UNL     1     -34.046   6.232   4.794  1.00 20.00     0.169 C 
BRANCH   7   8
HETATM    8  O8  UNL     1     -33.975   6.539   6.186  1.00 20.00    -0.400 OA
HETATM    9  H20 UNL     1     -33.725   7.474   6.248  1.00 20.00     0.209 HD
ENDBRANCH   7   8
ENDBRANCH   3   7
TORSDOF 3
ENDMDL
MODEL 5
REMARK VINA RESULT:      -4.1      3.027      4.681
REMARK  3 active torsions:
REMARK  status: ('A' for Active; 'I' for Inactive)
REMARK    1  A    between atoms: C4_4  and  C5_5 
REMARK    2  A    between atoms: C6_6  and  C7_7 
REMARK    3  A    between atoms: C7_7  and  O8_8 
ROOT
HETATM    1  C3  UNL     1     -31.672   7.295   3.887  1.00 20.00     0.012 A 
HETATM    2  C5  UNL     1     -33.135   7.037   3.641  1.00 20.00    -0.004 A 
HETATM    3  C6  UNL     1     -32.221   7.349   2.485  1.00 20.00     0.014 A 
ENDROOT
BRANCH   2   4
HETATM    4  C4  UNL     1     -33.768   5.668   3.833  1.00 20.00    -0.010 A 
HETATM    5  C1  UNL     1     -34.542   5.298   5.068  1.00 20.00     0.005 A 
HETATM    6  C2  UNL     1     -35.253   5.441   3.751  1.00 20.00     0.005 A 
ENDBRANCH   2   4
BRANCH   3   7
HETATM    7  C7  UNL     1     -32.328   8.652   1.771  1.00 20.00     0.169 C 
BRANCH   7   8
HETATM    8  O8  UNL     1     -31.465   8.657   0.635  1.00 20.00    -0.400 OA
HETATM    9  H20 UNL     1     -31.221   7.732   0.472  1.00 20.00     0.209 HD
ENDBRANCH   7   8
ENDBRANCH   3   7
TORSDOF 3
ENDMDL
MODEL 6
REMARK VINA RESULT:      -3.9     11.963     12.444
REMARK  3 active torsions:
REMARK  status: ('A' for Active; 'I' for Inactive)
REMARK    1  A    between atoms: C4_4  and  C5_5 
REMARK    2  A    between atoms: C6_6  and  C7_7 
REMARK    3  A    between atoms: C7_7  and  O8_8 
ROOT
HETATM    1  C3  UNL     1     -35.498  15.443  -3.117  1.00 20.00     0.012 A 
HETATM    2  C5  UNL     1     -34.597  15.842  -1.979  1.00 20.00    -0.004 A 
HETATM    3  C6  UNL     1     -34.037  15.705  -3.371  1.00 20.00     0.014 A 
ENDROOT
BRANCH   2   4
HETATM    4  C4  UNL     1     -34.712  17.185  -1.276  1.00 20.00    -0.010 A 
HETATM    5  C1  UNL     1     -34.908  17.308   0.210  1.00 20.00     0.005 A 
HETATM    6  C2  UNL     1     -33.614  17.748  -0.416  1.00 20.00     0.005 A 
ENDBRANCH   2   4
BRANCH   3   7
HETATM    7  C7  UNL     1     -33.121  14.580  -3.707  1.00 20.00     0.169 C 
BRANCH   7   8
HETATM    8  O8  UNL     1     -31.829  15.087  -4.039  1.00 20.00    -0.400 OA
HETATM    9  H20 UNL     1     -31.256  14.897  -3.280  1.00 20.00     0.209 HD
ENDBRANCH   7   8
ENDBRANCH   3   7
TORSDOF 3
ENDMDL
MODEL 7
REMARK VINA RESULT:      -3.6     11.982     12.498
REMARK  3 active torsions:
REMARK  status: ('A' for Active; 'I' for Inactive)
REMARK    1  A    between atoms: C4_4  and  C5_5 
REMARK    2  A    between atoms: C6_6  and  C7_7 
REMARK    3  A    between atoms: C7_7  and  O8_8 
ROOT
HETATM    1  C3  UNL     1     -34.729  15.876  -4.203  1.00 20.00     0.012 A 
HETATM    2  C5  UNL     1     -35.293  16.353  -2.891  1.00 20.00    -0.004 A 
HETATM    3  C6  UNL     1     -35.879  15.141  -3.566  1.00 20.00     0.014 A 
ENDROOT
BRANCH   2   4
HETATM    4  C4  UNL     1     -34.518  16.264  -1.585  1.00 20.00    -0.010 A 
HETATM    5  C1  UNL     1     -33.632  17.373  -1.091  1.00 20.00     0.005 A 
HETATM    6  C2  UNL     1     -34.903  17.044  -0.359  1.00 20.00     0.005 A 
ENDBRANCH   2   4
BRANCH   3   7
HETATM    7  C7  UNL     1     -37.237  15.202  -4.176  1.00 20.00     0.169 C 
BRANCH   7   8
HETATM    8  O8  UNL     1     -38.051  14.152  -3.656  1.00 20.00    -0.400 OA
HETATM    9  H20 UNL     1     -38.303  13.600  -4.413  1.00 20.00     0.209 HD
ENDBRANCH   7   8
ENDBRANCH   3   7
TORSDOF 3
ENDMDL
MODEL 8
REMARK VINA RESULT:      -3.5     11.656     12.281
REMARK  3 active torsions:
REMARK  status: ('A' for Active; 'I' for Inactive)
REMARK    1  A    between atoms: C4_4  and  C5_5 
REMARK    2  A    between atoms: C6_6  and  C7_7 
REMARK    3  A    between atoms: C7_7  and  O8_8 
ROOT
HETATM    1  C3  UNL     1     -33.767  16.558  -3.124  1.00 20.00     0.012 A 
HETATM    2  C5  UNL     1     -34.438  15.241  -2.838  1.00 20.00    -0.004 A 
HETATM    3  C6  UNL     1     -34.897  16.489  -2.131  1.00 20.00     0.014 A 
ENDROOT
BRANCH   2   4
HETATM    4  C4  UNL     1     -35.300  14.521  -3.863  1.00 20.00    -0.010 A 
HETATM    5  C1  UNL     1     -34.931  14.440  -5.318  1.00 20.00     0.005 A 
HETATM    6  C2  UNL     1     -34.909  13.201  -4.468  1.00 20.00     0.005 A 
ENDBRANCH   2   4
BRANCH   3   7
HETATM    7  C7  UNL     1     -34.630  16.673  -0.677  1.00 20.00     0.169 C 
BRANCH   7   8
HETATM    8  O8  UNL     1     -35.685  17.426  -0.079  1.00 20.00    -0.400 OA
HETATM    9  H20 UNL     1     -36.441  16.824  -0.001  1.00 20.00     0.209 HD
ENDBRANCH   7   8
ENDBRANCH   3   7
TORSDOF 3
ENDMDL
MODEL 9
REMARK VINA RESULT:      -3.5     11.938     13.586
REMARK  3 active torsions:
REMARK  status: ('A' for Active; 'I' for Inactive)
REMARK    1  A    between atoms: C4_4  and  C5_5 
REMARK    2  A    between atoms: C6_6  and  C7_7 
REMARK    3  A    between atoms: C7_7  and  O8_8 
ROOT
HETATM    1  C3  UNL     1     -34.568  14.792  -6.454  1.00 20.00     0.012 A 
HETATM    2  C5  UNL     1     -34.615  15.972  -5.519  1.00 20.00    -0.004 A 
HETATM    3  C6  UNL     1     -34.407  14.584  -4.971  1.00 20.00     0.014 A 
ENDROOT
BRANCH   2   4
HETATM    4  C4  UNL     1     -33.527  17.033  -5.486  1.00 20.00    -0.010 A 
HETATM    5  C1  UNL     1     -33.665  18.359  -6.181  1.00 20.00     0.005 A 
HETATM    6  C2  UNL     1     -33.651  18.297  -4.679  1.00 20.00     0.005 A 
ENDBRANCH   2   4
BRANCH   3   7
HETATM    7  C7  UNL     1     -35.482  13.916  -4.186  1.00 20.00     0.169 C 
BRANCH   7   8
HETATM    8  O8  UNL     1     -35.305  12.500  -4.225  1.00 20.00    -0.400 OA
HETATM    9  H20 UNL     1     -34.356  12.347  -4.356  1.00 20.00     0.209 HD
ENDBRANCH   7   8
ENDBRANCH   3   7
TORSDOF 3
ENDMDL
