MODEL 1
REMARK VINA RESULT:      -4.7      0.000      0.000
REMARK  2 active torsions:
REMARK  status: ('A' for Active; 'I' for Inactive)
REMARK    1  A    between atoms: C2_2  and  C6_6 
REMARK    2  A    between atoms: C7_7  and  C10_10 
ROOT
HETATM    1  C1  UNL     1     -34.682  15.251  -2.947  1.00 20.00     0.022 A 
HETATM    2  C2  UNL     1     -34.428  16.653  -2.937  1.00 20.00    -0.040 A 
HETATM    3  C3  UNL     1     -34.402  14.683  -4.171  1.00 20.00    -0.020 A 
HETATM    4  C4  UNL     1     -33.962  17.104  -4.152  1.00 20.00    -0.014 A 
HETATM    5  C8  UNL     1     -34.534  13.269  -4.581  1.00 20.00     0.056 C 
HETATM    6  C9  UNL     1     -33.582  18.477  -4.551  1.00 20.00     0.057 C 
HETATM    7  S11 UNL     1     -33.834  15.838  -5.300  1.00 20.00    -0.100 SA
ENDROOT
BRANCH   2   8
HETATM    8  C6  UNL     1     -34.646  17.532  -1.727  1.00 20.00     0.025 A 
HETATM    9  C5  UNL     1     -34.653  16.930  -0.339  1.00 20.00     0.016 A 
HETATM   10  C7  UNL     1     -33.506  17.796  -0.767  1.00 20.00     0.004 A 
BRANCH  10  11
HETATM   11  C10 UNL     1     -33.325  19.149  -0.174  1.00 20.00     0.090 C 
HETATM   12 BR12 UNL     1     -31.762  19.180   0.994  1.00 20.00    -0.096 Br
ENDBRANCH  10  11
ENDBRANCH   2   8
TORSDOF 2
ENDMDL
MODEL 2
REMARK VINA RESULT:      -4.6      3.251      5.101
REMARK  2 active torsions:
REMARK  status: ('A' for Active; 'I' for Inactive)
REMARK    1  A    between atoms: C2_2  and  C6_6 
REMARK    2  A    between atoms: C7_7  and  C10_10 
ROOT
HETATM    1  C1  UNL     1     -34.472  15.900  -1.922  1.00 20.00     0.022 A 
HETATM    2  C2  UNL     1     -34.130  16.041  -3.298  1.00 20.00    -0.040 A 
HETATM    3  C3  UNL     1     -34.465  17.108  -1.260  1.00 20.00    -0.020 A 
HETATM    4  C4  UNL     1     -33.876  17.351  -3.637  1.00 20.00    -0.014 A 
HETATM    5  C8  UNL     1     -34.761  17.379   0.163  1.00 20.00     0.056 C 
HETATM    6  C9  UNL     1     -33.494  17.915  -4.950  1.00 20.00     0.057 C 
HETATM    7  S11 UNL     1     -34.049  18.406  -2.297  1.00 20.00    -0.100 SA
ENDROOT
BRANCH   2   8
HETATM    8  C6  UNL     1     -34.059  14.881  -4.264  1.00 20.00     0.025 A 
HETATM    9  C5  UNL     1     -34.865  13.626  -4.008  1.00 20.00     0.016 A 
HETATM   10  C7  UNL     1     -35.254  14.543  -5.130  1.00 20.00     0.004 A 
BRANCH  10  11
HETATM   11  C10 UNL     1     -35.058  14.122  -6.545  1.00 20.00     0.090 C 
HETATM   12 BR12 UNL     1     -35.159  15.665  -7.736  1.00 20.00    -0.096 Br
ENDBRANCH  10  11
ENDBRANCH   2   8
TORSDOF 2
ENDMDL
MODEL 3
REMARK VINA RESULT:      -4.4      3.196      4.844
REMARK  2 active torsions:
REMARK  status: ('A' for Active; 'I' for Inactive)
REMARK    1  A    between atoms: C2_2  and  C6_6 
REMARK    2  A    between atoms: C7_7  and  C10_10 
ROOT
HETATM    1  C1  UNL     1     -34.588  16.583  -0.766  1.00 20.00     0.022 A 
HETATM    2  C2  UNL     1     -34.058  17.031  -2.010  1.00 20.00    -0.040 A 
HETATM    3  C3  UNL     1     -34.871  17.629   0.084  1.00 20.00    -0.020 A 
HETATM    4  C4  UNL     1     -33.956  18.404  -2.065  1.00 20.00    -0.014 A 
HETATM    5  C8  UNL     1     -35.427  17.579   1.453  1.00 20.00     0.056 C 
HETATM    6  C9  UNL     1     -33.461  19.256  -3.169  1.00 20.00     0.057 C 
HETATM    7  S11 UNL     1     -34.498  19.146  -0.619  1.00 20.00    -0.100 SA
ENDROOT
BRANCH   2   8
HETATM    8  C6  UNL     1     -33.658  16.101  -3.131  1.00 20.00     0.025 A 
HETATM    9  C5  UNL     1     -34.360  14.771  -3.305  1.00 20.00     0.016 A 
HETATM   10  C7  UNL     1     -34.598  15.871  -4.296  1.00 20.00     0.004 A 
BRANCH  10  11
HETATM   11  C10 UNL     1     -34.060  15.763  -5.681  1.00 20.00     0.090 C 
HETATM   12 BR12 UNL     1     -34.563  17.328  -6.733  1.00 20.00    -0.096 Br
ENDBRANCH  10  11
ENDBRANCH   2   8
TORSDOF 2
ENDMDL
MODEL 4
REMARK VINA RESULT:      -4.3      1.602      1.905
REMARK  2 active torsions:
REMARK  status: ('A' for Active; 'I' for Inactive)
REMARK    1  A    between atoms: C2_2  and  C6_6 
REMARK    2  A    between atoms: C7_7  and  C10_10 
ROOT
HETATM    1  C1  UNL     1     -34.494  15.258  -2.840  1.00 20.00     0.022 A 
HETATM    2  C2  UNL     1     -35.402  16.303  -2.506  1.00 20.00    -0.040 A 
HETATM    3  C3  UNL     1     -35.026  14.383  -3.762  1.00 20.00    -0.020 A 
HETATM    4  C4  UNL     1     -36.594  16.190  -3.186  1.00 20.00    -0.014 A 
HETATM    5  C8  UNL     1     -34.405  13.180  -4.355  1.00 20.00     0.056 C 
HETATM    6  C9  UNL     1     -37.787  17.064  -3.125  1.00 20.00     0.057 C 
HETATM    7  S11 UNL     1     -36.616  14.825  -4.222  1.00 20.00    -0.100 SA
ENDROOT
BRANCH   2   8
HETATM    8  C6  UNL     1     -35.083  17.404  -1.521  1.00 20.00     0.025 A 
HETATM    9  C5  UNL     1     -34.659  17.062  -0.109  1.00 20.00     0.016 A 
HETATM   10  C7  UNL     1     -33.655  17.626  -1.071  1.00 20.00     0.004 A 
BRANCH  10  11
HETATM   11  C10 UNL     1     -33.135  19.009  -0.887  1.00 20.00     0.090 C 
HETATM   12 BR12 UNL     1     -31.880  19.074   0.607  1.00 20.00    -0.096 Br
ENDBRANCH  10  11
ENDBRANCH   2   8
TORSDOF 2
ENDMDL
MODEL 5
REMARK VINA RESULT:      -4.3      4.068      6.598
REMARK  2 active torsions:
REMARK  status: ('A' for Active; 'I' for Inactive)
REMARK    1  A    between atoms: C2_2  and  C6_6 
REMARK    2  A    between atoms: C7_7  and  C10_10 
ROOT
HETATM    1  C1  UNL     1     -32.168  18.971   1.755  1.00 20.00     0.022 A 
HETATM    2  C2  UNL     1     -33.514  18.582   1.495  1.00 20.00    -0.040 A 
HETATM    3  C3  UNL     1     -31.868  18.929   3.098  1.00 20.00    -0.020 A 
HETATM    4  C4  UNL     1     -34.192  18.257   2.649  1.00 20.00    -0.014 A 
HETATM    5  C8  UNL     1     -30.590  19.258   3.766  1.00 20.00     0.056 C 
HETATM    6  C9  UNL     1     -35.592  17.808   2.810  1.00 20.00     0.057 C 
HETATM    7  S11 UNL     1     -33.205  18.423   4.040  1.00 20.00    -0.100 SA
ENDROOT
BRANCH   2   8
HETATM    8  C6  UNL     1     -34.117  18.535   0.110  1.00 20.00     0.025 A 
HETATM    9  C5  UNL     1     -33.222  18.535  -1.111  1.00 20.00     0.016 A 
HETATM   10  C7  UNL     1     -33.969  17.289  -0.737  1.00 20.00     0.004 A 
BRANCH  10  11
HETATM   11  C10 UNL     1     -35.105  16.816  -1.576  1.00 20.00     0.090 C 
HETATM   12 BR12 UNL     1     -34.490  15.499  -2.879  1.00 20.00    -0.096 Br
ENDBRANCH  10  11
ENDBRANCH   2   8
TORSDOF 2
ENDMDL
MODEL 6
REMARK VINA RESULT:      -4.3      3.497      5.454
REMARK  2 active torsions:
REMARK  status: ('A' for Active; 'I' for Inactive)
REMARK    1  A    between atoms: C2_2  and  C6_6 
REMARK    2  A    between atoms: C7_7  and  C10_10 
ROOT
HETATM    1  C1  UNL     1     -35.187  17.432   0.837  1.00 20.00     0.022 A 
HETATM    2  C2  UNL     1     -34.022  17.748   0.079  1.00 20.00    -0.040 A 
HETATM    3  C3  UNL     1     -35.237  18.128   2.024  1.00 20.00    -0.020 A 
HETATM    4  C4  UNL     1     -33.226  18.674   0.716  1.00 20.00    -0.014 A 
HETATM    5  C8  UNL     1     -36.273  18.077   3.077  1.00 20.00     0.056 C 
HETATM    6  C9  UNL     1     -31.943  19.263   0.270  1.00 20.00     0.057 C 
HETATM    7  S11 UNL     1     -33.884  19.158   2.223  1.00 20.00    -0.100 SA
ENDROOT
BRANCH   2   8
HETATM    8  C6  UNL     1     -33.707  17.133  -1.265  1.00 20.00     0.025 A 
HETATM    9  C5  UNL     1     -34.692  16.190  -1.920  1.00 20.00     0.016 A 
HETATM   10  C7  UNL     1     -34.483  17.560  -2.492  1.00 20.00     0.004 A 
BRANCH  10  11
HETATM   11  C10 UNL     1     -33.785  17.730  -3.797  1.00 20.00     0.090 C 
HETATM   12 BR12 UNL     1     -33.723  16.036  -4.764  1.00 20.00    -0.096 Br
ENDBRANCH  10  11
ENDBRANCH   2   8
TORSDOF 2
ENDMDL
MODEL 7
REMARK VINA RESULT:      -4.3      2.102      2.685
REMARK  2 active torsions:
REMARK  status: ('A' for Active; 'I' for Inactive)
REMARK    1  A    between atoms: C2_2  and  C6_6 
REMARK    2  A    between atoms: C7_7  and  C10_10 
ROOT
HETATM    1  C1  UNL     1     -36.158  15.852  -2.906  1.00 20.00     0.022 A 
HETATM    2  C2  UNL     1     -34.751  15.683  -2.757  1.00 20.00    -0.040 A 
HETATM    3  C3  UNL     1     -36.713  14.885  -3.715  1.00 20.00    -0.020 A 
HETATM    4  C4  UNL     1     -34.283  14.593  -3.457  1.00 20.00    -0.014 A 
HETATM    5  C8  UNL     1     -38.127  14.717  -4.112  1.00 20.00     0.056 C 
HETATM    6  C9  UNL     1     -32.900  14.078  -3.562  1.00 20.00     0.057 C 
HETATM    7  S11 UNL     1     -35.539  13.779  -4.291  1.00 20.00    -0.100 SA
ENDROOT
BRANCH   2   8
HETATM    8  C6  UNL     1     -33.884  16.598  -1.925  1.00 20.00     0.025 A 
HETATM    9  C5  UNL     1     -33.717  18.051  -2.314  1.00 20.00     0.016 A 
HETATM   10  C7  UNL     1     -34.518  17.695  -1.097  1.00 20.00     0.004 A 
BRANCH  10  11
HETATM   11  C10 UNL     1     -33.994  18.004   0.263  1.00 20.00     0.090 C 
HETATM   12 BR12 UNL     1     -35.368  17.688   1.612  1.00 20.00    -0.096 Br
ENDBRANCH  10  11
ENDBRANCH   2   8
TORSDOF 2
ENDMDL
MODEL 8
REMARK VINA RESULT:      -4.1      3.619      5.390
REMARK  2 active torsions:
REMARK  status: ('A' for Active; 'I' for Inactive)
REMARK    1  A    between atoms: C2_2  and  C6_6 
REMARK    2  A    between atoms: C7_7  and  C10_10 
ROOT
HETATM    1  C1  UNL     1     -34.802  17.158  -0.018  1.00 20.00     0.022 A 
HETATM    2  C2  UNL     1     -35.425  17.448  -1.266  1.00 20.00    -0.040 A 
HETATM    3  C3  UNL     1     -35.455  17.753   1.039  1.00 20.00    -0.020 A 
HETATM    4  C4  UNL     1     -36.532  18.253  -1.117  1.00 20.00    -0.014 A 
HETATM    5  C8  UNL     1     -35.123  17.695   2.478  1.00 20.00     0.056 C 
HETATM    6  C9  UNL     1     -37.449  18.776  -2.154  1.00 20.00     0.057 C 
HETATM    7  S11 UNL     1     -36.816  18.657   0.524  1.00 20.00    -0.100 SA
ENDROOT
BRANCH   2   8
HETATM    8  C6  UNL     1     -34.922  16.927  -2.592  1.00 20.00     0.025 A 
HETATM    9  C5  UNL     1     -33.742  15.980  -2.640  1.00 20.00     0.016 A 
HETATM   10  C7  UNL     1     -35.117  15.470  -2.955  1.00 20.00     0.004 A 
BRANCH  10  11
HETATM   11  C10 UNL     1     -35.474  15.088  -4.350  1.00 20.00     0.090 C 
HETATM   12 BR12 UNL     1     -34.722  13.342  -4.793  1.00 20.00    -0.096 Br
ENDBRANCH  10  11
ENDBRANCH   2   8
TORSDOF 2
ENDMDL
MODEL 9
REMARK VINA RESULT:      -4.0      3.428      5.373
REMARK  2 active torsions:
REMARK  status: ('A' for Active; 'I' for Inactive)
REMARK    1  A    between atoms: C2_2  and  C6_6 
REMARK    2  A    between atoms: C7_7  and  C10_10 
ROOT
HETATM    1  C1  UNL     1     -33.391  17.792  -0.678  1.00 20.00     0.022 A 
HETATM    2  C2  UNL     1     -34.572  17.626  -1.457  1.00 20.00    -0.040 A 
HETATM    3  C3  UNL     1     -33.612  18.565   0.441  1.00 20.00    -0.020 A 
HETATM    4  C4  UNL     1     -35.653  18.278  -0.905  1.00 20.00    -0.014 A 
HETATM    5  C8  UNL     1     -32.649  18.964   1.489  1.00 20.00     0.056 C 
HETATM    6  C9  UNL     1     -37.046  18.352  -1.397  1.00 20.00     0.057 C 
HETATM    7  S11 UNL     1     -35.240  19.087   0.549  1.00 20.00    -0.100 SA
ENDROOT
BRANCH   2   8
HETATM    8  C6  UNL     1     -34.623  16.826  -2.738  1.00 20.00     0.025 A 
HETATM    9  C5  UNL     1     -33.523  15.839  -3.063  1.00 20.00     0.016 A 
HETATM   10  C7  UNL     1     -34.885  15.336  -2.689  1.00 20.00     0.004 A 
BRANCH  10  11
HETATM   11  C10 UNL     1     -35.756  14.696  -3.714  1.00 20.00     0.090 C 
HETATM   12 BR12 UNL     1     -34.745  13.382  -4.744  1.00 20.00    -0.096 Br
ENDBRANCH  10  11
ENDBRANCH   2   8
TORSDOF 2
ENDMDL
