MODEL 1
REMARK VINA RESULT:      -5.2      0.000      0.000
REMARK  2 active torsions:
REMARK  status: ('A' for Active; 'I' for Inactive)
REMARK    1  A    between atoms: C1_1  and  C11_11 
REMARK    2  A    between atoms: C5_5  and  C11_11 
ROOT
HETATM    1  C2  UNL     1     -35.012  15.399  -2.523  1.00 20.00     0.006 C 
HETATM    2  C3  UNL     1     -34.521  16.310  -1.398  1.00 20.00     0.009 C 
HETATM    3  C4  UNL     1     -34.077  18.224  -3.012  1.00 20.00     0.013 C 
HETATM    4  C5  UNL     1     -34.807  15.972  -3.939  1.00 20.00    -0.001 C 
HETATM    5  C6  UNL     1     -33.704  17.049  -3.946  1.00 20.00    -0.013 C 
HETATM    6  C7  UNL     1     -34.740  17.808  -1.672  1.00 20.00    -0.047 C 
HETATM    7  C8  UNL     1     -33.398  17.594  -5.345  1.00 20.00     0.010 C 
HETATM    8  C9  UNL     1     -36.249  18.128  -1.704  1.00 20.00     0.015 C 
HETATM    9  C10 UNL     1     -34.117  18.622  -0.521  1.00 20.00     0.015 C 
ENDROOT
BRANCH   4  10
HETATM   10  C11 UNL     1     -34.551  14.827  -4.923  1.00 20.00     0.118 C 
BRANCH  10  11
HETATM   11  C1  UNL     1     -34.213  13.489  -4.274  1.00 20.00     0.172 C 
HETATM   12  O12 UNL     1     -33.068  13.373  -3.760  1.00 20.00    -0.648 OA
HETATM   13  O13 UNL     1     -35.154  12.645  -4.338  1.00 20.00    -0.648 OA
ENDBRANCH  10  11
ENDBRANCH   4  10
TORSDOF 2
ENDMDL
MODEL 2
REMARK VINA RESULT:      -5.2      1.545      2.028
REMARK  2 active torsions:
REMARK  status: ('A' for Active; 'I' for Inactive)
REMARK    1  A    between atoms: C1_1  and  C11_11 
REMARK    2  A    between atoms: C5_5  and  C11_11 
ROOT
HETATM    1  C2  UNL     1     -34.313  15.111  -2.840  1.00 20.00     0.006 C 
HETATM    2  C3  UNL     1     -33.533  16.388  -2.521  1.00 20.00     0.009 C 
HETATM    3  C4  UNL     1     -35.645  17.804  -2.571  1.00 20.00     0.013 C 
HETATM    4  C5  UNL     1     -35.793  15.346  -3.202  1.00 20.00    -0.001 C 
HETATM    5  C6  UNL     1     -36.023  16.793  -3.678  1.00 20.00    -0.013 C 
HETATM    6  C7  UNL     1     -34.361  17.449  -1.775  1.00 20.00    -0.047 C 
HETATM    7  C8  UNL     1     -37.462  17.059  -4.134  1.00 20.00     0.010 C 
HETATM    8  C9  UNL     1     -34.732  16.943  -0.366  1.00 20.00     0.015 C 
HETATM    9  C10 UNL     1     -33.503  18.718  -1.601  1.00 20.00     0.015 C 
ENDROOT
BRANCH   4  10
HETATM   10  C11 UNL     1     -36.245  14.289  -4.213  1.00 20.00     0.118 C 
BRANCH  10  11
HETATM   11  C1  UNL     1     -35.136  13.735  -5.101  1.00 20.00     0.172 C 
HETATM   12  O12 UNL     1     -34.717  14.480  -6.028  1.00 20.00    -0.648 OA
HETATM   13  O13 UNL     1     -34.770  12.567  -4.783  1.00 20.00    -0.648 OA
ENDBRANCH  10  11
ENDBRANCH   4  10
TORSDOF 2
ENDMDL
MODEL 3
REMARK VINA RESULT:      -5.0      0.891      1.057
REMARK  2 active torsions:
REMARK  status: ('A' for Active; 'I' for Inactive)
REMARK    1  A    between atoms: C1_1  and  C11_11 
REMARK    2  A    between atoms: C5_5  and  C11_11 
ROOT
HETATM    1  C2  UNL     1     -34.976  15.682  -2.405  1.00 20.00     0.006 C 
HETATM    2  C3  UNL     1     -34.143  16.501  -1.418  1.00 20.00     0.009 C 
HETATM    3  C4  UNL     1     -33.721  18.325  -3.139  1.00 20.00     0.013 C 
HETATM    4  C5  UNL     1     -34.956  16.220  -3.850  1.00 20.00    -0.001 C 
HETATM    5  C6  UNL     1     -33.721  17.109  -4.093  1.00 20.00    -0.013 C 
HETATM    6  C7  UNL     1     -34.174  18.016  -1.688  1.00 20.00    -0.047 C 
HETATM    7  C8  UNL     1     -33.606  17.602  -5.539  1.00 20.00     0.010 C 
HETATM    8  C9  UNL     1     -35.593  18.571  -1.444  1.00 20.00     0.015 C 
HETATM    9  C10 UNL     1     -33.224  18.718  -0.697  1.00 20.00     0.015 C 
ENDROOT
BRANCH   4  10
HETATM   10  C11 UNL     1     -35.074  15.051  -4.832  1.00 20.00     0.118 C 
BRANCH  10  11
HETATM   11  C1  UNL     1     -35.721  13.795  -4.258  1.00 20.00     0.172 C 
HETATM   12  O12 UNL     1     -34.997  12.767  -4.166  1.00 20.00    -0.648 OA
HETATM   13  O13 UNL     1     -36.935  13.953  -3.939  1.00 20.00    -0.648 OA
ENDBRANCH  10  11
ENDBRANCH   4  10
TORSDOF 2
ENDMDL
MODEL 4
REMARK VINA RESULT:      -5.0      3.181      4.769
REMARK  2 active torsions:
REMARK  status: ('A' for Active; 'I' for Inactive)
REMARK    1  A    between atoms: C1_1  and  C11_11 
REMARK    2  A    between atoms: C5_5  and  C11_11 
ROOT
HETATM    1  C2  UNL     1     -34.445  16.514  -1.472  1.00 20.00     0.006 C 
HETATM    2  C3  UNL     1     -35.057  15.627  -2.557  1.00 20.00     0.009 C 
HETATM    3  C4  UNL     1     -33.779  16.830  -4.397  1.00 20.00     0.013 C 
HETATM    4  C5  UNL     1     -33.619  17.698  -2.013  1.00 20.00    -0.001 C 
HETATM    5  C6  UNL     1     -34.020  18.038  -3.462  1.00 20.00    -0.013 C 
HETATM    6  C7  UNL     1     -34.159  15.452  -3.795  1.00 20.00    -0.047 C 
HETATM    7  C8  UNL     1     -33.290  19.263  -4.021  1.00 20.00     0.010 C 
HETATM    8  C9  UNL     1     -32.886  14.665  -3.422  1.00 20.00     0.015 C 
HETATM    9  C10 UNL     1     -34.922  14.628  -4.851  1.00 20.00     0.015 C 
ENDROOT
BRANCH   4  10
HETATM   10  C11 UNL     1     -33.734  18.883  -1.051  1.00 20.00     0.118 C 
BRANCH  10  11
HETATM   11  C1  UNL     1     -32.713  18.890   0.082  1.00 20.00     0.172 C 
HETATM   12  O12 UNL     1     -31.542  19.263  -0.202  1.00 20.00    -0.648 OA
HETATM   13  O13 UNL     1     -33.187  18.510   1.191  1.00 20.00    -0.648 OA
ENDBRANCH  10  11
ENDBRANCH   4  10
TORSDOF 2
ENDMDL
MODEL 5
REMARK VINA RESULT:      -4.8      2.681      4.745
REMARK  2 active torsions:
REMARK  status: ('A' for Active; 'I' for Inactive)
REMARK    1  A    between atoms: C1_1  and  C11_11 
REMARK    2  A    between atoms: C5_5  and  C11_11 
ROOT
HETATM    1  C2  UNL     1     -33.612  15.175  -3.075  1.00 20.00     0.006 C 
HETATM    2  C3  UNL     1     -34.026  14.364  -4.303  1.00 20.00     0.009 C 
HETATM    3  C4  UNL     1     -35.948  15.948  -4.819  1.00 20.00     0.013 C 
HETATM    4  C5  UNL     1     -34.598  16.298  -2.694  1.00 20.00    -0.001 C 
HETATM    5  C6  UNL     1     -35.999  16.025  -3.276  1.00 20.00    -0.013 C 
HETATM    6  C7  UNL     1     -34.716  15.201  -5.395  1.00 20.00    -0.047 C 
HETATM    7  C8  UNL     1     -37.041  17.067  -2.857  1.00 20.00     0.010 C 
HETATM    8  C9  UNL     1     -33.719  16.210  -6.002  1.00 20.00     0.015 C 
HETATM    9  C10 UNL     1     -35.174  14.262  -6.528  1.00 20.00     0.015 C 
ENDROOT
BRANCH   4  10
HETATM   10  C11 UNL     1     -34.591  16.491  -1.176  1.00 20.00     0.118 C 
BRANCH  10  11
HETATM   11  C1  UNL     1     -33.887  17.755  -0.693  1.00 20.00     0.172 C 
HETATM   12  O12 UNL     1     -33.886  17.974   0.548  1.00 20.00    -0.648 OA
HETATM   13  O13 UNL     1     -33.381  18.439  -1.630  1.00 20.00    -0.648 OA
ENDBRANCH  10  11
ENDBRANCH   4  10
TORSDOF 2
ENDMDL
MODEL 6
REMARK VINA RESULT:      -4.8      1.999      2.865
REMARK  2 active torsions:
REMARK  status: ('A' for Active; 'I' for Inactive)
REMARK    1  A    between atoms: C1_1  and  C11_11 
REMARK    2  A    between atoms: C5_5  and  C11_11 
ROOT
HETATM    1  C2  UNL     1     -36.263  16.741  -3.988  1.00 20.00     0.006 C 
HETATM    2  C3  UNL     1     -36.135  16.980  -2.483  1.00 20.00     0.009 C 
HETATM    3  C4  UNL     1     -34.059  15.520  -2.329  1.00 20.00     0.013 C 
HETATM    4  C5  UNL     1     -35.296  15.677  -4.545  1.00 20.00    -0.001 C 
HETATM    5  C6  UNL     1     -34.809  14.733  -3.428  1.00 20.00    -0.013 C 
HETATM    6  C7  UNL     1     -34.691  16.889  -1.961  1.00 20.00    -0.047 C 
HETATM    7  C8  UNL     1     -33.911  13.602  -3.941  1.00 20.00     0.010 C 
HETATM    8  C9  UNL     1     -33.842  18.039  -2.538  1.00 20.00     0.015 C 
HETATM    9  C10 UNL     1     -34.704  17.046  -0.427  1.00 20.00     0.015 C 
ENDROOT
BRANCH   4  10
HETATM   10  C11 UNL     1     -35.957  14.949  -5.718  1.00 20.00     0.118 C 
BRANCH  10  11
HETATM   11  C1  UNL     1     -35.109  14.873  -6.984  1.00 20.00     0.172 C 
HETATM   12  O12 UNL     1     -35.536  14.141  -7.918  1.00 20.00    -0.648 OA
HETATM   13  O13 UNL     1     -34.058  15.575  -6.931  1.00 20.00    -0.648 OA
ENDBRANCH  10  11
ENDBRANCH   4  10
TORSDOF 2
ENDMDL
MODEL 7
REMARK VINA RESULT:      -4.6      2.275      3.182
REMARK  2 active torsions:
REMARK  status: ('A' for Active; 'I' for Inactive)
REMARK    1  A    between atoms: C1_1  and  C11_11 
REMARK    2  A    between atoms: C5_5  and  C11_11 
ROOT
HETATM    1  C2  UNL     1     -36.531  17.071  -3.660  1.00 20.00     0.006 C 
HETATM    2  C3  UNL     1     -36.069  17.366  -2.233  1.00 20.00     0.009 C 
HETATM    3  C4  UNL     1     -34.160  15.694  -2.403  1.00 20.00     0.013 C 
HETATM    4  C5  UNL     1     -35.811  15.882  -4.327  1.00 20.00    -0.001 C 
HETATM    5  C6  UNL     1     -35.197  14.943  -3.270  1.00 20.00    -0.013 C 
HETATM    6  C7  UNL     1     -34.563  17.140  -2.009  1.00 20.00    -0.047 C 
HETATM    7  C8  UNL     1     -34.542  13.697  -3.874  1.00 20.00     0.010 C 
HETATM    8  C9  UNL     1     -33.744  18.161  -2.826  1.00 20.00     0.015 C 
HETATM    9  C10 UNL     1     -34.240  17.371  -0.520  1.00 20.00     0.015 C 
ENDROOT
BRANCH   4  10
HETATM   10  C11 UNL     1     -36.772  15.177  -5.289  1.00 20.00     0.118 C 
BRANCH  10  11
HETATM   11  C1  UNL     1     -38.190  14.996  -4.759  1.00 20.00     0.172 C 
HETATM   12  O12 UNL     1     -38.348  14.191  -3.802  1.00 20.00    -0.648 OA
HETATM   13  O13 UNL     1     -39.050  15.698  -5.367  1.00 20.00    -0.648 OA
ENDBRANCH  10  11
ENDBRANCH   4  10
TORSDOF 2
ENDMDL
MODEL 8
REMARK VINA RESULT:      -4.6      2.529      4.815
REMARK  2 active torsions:
REMARK  status: ('A' for Active; 'I' for Inactive)
REMARK    1  A    between atoms: C1_1  and  C11_11 
REMARK    2  A    between atoms: C5_5  and  C11_11 
ROOT
HETATM    1  C2  UNL     1     -34.729  16.903  -4.859  1.00 20.00     0.006 C 
HETATM    2  C3  UNL     1     -35.010  16.475  -6.300  1.00 20.00     0.009 C 
HETATM    3  C4  UNL     1     -35.029  14.012  -5.666  1.00 20.00     0.013 C 
HETATM    4  C5  UNL     1     -34.421  15.737  -3.900  1.00 20.00    -0.001 C 
HETATM    5  C6  UNL     1     -33.944  14.493  -4.675  1.00 20.00    -0.013 C 
HETATM    6  C7  UNL     1     -35.778  15.147  -6.414  1.00 20.00    -0.047 C 
HETATM    7  C8  UNL     1     -33.541  13.329  -3.764  1.00 20.00     0.010 C 
HETATM    8  C9  UNL     1     -37.204  15.306  -5.846  1.00 20.00     0.015 C 
HETATM    9  C10 UNL     1     -35.911  14.773  -7.903  1.00 20.00     0.015 C 
ENDROOT
BRANCH   4  10
HETATM   10  C11 UNL     1     -33.435  16.205  -2.826  1.00 20.00     0.118 C 
BRANCH  10  11
HETATM   11  C1  UNL     1     -34.065  16.979  -1.672  1.00 20.00     0.172 C 
HETATM   12  O12 UNL     1     -34.758  16.321  -0.849  1.00 20.00    -0.648 OA
HETATM   13  O13 UNL     1     -33.803  18.216  -1.692  1.00 20.00    -0.648 OA
ENDBRANCH  10  11
ENDBRANCH   4  10
TORSDOF 2
ENDMDL
MODEL 9
REMARK VINA RESULT:      -4.6      2.002      3.173
REMARK  2 active torsions:
REMARK  status: ('A' for Active; 'I' for Inactive)
REMARK    1  A    between atoms: C1_1  and  C11_11 
REMARK    2  A    between atoms: C5_5  and  C11_11 
ROOT
HETATM    1  C2  UNL     1     -35.116  18.732  -2.793  1.00 20.00     0.006 C 
HETATM    2  C3  UNL     1     -35.481  18.686  -1.308  1.00 20.00     0.009 C 
HETATM    3  C4  UNL     1     -34.622  16.304  -1.073  1.00 20.00     0.013 C 
HETATM    4  C5  UNL     1     -34.660  17.380  -3.376  1.00 20.00    -0.001 C 
HETATM    5  C6  UNL     1     -35.168  16.206  -2.516  1.00 20.00    -0.013 C 
HETATM    6  C7  UNL     1     -34.595  17.738  -0.481  1.00 20.00    -0.047 C 
HETATM    7  C8  UNL     1     -34.816  14.833  -3.098  1.00 20.00     0.010 C 
HETATM    8  C9  UNL     1     -33.147  18.267  -0.436  1.00 20.00     0.015 C 
HETATM    9  C10 UNL     1     -35.122  17.701   0.967  1.00 20.00     0.015 C 
ENDROOT
BRANCH   4  10
HETATM   10  C11 UNL     1     -35.078  17.290  -4.846  1.00 20.00     0.118 C 
BRANCH  10  11
HETATM   11  C1  UNL     1     -33.962  16.895  -5.807  1.00 20.00     0.172 C 
HETATM   12  O12 UNL     1     -34.249  16.849  -7.034  1.00 20.00    -0.648 OA
HETATM   13  O13 UNL     1     -32.861  16.658  -5.231  1.00 20.00    -0.648 OA
ENDBRANCH  10  11
ENDBRANCH   4  10
TORSDOF 2
ENDMDL
