MODEL 1
REMARK VINA RESULT:      -3.9      0.000      0.000
REMARK  4 active torsions:
REMARK  status: ('A' for Active; 'I' for Inactive)
REMARK    1  A    between atoms: C2_2  and  C6_6 
REMARK    2  A    between atoms: C3_3  and  C7_7 
REMARK    3  A    between atoms: C3_3  and  C8_8 
REMARK    4  A    between atoms: C8_8  and  O9_9 
ROOT
HETATM    1  C1  UNL     1     -34.981  13.201  -4.282  1.00 20.00     0.018 A 
HETATM    2  C2  UNL     1     -34.510  14.230  -5.269  1.00 20.00     0.011 A 
HETATM    3  C3  UNL     1     -35.095  14.676  -3.937  1.00 20.00    -0.014 A 
ENDROOT
BRANCH   3   4
HETATM    4  C7  UNL     1     -34.137  15.237  -2.919  1.00 20.00     0.007 C 
HETATM    5  C4  UNL     1     -34.825  16.095  -1.896  1.00 20.00     0.006 C 
ENDBRANCH   3   4
BRANCH   3   6
HETATM    6  C8  UNL     1     -36.471  15.285  -3.883  1.00 20.00     0.176 C 
BRANCH   6   7
HETATM    7  O9  UNL     1     -37.434  14.260  -3.674  1.00 20.00    -0.395 OA
HETATM    8  C5  UNL     1     -38.733  14.678  -4.069  1.00 20.00     0.201 C 
ENDBRANCH   6   7
ENDBRANCH   3   6
BRANCH   2   9
HETATM    9  C6  UNL     1     -35.225  14.413  -6.564  1.00 20.00     0.120 C 
HETATM   10 CL10 UNL     1     -34.617  15.844  -7.442  1.00 20.00    -0.130 Cl
ENDBRANCH   2   9
TORSDOF 4
ENDMDL
MODEL 2
REMARK VINA RESULT:      -3.9      2.482      3.540
REMARK  4 active torsions:
REMARK  status: ('A' for Active; 'I' for Inactive)
REMARK    1  A    between atoms: C2_2  and  C6_6 
REMARK    2  A    between atoms: C3_3  and  C7_7 
REMARK    3  A    between atoms: C3_3  and  C8_8 
REMARK    4  A    between atoms: C8_8  and  O9_9 
ROOT
HETATM    1  C1  UNL     1     -33.505  16.039  -4.229  1.00 20.00     0.018 A 
HETATM    2  C2  UNL     1     -33.634  15.971  -2.735  1.00 20.00     0.011 A 
HETATM    3  C3  UNL     1     -34.637  15.235  -3.613  1.00 20.00    -0.014 A 
ENDROOT
BRANCH   3   4
HETATM    4  C7  UNL     1     -34.539  13.732  -3.657  1.00 20.00     0.007 C 
HETATM    5  C4  UNL     1     -34.577  13.197  -5.059  1.00 20.00     0.006 C 
ENDBRANCH   3   4
BRANCH   3   6
HETATM    6  C8  UNL     1     -36.040  15.761  -3.760  1.00 20.00     0.176 C 
BRANCH   6   7
HETATM    7  O9  UNL     1     -36.958  14.810  -3.236  1.00 20.00    -0.395 OA
HETATM    8  C5  UNL     1     -38.169  14.790  -3.980  1.00 20.00     0.201 C 
ENDBRANCH   6   7
ENDBRANCH   3   6
BRANCH   2   9
HETATM    9  C6  UNL     1     -33.991  17.189  -1.954  1.00 20.00     0.120 C 
HETATM   10 CL10 UNL     1     -34.701  16.760  -0.374  1.00 20.00    -0.130 Cl
ENDBRANCH   2   9
TORSDOF 4
ENDMDL
MODEL 3
REMARK VINA RESULT:      -3.8      1.682      1.848
REMARK  4 active torsions:
REMARK  status: ('A' for Active; 'I' for Inactive)
REMARK    1  A    between atoms: C2_2  and  C6_6 
REMARK    2  A    between atoms: C3_3  and  C7_7 
REMARK    3  A    between atoms: C3_3  and  C8_8 
REMARK    4  A    between atoms: C8_8  and  O9_9 
ROOT
HETATM    1  C1  UNL     1     -33.469  14.882  -3.644  1.00 20.00     0.018 A 
HETATM    2  C2  UNL     1     -33.315  16.179  -4.384  1.00 20.00     0.011 A 
HETATM    3  C3  UNL     1     -34.204  16.117  -3.151  1.00 20.00    -0.014 A 
ENDROOT
BRANCH   3   4
HETATM    4  C7  UNL     1     -33.694  16.787  -1.901  1.00 20.00     0.007 C 
HETATM    5  C4  UNL     1     -34.647  16.653  -0.749  1.00 20.00     0.006 C 
ENDBRANCH   3   4
BRANCH   3   6
HETATM    6  C8  UNL     1     -35.702  16.155  -3.297  1.00 20.00     0.176 C 
BRANCH   6   7
HETATM    7  O9  UNL     1     -36.207  14.826  -3.325  1.00 20.00    -0.395 OA
HETATM    8  C5  UNL     1     -37.409  14.742  -4.079  1.00 20.00     0.201 C 
ENDBRANCH   6   7
ENDBRANCH   3   6
BRANCH   2   9
HETATM    9  C6  UNL     1     -33.861  16.329  -5.763  1.00 20.00     0.120 C 
HETATM   10 CL10 UNL     1     -34.357  14.753  -6.438  1.00 20.00    -0.130 Cl
ENDBRANCH   2   9
TORSDOF 4
ENDMDL
MODEL 4
REMARK VINA RESULT:      -3.8      1.924      2.503
REMARK  4 active torsions:
REMARK  status: ('A' for Active; 'I' for Inactive)
REMARK    1  A    between atoms: C2_2  and  C6_6 
REMARK    2  A    between atoms: C3_3  and  C7_7 
REMARK    3  A    between atoms: C3_3  and  C8_8 
REMARK    4  A    between atoms: C8_8  and  O9_9 
ROOT
HETATM    1  C1  UNL     1     -32.925  15.965  -4.294  1.00 20.00     0.018 A 
HETATM    2  C2  UNL     1     -33.959  17.011  -4.597  1.00 20.00     0.011 A 
HETATM    3  C3  UNL     1     -34.056  16.205  -3.309  1.00 20.00    -0.014 A 
ENDROOT
BRANCH   3   4
HETATM    4  C7  UNL     1     -33.732  16.922  -2.024  1.00 20.00     0.007 C 
HETATM    5  C4  UNL     1     -34.675  16.562  -0.912  1.00 20.00     0.006 C 
ENDBRANCH   3   4
BRANCH   3   6
HETATM    6  C8  UNL     1     -35.107  15.137  -3.164  1.00 20.00     0.176 C 
BRANCH   6   7
HETATM    7  O9  UNL     1     -34.517  13.862  -3.381  1.00 20.00    -0.395 OA
HETATM    8  C5  UNL     1     -35.144  13.173  -4.454  1.00 20.00     0.201 C 
ENDBRANCH   6   7
ENDBRANCH   3   6
BRANCH   2   9
HETATM    9  C6  UNL     1     -34.905  16.827  -5.734  1.00 20.00     0.120 C 
HETATM   10 CL10 UNL     1     -34.247  15.694  -6.946  1.00 20.00    -0.130 Cl
ENDBRANCH   2   9
TORSDOF 4
ENDMDL
MODEL 5
REMARK VINA RESULT:      -3.7      2.298      3.260
REMARK  4 active torsions:
REMARK  status: ('A' for Active; 'I' for Inactive)
REMARK    1  A    between atoms: C2_2  and  C6_6 
REMARK    2  A    between atoms: C3_3  and  C7_7 
REMARK    3  A    between atoms: C3_3  and  C8_8 
REMARK    4  A    between atoms: C8_8  and  O9_9 
ROOT
HETATM    1  C1  UNL     1     -35.782  15.483  -3.439  1.00 20.00     0.018 A 
HETATM    2  C2  UNL     1     -34.654  14.547  -3.110  1.00 20.00     0.011 A 
HETATM    3  C3  UNL     1     -34.543  16.020  -2.742  1.00 20.00    -0.014 A 
ENDROOT
BRANCH   3   4
HETATM    4  C7  UNL     1     -34.654  16.373  -1.281  1.00 20.00     0.007 C 
HETATM    5  C4  UNL     1     -33.752  17.510  -0.896  1.00 20.00     0.006 C 
ENDBRANCH   3   4
BRANCH   3   6
HETATM    6  C8  UNL     1     -33.628  16.927  -3.521  1.00 20.00     0.176 C 
BRANCH   6   7
HETATM    7  O9  UNL     1     -34.397  17.699  -4.435  1.00 20.00    -0.395 OA
HETATM    8  C5  UNL     1     -33.764  17.785  -5.705  1.00 20.00     0.201 C 
ENDBRANCH   6   7
ENDBRANCH   3   6
BRANCH   2   9
HETATM    9  C6  UNL     1     -33.848  13.928  -4.200  1.00 20.00     0.120 C 
HETATM   10 CL10 UNL     1     -34.649  14.116  -5.784  1.00 20.00    -0.130 Cl
ENDBRANCH   2   9
TORSDOF 4
ENDMDL
MODEL 6
REMARK VINA RESULT:      -3.7      3.084      4.350
REMARK  4 active torsions:
REMARK  status: ('A' for Active; 'I' for Inactive)
REMARK    1  A    between atoms: C2_2  and  C6_6 
REMARK    2  A    between atoms: C3_3  and  C7_7 
REMARK    3  A    between atoms: C3_3  and  C8_8 
REMARK    4  A    between atoms: C8_8  and  O9_9 
ROOT
HETATM    1  C1  UNL     1     -33.038  15.118  -3.658  1.00 20.00     0.018 A 
HETATM    2  C2  UNL     1     -34.432  15.001  -3.112  1.00 20.00     0.011 A 
HETATM    3  C3  UNL     1     -34.223  15.231  -4.602  1.00 20.00    -0.014 A 
ENDROOT
BRANCH   3   4
HETATM    4  C7  UNL     1     -34.504  14.070  -5.522  1.00 20.00     0.007 C 
HETATM    5  C4  UNL     1     -35.141  14.502  -6.811  1.00 20.00     0.006 C 
ENDBRANCH   3   4
BRANCH   3   6
HETATM    6  C8  UNL     1     -34.521  16.576  -5.208  1.00 20.00     0.176 C 
BRANCH   6   7
HETATM    7  O9  UNL     1     -33.317  17.326  -5.305  1.00 20.00    -0.395 OA
HETATM    8  C5  UNL     1     -33.513  18.678  -4.912  1.00 20.00     0.201 C 
ENDBRANCH   6   7
ENDBRANCH   3   6
BRANCH   2   9
HETATM    9  C6  UNL     1     -34.975  16.052  -2.205  1.00 20.00     0.120 C 
HETATM   10 CL10 UNL     1     -33.666  17.042  -1.504  1.00 20.00    -0.130 Cl
ENDBRANCH   2   9
TORSDOF 4
ENDMDL
MODEL 7
REMARK VINA RESULT:      -3.6      3.143      4.272
REMARK  4 active torsions:
REMARK  status: ('A' for Active; 'I' for Inactive)
REMARK    1  A    between atoms: C2_2  and  C6_6 
REMARK    2  A    between atoms: C3_3  and  C7_7 
REMARK    3  A    between atoms: C3_3  and  C8_8 
REMARK    4  A    between atoms: C8_8  and  O9_9 
ROOT
HETATM    1  C1  UNL     1     -33.232  15.329  -3.411  1.00 20.00     0.018 A 
HETATM    2  C2  UNL     1     -34.247  15.688  -2.364  1.00 20.00     0.011 A 
HETATM    3  C3  UNL     1     -34.704  15.393  -3.786  1.00 20.00    -0.014 A 
ENDROOT
BRANCH   3   4
HETATM    4  C7  UNL     1     -35.428  14.092  -4.019  1.00 20.00     0.007 C 
HETATM    5  C4  UNL     1     -34.659  13.160  -4.912  1.00 20.00     0.006 C 
ENDBRANCH   3   4
BRANCH   3   6
HETATM    6  C8  UNL     1     -35.158  16.514  -4.681  1.00 20.00     0.176 C 
BRANCH   6   7
HETATM    7  O9  UNL     1     -34.130  16.820  -5.614  1.00 20.00    -0.395 OA
HETATM    8  C5  UNL     1     -34.454  16.358  -6.918  1.00 20.00     0.201 C 
ENDBRANCH   6   7
ENDBRANCH   3   6
BRANCH   2   9
HETATM    9  C6  UNL     1     -34.273  17.058  -1.779  1.00 20.00     0.120 C 
HETATM   10 CL10 UNL     1     -34.793  17.023  -0.072  1.00 20.00    -0.130 Cl
ENDBRANCH   2   9
TORSDOF 4
ENDMDL
MODEL 8
REMARK VINA RESULT:      -3.6      3.192      4.306
REMARK  4 active torsions:
REMARK  status: ('A' for Active; 'I' for Inactive)
REMARK    1  A    between atoms: C2_2  and  C6_6 
REMARK    2  A    between atoms: C3_3  and  C7_7 
REMARK    3  A    between atoms: C3_3  and  C8_8 
REMARK    4  A    between atoms: C8_8  and  O9_9 
ROOT
HETATM    1  C1  UNL     1     -35.570  16.458  -2.642  1.00 20.00     0.018 A 
HETATM    2  C2  UNL     1     -34.346  15.628  -2.383  1.00 20.00     0.011 A 
HETATM    3  C3  UNL     1     -34.480  16.997  -1.731  1.00 20.00    -0.014 A 
ENDROOT
BRANCH   3   4
HETATM    4  C7  UNL     1     -34.751  17.029  -0.249  1.00 20.00     0.007 C 
HETATM    5  C4  UNL     1     -34.009  18.134   0.445  1.00 20.00     0.006 C 
ENDBRANCH   3   4
BRANCH   3   6
HETATM    6  C8  UNL     1     -33.652  18.153  -2.226  1.00 20.00     0.176 C 
BRANCH   6   7
HETATM    7  O9  UNL     1     -34.402  18.898  -3.177  1.00 20.00    -0.395 OA
HETATM    8  C5  UNL     1     -33.636  19.176  -4.341  1.00 20.00     0.201 C 
ENDBRANCH   6   7
ENDBRANCH   3   6
BRANCH   2   9
HETATM    9  C6  UNL     1     -33.378  15.351  -3.482  1.00 20.00     0.120 C 
HETATM   10 CL10 UNL     1     -33.273  13.603  -3.828  1.00 20.00    -0.130 Cl
ENDBRANCH   2   9
TORSDOF 4
ENDMDL
MODEL 9
REMARK VINA RESULT:      -3.5      2.529      3.700
REMARK  4 active torsions:
REMARK  status: ('A' for Active; 'I' for Inactive)
REMARK    1  A    between atoms: C2_2  and  C6_6 
REMARK    2  A    between atoms: C3_3  and  C7_7 
REMARK    3  A    between atoms: C3_3  and  C8_8 
REMARK    4  A    between atoms: C8_8  and  O9_9 
ROOT
HETATM    1  C1  UNL     1     -34.558  13.724  -3.771  1.00 20.00     0.018 A 
HETATM    2  C2  UNL     1     -34.715  14.993  -2.982  1.00 20.00     0.011 A 
HETATM    3  C3  UNL     1     -35.544  14.780  -4.241  1.00 20.00    -0.014 A 
ENDROOT
BRANCH   3   4
HETATM    4  C7  UNL     1     -37.014  14.503  -4.057  1.00 20.00     0.007 C 
HETATM    5  C4  UNL     1     -37.870  15.307  -4.992  1.00 20.00     0.006 C 
ENDBRANCH   3   4
BRANCH   3   6
HETATM    6  C8  UNL     1     -35.219  15.543  -5.497  1.00 20.00     0.176 C 
BRANCH   6   7
HETATM    7  O9  UNL     1     -34.561  14.681  -6.416  1.00 20.00    -0.395 OA
HETATM    8  C5  UNL     1     -35.344  14.467  -7.583  1.00 20.00     0.201 C 
ENDBRANCH   6   7
ENDBRANCH   3   6
BRANCH   2   9
HETATM    9  C6  UNL     1     -33.599  15.978  -2.911  1.00 20.00     0.120 C 
HETATM   10 CL10 UNL     1     -33.735  17.006  -1.459  1.00 20.00    -0.130 Cl
ENDBRANCH   2   9
TORSDOF 4
ENDMDL
