MODEL 1
REMARK VINA RESULT:      -4.3      0.000      0.000
REMARK  2 active torsions:
REMARK  status: ('A' for Active; 'I' for Inactive)
REMARK    1  A    between atoms: C4_4  and  C9_9 
REMARK    2  A    between atoms: C5_5  and  C6_6 
ROOT
HETATM    1  C3  UNL     1     -32.864  14.814  -3.726  1.00 20.00     0.017 A 
HETATM    2  C4  UNL     1     -34.036  15.142  -2.845  1.00 20.00     0.009 A 
HETATM    3  C6  UNL     1     -34.274  14.691  -4.280  1.00 20.00    -0.032 A 
HETATM    4  C8  UNL     1     -34.811  13.288  -4.446  1.00 20.00     0.016 C 
ENDROOT
BRANCH   3   5
HETATM    5  C5  UNL     1     -34.763  15.656  -5.367  1.00 20.00    -0.036 A 
HETATM    6  C1  UNL     1     -33.866  16.767  -5.859  1.00 20.00     0.011 A 
HETATM    7  C2  UNL     1     -34.172  15.602  -6.756  1.00 20.00     0.011 A 
HETATM    8  C7  UNL     1     -36.236  15.972  -5.276  1.00 20.00     0.016 C 
ENDBRANCH   3   5
BRANCH   2   9
HETATM    9  C9  UNL     1     -34.274  16.547  -2.409  1.00 20.00     0.120 C 
HETATM   10 CL10 UNL     1     -34.658  16.628  -0.667  1.00 20.00    -0.130 Cl
ENDBRANCH   2   9
TORSDOF 2
ENDMDL
MODEL 2
REMARK VINA RESULT:      -4.2     11.869     13.466
REMARK  2 active torsions:
REMARK  status: ('A' for Active; 'I' for Inactive)
REMARK    1  A    between atoms: C4_4  and  C9_9 
REMARK    2  A    between atoms: C5_5  and  C6_6 
ROOT
HETATM    1  C3  UNL     1     -34.282   7.326   3.620  1.00 20.00     0.017 A 
HETATM    2  C4  UNL     1     -33.507   6.130   3.143  1.00 20.00     0.009 A 
HETATM    3  C6  UNL     1     -34.613   5.950   4.175  1.00 20.00    -0.032 A 
HETATM    4  C8  UNL     1     -35.884   5.309   3.669  1.00 20.00     0.016 C 
ENDROOT
BRANCH   3   5
HETATM    5  C5  UNL     1     -34.312   5.616   5.642  1.00 20.00    -0.036 A 
HETATM    6  C1  UNL     1     -35.197   4.656   6.402  1.00 20.00     0.011 A 
HETATM    7  C2  UNL     1     -33.803   4.246   6.022  1.00 20.00     0.011 A 
HETATM    8  C7  UNL     1     -33.754   6.780   6.424  1.00 20.00     0.016 C 
ENDBRANCH   3   5
BRANCH   2   9
HETATM    9  C9  UNL     1     -32.066   5.983   3.495  1.00 20.00     0.120 C 
HETATM   10 CL10 UNL     1     -31.304   7.573   3.777  1.00 20.00    -0.130 Cl
ENDBRANCH   2   9
TORSDOF 2
ENDMDL
MODEL 3
REMARK VINA RESULT:      -4.1      2.388      3.661
REMARK  2 active torsions:
REMARK  status: ('A' for Active; 'I' for Inactive)
REMARK    1  A    between atoms: C4_4  and  C9_9 
REMARK    2  A    between atoms: C5_5  and  C6_6 
ROOT
HETATM    1  C3  UNL     1     -34.840  13.498  -3.933  1.00 20.00     0.017 A 
HETATM    2  C4  UNL     1     -34.379  14.162  -5.200  1.00 20.00     0.009 A 
HETATM    3  C6  UNL     1     -33.892  14.684  -3.854  1.00 20.00    -0.032 A 
HETATM    4  C8  UNL     1     -32.454  14.374  -3.512  1.00 20.00     0.016 C 
ENDROOT
BRANCH   3   5
HETATM    5  C5  UNL     1     -34.375  16.021  -3.276  1.00 20.00    -0.036 A 
HETATM    6  C1  UNL     1     -35.808  16.182  -2.825  1.00 20.00     0.011 A 
HETATM    7  C2  UNL     1     -34.705  16.140  -1.807  1.00 20.00     0.011 A 
HETATM    8  C7  UNL     1     -33.732  17.225  -3.920  1.00 20.00     0.016 C 
ENDBRANCH   3   5
BRANCH   2   9
HETATM    9  C9  UNL     1     -35.346  14.923  -6.040  1.00 20.00     0.120 C 
HETATM   10 CL10 UNL     1     -34.502  15.911  -7.265  1.00 20.00    -0.130 Cl
ENDBRANCH   2   9
TORSDOF 2
ENDMDL
MODEL 4
REMARK VINA RESULT:      -4.1      1.899      3.620
REMARK  2 active torsions:
REMARK  status: ('A' for Active; 'I' for Inactive)
REMARK    1  A    between atoms: C4_4  and  C9_9 
REMARK    2  A    between atoms: C5_5  and  C6_6 
ROOT
HETATM    1  C3  UNL     1     -34.431  14.953  -6.714  1.00 20.00     0.017 A 
HETATM    2  C4  UNL     1     -35.516  15.886  -6.255  1.00 20.00     0.009 A 
HETATM    3  C6  UNL     1     -34.328  15.603  -5.344  1.00 20.00    -0.032 A 
HETATM    4  C8  UNL     1     -33.326  16.724  -5.206  1.00 20.00     0.016 C 
ENDROOT
BRANCH   3   5
HETATM    5  C5  UNL     1     -34.460  14.752  -4.074  1.00 20.00    -0.036 A 
HETATM    6  C1  UNL     1     -34.880  13.303  -4.168  1.00 20.00     0.011 A 
HETATM    7  C2  UNL     1     -33.468  13.649  -3.790  1.00 20.00     0.011 A 
HETATM    8  C7  UNL     1     -34.967  15.523  -2.880  1.00 20.00     0.016 C 
ENDBRANCH   3   5
BRANCH   2   9
HETATM    9  C9  UNL     1     -36.879  15.361  -5.962  1.00 20.00     0.120 C 
HETATM   10 CL10 UNL     1     -37.825  16.523  -4.991  1.00 20.00    -0.130 Cl
ENDBRANCH   2   9
TORSDOF 2
ENDMDL
MODEL 5
REMARK VINA RESULT:      -4.0      1.171      2.708
REMARK  2 active torsions:
REMARK  status: ('A' for Active; 'I' for Inactive)
REMARK    1  A    between atoms: C4_4  and  C9_9 
REMARK    2  A    between atoms: C5_5  and  C6_6 
ROOT
HETATM    1  C3  UNL     1     -35.601  16.705  -4.247  1.00 20.00     0.017 A 
HETATM    2  C4  UNL     1     -34.613  16.797  -3.118  1.00 20.00     0.009 A 
HETATM    3  C6  UNL     1     -34.282  15.955  -4.343  1.00 20.00    -0.032 A 
HETATM    4  C8  UNL     1     -33.245  16.534  -5.277  1.00 20.00     0.016 C 
ENDROOT
BRANCH   3   5
HETATM    5  C5  UNL     1     -34.261  14.421  -4.295  1.00 20.00    -0.036 A 
HETATM    6  C1  UNL     1     -35.545  13.647  -4.109  1.00 20.00     0.011 A 
HETATM    7  C2  UNL     1     -34.840  13.616  -5.435  1.00 20.00     0.011 A 
HETATM    8  C7  UNL     1     -33.031  13.855  -3.630  1.00 20.00     0.016 C 
ENDBRANCH   3   5
BRANCH   2   9
HETATM    9  C9  UNL     1     -34.928  16.182  -1.798  1.00 20.00     0.120 C 
HETATM   10 CL10 UNL     1     -34.229  17.134  -0.458  1.00 20.00    -0.130 Cl
ENDBRANCH   2   9
TORSDOF 2
ENDMDL
MODEL 6
REMARK VINA RESULT:      -4.0      1.826      2.208
REMARK  2 active torsions:
REMARK  status: ('A' for Active; 'I' for Inactive)
REMARK    1  A    between atoms: C4_4  and  C9_9 
REMARK    2  A    between atoms: C5_5  and  C6_6 
ROOT
HETATM    1  C3  UNL     1     -35.035  13.541  -4.004  1.00 20.00     0.017 A 
HETATM    2  C4  UNL     1     -34.963  14.850  -3.269  1.00 20.00     0.009 A 
HETATM    3  C6  UNL     1     -35.893  14.707  -4.467  1.00 20.00    -0.032 A 
HETATM    4  C8  UNL     1     -37.367  14.625  -4.147  1.00 20.00     0.016 C 
ENDROOT
BRANCH   3   5
HETATM    5  C5  UNL     1     -35.604  15.393  -5.809  1.00 20.00    -0.036 A 
HETATM    6  C1  UNL     1     -34.415  14.971  -6.640  1.00 20.00     0.011 A 
HETATM    7  C2  UNL     1     -35.805  14.645  -7.106  1.00 20.00     0.011 A 
HETATM    8  C7  UNL     1     -35.946  16.863  -5.822  1.00 20.00     0.016 C 
ENDBRANCH   3   5
BRANCH   2   9
HETATM    9  C9  UNL     1     -33.721  15.672  -3.326  1.00 20.00     0.120 C 
HETATM   10 CL10 UNL     1     -32.284  14.654  -3.618  1.00 20.00    -0.130 Cl
ENDBRANCH   2   9
TORSDOF 2
ENDMDL
MODEL 7
REMARK VINA RESULT:      -3.9      1.898      2.820
REMARK  2 active torsions:
REMARK  status: ('A' for Active; 'I' for Inactive)
REMARK    1  A    between atoms: C4_4  and  C9_9 
REMARK    2  A    between atoms: C5_5  and  C6_6 
ROOT
HETATM    1  C3  UNL     1     -34.695  16.086  -1.810  1.00 20.00     0.017 A 
HETATM    2  C4  UNL     1     -34.973  17.141  -2.843  1.00 20.00     0.009 A 
HETATM    3  C6  UNL     1     -35.080  15.670  -3.221  1.00 20.00    -0.032 A 
HETATM    4  C8  UNL     1     -36.483  15.141  -3.407  1.00 20.00     0.016 C 
ENDROOT
BRANCH   3   5
HETATM    5  C5  UNL     1     -34.052  14.986  -4.132  1.00 20.00    -0.036 A 
HETATM    6  C1  UNL     1     -32.617  14.838  -3.684  1.00 20.00     0.011 A 
HETATM    7  C2  UNL     1     -33.500  13.627  -3.771  1.00 20.00     0.011 A 
HETATM    8  C7  UNL     1     -34.274  15.253  -5.600  1.00 20.00     0.016 C 
ENDBRANCH   3   5
BRANCH   2   9
HETATM    9  C9  UNL     1     -33.868  18.007  -3.343  1.00 20.00     0.120 C 
HETATM   10 CL10 UNL     1     -34.324  18.825  -4.863  1.00 20.00    -0.130 Cl
ENDBRANCH   2   9
TORSDOF 2
ENDMDL
MODEL 8
REMARK VINA RESULT:      -3.9      2.521      3.365
REMARK  2 active torsions:
REMARK  status: ('A' for Active; 'I' for Inactive)
REMARK    1  A    between atoms: C4_4  and  C9_9 
REMARK    2  A    between atoms: C5_5  and  C6_6 
ROOT
HETATM    1  C3  UNL     1     -33.218  16.307  -4.783  1.00 20.00     0.017 A 
HETATM    2  C4  UNL     1     -34.439  17.180  -4.701  1.00 20.00     0.009 A 
HETATM    3  C6  UNL     1     -34.366  15.905  -3.870  1.00 20.00    -0.032 A 
HETATM    4  C8  UNL     1     -34.146  16.101  -2.388  1.00 20.00     0.016 C 
ENDROOT
BRANCH   3   5
HETATM    5  C5  UNL     1     -35.216  14.670  -4.197  1.00 20.00    -0.036 A 
HETATM    6  C1  UNL     1     -34.960  13.882  -5.460  1.00 20.00     0.011 A 
HETATM    7  C2  UNL     1     -34.610  13.289  -4.125  1.00 20.00     0.011 A 
HETATM    8  C7  UNL     1     -36.656  14.796  -3.761  1.00 20.00     0.016 C 
ENDBRANCH   3   5
BRANCH   2   9
HETATM    9  C9  UNL     1     -35.347  17.307  -5.876  1.00 20.00     0.120 C 
HETATM   10 CL10 UNL     1     -34.492  16.936  -7.399  1.00 20.00    -0.130 Cl
ENDBRANCH   2   9
TORSDOF 2
ENDMDL
MODEL 9
REMARK VINA RESULT:      -3.9      2.441      3.919
REMARK  2 active torsions:
REMARK  status: ('A' for Active; 'I' for Inactive)
REMARK    1  A    between atoms: C4_4  and  C9_9 
REMARK    2  A    between atoms: C5_5  and  C6_6 
ROOT
HETATM    1  C3  UNL     1     -36.375  17.163  -4.530  1.00 20.00     0.017 A 
HETATM    2  C4  UNL     1     -35.979  16.176  -5.591  1.00 20.00     0.009 A 
HETATM    3  C6  UNL     1     -36.076  15.725  -4.139  1.00 20.00    -0.032 A 
HETATM    4  C8  UNL     1     -37.267  14.860  -3.799  1.00 20.00     0.016 C 
ENDROOT
BRANCH   3   5
HETATM    5  C5  UNL     1     -34.832  15.394  -3.304  1.00 20.00    -0.036 A 
HETATM    6  C1  UNL     1     -33.797  16.459  -3.026  1.00 20.00     0.011 A 
HETATM    7  C2  UNL     1     -34.676  15.963  -1.913  1.00 20.00     0.011 A 
HETATM    8  C7  UNL     1     -34.316  13.993  -3.518  1.00 20.00     0.016 C 
ENDBRANCH   3   5
BRANCH   2   9
HETATM    9  C9  UNL     1     -34.670  16.313  -6.290  1.00 20.00     0.120 C 
HETATM   10 CL10 UNL     1     -34.325  14.884  -7.303  1.00 20.00    -0.130 Cl
ENDBRANCH   2   9
TORSDOF 2
ENDMDL
