MODEL 1
REMARK VINA RESULT:      -5.2      0.000      0.000
REMARK  1 active torsions:
REMARK  status: ('A' for Active; 'I' for Inactive)
REMARK    1  A    between atoms: C5_5  and  C7_7 
ROOT
HETATM    1  C1  UNL     1     -35.215   4.658   6.365  1.00 20.00     0.002 C 
HETATM    2  C2  UNL     1     -34.238   5.823   6.130  1.00 20.00     0.010 C 
HETATM    3  C3  UNL     1     -34.749   4.061   5.026  1.00 20.00     0.010 C 
HETATM    4  C4  UNL     1     -34.887   6.294   3.599  1.00 20.00     0.016 A 
HETATM    5  C5  UNL     1     -33.440   5.866   3.576  1.00 20.00     0.005 A 
HETATM    6  C6  UNL     1     -34.330   5.445   4.700  1.00 20.00    -0.036 A 
ENDROOT
BRANCH   5   7
HETATM    7  C7  UNL     1     -32.363   6.873   3.785  1.00 20.00     0.090 C 
HETATM    8 BR8  UNL     1     -32.111   7.949   2.177  1.00 20.00    -0.096 Br
ENDBRANCH   5   7
TORSDOF 1
ENDMDL
MODEL 2
REMARK VINA RESULT:      -4.2      1.422      2.439
REMARK  1 active torsions:
REMARK  status: ('A' for Active; 'I' for Inactive)
REMARK    1  A    between atoms: C5_5  and  C7_7 
ROOT
HETATM    1  C1  UNL     1     -34.911   5.208   4.100  1.00 20.00     0.002 C 
HETATM    2  C2  UNL     1     -34.398   5.743   2.751  1.00 20.00     0.010 C 
HETATM    3  C3  UNL     1     -34.042   6.272   4.795  1.00 20.00     0.010 C 
HETATM    4  C4  UNL     1     -31.825   5.859   3.397  1.00 20.00     0.016 A 
HETATM    5  C5  UNL     1     -32.241   7.284   3.120  1.00 20.00     0.005 A 
HETATM    6  C6  UNL     1     -33.258   6.272   3.537  1.00 20.00    -0.036 A 
ENDROOT
BRANCH   5   7
HETATM    7  C7  UNL     1     -32.209   7.812   1.728  1.00 20.00     0.090 C 
HETATM    8 BR8  UNL     1     -32.575   9.729   1.716  1.00 20.00    -0.096 Br
ENDBRANCH   5   7
TORSDOF 1
ENDMDL
MODEL 3
REMARK VINA RESULT:      -4.1     11.595     12.614
REMARK  1 active torsions:
REMARK  status: ('A' for Active; 'I' for Inactive)
REMARK    1  A    between atoms: C5_5  and  C7_7 
ROOT
HETATM    1  C1  UNL     1     -34.685  13.234  -4.726  1.00 20.00     0.002 C 
HETATM    2  C2  UNL     1     -35.360  14.533  -4.252  1.00 20.00     0.010 C 
HETATM    3  C3  UNL     1     -33.504  13.568  -3.798  1.00 20.00     0.010 C 
HETATM    4  C4  UNL     1     -33.241  16.115  -4.495  1.00 20.00     0.016 A 
HETATM    5  C5  UNL     1     -33.582  16.111  -3.024  1.00 20.00     0.005 A 
HETATM    6  C6  UNL     1     -33.989  14.965  -3.892  1.00 20.00    -0.036 A 
ENDROOT
BRANCH   5   7
HETATM    7  C7  UNL     1     -34.591  17.068  -2.491  1.00 20.00     0.090 C 
HETATM    8 BR8  UNL     1     -34.664  16.970  -0.543  1.00 20.00    -0.096 Br
ENDBRANCH   5   7
TORSDOF 1
ENDMDL
MODEL 4
REMARK VINA RESULT:      -4.0     11.746     12.740
REMARK  1 active torsions:
REMARK  status: ('A' for Active; 'I' for Inactive)
REMARK    1  A    between atoms: C5_5  and  C7_7 
ROOT
HETATM    1  C1  UNL     1     -34.814  16.160  -1.838  1.00 20.00     0.002 C 
HETATM    2  C2  UNL     1     -35.682  15.546  -2.951  1.00 20.00     0.010 C 
HETATM    3  C3  UNL     1     -33.608  16.052  -2.787  1.00 20.00     0.010 C 
HETATM    4  C4  UNL     1     -34.040  13.560  -3.593  1.00 20.00     0.016 A 
HETATM    5  C5  UNL     1     -34.135  14.427  -4.826  1.00 20.00     0.005 A 
HETATM    6  C6  UNL     1     -34.404  15.009  -3.476  1.00 20.00    -0.036 A 
ENDROOT
BRANCH   5   7
HETATM    7  C7  UNL     1     -35.237  14.212  -5.804  1.00 20.00     0.090 C 
HETATM    8 BR8  UNL     1     -34.808  15.052  -7.512  1.00 20.00    -0.096 Br
ENDBRANCH   5   7
TORSDOF 1
ENDMDL
MODEL 5
REMARK VINA RESULT:      -4.0     11.864     13.138
REMARK  1 active torsions:
REMARK  status: ('A' for Active; 'I' for Inactive)
REMARK    1  A    between atoms: C5_5  and  C7_7 
ROOT
HETATM    1  C1  UNL     1     -34.558  14.834  -6.686  1.00 20.00     0.002 C 
HETATM    2  C2  UNL     1     -33.855  15.801  -5.717  1.00 20.00     0.010 C 
HETATM    3  C3  UNL     1     -35.406  14.341  -5.500  1.00 20.00     0.010 C 
HETATM    4  C4  UNL     1     -33.418  14.056  -3.765  1.00 20.00     0.016 A 
HETATM    5  C5  UNL     1     -34.343  15.097  -3.182  1.00 20.00     0.005 A 
HETATM    6  C6  UNL     1     -34.305  14.867  -4.658  1.00 20.00    -0.036 A 
ENDROOT
BRANCH   5   7
HETATM    7  C7  UNL     1     -33.782  16.339  -2.583  1.00 20.00     0.090 C 
HETATM    8 BR8  UNL     1     -34.646  16.726  -0.876  1.00 20.00    -0.096 Br
ENDBRANCH   5   7
TORSDOF 1
ENDMDL
MODEL 6
REMARK VINA RESULT:      -3.9     12.044     12.614
REMARK  1 active torsions:
REMARK  status: ('A' for Active; 'I' for Inactive)
REMARK    1  A    between atoms: C5_5  and  C7_7 
ROOT
HETATM    1  C1  UNL     1     -33.996  18.351   0.337  1.00 20.00     0.002 C 
HETATM    2  C2  UNL     1     -33.315  17.851  -0.950  1.00 20.00     0.010 C 
HETATM    3  C3  UNL     1     -34.895  17.103   0.288  1.00 20.00     0.010 C 
HETATM    4  C4  UNL     1     -35.530  17.249  -2.285  1.00 20.00     0.016 A 
HETATM    5  C5  UNL     1     -34.795  15.943  -2.104  1.00 20.00     0.005 A 
HETATM    6  C6  UNL     1     -34.561  17.075  -1.156  1.00 20.00    -0.036 A 
ENDROOT
BRANCH   5   7
HETATM    7  C7  UNL     1     -33.752  15.534  -3.084  1.00 20.00     0.090 C 
HETATM    8 BR8  UNL     1     -34.188  13.797  -3.860  1.00 20.00    -0.096 Br
ENDBRANCH   5   7
TORSDOF 1
ENDMDL
MODEL 7
REMARK VINA RESULT:      -3.9      2.719      4.847
REMARK  1 active torsions:
REMARK  status: ('A' for Active; 'I' for Inactive)
REMARK    1  A    between atoms: C5_5  and  C7_7 
ROOT
HETATM    1  C1  UNL     1     -32.108   9.687   1.017  1.00 20.00     0.002 C 
HETATM    2  C2  UNL     1     -32.966   9.362   2.252  1.00 20.00     0.010 C 
HETATM    3  C3  UNL     1     -31.872   8.176   0.845  1.00 20.00     0.010 C 
HETATM    4  C4  UNL     1     -31.289   7.639   3.378  1.00 20.00     0.016 A 
HETATM    5  C5  UNL     1     -32.531   6.845   3.052  1.00 20.00     0.005 A 
HETATM    6  C6  UNL     1     -32.210   8.088   2.285  1.00 20.00    -0.036 A 
ENDROOT
BRANCH   5   7
HETATM    7  C7  UNL     1     -33.666   6.809   4.016  1.00 20.00     0.090 C 
HETATM    8 BR8  UNL     1     -34.828   5.286   3.646  1.00 20.00    -0.096 Br
ENDBRANCH   5   7
TORSDOF 1
ENDMDL
MODEL 8
REMARK VINA RESULT:      -3.9     11.974     13.014
REMARK  1 active torsions:
REMARK  status: ('A' for Active; 'I' for Inactive)
REMARK    1  A    between atoms: C5_5  and  C7_7 
ROOT
HETATM    1  C1  UNL     1     -33.522  13.687  -3.688  1.00 20.00     0.002 C 
HETATM    2  C2  UNL     1     -32.881  15.085  -3.645  1.00 20.00     0.010 C 
HETATM    3  C3  UNL     1     -34.898  14.375  -3.740  1.00 20.00     0.010 C 
HETATM    4  C4  UNL     1     -34.471  16.124  -1.790  1.00 20.00     0.016 A 
HETATM    5  C5  UNL     1     -34.718  16.934  -3.040  1.00 20.00     0.005 A 
HETATM    6  C6  UNL     1     -34.199  15.536  -3.141  1.00 20.00    -0.036 A 
ENDROOT
BRANCH   5   7
HETATM    7  C7  UNL     1     -33.847  18.101  -3.354  1.00 20.00     0.090 C 
HETATM    8 BR8  UNL     1     -33.724  18.362  -5.284  1.00 20.00    -0.096 Br
ENDBRANCH   5   7
TORSDOF 1
ENDMDL
MODEL 9
REMARK VINA RESULT:      -3.8     12.544     13.295
REMARK  1 active torsions:
REMARK  status: ('A' for Active; 'I' for Inactive)
REMARK    1  A    between atoms: C5_5  and  C7_7 
ROOT
HETATM    1  C1  UNL     1     -34.760  16.323  -1.325  1.00 20.00     0.002 C 
HETATM    2  C2  UNL     1     -35.206  15.837  -2.715  1.00 20.00     0.010 C 
HETATM    3  C3  UNL     1     -33.572  17.024  -2.005  1.00 20.00     0.010 C 
HETATM    4  C4  UNL     1     -32.829  14.998  -3.551  1.00 20.00     0.016 A 
HETATM    5  C5  UNL     1     -33.217  16.122  -4.482  1.00 20.00     0.005 A 
HETATM    6  C6  UNL     1     -33.793  16.055  -3.105  1.00 20.00    -0.036 A 
ENDROOT
BRANCH   5   7
HETATM    7  C7  UNL     1     -34.055  15.840  -5.680  1.00 20.00     0.090 C 
HETATM    8 BR8  UNL     1     -34.751  17.501  -6.434  1.00 20.00    -0.096 Br
ENDBRANCH   5   7
TORSDOF 1
ENDMDL
