MODEL 1
REMARK VINA RESULT:      -4.9      0.000      0.000
REMARK  2 active torsions:
REMARK  status: ('A' for Active; 'I' for Inactive)
REMARK    1  A    between atoms: C7_7  and  C10_10 
REMARK    2  A    between atoms: C7_7  and  C11_11 
ROOT
HETATM    1  C1  UNL     1     -33.516  14.857  -3.477  1.00 20.00     0.140 C 
HETATM    2  C2  UNL     1     -35.285  14.266  -5.930  1.00 20.00     0.001 C 
HETATM    3  C3  UNL     1     -34.636  13.161  -5.109  1.00 20.00     0.013 C 
HETATM    4  C4  UNL     1     -36.317  14.858  -4.979  1.00 20.00     0.007 C 
HETATM    5  C5  UNL     1     -34.551  13.739  -3.705  1.00 20.00     0.061 C 
HETATM    6  C6  UNL     1     -35.664  14.818  -3.592  1.00 20.00     0.013 C 
HETATM    7  C7  UNL     1     -34.613  15.899  -3.122  1.00 20.00     0.025 C 
HETATM    8  O12 UNL     1     -32.305  14.901  -3.546  1.00 20.00    -0.297 OA
ENDROOT
BRANCH   7   9
HETATM    9  C10 UNL     1     -34.688  16.196  -1.623  1.00 20.00     0.013 C 
HETATM   10  C8  UNL     1     -33.709  17.248  -1.221  1.00 20.00     0.006 C 
ENDBRANCH   7   9
BRANCH   7  11
HETATM   11  C11 UNL     1     -34.532  17.190  -3.930  1.00 20.00     0.013 C 
HETATM   12  C9  UNL     1     -35.716  18.069  -3.692  1.00 20.00     0.006 C 
ENDBRANCH   7  11
TORSDOF 2
ENDMDL
MODEL 2
REMARK VINA RESULT:      -4.8      1.010      1.119
REMARK  2 active torsions:
REMARK  status: ('A' for Active; 'I' for Inactive)
REMARK    1  A    between atoms: C7_7  and  C10_10 
REMARK    2  A    between atoms: C7_7  and  C11_11 
ROOT
HETATM    1  C1  UNL     1     -33.416  15.813  -4.147  1.00 20.00     0.140 C 
HETATM    2  C2  UNL     1     -35.883  14.329  -5.247  1.00 20.00     0.001 C 
HETATM    3  C3  UNL     1     -34.526  13.655  -5.098  1.00 20.00     0.013 C 
HETATM    4  C4  UNL     1     -36.321  14.571  -3.808  1.00 20.00     0.007 C 
HETATM    5  C5  UNL     1     -33.884  14.364  -3.916  1.00 20.00     0.061 C 
HETATM    6  C6  UNL     1     -35.041  14.931  -3.046  1.00 20.00     0.013 C 
HETATM    7  C7  UNL     1     -34.409  16.379  -3.095  1.00 20.00     0.025 C 
HETATM    8  O12 UNL     1     -32.584  16.316  -4.875  1.00 20.00    -0.297 OA
ENDROOT
BRANCH   7   9
HETATM    9  C10 UNL     1     -33.724  16.778  -1.786  1.00 20.00     0.013 C 
HETATM   10  C8  UNL     1     -34.677  16.756  -0.638  1.00 20.00     0.006 C 
ENDBRANCH   7   9
BRANCH   7  11
HETATM   11  C11 UNL     1     -35.293  17.508  -3.615  1.00 20.00     0.013 C 
HETATM   12  C9  UNL     1     -34.636  18.841  -3.461  1.00 20.00     0.006 C 
ENDBRANCH   7  11
TORSDOF 2
ENDMDL
MODEL 3
REMARK VINA RESULT:      -4.8      1.634      2.817
REMARK  2 active torsions:
REMARK  status: ('A' for Active; 'I' for Inactive)
REMARK    1  A    between atoms: C7_7  and  C10_10 
REMARK    2  A    between atoms: C7_7  and  C11_11 
ROOT
HETATM    1  C1  UNL     1     -36.029  15.208  -3.627  1.00 20.00     0.140 C 
HETATM    2  C2  UNL     1     -33.395  13.611  -3.718  1.00 20.00     0.001 C 
HETATM    3  C3  UNL     1     -34.402  13.586  -4.859  1.00 20.00     0.013 C 
HETATM    4  C4  UNL     1     -32.857  15.037  -3.747  1.00 20.00     0.007 C 
HETATM    5  C5  UNL     1     -35.065  14.954  -4.802  1.00 20.00     0.061 C 
HETATM    6  C6  UNL     1     -34.057  15.917  -4.116  1.00 20.00     0.013 C 
HETATM    7  C7  UNL     1     -35.144  16.351  -3.054  1.00 20.00     0.025 C 
HETATM    8  O12 UNL     1     -37.079  14.706  -3.285  1.00 20.00    -0.297 OA
ENDROOT
BRANCH   7   9
HETATM    9  C10 UNL     1     -35.722  17.741  -3.322  1.00 20.00     0.013 C 
HETATM   10  C8  UNL     1     -36.862  18.049  -2.409  1.00 20.00     0.006 C 
ENDBRANCH   7   9
BRANCH   7  11
HETATM   11  C11 UNL     1     -34.786  16.184  -1.581  1.00 20.00     0.013 C 
HETATM   12  C9  UNL     1     -33.866  17.262  -1.108  1.00 20.00     0.006 C 
ENDBRANCH   7  11
TORSDOF 2
ENDMDL
MODEL 4
REMARK VINA RESULT:      -4.7      1.651      2.679
REMARK  2 active torsions:
REMARK  status: ('A' for Active; 'I' for Inactive)
REMARK    1  A    between atoms: C7_7  and  C10_10 
REMARK    2  A    between atoms: C7_7  and  C11_11 
ROOT
HETATM    1  C1  UNL     1     -35.215  13.906  -4.576  1.00 20.00     0.140 C 
HETATM    2  C2  UNL     1     -34.303  15.153  -7.243  1.00 20.00     0.001 C 
HETATM    3  C3  UNL     1     -35.672  14.510  -7.070  1.00 20.00     0.013 C 
HETATM    4  C4  UNL     1     -34.379  16.396  -6.366  1.00 20.00     0.007 C 
HETATM    5  C5  UNL     1     -36.008  14.735  -5.604  1.00 20.00     0.061 C 
HETATM    6  C6  UNL     1     -35.205  15.982  -5.141  1.00 20.00     0.013 C 
HETATM    7  C7  UNL     1     -34.580  15.173  -3.937  1.00 20.00     0.025 C 
HETATM    8  O12 UNL     1     -35.125  12.716  -4.353  1.00 20.00    -0.297 OA
ENDROOT
BRANCH   7   9
HETATM    9  C10 UNL     1     -35.202  15.532  -2.586  1.00 20.00     0.013 C 
HETATM   10  C8  UNL     1     -34.316  16.434  -1.795  1.00 20.00     0.006 C 
ENDBRANCH   7   9
BRANCH   7  11
HETATM   11  C11 UNL     1     -33.058  15.128  -3.842  1.00 20.00     0.013 C 
HETATM   12  C9  UNL     1     -32.573  13.805  -3.344  1.00 20.00     0.006 C 
ENDBRANCH   7  11
TORSDOF 2
ENDMDL
MODEL 5
REMARK VINA RESULT:      -4.5      1.818      2.912
REMARK  2 active torsions:
REMARK  status: ('A' for Active; 'I' for Inactive)
REMARK    1  A    between atoms: C7_7  and  C10_10 
REMARK    2  A    between atoms: C7_7  and  C11_11 
ROOT
HETATM    1  C1  UNL     1     -36.324  15.294  -4.099  1.00 20.00     0.140 C 
HETATM    2  C2  UNL     1     -35.447  14.334  -6.893  1.00 20.00     0.001 C 
HETATM    3  C3  UNL     1     -36.705  15.163  -6.675  1.00 20.00     0.013 C 
HETATM    4  C4  UNL     1     -34.319  15.304  -6.565  1.00 20.00     0.007 C 
HETATM    5  C5  UNL     1     -36.383  16.017  -5.459  1.00 20.00     0.061 C 
HETATM    6  C6  UNL     1     -34.836  16.151  -5.396  1.00 20.00     0.013 C 
HETATM    7  C7  UNL     1     -34.819  15.629  -3.904  1.00 20.00     0.025 C 
HETATM    8  O12 UNL     1     -37.145  14.694  -3.436  1.00 20.00    -0.297 OA
ENDROOT
BRANCH   7   9
HETATM    9  C10 UNL     1     -34.587  16.744  -2.882  1.00 20.00     0.013 C 
HETATM   10  C8  UNL     1     -34.676  16.235  -1.483  1.00 20.00     0.006 C 
ENDBRANCH   7   9
BRANCH   7  11
HETATM   11  C11 UNL     1     -33.945  14.418  -3.598  1.00 20.00     0.013 C 
HETATM   12  C9  UNL     1     -32.493  14.770  -3.589  1.00 20.00     0.006 C 
ENDBRANCH   7  11
TORSDOF 2
ENDMDL
MODEL 6
REMARK VINA RESULT:      -4.5      1.530      4.224
REMARK  2 active torsions:
REMARK  status: ('A' for Active; 'I' for Inactive)
REMARK    1  A    between atoms: C7_7  and  C10_10 
REMARK    2  A    between atoms: C7_7  and  C11_11 
ROOT
HETATM    1  C1  UNL     1     -34.036  17.513  -4.246  1.00 20.00     0.140 C 
HETATM    2  C2  UNL     1     -33.721  17.570  -1.181  1.00 20.00     0.001 C 
HETATM    3  C3  UNL     1     -34.493  18.640  -1.940  1.00 20.00     0.013 C 
HETATM    4  C4  UNL     1     -34.580  16.323  -1.349  1.00 20.00     0.007 C 
HETATM    5  C5  UNL     1     -35.047  17.910  -3.154  1.00 20.00     0.061 C 
HETATM    6  C6  UNL     1     -35.146  16.407  -2.772  1.00 20.00     0.013 C 
HETATM    7  C7  UNL     1     -34.302  15.995  -4.042  1.00 20.00     0.025 C 
HETATM    8  O12 UNL     1     -33.310  18.148  -4.984  1.00 20.00    -0.297 OA
ENDROOT
BRANCH   7   9
HETATM    9  C10 UNL     1     -35.155  15.387  -5.157  1.00 20.00     0.013 C 
HETATM   10  C8  UNL     1     -34.377  15.228  -6.420  1.00 20.00     0.006 C 
ENDBRANCH   7   9
BRANCH   7  11
HETATM   11  C11 UNL     1     -33.043  15.167  -3.804  1.00 20.00     0.013 C 
HETATM   12  C9  UNL     1     -33.352  13.709  -3.693  1.00 20.00     0.006 C 
ENDBRANCH   7  11
TORSDOF 2
ENDMDL
MODEL 7
REMARK VINA RESULT:      -4.4      1.057      3.762
REMARK  2 active torsions:
REMARK  status: ('A' for Active; 'I' for Inactive)
REMARK    1  A    between atoms: C7_7  and  C10_10 
REMARK    2  A    between atoms: C7_7  and  C11_11 
ROOT
HETATM    1  C1  UNL     1     -33.468  15.737  -3.597  1.00 20.00     0.140 C 
HETATM    2  C2  UNL     1     -34.814  16.632  -0.973  1.00 20.00     0.001 C 
HETATM    3  C3  UNL     1     -33.536  17.275  -1.494  1.00 20.00     0.013 C 
HETATM    4  C4  UNL     1     -35.868  17.060  -1.987  1.00 20.00     0.007 C 
HETATM    5  C5  UNL     1     -33.643  17.148  -3.005  1.00 20.00     0.061 C 
HETATM    6  C6  UNL     1     -35.156  17.047  -3.345  1.00 20.00     0.013 C 
HETATM    7  C7  UNL     1     -34.917  15.714  -4.159  1.00 20.00     0.025 C 
HETATM    8  O12 UNL     1     -32.546  14.947  -3.616  1.00 20.00    -0.297 OA
ENDROOT
BRANCH   7   9
HETATM    9  C10 UNL     1     -34.969  15.920  -5.675  1.00 20.00     0.013 C 
HETATM   10  C8  UNL     1     -34.618  14.671  -6.412  1.00 20.00     0.006 C 
ENDBRANCH   7   9
BRANCH   7  11
HETATM   11  C11 UNL     1     -35.727  14.490  -3.747  1.00 20.00     0.013 C 
HETATM   12  C9  UNL     1     -37.164  14.620  -4.134  1.00 20.00     0.006 C 
ENDBRANCH   7  11
TORSDOF 2
ENDMDL
MODEL 8
REMARK VINA RESULT:      -4.3      2.085      3.747
REMARK  2 active torsions:
REMARK  status: ('A' for Active; 'I' for Inactive)
REMARK    1  A    between atoms: C7_7  and  C10_10 
REMARK    2  A    between atoms: C7_7  and  C11_11 
ROOT
HETATM    1  C1  UNL     1     -36.041  14.309  -4.591  1.00 20.00     0.140 C 
HETATM    2  C2  UNL     1     -33.372  15.407  -3.510  1.00 20.00     0.001 C 
HETATM    3  C3  UNL     1     -33.632  13.917  -3.676  1.00 20.00     0.013 C 
HETATM    4  C4  UNL     1     -33.326  15.923  -4.943  1.00 20.00     0.007 C 
HETATM    5  C5  UNL     1     -34.598  13.834  -4.848  1.00 20.00     0.061 C 
HETATM    6  C6  UNL     1     -34.383  15.114  -5.703  1.00 20.00     0.013 C 
HETATM    7  C7  UNL     1     -35.923  15.460  -5.630  1.00 20.00     0.025 C 
HETATM    8  O12 UNL     1     -36.928  13.926  -3.858  1.00 20.00    -0.297 OA
ENDROOT
BRANCH   7   9
HETATM    9  C10 UNL     1     -36.667  15.161  -6.933  1.00 20.00     0.013 C 
HETATM   10  C8  UNL     1     -38.139  15.352  -6.783  1.00 20.00     0.006 C 
ENDBRANCH   7   9
BRANCH   7  11
HETATM   11  C11 UNL     1     -36.305  16.833  -5.087  1.00 20.00     0.013 C 
HETATM   12  C9  UNL     1     -36.093  17.909  -6.101  1.00 20.00     0.006 C 
ENDBRANCH   7  11
TORSDOF 2
ENDMDL
MODEL 9
REMARK VINA RESULT:      -4.3      1.822      2.950
REMARK  2 active torsions:
REMARK  status: ('A' for Active; 'I' for Inactive)
REMARK    1  A    between atoms: C7_7  and  C10_10 
REMARK    2  A    between atoms: C7_7  and  C11_11 
ROOT
HETATM    1  C1  UNL     1     -33.730  16.868  -5.189  1.00 20.00     0.140 C 
HETATM    2  C2  UNL     1     -36.377  16.299  -6.662  1.00 20.00     0.001 C 
HETATM    3  C3  UNL     1     -35.090  16.637  -7.401  1.00 20.00     0.013 C 
HETATM    4  C4  UNL     1     -36.094  14.929  -6.059  1.00 20.00     0.007 C 
HETATM    5  C5  UNL     1     -33.989  16.101  -6.499  1.00 20.00     0.061 C 
HETATM    6  C6  UNL     1     -34.617  14.962  -5.648  1.00 20.00     0.013 C 
HETATM    7  C7  UNL     1     -34.128  15.649  -4.311  1.00 20.00     0.025 C 
HETATM    8  O12 UNL     1     -33.356  17.996  -4.942  1.00 20.00    -0.297 OA
ENDROOT
BRANCH   7   9
HETATM    9  C10 UNL     1     -32.921  14.949  -3.684  1.00 20.00     0.013 C 
HETATM   10  C8  UNL     1     -33.130  13.475  -3.586  1.00 20.00     0.006 C 
ENDBRANCH   7   9
BRANCH   7  11
HETATM   11  C11 UNL     1     -35.187  15.957  -3.258  1.00 20.00     0.013 C 
HETATM   12  C9  UNL     1     -34.578  16.220  -1.919  1.00 20.00     0.006 C 
ENDBRANCH   7  11
TORSDOF 2
ENDMDL
