MODEL 1
REMARK VINA RESULT:      -4.9      0.000      0.000
REMARK  2 active torsions:
REMARK  status: ('A' for Active; 'I' for Inactive)
REMARK    1  A    between atoms: C5_5  and  C8_8 
REMARK    2  A    between atoms: C9_9  and  C10_10 
ROOT
HETATM    1  C1  UNL     1     -35.008  17.379   0.242  1.00 20.00     0.009 A 
HETATM    2  C2  UNL     1     -32.874  18.431  -0.182  1.00 20.00     0.009 A 
HETATM    3  C3  UNL     1     -34.936  17.774   1.578  1.00 20.00     0.019 A 
HETATM    4  C4  UNL     1     -32.803  18.825   1.154  1.00 20.00     0.019 A 
HETATM    5  C5  UNL     1     -33.977  17.708  -0.637  1.00 20.00    -0.053 A 
HETATM    6  C6  UNL     1     -33.834  18.496   2.034  1.00 20.00     0.011 A 
HETATM    7 BR12 UNL     1     -33.738  19.032   3.845  1.00 20.00    -0.051 Br
ENDROOT
BRANCH   5   8
HETATM    8  C8  UNL     1     -34.054  17.281  -2.084  1.00 20.00     0.024 A 
HETATM    9  C7  UNL     1     -35.280  16.562  -2.604  1.00 20.00     0.016 A 
HETATM   10  C9  UNL     1     -33.992  15.811  -2.444  1.00 20.00     0.008 A 
BRANCH  10  11
HETATM   11  C10 UNL     1     -33.229  15.367  -3.644  1.00 20.00     0.119 C 
HETATM   12 CL11 UNL     1     -33.230  13.588  -3.789  1.00 20.00    -0.130 Cl
ENDBRANCH  10  11
ENDBRANCH   5   8
TORSDOF 2
ENDMDL
MODEL 2
REMARK VINA RESULT:      -4.8      3.937      5.667
REMARK  2 active torsions:
REMARK  status: ('A' for Active; 'I' for Inactive)
REMARK    1  A    between atoms: C5_5  and  C8_8 
REMARK    2  A    between atoms: C9_9  and  C10_10 
ROOT
HETATM    1  C1  UNL     1     -35.820  16.094  -2.761  1.00 20.00     0.009 A 
HETATM    2  C2  UNL     1     -33.405  16.022  -2.774  1.00 20.00     0.009 A 
HETATM    3  C3  UNL     1     -35.840  15.657  -4.086  1.00 20.00     0.019 A 
HETATM    4  C4  UNL     1     -33.425  15.585  -4.099  1.00 20.00     0.019 A 
HETATM    5  C5  UNL     1     -34.603  16.276  -2.106  1.00 20.00    -0.053 A 
HETATM    6  C6  UNL     1     -34.643  15.403  -4.754  1.00 20.00     0.011 A 
HETATM    7 BR12 UNL     1     -34.670  14.810  -6.549  1.00 20.00    -0.051 Br
ENDROOT
BRANCH   5   8
HETATM    8  C8  UNL     1     -34.581  16.749  -0.671  1.00 20.00     0.024 A 
HETATM    9  C7  UNL     1     -35.634  17.713  -0.169  1.00 20.00     0.016 A 
HETATM   10  C9  UNL     1     -34.222  18.186  -0.353  1.00 20.00     0.008 A 
BRANCH  10  11
HETATM   11  C10 UNL     1     -33.376  18.500   0.832  1.00 20.00     0.119 C 
HETATM   12 CL11 UNL     1     -31.712  18.922   0.344  1.00 20.00    -0.130 Cl
ENDBRANCH  10  11
ENDBRANCH   5   8
TORSDOF 2
ENDMDL
MODEL 3
REMARK VINA RESULT:      -4.8      4.368      6.191
REMARK  2 active torsions:
REMARK  status: ('A' for Active; 'I' for Inactive)
REMARK    1  A    between atoms: C5_5  and  C8_8 
REMARK    2  A    between atoms: C9_9  and  C10_10 
ROOT
HETATM    1  C1  UNL     1     -35.134  15.132  -3.430  1.00 20.00     0.009 A 
HETATM    2  C2  UNL     1     -33.407  16.488  -4.438  1.00 20.00     0.009 A 
HETATM    3  C3  UNL     1     -35.530  14.696  -4.695  1.00 20.00     0.019 A 
HETATM    4  C4  UNL     1     -33.804  16.053  -5.703  1.00 20.00     0.019 A 
HETATM    5  C5  UNL     1     -34.073  16.028  -3.302  1.00 20.00    -0.053 A 
HETATM    6  C6  UNL     1     -34.865  15.157  -5.831  1.00 20.00     0.011 A 
HETATM    7 BR12 UNL     1     -35.401  14.565  -7.545  1.00 20.00    -0.051 Br
ENDROOT
BRANCH   5   8
HETATM    8  C8  UNL     1     -33.644  16.500  -1.933  1.00 20.00     0.024 A 
HETATM    9  C7  UNL     1     -34.661  16.639  -0.820  1.00 20.00     0.016 A 
HETATM   10  C9  UNL     1     -34.064  17.869  -1.438  1.00 20.00     0.008 A 
BRANCH  10  11
HETATM   11  C10 UNL     1     -33.107  18.708  -0.664  1.00 20.00     0.119 C 
HETATM   12 CL11 UNL     1     -33.362  18.526   1.093  1.00 20.00    -0.130 Cl
ENDBRANCH  10  11
ENDBRANCH   5   8
TORSDOF 2
ENDMDL
MODEL 4
REMARK VINA RESULT:      -4.6      1.725      2.422
REMARK  2 active torsions:
REMARK  status: ('A' for Active; 'I' for Inactive)
REMARK    1  A    between atoms: C5_5  and  C8_8 
REMARK    2  A    between atoms: C9_9  and  C10_10 
ROOT
HETATM    1  C1  UNL     1     -34.430  16.257  -1.487  1.00 20.00     0.009 A 
HETATM    2  C2  UNL     1     -33.626  18.312  -2.470  1.00 20.00     0.009 A 
HETATM    3  C3  UNL     1     -34.786  16.950  -0.330  1.00 20.00     0.019 A 
HETATM    4  C4  UNL     1     -33.983  19.005  -1.313  1.00 20.00     0.019 A 
HETATM    5  C5  UNL     1     -33.850  16.938  -2.556  1.00 20.00    -0.053 A 
HETATM    6  C6  UNL     1     -34.562  18.323  -0.243  1.00 20.00     0.011 A 
HETATM    7 BR12 UNL     1     -35.046  19.262   1.325  1.00 20.00    -0.051 Br
ENDROOT
BRANCH   5   8
HETATM    8  C8  UNL     1     -33.464  16.188  -3.810  1.00 20.00     0.024 A 
HETATM    9  C7  UNL     1     -33.518  16.875  -5.157  1.00 20.00     0.016 A 
HETATM   10  C9  UNL     1     -34.525  15.814  -4.824  1.00 20.00     0.008 A 
BRANCH  10  11
HETATM   11  C10 UNL     1     -34.472  14.490  -5.506  1.00 20.00     0.119 C 
HETATM   12 CL11 UNL     1     -35.077  13.190  -4.442  1.00 20.00    -0.130 Cl
ENDBRANCH  10  11
ENDBRANCH   5   8
TORSDOF 2
ENDMDL
MODEL 5
REMARK VINA RESULT:      -4.5      1.696      2.294
REMARK  2 active torsions:
REMARK  status: ('A' for Active; 'I' for Inactive)
REMARK    1  A    between atoms: C5_5  and  C8_8 
REMARK    2  A    between atoms: C9_9  and  C10_10 
ROOT
HETATM    1  C1  UNL     1     -34.248  18.307   2.158  1.00 20.00     0.009 A 
HETATM    2  C2  UNL     1     -32.157  18.757   1.036  1.00 20.00     0.009 A 
HETATM    3  C3  UNL     1     -33.642  18.563   3.389  1.00 20.00     0.019 A 
HETATM    4  C4  UNL     1     -31.551  19.013   2.266  1.00 20.00     0.019 A 
HETATM    5  C5  UNL     1     -33.505  18.405   0.983  1.00 20.00    -0.053 A 
HETATM    6  C6  UNL     1     -32.294  18.915   3.443  1.00 20.00     0.011 A 
HETATM    7 BR12 UNL     1     -31.474  19.262   5.110  1.00 20.00    -0.051 Br
ENDROOT
BRANCH   5   8
HETATM    8  C8  UNL     1     -34.161  18.128  -0.350  1.00 20.00     0.024 A 
HETATM    9  C7  UNL     1     -35.629  17.769  -0.418  1.00 20.00     0.016 A 
HETATM   10  C9  UNL     1     -34.596  16.720  -0.702  1.00 20.00     0.008 A 
BRANCH  10  11
HETATM   11  C10 UNL     1     -34.410  16.206  -2.088  1.00 20.00     0.119 C 
HETATM   12 CL11 UNL     1     -35.978  15.979  -2.909  1.00 20.00    -0.130 Cl
ENDBRANCH  10  11
ENDBRANCH   5   8
TORSDOF 2
ENDMDL
MODEL 6
REMARK VINA RESULT:      -4.5      4.079      5.915
REMARK  2 active torsions:
REMARK  status: ('A' for Active; 'I' for Inactive)
REMARK    1  A    between atoms: C5_5  and  C8_8 
REMARK    2  A    between atoms: C9_9  and  C10_10 
ROOT
HETATM    1  C1  UNL     1     -33.706  16.151  -2.424  1.00 20.00     0.009 A 
HETATM    2  C2  UNL     1     -36.119  16.084  -2.524  1.00 20.00     0.009 A 
HETATM    3  C3  UNL     1     -33.638  15.155  -3.398  1.00 20.00     0.019 A 
HETATM    4  C4  UNL     1     -36.051  15.087  -3.498  1.00 20.00     0.019 A 
HETATM    5  C5  UNL     1     -34.946  16.615  -1.988  1.00 20.00    -0.053 A 
HETATM    6  C6  UNL     1     -34.810  14.623  -3.935  1.00 20.00     0.011 A 
HETATM    7 BR12 UNL     1     -34.718  13.274  -5.256  1.00 20.00    -0.051 Br
ENDROOT
BRANCH   5   8
HETATM    8  C8  UNL     1     -35.021  17.694  -0.933  1.00 20.00     0.024 A 
HETATM    9  C7  UNL     1     -33.800  18.039  -0.107  1.00 20.00     0.016 A 
HETATM   10  C9  UNL     1     -34.952  17.324   0.534  1.00 20.00     0.008 A 
BRANCH  10  11
HETATM   11  C10 UNL     1     -35.815  18.029   1.523  1.00 20.00     0.119 C 
HETATM   12 CL11 UNL     1     -35.184  17.840   3.183  1.00 20.00    -0.130 Cl
ENDBRANCH  10  11
ENDBRANCH   5   8
TORSDOF 2
ENDMDL
MODEL 7
REMARK VINA RESULT:      -4.2      1.890      2.317
REMARK  2 active torsions:
REMARK  status: ('A' for Active; 'I' for Inactive)
REMARK    1  A    between atoms: C5_5  and  C8_8 
REMARK    2  A    between atoms: C9_9  and  C10_10 
ROOT
HETATM    1  C1  UNL     1     -36.229  17.904  -1.717  1.00 20.00     0.009 A 
HETATM    2  C2  UNL     1     -34.614  16.915  -0.218  1.00 20.00     0.009 A 
HETATM    3  C3  UNL     1     -36.841  18.542  -0.638  1.00 20.00     0.019 A 
HETATM    4  C4  UNL     1     -35.226  17.553   0.862  1.00 20.00     0.019 A 
HETATM    5  C5  UNL     1     -35.117  17.091  -1.507  1.00 20.00    -0.053 A 
HETATM    6  C6  UNL     1     -36.339  18.366   0.652  1.00 20.00     0.011 A 
HETATM    7 BR12 UNL     1     -37.167  19.232   2.114  1.00 20.00    -0.051 Br
ENDROOT
BRANCH   5   8
HETATM    8  C8  UNL     1     -34.455  16.400  -2.676  1.00 20.00     0.024 A 
HETATM    9  C7  UNL     1     -35.184  16.263  -3.995  1.00 20.00     0.016 A 
HETATM   10  C9  UNL     1     -34.959  15.050  -3.142  1.00 20.00     0.008 A 
BRANCH  10  11
HETATM   11  C10 UNL     1     -33.994  14.000  -3.571  1.00 20.00     0.119 C 
HETATM   12 CL11 UNL     1     -34.626  13.068  -4.956  1.00 20.00    -0.130 Cl
ENDBRANCH  10  11
ENDBRANCH   5   8
TORSDOF 2
ENDMDL
MODEL 8
REMARK VINA RESULT:      -4.2     15.138     16.395
REMARK  2 active torsions:
REMARK  status: ('A' for Active; 'I' for Inactive)
REMARK    1  A    between atoms: C5_5  and  C8_8 
REMARK    2  A    between atoms: C9_9  and  C10_10 
ROOT
HETATM    1  C1  UNL     1     -41.210   3.820  -1.874  1.00 20.00     0.009 A 
HETATM    2  C2  UNL     1     -43.208   4.385  -3.109  1.00 20.00     0.009 A 
HETATM    3  C3  UNL     1     -41.140   5.126  -1.389  1.00 20.00     0.019 A 
HETATM    4  C4  UNL     1     -43.138   5.692  -2.625  1.00 20.00     0.019 A 
HETATM    5  C5  UNL     1     -42.244   3.450  -2.733  1.00 20.00    -0.053 A 
HETATM    6  C6  UNL     1     -42.103   6.062  -1.765  1.00 20.00     0.011 A 
HETATM    7 BR12 UNL     1     -42.009   7.832  -1.108  1.00 20.00    -0.051 Br
ENDROOT
BRANCH   5   8
HETATM    8  C8  UNL     1     -42.320   2.036  -3.257  1.00 20.00     0.024 A 
HETATM    9  C7  UNL     1     -41.159   1.444  -4.028  1.00 20.00     0.016 A 
HETATM   10  C9  UNL     1     -42.430   1.786  -4.747  1.00 20.00     0.008 A 
BRANCH  10  11
HETATM   11  C10 UNL     1     -43.316   0.703  -5.260  1.00 20.00     0.119 C 
HETATM   12 CL11 UNL     1     -42.386  -0.773  -5.632  1.00 20.00    -0.130 Cl
ENDBRANCH  10  11
ENDBRANCH   5   8
TORSDOF 2
ENDMDL
MODEL 9
REMARK VINA RESULT:      -4.1     15.991     17.480
REMARK  2 active torsions:
REMARK  status: ('A' for Active; 'I' for Inactive)
REMARK    1  A    between atoms: C5_5  and  C8_8 
REMARK    2  A    between atoms: C9_9  and  C10_10 
ROOT
HETATM    1  C1  UNL     1     -41.574   2.430  -3.426  1.00 20.00     0.009 A 
HETATM    2  C2  UNL     1     -43.417   1.733  -2.029  1.00 20.00     0.009 A 
HETATM    3  C3  UNL     1     -41.535   1.162  -4.007  1.00 20.00     0.019 A 
HETATM    4  C4  UNL     1     -43.379   0.465  -2.609  1.00 20.00     0.019 A 
HETATM    5  C5  UNL     1     -42.515   2.715  -2.438  1.00 20.00    -0.053 A 
HETATM    6  C6  UNL     1     -42.437   0.180  -3.598  1.00 20.00     0.011 A 
HETATM    7 BR12 UNL     1     -42.385  -1.538  -4.386  1.00 20.00    -0.051 Br
ENDROOT
BRANCH   5   8
HETATM    8  C8  UNL     1     -42.557   4.088  -1.809  1.00 20.00     0.024 A 
HETATM    9  C7  UNL     1     -42.304   5.321  -2.649  1.00 20.00     0.016 A 
HETATM   10  C9  UNL     1     -41.279   4.885  -1.644  1.00 20.00     0.008 A 
BRANCH  10  11
HETATM   11  C10 UNL     1     -41.052   5.686  -0.409  1.00 20.00     0.119 C 
HETATM   12 CL11 UNL     1     -41.208   7.434  -0.734  1.00 20.00    -0.130 Cl
ENDBRANCH  10  11
ENDBRANCH   5   8
TORSDOF 2
ENDMDL
