MODEL 1
REMARK VINA RESULT:      -4.1      0.000      0.000
REMARK  2 active torsions:
REMARK  status: ('A' for Active; 'I' for Inactive)
REMARK    1  A    between atoms: C3_3  and  C6_6 
REMARK    2  A    between atoms: C7_7  and  C9_9 
ROOT
HETATM    1  C1  UNL     1     -34.389  15.614  -2.316  1.00 20.00     0.016 A 
HETATM    2  C2  UNL     1     -34.204  16.872  -1.672  1.00 20.00     0.015 A 
HETATM    3  C3  UNL     1     -34.090  15.672  -3.659  1.00 20.00    -0.013 A 
HETATM    4  C4  UNL     1     -33.772  17.843  -2.548  1.00 20.00    -0.021 A 
HETATM    5  C8  UNL     1     -33.466  19.263  -2.270  1.00 20.00     0.056 C 
HETATM    6  S10 UNL     1     -33.590  17.238  -4.141  1.00 20.00    -0.099 SA
ENDROOT
BRANCH   3   7
HETATM    7  C6  UNL     1     -34.189  14.474  -4.620  1.00 20.00     0.031 A 
HETATM    8  C5  UNL     1     -35.186  13.380  -4.309  1.00 20.00     0.016 A 
HETATM    9  C7  UNL     1     -35.418  14.279  -5.487  1.00 20.00     0.005 A 
BRANCH   9  10
HETATM   10  C9  UNL     1     -36.561  15.235  -5.482  1.00 20.00     0.090 C 
HETATM   11 BR11 UNL     1     -37.794  14.818  -4.028  1.00 20.00    -0.096 Br
ENDBRANCH   9  10
ENDBRANCH   3   7
TORSDOF 2
ENDMDL
MODEL 2
REMARK VINA RESULT:      -4.0      2.399      4.402
REMARK  2 active torsions:
REMARK  status: ('A' for Active; 'I' for Inactive)
REMARK    1  A    between atoms: C3_3  and  C6_6 
REMARK    2  A    between atoms: C7_7  and  C9_9 
ROOT
HETATM    1  C1  UNL     1     -34.718  14.753  -6.606  1.00 20.00     0.016 A 
HETATM    2  C2  UNL     1     -35.362  15.554  -7.594  1.00 20.00     0.015 A 
HETATM    3  C3  UNL     1     -35.497  14.595  -5.481  1.00 20.00    -0.013 A 
HETATM    4  C4  UNL     1     -36.606  15.978  -7.185  1.00 20.00    -0.021 A 
HETATM    5  C8  UNL     1     -37.579  16.816  -7.918  1.00 20.00     0.056 C 
HETATM    6  S10 UNL     1     -36.996  15.411  -5.616  1.00 20.00    -0.099 SA
ENDROOT
BRANCH   3   7
HETATM    7  C6  UNL     1     -35.076  13.780  -4.245  1.00 20.00     0.031 A 
HETATM    8  C5  UNL     1     -33.599  13.593  -3.973  1.00 20.00     0.016 A 
HETATM    9  C7  UNL     1     -34.416  14.460  -3.061  1.00 20.00     0.005 A 
BRANCH   9  10
HETATM   10  C9  UNL     1     -34.174  15.930  -3.013  1.00 20.00     0.090 C 
HETATM   11 BR11 UNL     1     -34.622  16.639  -1.251  1.00 20.00    -0.096 Br
ENDBRANCH   9  10
ENDBRANCH   3   7
TORSDOF 2
ENDMDL
MODEL 3
REMARK VINA RESULT:      -4.0      2.628      3.804
REMARK  2 active torsions:
REMARK  status: ('A' for Active; 'I' for Inactive)
REMARK    1  A    between atoms: C3_3  and  C6_6 
REMARK    2  A    between atoms: C7_7  and  C9_9 
ROOT
HETATM    1  C1  UNL     1     -35.244  14.925  -7.188  1.00 20.00     0.016 A 
HETATM    2  C2  UNL     1     -35.223  16.149  -7.918  1.00 20.00     0.015 A 
HETATM    3  C3  UNL     1     -34.492  14.997  -6.036  1.00 20.00    -0.013 A 
HETATM    4  C4  UNL     1     -34.455  17.109  -7.295  1.00 20.00    -0.021 A 
HETATM    5  C8  UNL     1     -34.188  18.497  -7.729  1.00 20.00     0.056 C 
HETATM    6  S10 UNL     1     -33.764  16.534  -5.837  1.00 20.00    -0.099 SA
ENDROOT
BRANCH   3   7
HETATM    7  C6  UNL     1     -34.325  13.837  -5.039  1.00 20.00     0.031 A 
HETATM    8  C5  UNL     1     -33.452  14.051  -3.822  1.00 20.00     0.016 A 
HETATM    9  C7  UNL     1     -34.936  13.916  -3.653  1.00 20.00     0.005 A 
BRANCH   9  10
HETATM   10  C9  UNL     1     -35.746  15.083  -3.200  1.00 20.00     0.090 C 
HETATM   11 BR11 UNL     1     -34.722  16.180  -1.952  1.00 20.00    -0.096 Br
ENDBRANCH   9  10
ENDBRANCH   3   7
TORSDOF 2
ENDMDL
MODEL 4
REMARK VINA RESULT:      -3.9      2.081      2.655
REMARK  2 active torsions:
REMARK  status: ('A' for Active; 'I' for Inactive)
REMARK    1  A    between atoms: C3_3  and  C6_6 
REMARK    2  A    between atoms: C7_7  and  C9_9 
ROOT
HETATM    1  C1  UNL     1     -34.000  16.648  -1.618  1.00 20.00     0.016 A 
HETATM    2  C2  UNL     1     -34.707  16.963  -0.421  1.00 20.00     0.015 A 
HETATM    3  C3  UNL     1     -34.459  17.373  -2.696  1.00 20.00    -0.013 A 
HETATM    4  C4  UNL     1     -35.680  17.915  -0.631  1.00 20.00    -0.021 A 
HETATM    5  C8  UNL     1     -36.617  18.504   0.349  1.00 20.00     0.056 C 
HETATM    6  S10 UNL     1     -35.739  18.426  -2.266  1.00 20.00    -0.099 SA
ENDROOT
BRANCH   3   7
HETATM    7  C6  UNL     1     -33.891  17.256  -4.122  1.00 20.00     0.031 A 
HETATM    8  C5  UNL     1     -33.095  16.021  -4.483  1.00 20.00     0.016 A 
HETATM    9  C7  UNL     1     -34.449  16.233  -5.093  1.00 20.00     0.005 A 
BRANCH   9  10
HETATM   10  C9  UNL     1     -35.577  15.325  -4.740  1.00 20.00     0.090 C 
HETATM   11 BR11 UNL     1     -34.903  13.566  -4.232  1.00 20.00    -0.096 Br
ENDBRANCH   9  10
ENDBRANCH   3   7
TORSDOF 2
ENDMDL
MODEL 5
REMARK VINA RESULT:      -3.9      1.766      2.432
REMARK  2 active torsions:
REMARK  status: ('A' for Active; 'I' for Inactive)
REMARK    1  A    between atoms: C3_3  and  C6_6 
REMARK    2  A    between atoms: C7_7  and  C9_9 
ROOT
HETATM    1  C1  UNL     1     -34.581  14.559  -4.571  1.00 20.00     0.016 A 
HETATM    2  C2  UNL     1     -34.478  14.887  -3.188  1.00 20.00     0.015 A 
HETATM    3  C3  UNL     1     -34.169  15.595  -5.381  1.00 20.00    -0.013 A 
HETATM    4  C4  UNL     1     -33.991  16.161  -2.994  1.00 20.00    -0.021 A 
HETATM    5  C8  UNL     1     -33.737  16.864  -1.719  1.00 20.00     0.056 C 
HETATM    6  S10 UNL     1     -33.660  16.956  -4.475  1.00 20.00    -0.099 SA
ENDROOT
BRANCH   3   7
HETATM    7  C6  UNL     1     -34.160  15.540  -6.919  1.00 20.00     0.031 A 
HETATM    8  C5  UNL     1     -35.128  14.606  -7.613  1.00 20.00     0.016 A 
HETATM    9  C7  UNL     1     -35.327  16.089  -7.717  1.00 20.00     0.005 A 
BRANCH   9  10
HETATM   10  C9  UNL     1     -36.507  16.731  -7.072  1.00 20.00     0.090 C 
HETATM   11 BR11 UNL     1     -37.945  15.434  -6.835  1.00 20.00    -0.096 Br
ENDBRANCH   9  10
ENDBRANCH   3   7
TORSDOF 2
ENDMDL
MODEL 6
REMARK VINA RESULT:      -3.9      1.871      4.132
REMARK  2 active torsions:
REMARK  status: ('A' for Active; 'I' for Inactive)
REMARK    1  A    between atoms: C3_3  and  C6_6 
REMARK    2  A    between atoms: C7_7  and  C9_9 
ROOT
HETATM    1  C1  UNL     1     -34.801  13.975  -3.805  1.00 20.00     0.016 A 
HETATM    2  C2  UNL     1     -34.910  13.690  -5.198  1.00 20.00     0.015 A 
HETATM    3  C3  UNL     1     -34.353  15.256  -3.572  1.00 20.00    -0.013 A 
HETATM    4  C4  UNL     1     -34.541  14.766  -5.975  1.00 20.00    -0.021 A 
HETATM    5  C8  UNL     1     -34.518  14.871  -7.449  1.00 20.00     0.056 C 
HETATM    6  S10 UNL     1     -34.065  16.112  -5.027  1.00 20.00    -0.099 SA
ENDROOT
BRANCH   3   7
HETATM    7  C6  UNL     1     -34.138  15.856  -2.171  1.00 20.00     0.031 A 
HETATM    8  C5  UNL     1     -33.757  17.316  -2.062  1.00 20.00     0.016 A 
HETATM    9  C7  UNL     1     -35.115  16.870  -1.608  1.00 20.00     0.005 A 
BRANCH   9  10
HETATM   10  C9  UNL     1     -36.331  17.308  -2.350  1.00 20.00     0.090 C 
HETATM   11 BR11 UNL     1     -36.026  19.039  -3.198  1.00 20.00    -0.096 Br
ENDBRANCH   9  10
ENDBRANCH   3   7
TORSDOF 2
ENDMDL
MODEL 7
REMARK VINA RESULT:      -3.9      2.934      4.831
REMARK  2 active torsions:
REMARK  status: ('A' for Active; 'I' for Inactive)
REMARK    1  A    between atoms: C3_3  and  C6_6 
REMARK    2  A    between atoms: C7_7  and  C9_9 
ROOT
HETATM    1  C1  UNL     1     -34.220  15.451  -2.690  1.00 20.00     0.016 A 
HETATM    2  C2  UNL     1     -33.851  15.027  -4.000  1.00 20.00     0.015 A 
HETATM    3  C3  UNL     1     -34.893  16.653  -2.706  1.00 20.00    -0.013 A 
HETATM    4  C4  UNL     1     -34.255  15.922  -4.966  1.00 20.00    -0.021 A 
HETATM    5  C8  UNL     1     -34.067  15.843  -6.430  1.00 20.00     0.056 C 
HETATM    6  S10 UNL     1     -35.078  17.267  -4.294  1.00 20.00    -0.099 SA
ENDROOT
BRANCH   3   7
HETATM    7  C6  UNL     1     -35.423  17.364  -1.448  1.00 20.00     0.031 A 
HETATM    8  C5  UNL     1     -34.788  17.039  -0.114  1.00 20.00     0.016 A 
HETATM    9  C7  UNL     1     -34.573  18.391  -0.727  1.00 20.00     0.005 A 
BRANCH   9  10
HETATM   10  C9  UNL     1     -33.218  18.787  -1.204  1.00 20.00     0.090 C 
HETATM   11 BR11 UNL     1     -32.015  19.064   0.307  1.00 20.00    -0.096 Br
ENDBRANCH   9  10
ENDBRANCH   3   7
TORSDOF 2
ENDMDL
MODEL 8
REMARK VINA RESULT:      -3.9      2.137      2.716
REMARK  2 active torsions:
REMARK  status: ('A' for Active; 'I' for Inactive)
REMARK    1  A    between atoms: C3_3  and  C6_6 
REMARK    2  A    between atoms: C7_7  and  C9_9 
ROOT
HETATM    1  C1  UNL     1     -36.165  15.114  -4.184  1.00 20.00     0.016 A 
HETATM    2  C2  UNL     1     -36.206  15.685  -2.878  1.00 20.00     0.015 A 
HETATM    3  C3  UNL     1     -34.875  14.972  -4.646  1.00 20.00    -0.013 A 
HETATM    4  C4  UNL     1     -34.946  15.957  -2.394  1.00 20.00    -0.021 A 
HETATM    5  C8  UNL     1     -34.569  16.543  -1.090  1.00 20.00     0.056 C 
HETATM    6  S10 UNL     1     -33.720  15.526  -3.510  1.00 20.00    -0.099 SA
ENDROOT
BRANCH   3   7
HETATM    7  C6  UNL     1     -34.509  14.383  -6.020  1.00 20.00     0.031 A 
HETATM    8  C5  UNL     1     -35.551  14.406  -7.116  1.00 20.00     0.016 A 
HETATM    9  C7  UNL     1     -34.340  15.286  -7.226  1.00 20.00     0.005 A 
BRANCH   9  10
HETATM   10  C9  UNL     1     -34.484  16.767  -7.145  1.00 20.00     0.090 C 
HETATM   11 BR11 UNL     1     -36.302  17.303  -7.609  1.00 20.00    -0.096 Br
ENDBRANCH   9  10
ENDBRANCH   3   7
TORSDOF 2
ENDMDL
MODEL 9
REMARK VINA RESULT:      -3.8      1.969      4.219
REMARK  2 active torsions:
REMARK  status: ('A' for Active; 'I' for Inactive)
REMARK    1  A    between atoms: C3_3  and  C6_6 
REMARK    2  A    between atoms: C7_7  and  C9_9 
ROOT
HETATM    1  C1  UNL     1     -33.457  16.427  -3.859  1.00 20.00     0.016 A 
HETATM    2  C2  UNL     1     -33.584  15.969  -5.203  1.00 20.00     0.015 A 
HETATM    3  C3  UNL     1     -34.455  15.934  -3.047  1.00 20.00    -0.013 A 
HETATM    4  C4  UNL     1     -34.675  15.144  -5.366  1.00 20.00    -0.021 A 
HETATM    5  C8  UNL     1     -35.142  14.470  -6.596  1.00 20.00     0.056 C 
HETATM    6  S10 UNL     1     -35.540  14.924  -3.904  1.00 20.00    -0.099 SA
ENDROOT
BRANCH   3   7
HETATM    7  C6  UNL     1     -34.583  16.247  -1.546  1.00 20.00     0.031 A 
HETATM    8  C5  UNL     1     -33.792  17.406  -0.981  1.00 20.00     0.016 A 
HETATM    9  C7  UNL     1     -35.285  17.507  -1.078  1.00 20.00     0.005 A 
BRANCH   9  10
HETATM   10  C9  UNL     1     -35.908  18.476  -2.024  1.00 20.00     0.090 C 
HETATM   11 BR11 UNL     1     -37.781  18.024  -2.329  1.00 20.00    -0.096 Br
ENDBRANCH   9  10
ENDBRANCH   3   7
TORSDOF 2
ENDMDL
