MODEL 1
REMARK VINA RESULT:      -4.7      0.000      0.000
REMARK  1 active torsions:
REMARK  status: ('A' for Active; 'I' for Inactive)
REMARK    1  A    between atoms: C5_5  and  C10_10 
ROOT
HETATM    1  C1  UNL     1     -35.973  16.083  -2.932  1.00 20.00     0.011 C 
HETATM    2  C2  UNL     1     -36.075  14.750  -3.680  1.00 20.00     0.009 C 
HETATM    3  C3  UNL     1     -33.908  17.623  -2.522  1.00 20.00     0.016 A 
HETATM    4  C4  UNL     1     -33.729  15.161  -3.382  1.00 20.00     0.018 C 
HETATM    5  C5  UNL     1     -33.976  16.741  -1.309  1.00 20.00     0.005 A 
HETATM    6  C6  UNL     1     -34.499  16.233  -2.641  1.00 20.00    -0.035 A 
HETATM    7  C7  UNL     1     -34.732  14.608  -4.416  1.00 20.00    -0.047 C 
HETATM    8  C8  UNL     1     -34.437  13.147  -4.760  1.00 20.00     0.015 C 
HETATM    9  C9  UNL     1     -34.710  15.447  -5.704  1.00 20.00     0.015 C 
ENDROOT
BRANCH   5  10
HETATM   10  C10 UNL     1     -34.874  17.105  -0.178  1.00 20.00     0.090 C 
HETATM   11 BR11 UNL     1     -34.024  18.436   0.968  1.00 20.00    -0.096 Br
ENDBRANCH   5  10
TORSDOF 1
ENDMDL
MODEL 2
REMARK VINA RESULT:      -4.6      2.917      4.709
REMARK  1 active torsions:
REMARK  status: ('A' for Active; 'I' for Inactive)
REMARK    1  A    between atoms: C5_5  and  C10_10 
ROOT
HETATM    1  C1  UNL     1     -35.932  15.795  -3.493  1.00 20.00     0.011 C 
HETATM    2  C2  UNL     1     -35.678  17.224  -3.005  1.00 20.00     0.009 C 
HETATM    3  C3  UNL     1     -34.365  13.710  -3.468  1.00 20.00     0.016 A 
HETATM    4  C4  UNL     1     -33.531  16.152  -3.051  1.00 20.00     0.018 C 
HETATM    5  C5  UNL     1     -34.160  14.328  -4.821  1.00 20.00     0.005 A 
HETATM    6  C6  UNL     1     -34.551  15.203  -3.643  1.00 20.00    -0.035 A 
HETATM    7  C7  UNL     1     -34.364  17.141  -2.209  1.00 20.00    -0.047 C 
HETATM    8  C8  UNL     1     -33.685  18.508  -2.110  1.00 20.00     0.015 C 
HETATM    9  C9  UNL     1     -34.604  16.589  -0.793  1.00 20.00     0.015 C 
ENDROOT
BRANCH   5  10
HETATM   10  C10 UNL     1     -35.099  14.008  -5.932  1.00 20.00     0.090 C 
HETATM   11 BR11 UNL     1     -34.717  15.119  -7.490  1.00 20.00    -0.096 Br
ENDBRANCH   5  10
TORSDOF 1
ENDMDL
MODEL 3
REMARK VINA RESULT:      -4.4      3.281      5.078
REMARK  1 active torsions:
REMARK  status: ('A' for Active; 'I' for Inactive)
REMARK    1  A    between atoms: C5_5  and  C10_10 
ROOT
HETATM    1  C1  UNL     1     -35.010  13.766  -5.353  1.00 20.00     0.011 C 
HETATM    2  C2  UNL     1     -35.046  13.942  -3.832  1.00 20.00     0.009 C 
HETATM    3  C3  UNL     1     -34.190  15.401  -7.212  1.00 20.00     0.016 A 
HETATM    4  C4  UNL     1     -34.624  16.124  -4.739  1.00 20.00     0.018 C 
HETATM    5  C5  UNL     1     -35.664  15.660  -7.096  1.00 20.00     0.005 A 
HETATM    6  C6  UNL     1     -34.885  15.173  -5.887  1.00 20.00    -0.035 A 
HETATM    7  C7  UNL     1     -34.219  15.211  -3.563  1.00 20.00    -0.047 C 
HETATM    8  C8  UNL     1     -34.580  15.836  -2.214  1.00 20.00     0.015 C 
HETATM    9  C9  UNL     1     -32.711  14.911  -3.596  1.00 20.00     0.015 C 
ENDROOT
BRANCH   5  10
HETATM   10  C10 UNL     1     -36.628  14.797  -7.834  1.00 20.00     0.090 C 
HETATM   11 BR11 UNL     1     -38.462  15.258  -7.354  1.00 20.00    -0.096 Br
ENDBRANCH   5  10
TORSDOF 1
ENDMDL
MODEL 4
REMARK VINA RESULT:      -4.4      2.617      4.803
REMARK  1 active torsions:
REMARK  status: ('A' for Active; 'I' for Inactive)
REMARK    1  A    between atoms: C5_5  and  C10_10 
ROOT
HETATM    1  C1  UNL     1     -34.098  17.482  -3.121  1.00 20.00     0.011 C 
HETATM    2  C2  UNL     1     -33.568  18.330  -1.961  1.00 20.00     0.009 C 
HETATM    3  C3  UNL     1     -35.798  15.504  -3.112  1.00 20.00     0.016 A 
HETATM    4  C4  UNL     1     -34.669  16.450  -0.953  1.00 20.00     0.018 C 
HETATM    5  C5  UNL     1     -34.450  14.851  -3.014  1.00 20.00     0.005 A 
HETATM    6  C6  UNL     1     -34.655  16.247  -2.453  1.00 20.00    -0.035 A 
HETATM    7  C7  UNL     1     -34.466  17.969  -0.766  1.00 20.00    -0.047 C 
HETATM    8  C8  UNL     1     -33.778  18.285   0.564  1.00 20.00     0.015 C 
HETATM    9  C9  UNL     1     -35.809  18.714  -0.833  1.00 20.00     0.015 C 
ENDROOT
BRANCH   5  10
HETATM   10  C10 UNL     1     -33.662  14.588  -4.251  1.00 20.00     0.090 C 
HETATM   11 BR11 UNL     1     -34.850  14.382  -5.785  1.00 20.00    -0.096 Br
ENDBRANCH   5  10
TORSDOF 1
ENDMDL
MODEL 5
REMARK VINA RESULT:      -4.4      1.481      2.563
REMARK  1 active torsions:
REMARK  status: ('A' for Active; 'I' for Inactive)
REMARK    1  A    between atoms: C5_5  and  C10_10 
ROOT
HETATM    1  C1  UNL     1     -34.050  17.016  -5.117  1.00 20.00     0.011 C 
HETATM    2  C2  UNL     1     -35.207  16.976  -6.119  1.00 20.00     0.009 C 
HETATM    3  C3  UNL     1     -33.022  15.109  -3.664  1.00 20.00     0.016 A 
HETATM    4  C4  UNL     1     -35.312  14.906  -4.909  1.00 20.00     0.018 C 
HETATM    5  C5  UNL     1     -34.048  15.755  -2.779  1.00 20.00     0.005 A 
HETATM    6  C6  UNL     1     -34.235  15.769  -4.286  1.00 20.00    -0.035 A 
HETATM    7  C7  UNL     1     -35.495  15.480  -6.330  1.00 20.00    -0.047 C 
HETATM    8  C8  UNL     1     -36.916  15.253  -6.849  1.00 20.00     0.015 C 
HETATM    9  C9  UNL     1     -34.490  14.851  -7.309  1.00 20.00     0.015 C 
ENDROOT
BRANCH   5  10
HETATM   10  C10 UNL     1     -33.693  16.975  -2.001  1.00 20.00     0.090 C 
HETATM   11 BR11 UNL     1     -34.754  17.076  -0.367  1.00 20.00    -0.096 Br
ENDBRANCH   5  10
TORSDOF 1
ENDMDL
MODEL 6
REMARK VINA RESULT:      -4.3      1.046      2.105
REMARK  1 active torsions:
REMARK  status: ('A' for Active; 'I' for Inactive)
REMARK    1  A    between atoms: C5_5  and  C10_10 
ROOT
HETATM    1  C1  UNL     1     -33.292  16.017  -3.618  1.00 20.00     0.011 C 
HETATM    2  C2  UNL     1     -33.788  15.492  -4.969  1.00 20.00     0.009 C 
HETATM    3  C3  UNL     1     -34.572  16.330  -1.368  1.00 20.00     0.016 A 
HETATM    4  C4  UNL     1     -35.756  15.903  -3.658  1.00 20.00     0.018 C 
HETATM    5  C5  UNL     1     -34.670  17.663  -2.053  1.00 20.00     0.005 A 
HETATM    6  C6  UNL     1     -34.554  16.394  -2.881  1.00 20.00    -0.035 A 
HETATM    7  C7  UNL     1     -35.176  14.898  -4.675  1.00 20.00    -0.047 C 
HETATM    8  C8  UNL     1     -36.030  14.822  -5.942  1.00 20.00     0.015 C 
HETATM    9  C9  UNL     1     -35.061  13.495  -4.055  1.00 20.00     0.015 C 
ENDROOT
BRANCH   5  10
HETATM   10  C10 UNL     1     -33.557  18.644  -1.926  1.00 20.00     0.090 C 
HETATM   11 BR11 UNL     1     -32.855  18.649  -0.105  1.00 20.00    -0.096 Br
ENDBRANCH   5  10
TORSDOF 1
ENDMDL
MODEL 7
REMARK VINA RESULT:      -4.3      1.998      2.526
REMARK  1 active torsions:
REMARK  status: ('A' for Active; 'I' for Inactive)
REMARK    1  A    between atoms: C5_5  and  C10_10 
ROOT
HETATM    1  C1  UNL     1     -33.644  16.781  -3.674  1.00 20.00     0.011 C 
HETATM    2  C2  UNL     1     -33.718  15.822  -4.866  1.00 20.00     0.009 C 
HETATM    3  C3  UNL     1     -34.526  16.498  -1.236  1.00 20.00     0.016 A 
HETATM    4  C4  UNL     1     -35.222  14.941  -3.216  1.00 20.00     0.018 C 
HETATM    5  C5  UNL     1     -35.633  17.203  -1.965  1.00 20.00     0.005 A 
HETATM    6  C6  UNL     1     -34.702  16.274  -2.723  1.00 20.00    -0.035 A 
HETATM    7  C7  UNL     1     -34.188  14.486  -4.268  1.00 20.00    -0.047 C 
HETATM    8  C8  UNL     1     -34.825  13.591  -5.333  1.00 20.00     0.015 C 
HETATM    9  C9  UNL     1     -33.024  13.733  -3.602  1.00 20.00     0.015 C 
ENDROOT
BRANCH   5  10
HETATM   10  C10 UNL     1     -35.593  18.684  -2.119  1.00 20.00     0.090 C 
HETATM   11 BR11 UNL     1     -36.856  19.262  -3.488  1.00 20.00    -0.096 Br
ENDBRANCH   5  10
TORSDOF 1
ENDMDL
MODEL 8
REMARK VINA RESULT:      -4.3     11.458     12.397
REMARK  1 active torsions:
REMARK  status: ('A' for Active; 'I' for Inactive)
REMARK    1  A    between atoms: C5_5  and  C10_10 
ROOT
HETATM    1  C1  UNL     1     -34.427   5.570   2.955  1.00 20.00     0.011 C 
HETATM    2  C2  UNL     1     -35.433   5.351   4.089  1.00 20.00     0.009 C 
HETATM    3  C3  UNL     1     -31.837   5.868   3.042  1.00 20.00     0.016 A 
HETATM    4  C4  UNL     1     -33.383   6.019   5.145  1.00 20.00     0.018 C 
HETATM    5  C5  UNL     1     -32.385   7.265   3.070  1.00 20.00     0.005 A 
HETATM    6  C6  UNL     1     -33.203   6.122   3.645  1.00 20.00    -0.035 A 
HETATM    7  C7  UNL     1     -34.570   5.050   5.327  1.00 20.00    -0.047 C 
HETATM    8  C8  UNL     1     -35.335   5.334   6.621  1.00 20.00     0.015 C 
HETATM    9  C9  UNL     1     -34.090   3.589   5.331  1.00 20.00     0.015 C 
ENDROOT
BRANCH   5  10
HETATM   10  C10 UNL     1     -32.741   7.947   1.794  1.00 20.00     0.090 C 
HETATM   11 BR11 UNL     1     -32.568   9.881   1.982  1.00 20.00    -0.096 Br
ENDBRANCH   5  10
TORSDOF 1
ENDMDL
MODEL 9
REMARK VINA RESULT:      -4.2      1.145      1.442
REMARK  1 active torsions:
REMARK  status: ('A' for Active; 'I' for Inactive)
REMARK    1  A    between atoms: C5_5  and  C10_10 
ROOT
HETATM    1  C1  UNL     1     -35.280  17.768  -2.939  1.00 20.00     0.011 C 
HETATM    2  C2  UNL     1     -35.662  16.859  -4.111  1.00 20.00     0.009 C 
HETATM    3  C3  UNL     1     -33.418  17.486  -1.134  1.00 20.00     0.016 A 
HETATM    4  C4  UNL     1     -34.203  15.559  -2.716  1.00 20.00     0.018 C 
HETATM    5  C5  UNL     1     -34.650  16.896  -0.510  1.00 20.00     0.005 A 
HETATM    6  C6  UNL     1     -34.484  16.873  -2.019  1.00 20.00    -0.035 A 
HETATM    7  C7  UNL     1     -34.520  15.833  -4.202  1.00 20.00    -0.047 C 
HETATM    8  C8  UNL     1     -34.968  14.562  -4.925  1.00 20.00     0.015 C 
HETATM    9  C9  UNL     1     -33.296  16.423  -4.923  1.00 20.00     0.015 C 
ENDROOT
BRANCH   5  10
HETATM   10  C10 UNL     1     -35.629  17.782   0.178  1.00 20.00     0.090 C 
HETATM   11 BR11 UNL     1     -34.801  18.650   1.717  1.00 20.00    -0.096 Br
ENDBRANCH   5  10
TORSDOF 1
ENDMDL
