MODEL 1
REMARK VINA RESULT:      -4.4      0.000      0.000
REMARK  2 active torsions:
REMARK  status: ('A' for Active; 'I' for Inactive)
REMARK    1  A    between atoms: C3_3  and  C9_9 
REMARK    2  A    between atoms: C4_4  and  C10_10 
ROOT
HETATM    1  C1  UNL     1     -35.050  13.732  -4.600  1.00 20.00     0.131 C 
HETATM    2  C2  UNL     1     -34.863  14.452  -5.948  1.00 20.00     0.084 C 
HETATM    3  C3  UNL     1     -35.333  15.063  -3.862  1.00 20.00     0.060 C 
HETATM    4  C4  UNL     1     -35.500  15.705  -5.284  1.00 20.00     0.011 C 
HETATM    5  O11 UNL     1     -34.993  12.572  -4.255  1.00 20.00    -0.298 OA
ENDROOT
BRANCH   4   6
HETATM    6  C10 UNL     1     -34.815  17.026  -5.581  1.00 20.00    -0.047 C 
HETATM    7  C6  UNL     1     -33.313  16.931  -5.248  1.00 20.00     0.015 C 
HETATM    8  C7  UNL     1     -35.442  18.151  -4.733  1.00 20.00     0.015 C 
HETATM    9  C8  UNL     1     -34.973  17.381  -7.073  1.00 20.00     0.015 C 
ENDBRANCH   4   6
BRANCH   3  10
HETATM   10  C9  UNL     1     -34.210  15.524  -2.951  1.00 20.00     0.008 C 
HETATM   11  C5  UNL     1     -34.727  16.155  -1.696  1.00 20.00     0.006 C 
ENDBRANCH   3  10
TORSDOF 2
ENDMDL
MODEL 2
REMARK VINA RESULT:      -4.4      1.370      1.839
REMARK  2 active torsions:
REMARK  status: ('A' for Active; 'I' for Inactive)
REMARK    1  A    between atoms: C3_3  and  C9_9 
REMARK    2  A    between atoms: C4_4  and  C10_10 
ROOT
HETATM    1  C1  UNL     1     -33.894  13.640  -4.034  1.00 20.00     0.131 C 
HETATM    2  C2  UNL     1     -34.685  13.846  -5.339  1.00 20.00     0.084 C 
HETATM    3  C3  UNL     1     -34.845  14.570  -3.242  1.00 20.00     0.060 C 
HETATM    4  C4  UNL     1     -35.817  14.463  -4.470  1.00 20.00     0.011 C 
HETATM    5  O11 UNL     1     -32.906  13.000  -3.745  1.00 20.00    -0.298 OA
ENDROOT
BRANCH   4   6
HETATM    6  C10 UNL     1     -36.453  15.726  -5.019  1.00 20.00    -0.047 C 
HETATM    7  C6  UNL     1     -35.361  16.714  -5.475  1.00 20.00     0.015 C 
HETATM    8  C7  UNL     1     -37.313  16.401  -3.932  1.00 20.00     0.015 C 
HETATM    9  C8  UNL     1     -37.351  15.386  -6.225  1.00 20.00     0.015 C 
ENDBRANCH   4   6
BRANCH   3  10
HETATM   10  C9  UNL     1     -34.241  15.912  -2.871  1.00 20.00     0.008 C 
HETATM   11  C5  UNL     1     -34.591  16.319  -1.474  1.00 20.00     0.006 C 
ENDBRANCH   3  10
TORSDOF 2
ENDMDL
MODEL 3
REMARK VINA RESULT:      -4.3      1.245      3.082
REMARK  2 active torsions:
REMARK  status: ('A' for Active; 'I' for Inactive)
REMARK    1  A    between atoms: C3_3  and  C9_9 
REMARK    2  A    between atoms: C4_4  and  C10_10 
ROOT
HETATM    1  C1  UNL     1     -34.541  13.637  -4.583  1.00 20.00     0.131 C 
HETATM    2  C2  UNL     1     -34.509  14.343  -3.216  1.00 20.00     0.084 C 
HETATM    3  C3  UNL     1     -34.145  14.934  -5.328  1.00 20.00     0.060 C 
HETATM    4  C4  UNL     1     -33.768  15.514  -3.919  1.00 20.00     0.011 C 
HETATM    5  O11 UNL     1     -34.787  12.503  -4.935  1.00 20.00    -0.298 OA
ENDROOT
BRANCH   4   6
HETATM    6  C10 UNL     1     -34.238  16.908  -3.546  1.00 20.00    -0.047 C 
HETATM    7  C6  UNL     1     -35.776  16.983  -3.608  1.00 20.00     0.015 C 
HETATM    8  C7  UNL     1     -33.648  17.945  -4.523  1.00 20.00     0.015 C 
HETATM    9  C8  UNL     1     -33.780  17.256  -2.115  1.00 20.00     0.015 C 
ENDBRANCH   4   6
BRANCH   3  10
HETATM   10  C9  UNL     1     -35.271  15.564  -6.128  1.00 20.00     0.008 C 
HETATM   11  C5  UNL     1     -34.834  15.946  -7.508  1.00 20.00     0.006 C 
ENDBRANCH   3  10
TORSDOF 2
ENDMDL
MODEL 4
REMARK VINA RESULT:      -4.2      1.674      2.329
REMARK  2 active torsions:
REMARK  status: ('A' for Active; 'I' for Inactive)
REMARK    1  A    between atoms: C3_3  and  C9_9 
REMARK    2  A    between atoms: C4_4  and  C10_10 
ROOT
HETATM    1  C1  UNL     1     -37.177  14.747  -4.290  1.00 20.00     0.131 C 
HETATM    2  C2  UNL     1     -37.140  15.709  -5.491  1.00 20.00     0.084 C 
HETATM    3  C3  UNL     1     -35.657  14.901  -4.045  1.00 20.00     0.060 C 
HETATM    4  C4  UNL     1     -35.723  16.133  -5.015  1.00 20.00     0.011 C 
HETATM    5  O11 UNL     1     -38.059  14.113  -3.751  1.00 20.00    -0.298 OA
ENDROOT
BRANCH   4   6
HETATM    6  C10 UNL     1     -34.676  16.268  -6.106  1.00 20.00    -0.047 C 
HETATM    7  C6  UNL     1     -34.601  14.970  -6.932  1.00 20.00     0.015 C 
HETATM    8  C7  UNL     1     -33.294  16.544  -5.482  1.00 20.00     0.015 C 
HETATM    9  C8  UNL     1     -35.039  17.436  -7.046  1.00 20.00     0.015 C 
ENDBRANCH   4   6
BRANCH   3  10
HETATM   10  C9  UNL     1     -34.836  13.682  -4.425  1.00 20.00     0.008 C 
HETATM   11  C5  UNL     1     -33.596  13.559  -3.596  1.00 20.00     0.006 C 
ENDBRANCH   3  10
TORSDOF 2
ENDMDL
MODEL 5
REMARK VINA RESULT:      -4.2      1.457      2.025
REMARK  2 active torsions:
REMARK  status: ('A' for Active; 'I' for Inactive)
REMARK    1  A    between atoms: C3_3  and  C9_9 
REMARK    2  A    between atoms: C4_4  and  C10_10 
ROOT
HETATM    1  C1  UNL     1     -36.595  15.068  -4.011  1.00 20.00     0.131 C 
HETATM    2  C2  UNL     1     -35.999  15.500  -5.363  1.00 20.00     0.084 C 
HETATM    3  C3  UNL     1     -35.871  16.211  -3.260  1.00 20.00     0.060 C 
HETATM    4  C4  UNL     1     -35.588  16.831  -4.674  1.00 20.00     0.011 C 
HETATM    5  O11 UNL     1     -37.339  14.173  -3.671  1.00 20.00    -0.298 OA
ENDROOT
BRANCH   4   6
HETATM    6  C10 UNL     1     -34.192  17.333  -4.993  1.00 20.00    -0.047 C 
HETATM    7  C6  UNL     1     -34.140  17.875  -6.435  1.00 20.00     0.015 C 
HETATM    8  C7  UNL     1     -33.173  16.184  -4.854  1.00 20.00     0.015 C 
HETATM    9  C8  UNL     1     -33.801  18.464  -4.021  1.00 20.00     0.015 C 
ENDBRANCH   4   6
BRANCH   3  10
HETATM   10  C9  UNL     1     -34.715  15.754  -2.390  1.00 20.00     0.008 C 
HETATM   11  C5  UNL     1     -34.665  16.492  -1.088  1.00 20.00     0.006 C 
ENDBRANCH   3  10
TORSDOF 2
ENDMDL
MODEL 6
REMARK VINA RESULT:      -4.2      1.456      1.543
REMARK  2 active torsions:
REMARK  status: ('A' for Active; 'I' for Inactive)
REMARK    1  A    between atoms: C3_3  and  C9_9 
REMARK    2  A    between atoms: C4_4  and  C10_10 
ROOT
HETATM    1  C1  UNL     1     -36.612  15.043  -4.016  1.00 20.00     0.131 C 
HETATM    2  C2  UNL     1     -36.016  15.468  -5.370  1.00 20.00     0.084 C 
HETATM    3  C3  UNL     1     -35.888  16.190  -3.271  1.00 20.00     0.060 C 
HETATM    4  C4  UNL     1     -35.605  16.803  -4.688  1.00 20.00     0.011 C 
HETATM    5  O11 UNL     1     -37.357  14.151  -3.671  1.00 20.00    -0.298 OA
ENDROOT
BRANCH   4   6
HETATM    6  C10 UNL     1     -34.208  17.302  -5.010  1.00 20.00    -0.047 C 
HETATM    7  C6  UNL     1     -33.188  16.156  -4.861  1.00 20.00     0.015 C 
HETATM    8  C7  UNL     1     -33.820  18.443  -4.048  1.00 20.00     0.015 C 
HETATM    9  C8  UNL     1     -34.155  17.831  -6.457  1.00 20.00     0.015 C 
ENDBRANCH   4   6
BRANCH   3  10
HETATM   10  C9  UNL     1     -34.732  15.738  -2.398  1.00 20.00     0.008 C 
HETATM   11  C5  UNL     1     -34.683  16.482  -1.100  1.00 20.00     0.006 C 
ENDBRANCH   3  10
TORSDOF 2
ENDMDL
MODEL 7
REMARK VINA RESULT:      -4.2      2.324      3.535
REMARK  2 active torsions:
REMARK  status: ('A' for Active; 'I' for Inactive)
REMARK    1  A    between atoms: C3_3  and  C9_9 
REMARK    2  A    between atoms: C4_4  and  C10_10 
ROOT
HETATM    1  C1  UNL     1     -33.746  17.920  -3.595  1.00 20.00     0.131 C 
HETATM    2  C2  UNL     1     -34.137  17.335  -4.964  1.00 20.00     0.084 C 
HETATM    3  C3  UNL     1     -33.764  16.524  -2.927  1.00 20.00     0.060 C 
HETATM    4  C4  UNL     1     -33.794  15.935  -4.382  1.00 20.00     0.011 C 
HETATM    5  O11 UNL     1     -33.519  19.043  -3.197  1.00 20.00    -0.298 OA
ENDROOT
BRANCH   4   6
HETATM    6  C10 UNL     1     -34.779  14.828  -4.709  1.00 20.00    -0.047 C 
HETATM    7  C6  UNL     1     -36.221  15.311  -4.458  1.00 20.00     0.015 C 
HETATM    8  C7  UNL     1     -34.505  13.597  -3.823  1.00 20.00     0.015 C 
HETATM    9  C8  UNL     1     -34.642  14.417  -6.188  1.00 20.00     0.015 C 
ENDBRANCH   4   6
BRANCH   3  10
HETATM   10  C9  UNL     1     -34.938  16.292  -1.994  1.00 20.00     0.008 C 
HETATM   11  C5  UNL     1     -34.631  16.713  -0.590  1.00 20.00     0.006 C 
ENDBRANCH   3  10
TORSDOF 2
ENDMDL
MODEL 8
REMARK VINA RESULT:      -4.1      2.316      4.217
REMARK  2 active torsions:
REMARK  status: ('A' for Active; 'I' for Inactive)
REMARK    1  A    between atoms: C3_3  and  C9_9 
REMARK    2  A    between atoms: C4_4  and  C10_10 
ROOT
HETATM    1  C1  UNL     1     -33.946  17.983  -5.918  1.00 20.00     0.131 C 
HETATM    2  C2  UNL     1     -33.662  17.933  -4.406  1.00 20.00     0.084 C 
HETATM    3  C3  UNL     1     -34.782  16.682  -5.864  1.00 20.00     0.060 C 
HETATM    4  C4  UNL     1     -34.785  16.862  -4.305  1.00 20.00     0.011 C 
HETATM    5  O11 UNL     1     -33.630  18.746  -6.806  1.00 20.00    -0.298 OA
ENDROOT
BRANCH   4   6
HETATM    6  C10 UNL     1     -34.474  15.666  -3.424  1.00 20.00    -0.047 C 
HETATM    7  C6  UNL     1     -33.033  15.182  -3.677  1.00 20.00     0.015 C 
HETATM    8  C7  UNL     1     -35.449  14.513  -3.734  1.00 20.00     0.015 C 
HETATM    9  C8  UNL     1     -34.616  16.052  -1.938  1.00 20.00     0.015 C 
ENDBRANCH   4   6
BRANCH   3  10
HETATM   10  C9  UNL     1     -34.102  15.475  -6.484  1.00 20.00     0.008 C 
HETATM   11  C5  UNL     1     -34.992  14.767  -7.458  1.00 20.00     0.006 C 
ENDBRANCH   3  10
TORSDOF 2
ENDMDL
MODEL 9
REMARK VINA RESULT:      -4.0      1.685      2.958
REMARK  2 active torsions:
REMARK  status: ('A' for Active; 'I' for Inactive)
REMARK    1  A    between atoms: C3_3  and  C9_9 
REMARK    2  A    between atoms: C4_4  and  C10_10 
ROOT
HETATM    1  C1  UNL     1     -33.930  13.764  -3.914  1.00 20.00     0.131 C 
HETATM    2  C2  UNL     1     -35.396  13.331  -4.096  1.00 20.00     0.084 C 
HETATM    3  C3  UNL     1     -34.310  15.264  -3.930  1.00 20.00     0.060 C 
HETATM    4  C4  UNL     1     -35.795  14.791  -3.744  1.00 20.00     0.011 C 
HETATM    5  O11 UNL     1     -32.884  13.159  -3.807  1.00 20.00    -0.298 OA
ENDROOT
BRANCH   4   6
HETATM    6  C10 UNL     1     -36.878  15.404  -4.612  1.00 20.00    -0.047 C 
HETATM    7  C6  UNL     1     -38.249  14.795  -4.259  1.00 20.00     0.015 C 
HETATM    8  C7  UNL     1     -36.581  15.131  -6.100  1.00 20.00     0.015 C 
HETATM    9  C8  UNL     1     -36.937  16.928  -4.388  1.00 20.00     0.015 C 
ENDBRANCH   4   6
BRANCH   3  10
HETATM   10  C9  UNL     1     -33.904  15.999  -5.194  1.00 20.00     0.008 C 
HETATM   11  C5  UNL     1     -33.407  17.381  -4.906  1.00 20.00     0.006 C 
ENDBRANCH   3  10
TORSDOF 2
ENDMDL
