MODEL 1
REMARK VINA RESULT:      -4.6      0.000      0.000
REMARK  3 active torsions:
REMARK  status: ('A' for Active; 'I' for Inactive)
REMARK    1  A    between atoms: C4_4  and  C9_9 
REMARK    2  A    between atoms: C5_5  and  C6_6 
REMARK    3  A    between atoms: C9_9  and  O10_10 
ROOT
HETATM    1  C3  UNL     1     -32.496  14.862  -3.694  1.00 20.00     0.018 A 
HETATM    2  C4  UNL     1     -33.781  14.105  -3.516  1.00 20.00     0.019 A 
HETATM    3  C6  UNL     1     -33.795  15.633  -3.517  1.00 20.00    -0.031 A 
HETATM    4  C8  UNL     1     -34.010  16.290  -2.175  1.00 20.00     0.016 C 
ENDROOT
BRANCH   3   5
HETATM    5  C5  UNL     1     -34.380  16.438  -4.685  1.00 20.00    -0.036 A 
HETATM    6  C1  UNL     1     -33.591  17.569  -5.302  1.00 20.00     0.011 A 
HETATM    7  C2  UNL     1     -33.800  16.298  -6.073  1.00 20.00     0.011 A 
HETATM    8  C7  UNL     1     -35.875  16.629  -4.598  1.00 20.00     0.016 C 
ENDBRANCH   3   5
BRANCH   2   9
HETATM    9  C9  UNL     1     -34.343  13.308  -4.641  1.00 20.00     0.169 C 
BRANCH   9  10
HETATM   10  O10 UNL     1     -35.450  12.530  -4.182  1.00 20.00    -0.400 OA
HETATM   11  H26 UNL     1     -36.152  12.638  -4.840  1.00 20.00     0.209 HD
ENDBRANCH   9  10
ENDBRANCH   2   9
TORSDOF 3
ENDMDL
MODEL 2
REMARK VINA RESULT:      -4.3     11.756     13.394
REMARK  3 active torsions:
REMARK  status: ('A' for Active; 'I' for Inactive)
REMARK    1  A    between atoms: C4_4  and  C9_9 
REMARK    2  A    between atoms: C5_5  and  C6_6 
REMARK    3  A    between atoms: C9_9  and  O10_10 
ROOT
HETATM    1  C3  UNL     1     -33.868   4.906   2.843  1.00 20.00     0.018 A 
HETATM    2  C4  UNL     1     -33.580   6.362   3.071  1.00 20.00     0.019 A 
HETATM    3  C6  UNL     1     -34.649   5.660   3.908  1.00 20.00    -0.031 A 
HETATM    4  C8  UNL     1     -36.080   6.007   3.573  1.00 20.00     0.016 C 
ENDROOT
BRANCH   3   5
HETATM    5  C5  UNL     1     -34.436   5.339   5.393  1.00 20.00    -0.036 A 
HETATM    6  C1  UNL     1     -35.268   4.275   6.070  1.00 20.00     0.011 A 
HETATM    7  C2  UNL     1     -33.810   4.027   5.807  1.00 20.00     0.011 A 
HETATM    8  C7  UNL     1     -34.079   6.546   6.226  1.00 20.00     0.016 C 
ENDBRANCH   3   5
BRANCH   2   9
HETATM    9  C9  UNL     1     -32.276   6.786   3.650  1.00 20.00     0.169 C 
BRANCH   9  10
HETATM   10  O10 UNL     1     -31.720   7.849   2.873  1.00 20.00    -0.400 OA
HETATM   11  H26 UNL     1     -32.445   8.467   2.698  1.00 20.00     0.209 HD
ENDBRANCH   9  10
ENDBRANCH   2   9
TORSDOF 3
ENDMDL
MODEL 3
REMARK VINA RESULT:      -4.3      0.945      1.033
REMARK  3 active torsions:
REMARK  status: ('A' for Active; 'I' for Inactive)
REMARK    1  A    between atoms: C4_4  and  C9_9 
REMARK    2  A    between atoms: C5_5  and  C6_6 
REMARK    3  A    between atoms: C9_9  and  O10_10 
ROOT
HETATM    1  C3  UNL     1     -33.004  15.422  -3.772  1.00 20.00     0.018 A 
HETATM    2  C4  UNL     1     -33.878  14.234  -3.492  1.00 20.00     0.019 A 
HETATM    3  C6  UNL     1     -34.423  15.644  -3.272  1.00 20.00    -0.031 A 
HETATM    4  C8  UNL     1     -34.570  16.076  -1.833  1.00 20.00     0.016 C 
ENDROOT
BRANCH   3   5
HETATM    5  C5  UNL     1     -35.480  16.259  -4.199  1.00 20.00    -0.036 A 
HETATM    6  C1  UNL     1     -35.325  17.677  -4.698  1.00 20.00     0.011 A 
HETATM    7  C2  UNL     1     -35.157  16.528  -5.651  1.00 20.00     0.011 A 
HETATM    8  C7  UNL     1     -36.887  15.802  -3.898  1.00 20.00     0.016 C 
ENDBRANCH   3   5
BRANCH   2   9
HETATM    9  C9  UNL     1     -34.348  13.369  -4.609  1.00 20.00     0.169 C 
BRANCH   9  10
HETATM   10  O10 UNL     1     -35.404  12.520  -4.157  1.00 20.00    -0.400 OA
HETATM   11  H26 UNL     1     -34.987  11.821  -3.633  1.00 20.00     0.209 HD
ENDBRANCH   9  10
ENDBRANCH   2   9
TORSDOF 3
ENDMDL
MODEL 4
REMARK VINA RESULT:      -4.2      1.553      2.490
REMARK  3 active torsions:
REMARK  status: ('A' for Active; 'I' for Inactive)
REMARK    1  A    between atoms: C4_4  and  C9_9 
REMARK    2  A    between atoms: C5_5  and  C6_6 
REMARK    3  A    between atoms: C9_9  and  O10_10 
ROOT
HETATM    1  C3  UNL     1     -35.204  14.114  -5.466  1.00 20.00     0.018 A 
HETATM    2  C4  UNL     1     -35.852  14.004  -4.115  1.00 20.00     0.019 A 
HETATM    3  C6  UNL     1     -34.421  14.528  -4.230  1.00 20.00    -0.031 A 
HETATM    4  C8  UNL     1     -33.336  13.582  -3.773  1.00 20.00     0.016 C 
ENDROOT
BRANCH   3   5
HETATM    5  C5  UNL     1     -34.075  16.004  -3.994  1.00 20.00    -0.036 A 
HETATM    6  C1  UNL     1     -33.267  16.770  -5.015  1.00 20.00     0.011 A 
HETATM    7  C2  UNL     1     -34.725  17.082  -4.830  1.00 20.00     0.011 A 
HETATM    8  C7  UNL     1     -33.821  16.340  -2.544  1.00 20.00     0.016 C 
ENDBRANCH   3   5
BRANCH   2   9
HETATM    9  C9  UNL     1     -36.992  14.893  -3.756  1.00 20.00     0.169 C 
BRANCH   9  10
HETATM   10  O10 UNL     1     -38.210  14.147  -3.760  1.00 20.00    -0.400 OA
HETATM   11  H26 UNL     1     -38.488  14.072  -2.836  1.00 20.00     0.209 HD
ENDBRANCH   9  10
ENDBRANCH   2   9
TORSDOF 3
ENDMDL
MODEL 5
REMARK VINA RESULT:      -4.1      1.807      2.479
REMARK  3 active torsions:
REMARK  status: ('A' for Active; 'I' for Inactive)
REMARK    1  A    between atoms: C4_4  and  C9_9 
REMARK    2  A    between atoms: C5_5  and  C6_6 
REMARK    3  A    between atoms: C9_9  and  O10_10 
ROOT
HETATM    1  C3  UNL     1     -35.034  13.645  -4.084  1.00 20.00     0.018 A 
HETATM    2  C4  UNL     1     -35.566  14.863  -3.385  1.00 20.00     0.019 A 
HETATM    3  C6  UNL     1     -34.503  15.016  -4.471  1.00 20.00    -0.031 A 
HETATM    4  C8  UNL     1     -33.114  15.360  -3.989  1.00 20.00     0.016 C 
ENDROOT
BRANCH   3   5
HETATM    5  C5  UNL     1     -34.829  15.610  -5.848  1.00 20.00    -0.036 A 
HETATM    6  C1  UNL     1     -34.361  14.919  -7.107  1.00 20.00     0.011 A 
HETATM    7  C2  UNL     1     -35.822  14.924  -6.758  1.00 20.00     0.011 A 
HETATM    8  C7  UNL     1     -34.831  17.119  -5.869  1.00 20.00     0.016 C 
ENDBRANCH   3   5
BRANCH   2   9
HETATM    9  C9  UNL     1     -36.977  15.291  -3.593  1.00 20.00     0.169 C 
BRANCH   9  10
HETATM   10  O10 UNL     1     -37.817  14.144  -3.743  1.00 20.00    -0.400 OA
HETATM   11  H26 UNL     1     -38.671  14.471  -4.058  1.00 20.00     0.209 HD
ENDBRANCH   9  10
ENDBRANCH   2   9
TORSDOF 3
ENDMDL
MODEL 6
REMARK VINA RESULT:      -4.1      0.942      2.854
REMARK  3 active torsions:
REMARK  status: ('A' for Active; 'I' for Inactive)
REMARK    1  A    between atoms: C4_4  and  C9_9 
REMARK    2  A    between atoms: C5_5  and  C6_6 
REMARK    3  A    between atoms: C9_9  and  O10_10 
ROOT
HETATM    1  C3  UNL     1     -36.125  16.105  -4.681  1.00 20.00     0.018 A 
HETATM    2  C4  UNL     1     -35.504  14.818  -5.142  1.00 20.00     0.019 A 
HETATM    3  C6  UNL     1     -34.609  15.980  -4.716  1.00 20.00    -0.031 A 
HETATM    4  C8  UNL     1     -33.900  16.708  -5.832  1.00 20.00     0.016 C 
ENDROOT
BRANCH   3   5
HETATM    5  C5  UNL     1     -33.807  15.949  -3.408  1.00 20.00    -0.036 A 
HETATM    6  C1  UNL     1     -33.722  17.180  -2.537  1.00 20.00     0.011 A 
HETATM    7  C2  UNL     1     -34.519  15.994  -2.076  1.00 20.00     0.011 A 
HETATM    8  C7  UNL     1     -32.569  15.088  -3.479  1.00 20.00     0.016 C 
ENDBRANCH   3   5
BRANCH   2   9
HETATM    9  C9  UNL     1     -35.642  13.583  -4.321  1.00 20.00     0.169 C 
BRANCH   9  10
HETATM   10  O10 UNL     1     -34.795  12.556  -4.840  1.00 20.00    -0.400 OA
HETATM   11  H26 UNL     1     -35.380  11.892  -5.233  1.00 20.00     0.209 HD
ENDBRANCH   9  10
ENDBRANCH   2   9
TORSDOF 3
ENDMDL
MODEL 7
REMARK VINA RESULT:      -4.0      1.599      3.393
REMARK  3 active torsions:
REMARK  status: ('A' for Active; 'I' for Inactive)
REMARK    1  A    between atoms: C4_4  and  C9_9 
REMARK    2  A    between atoms: C5_5  and  C6_6 
REMARK    3  A    between atoms: C9_9  and  O10_10 
ROOT
HETATM    1  C3  UNL     1     -35.747  16.746  -5.210  1.00 20.00     0.018 A 
HETATM    2  C4  UNL     1     -36.692  15.591  -5.038  1.00 20.00     0.019 A 
HETATM    3  C6  UNL     1     -35.197  15.328  -5.215  1.00 20.00    -0.031 A 
HETATM    4  C8  UNL     1     -34.781  14.772  -6.556  1.00 20.00     0.016 C 
ENDROOT
BRANCH   3   5
HETATM    5  C5  UNL     1     -34.317  14.837  -4.058  1.00 20.00    -0.036 A 
HETATM    6  C1  UNL     1     -32.969  15.470  -3.804  1.00 20.00     0.011 A 
HETATM    7  C2  UNL     1     -34.098  15.711  -2.844  1.00 20.00     0.011 A 
HETATM    8  C7  UNL     1     -34.422  13.353  -3.807  1.00 20.00     0.016 C 
ENDBRANCH   3   5
BRANCH   2   9
HETATM    9  C9  UNL     1     -37.384  15.377  -3.738  1.00 20.00     0.169 C 
BRANCH   9  10
HETATM   10  O10 UNL     1     -38.125  14.156  -3.776  1.00 20.00    -0.400 OA
HETATM   11  H26 UNL     1     -38.901  14.289  -3.212  1.00 20.00     0.209 HD
ENDBRANCH   9  10
ENDBRANCH   2   9
TORSDOF 3
ENDMDL
MODEL 8
REMARK VINA RESULT:      -4.0      1.441      2.480
REMARK  3 active torsions:
REMARK  status: ('A' for Active; 'I' for Inactive)
REMARK    1  A    between atoms: C4_4  and  C9_9 
REMARK    2  A    between atoms: C5_5  and  C6_6 
REMARK    3  A    between atoms: C9_9  and  O10_10 
ROOT
HETATM    1  C3  UNL     1     -35.797  16.190  -3.536  1.00 20.00     0.018 A 
HETATM    2  C4  UNL     1     -35.885  14.760  -3.986  1.00 20.00     0.019 A 
HETATM    3  C6  UNL     1     -35.795  15.878  -5.024  1.00 20.00    -0.031 A 
HETATM    4  C8  UNL     1     -37.068  16.181  -5.777  1.00 20.00     0.016 C 
ENDROOT
BRANCH   3   5
HETATM    5  C5  UNL     1     -34.529  16.109  -5.860  1.00 20.00    -0.036 A 
HETATM    6  C1  UNL     1     -33.999  17.508  -6.069  1.00 20.00     0.011 A 
HETATM    7  C2  UNL     1     -33.246  16.548  -5.193  1.00 20.00     0.011 A 
HETATM    8  C7  UNL     1     -34.390  15.156  -7.021  1.00 20.00     0.016 C 
ENDBRANCH   3   5
BRANCH   2   9
HETATM    9  C9  UNL     1     -34.756  13.823  -3.733  1.00 20.00     0.169 C 
BRANCH   9  10
HETATM   10  O10 UNL     1     -35.092  12.517  -4.203  1.00 20.00    -0.400 OA
HETATM   11  H26 UNL     1     -34.391  11.926  -3.893  1.00 20.00     0.209 HD
ENDBRANCH   9  10
ENDBRANCH   2   9
TORSDOF 3
ENDMDL
MODEL 9
REMARK VINA RESULT:      -3.9      1.254      3.068
REMARK  3 active torsions:
REMARK  status: ('A' for Active; 'I' for Inactive)
REMARK    1  A    between atoms: C4_4  and  C9_9 
REMARK    2  A    between atoms: C5_5  and  C6_6 
REMARK    3  A    between atoms: C9_9  and  O10_10 
ROOT
HETATM    1  C3  UNL     1     -36.170  16.635  -4.518  1.00 20.00     0.018 A 
HETATM    2  C4  UNL     1     -35.837  15.264  -5.033  1.00 20.00     0.019 A 
HETATM    3  C6  UNL     1     -34.713  16.207  -4.603  1.00 20.00    -0.031 A 
HETATM    4  C8  UNL     1     -33.898  16.812  -5.721  1.00 20.00     0.016 C 
ENDROOT
BRANCH   3   5
HETATM    5  C5  UNL     1     -33.902  15.972  -3.322  1.00 20.00    -0.036 A 
HETATM    6  C1  UNL     1     -33.660  17.106  -2.354  1.00 20.00     0.011 A 
HETATM    7  C2  UNL     1     -34.585  15.986  -1.974  1.00 20.00     0.011 A 
HETATM    8  C7  UNL     1     -32.776  14.981  -3.494  1.00 20.00     0.016 C 
ENDBRANCH   3   5
BRANCH   2   9
HETATM    9  C9  UNL     1     -36.202  14.057  -4.241  1.00 20.00     0.169 C 
BRANCH   9  10
HETATM   10  O10 UNL     1     -37.547  14.170  -3.774  1.00 20.00    -0.400 OA
HETATM   11  H26 UNL     1     -37.997  13.355  -4.037  1.00 20.00     0.209 HD
ENDBRANCH   9  10
ENDBRANCH   2   9
TORSDOF 3
ENDMDL
