MODEL 1
REMARK VINA RESULT:      -4.7      0.000      0.000
REMARK  3 active torsions:
REMARK  status: ('A' for Active; 'I' for Inactive)
REMARK    1  A    between atoms: C2_2  and  C6_6 
REMARK    2  A    between atoms: C3_3  and  C7_7 
REMARK    3  A    between atoms: C7_7  and  C8_8 
ROOT
HETATM    1  C1  UNL     1     -32.084   5.661   3.207  1.00 20.00     0.016 A 
HETATM    2  C2  UNL     1     -32.735   6.832   2.527  1.00 20.00     0.008 A 
HETATM    3  C3  UNL     1     -33.396   6.202   3.753  1.00 20.00    -0.039 A 
HETATM    4  C4  UNL     1     -33.371   6.920   5.075  1.00 20.00     0.015 C 
ENDROOT
BRANCH   3   5
HETATM    5  C7  UNL     1     -34.642   5.388   3.520  1.00 20.00     0.009 C 
BRANCH   5   6
HETATM    6  C8  UNL     1     -35.373   5.071   4.829  1.00 20.00    -0.004 C 
HETATM    7  C5  UNL     1     -34.834   3.814   5.493  1.00 20.00     0.005 C 
ENDBRANCH   5   6
ENDBRANCH   3   5
BRANCH   2   8
HETATM    8  C6  UNL     1     -32.092   8.175   2.562  1.00 20.00     0.120 C 
HETATM    9 CL9  UNL     1     -32.013   8.898   0.932  1.00 20.00    -0.130 Cl
ENDBRANCH   2   8
TORSDOF 3
ENDMDL
MODEL 2
REMARK VINA RESULT:      -4.3      2.563      4.546
REMARK  3 active torsions:
REMARK  status: ('A' for Active; 'I' for Inactive)
REMARK    1  A    between atoms: C2_2  and  C6_6 
REMARK    2  A    between atoms: C3_3  and  C7_7 
REMARK    3  A    between atoms: C7_7  and  C8_8 
ROOT
HETATM    1  C1  UNL     1     -33.298   6.460   5.083  1.00 20.00     0.016 A 
HETATM    2  C2  UNL     1     -34.362   6.521   4.024  1.00 20.00     0.008 A 
HETATM    3  C3  UNL     1     -32.891   6.661   3.632  1.00 20.00    -0.039 A 
HETATM    4  C4  UNL     1     -32.187   5.531   2.930  1.00 20.00     0.015 C 
ENDROOT
BRANCH   3   5
HETATM    5  C7  UNL     1     -32.418   8.030   3.218  1.00 20.00     0.009 C 
BRANCH   5   6
HETATM    6  C8  UNL     1     -31.935   8.054   1.764  1.00 20.00    -0.004 C 
HETATM    7  C5  UNL     1     -32.304   9.351   1.062  1.00 20.00     0.005 C 
ENDBRANCH   5   6
ENDBRANCH   3   5
BRANCH   2   8
HETATM    8  C6  UNL     1     -35.169   5.311   3.698  1.00 20.00     0.120 C 
HETATM    9 CL9  UNL     1     -35.118   4.121   5.027  1.00 20.00    -0.130 Cl
ENDBRANCH   2   8
TORSDOF 3
ENDMDL
MODEL 3
REMARK VINA RESULT:      -4.2      2.717      4.488
REMARK  3 active torsions:
REMARK  status: ('A' for Active; 'I' for Inactive)
REMARK    1  A    between atoms: C2_2  and  C6_6 
REMARK    2  A    between atoms: C3_3  and  C7_7 
REMARK    3  A    between atoms: C7_7  and  C8_8 
ROOT
HETATM    1  C1  UNL     1     -35.569   5.777   3.638  1.00 20.00     0.016 A 
HETATM    2  C2  UNL     1     -34.840   4.612   4.244  1.00 20.00     0.008 A 
HETATM    3  C3  UNL     1     -34.110   5.938   4.036  1.00 20.00    -0.039 A 
HETATM    4  C4  UNL     1     -33.790   6.815   5.216  1.00 20.00     0.015 C 
ENDROOT
BRANCH   3   5
HETATM    5  C7  UNL     1     -33.084   5.992   2.935  1.00 20.00     0.009 C 
BRANCH   5   6
HETATM    6  C8  UNL     1     -32.037   7.084   3.179  1.00 20.00    -0.004 C 
HETATM    7  C5  UNL     1     -32.084   8.167   2.114  1.00 20.00     0.005 C 
ENDBRANCH   5   6
ENDBRANCH   3   5
BRANCH   2   8
HETATM    8  C6  UNL     1     -35.220   4.106   5.593  1.00 20.00     0.120 C 
HETATM    9 CL9  UNL     1     -33.778   3.792   6.597  1.00 20.00    -0.130 Cl
ENDBRANCH   2   8
TORSDOF 3
ENDMDL
MODEL 4
REMARK VINA RESULT:      -4.2     11.120     11.960
REMARK  3 active torsions:
REMARK  status: ('A' for Active; 'I' for Inactive)
REMARK    1  A    between atoms: C2_2  and  C6_6 
REMARK    2  A    between atoms: C3_3  and  C7_7 
REMARK    3  A    between atoms: C7_7  and  C8_8 
ROOT
HETATM    1  C1  UNL     1     -34.908  13.437  -4.054  1.00 20.00     0.016 A 
HETATM    2  C2  UNL     1     -35.143  14.619  -4.951  1.00 20.00     0.008 A 
HETATM    3  C3  UNL     1     -34.367  14.798  -3.646  1.00 20.00    -0.039 A 
HETATM    4  C4  UNL     1     -32.876  15.007  -3.679  1.00 20.00     0.015 C 
ENDROOT
BRANCH   3   5
HETATM    5  C7  UNL     1     -35.063  15.524  -2.526  1.00 20.00     0.009 C 
BRANCH   5   6
HETATM    6  C8  UNL     1     -34.139  16.531  -1.832  1.00 20.00    -0.004 C 
HETATM    7  C5  UNL     1     -34.647  16.913  -0.452  1.00 20.00     0.005 C 
ENDBRANCH   5   6
ENDBRANCH   3   5
BRANCH   2   8
HETATM    8  C6  UNL     1     -34.493  14.688  -6.289  1.00 20.00     0.120 C 
HETATM    9 CL9  UNL     1     -34.343  16.376  -6.850  1.00 20.00    -0.130 Cl
ENDBRANCH   2   8
TORSDOF 3
ENDMDL
MODEL 5
REMARK VINA RESULT:      -4.1     10.992     11.975
REMARK  3 active torsions:
REMARK  status: ('A' for Active; 'I' for Inactive)
REMARK    1  A    between atoms: C2_2  and  C6_6 
REMARK    2  A    between atoms: C3_3  and  C7_7 
REMARK    3  A    between atoms: C7_7  and  C8_8 
ROOT
HETATM    1  C1  UNL     1     -33.628  13.683  -3.799  1.00 20.00     0.016 A 
HETATM    2  C2  UNL     1     -34.868  14.068  -4.555  1.00 20.00     0.008 A 
HETATM    3  C3  UNL     1     -34.140  15.112  -3.708  1.00 20.00    -0.039 A 
HETATM    4  C4  UNL     1     -33.337  16.196  -4.375  1.00 20.00     0.015 C 
ENDROOT
BRANCH   3   5
HETATM    5  C7  UNL     1     -34.804  15.540  -2.426  1.00 20.00     0.009 C 
BRANCH   5   6
HETATM    6  C8  UNL     1     -34.043  16.679  -1.738  1.00 20.00    -0.004 C 
HETATM    7  C5  UNL     1     -34.635  17.022  -0.381  1.00 20.00     0.005 C 
ENDBRANCH   5   6
ENDBRANCH   3   5
BRANCH   2   8
HETATM    8  C6  UNL     1     -34.862  14.096  -6.044  1.00 20.00     0.120 C 
HETATM    9 CL9  UNL     1     -36.300  14.938  -6.682  1.00 20.00    -0.130 Cl
ENDBRANCH   2   8
TORSDOF 3
ENDMDL
MODEL 6
REMARK VINA RESULT:      -4.1      2.394      4.037
REMARK  3 active torsions:
REMARK  status: ('A' for Active; 'I' for Inactive)
REMARK    1  A    between atoms: C2_2  and  C6_6 
REMARK    2  A    between atoms: C3_3  and  C7_7 
REMARK    3  A    between atoms: C7_7  and  C8_8 
ROOT
HETATM    1  C1  UNL     1     -34.869   3.937   4.674  1.00 20.00     0.016 A 
HETATM    2  C2  UNL     1     -34.102   5.060   5.313  1.00 20.00     0.008 A 
HETATM    3  C3  UNL     1     -34.689   5.241   3.914  1.00 20.00    -0.039 A 
HETATM    4  C4  UNL     1     -35.898   6.116   3.711  1.00 20.00     0.015 C 
ENDROOT
BRANCH   3   5
HETATM    5  C7  UNL     1     -33.723   5.255   2.759  1.00 20.00     0.009 C 
BRANCH   5   6
HETATM    6  C8  UNL     1     -32.410   5.959   3.118  1.00 20.00    -0.004 C 
HETATM    7  C5  UNL     1     -32.401   7.411   2.669  1.00 20.00     0.005 C 
ENDBRANCH   5   6
ENDBRANCH   3   5
BRANCH   2   8
HETATM    8  C6  UNL     1     -34.648   5.757   6.511  1.00 20.00     0.120 C 
HETATM    9 CL9  UNL     1     -33.741   7.255   6.858  1.00 20.00    -0.130 Cl
ENDBRANCH   2   8
TORSDOF 3
ENDMDL
MODEL 7
REMARK VINA RESULT:      -4.0     11.060     11.887
REMARK  3 active torsions:
REMARK  status: ('A' for Active; 'I' for Inactive)
REMARK    1  A    between atoms: C2_2  and  C6_6 
REMARK    2  A    between atoms: C3_3  and  C7_7 
REMARK    3  A    between atoms: C7_7  and  C8_8 
ROOT
HETATM    1  C1  UNL     1     -33.614  16.437  -4.158  1.00 20.00     0.016 A 
HETATM    2  C2  UNL     1     -33.293  15.145  -3.463  1.00 20.00     0.008 A 
HETATM    3  C3  UNL     1     -34.249  16.141  -2.808  1.00 20.00    -0.039 A 
HETATM    4  C4  UNL     1     -35.726  15.853  -2.767  1.00 20.00     0.015 C 
ENDROOT
BRANCH   3   5
HETATM    5  C7  UNL     1     -33.739  16.899  -1.611  1.00 20.00     0.009 C 
BRANCH   5   6
HETATM    6  C8  UNL     1     -34.729  16.859  -0.442  1.00 20.00    -0.004 C 
HETATM    7  C5  UNL     1     -34.415  17.914   0.607  1.00 20.00     0.005 C 
ENDBRANCH   5   6
ENDBRANCH   3   5
BRANCH   2   8
HETATM    8  C6  UNL     1     -33.751  13.848  -4.035  1.00 20.00     0.120 C 
HETATM    9 CL9  UNL     1     -34.476  14.073  -5.651  1.00 20.00    -0.130 Cl
ENDBRANCH   2   8
TORSDOF 3
ENDMDL
MODEL 8
REMARK VINA RESULT:      -3.9     10.914     11.815
REMARK  3 active torsions:
REMARK  status: ('A' for Active; 'I' for Inactive)
REMARK    1  A    between atoms: C2_2  and  C6_6 
REMARK    2  A    between atoms: C3_3  and  C7_7 
REMARK    3  A    between atoms: C7_7  and  C8_8 
ROOT
HETATM    1  C1  UNL     1     -35.685  15.932  -2.881  1.00 20.00     0.016 A 
HETATM    2  C2  UNL     1     -34.657  15.875  -1.788  1.00 20.00     0.008 A 
HETATM    3  C3  UNL     1     -34.261  15.524  -3.222  1.00 20.00    -0.039 A 
HETATM    4  C4  UNL     1     -33.423  16.481  -4.028  1.00 20.00     0.015 C 
ENDROOT
BRANCH   3   5
HETATM    5  C7  UNL     1     -33.999  14.073  -3.528  1.00 20.00     0.009 C 
BRANCH   5   6
HETATM    6  C8  UNL     1     -35.120  13.453  -4.370  1.00 20.00    -0.004 C 
HETATM    7  C5  UNL     1     -34.980  13.795  -5.845  1.00 20.00     0.005 C 
ENDBRANCH   5   6
ENDBRANCH   3   5
BRANCH   2   8
HETATM    8  C6  UNL     1     -34.207  17.124  -1.112  1.00 20.00     0.120 C 
HETATM    9 CL9  UNL     1     -34.962  17.300   0.495  1.00 20.00    -0.130 Cl
ENDBRANCH   2   8
TORSDOF 3
ENDMDL
MODEL 9
REMARK VINA RESULT:      -3.8     10.960     12.164
REMARK  3 active torsions:
REMARK  status: ('A' for Active; 'I' for Inactive)
REMARK    1  A    between atoms: C2_2  and  C6_6 
REMARK    2  A    between atoms: C3_3  and  C7_7 
REMARK    3  A    between atoms: C7_7  and  C8_8 
ROOT
HETATM    1  C1  UNL     1     -34.817  16.263  -1.552  1.00 20.00     0.016 A 
HETATM    2  C2  UNL     1     -33.541  17.057  -1.554  1.00 20.00     0.008 A 
HETATM    3  C3  UNL     1     -34.066  16.460  -2.860  1.00 20.00    -0.039 A 
HETATM    4  C4  UNL     1     -34.682  17.354  -3.903  1.00 20.00     0.015 C 
ENDROOT
BRANCH   3   5
HETATM    5  C7  UNL     1     -33.319  15.281  -3.426  1.00 20.00     0.009 C 
BRANCH   5   6
HETATM    6  C8  UNL     1     -34.182  14.015  -3.455  1.00 20.00    -0.004 C 
HETATM    7  C5  UNL     1     -34.413  13.516  -4.872  1.00 20.00     0.005 C 
ENDBRANCH   5   6
ENDBRANCH   3   5
BRANCH   2   8
HETATM    8  C6  UNL     1     -33.565  18.519  -1.272  1.00 20.00     0.120 C 
HETATM    9 CL9  UNL     1     -32.244  18.988  -0.168  1.00 20.00    -0.130 Cl
ENDBRANCH   2   8
TORSDOF 3
ENDMDL
