MODEL 1
REMARK VINA RESULT:      -4.6      0.000      0.000
REMARK  3 active torsions:
REMARK  status: ('A' for Active; 'I' for Inactive)
REMARK    1  A    between atoms: C2_2  and  C7_7 
REMARK    2  A    between atoms: C3_3  and  C9_9 
REMARK    3  A    between atoms: C8_8  and  C9_9 
ROOT
HETATM    1  C1  UNL     1     -31.460   7.438   3.884  1.00 20.00     0.016 A 
HETATM    2  C2  UNL     1     -32.036   7.692   2.520  1.00 20.00     0.009 A 
HETATM    3  C3  UNL     1     -32.558   6.528   3.360  1.00 20.00    -0.036 A 
HETATM    4  C4  UNL     1     -32.173   5.138   2.923  1.00 20.00     0.016 C 
ENDROOT
BRANCH   3   5
HETATM    5  C9  UNL     1     -33.917   6.612   4.002  1.00 20.00    -0.010 C 
HETATM    6  C6  UNL     1     -34.844   5.513   3.456  1.00 20.00     0.011 C 
BRANCH   5   7
HETATM    7  C8  UNL     1     -33.869   6.507   5.546  1.00 20.00     0.000 C 
HETATM    8  C5  UNL     1     -34.583   5.277   6.086  1.00 20.00     0.005 C 
ENDBRANCH   5   7
ENDBRANCH   3   5
BRANCH   2   9
HETATM    9  C7  UNL     1     -32.838   8.920   2.260  1.00 20.00     0.120 C 
HETATM   10 CL10 UNL     1     -32.425   9.640   0.679  1.00 20.00    -0.130 Cl
ENDBRANCH   2   9
TORSDOF 3
ENDMDL
MODEL 2
REMARK VINA RESULT:      -4.0     10.825     11.960
REMARK  3 active torsions:
REMARK  status: ('A' for Active; 'I' for Inactive)
REMARK    1  A    between atoms: C2_2  and  C7_7 
REMARK    2  A    between atoms: C3_3  and  C9_9 
REMARK    3  A    between atoms: C8_8  and  C9_9 
ROOT
HETATM    1  C1  UNL     1     -35.012  16.726  -3.535  1.00 20.00     0.016 A 
HETATM    2  C2  UNL     1     -33.590  16.474  -3.949  1.00 20.00     0.009 A 
HETATM    3  C3  UNL     1     -33.894  17.507  -2.865  1.00 20.00    -0.036 A 
HETATM    4  C4  UNL     1     -33.729  18.958  -3.234  1.00 20.00     0.016 C 
ENDROOT
BRANCH   3   5
HETATM    5  C9  UNL     1     -33.580  17.203  -1.425  1.00 20.00    -0.010 C 
HETATM    6  C6  UNL     1     -33.036  18.452  -0.713  1.00 20.00     0.011 C 
BRANCH   5   7
HETATM    7  C8  UNL     1     -34.799  16.665  -0.636  1.00 20.00     0.000 C 
HETATM    8  C5  UNL     1     -35.092  17.460   0.628  1.00 20.00     0.005 C 
ENDBRANCH   5   7
ENDBRANCH   3   5
BRANCH   2   9
HETATM    9  C7  UNL     1     -32.942  15.164  -3.654  1.00 20.00     0.120 C 
HETATM   10 CL10 UNL     1     -34.156  13.865  -3.490  1.00 20.00    -0.130 Cl
ENDBRANCH   2   9
TORSDOF 3
ENDMDL
MODEL 3
REMARK VINA RESULT:      -3.9     10.889     12.462
REMARK  3 active torsions:
REMARK  status: ('A' for Active; 'I' for Inactive)
REMARK    1  A    between atoms: C2_2  and  C7_7 
REMARK    2  A    between atoms: C3_3  and  C9_9 
REMARK    3  A    between atoms: C8_8  and  C9_9 
ROOT
HETATM    1  C1  UNL     1     -33.005  15.187  -3.733  1.00 20.00     0.016 A 
HETATM    2  C2  UNL     1     -33.776  16.241  -2.991  1.00 20.00     0.009 A 
HETATM    3  C3  UNL     1     -33.973  16.073  -4.497  1.00 20.00    -0.036 A 
HETATM    4  C4  UNL     1     -33.397  17.143  -5.388  1.00 20.00     0.016 C 
ENDROOT
BRANCH   3   5
HETATM    5  C9  UNL     1     -35.237  15.451  -5.027  1.00 20.00    -0.010 C 
HETATM    6  C6  UNL     1     -36.064  16.485  -5.811  1.00 20.00     0.011 C 
BRANCH   5   7
HETATM    7  C8  UNL     1     -34.979  14.224  -5.934  1.00 20.00     0.000 C 
HETATM    8  C5  UNL     1     -35.191  14.515  -7.413  1.00 20.00     0.005 C 
ENDBRANCH   5   7
ENDBRANCH   3   5
BRANCH   2   9
HETATM    9  C7  UNL     1     -34.815  15.850  -1.996  1.00 20.00     0.120 C 
HETATM   10 CL10 UNL     1     -34.623  16.760  -0.471  1.00 20.00    -0.130 Cl
ENDBRANCH   2   9
TORSDOF 3
ENDMDL
MODEL 4
REMARK VINA RESULT:      -3.9     10.358     12.165
REMARK  3 active torsions:
REMARK  status: ('A' for Active; 'I' for Inactive)
REMARK    1  A    between atoms: C2_2  and  C7_7 
REMARK    2  A    between atoms: C3_3  and  C9_9 
REMARK    3  A    between atoms: C8_8  and  C9_9 
ROOT
HETATM    1  C1  UNL     1     -34.941  13.914  -5.540  1.00 20.00     0.016 A 
HETATM    2  C2  UNL     1     -35.703  13.773  -4.253  1.00 20.00     0.009 A 
HETATM    3  C3  UNL     1     -34.320  14.423  -4.250  1.00 20.00    -0.036 A 
HETATM    4  C4  UNL     1     -33.189  13.629  -3.651  1.00 20.00     0.016 C 
ENDROOT
BRANCH   3   5
HETATM    5  C9  UNL     1     -34.187  15.911  -4.066  1.00 20.00    -0.010 C 
HETATM    6  C6  UNL     1     -33.708  16.241  -2.643  1.00 20.00     0.011 C 
BRANCH   5   7
HETATM    7  C8  UNL     1     -33.224  16.568  -5.085  1.00 20.00     0.000 C 
HETATM    8  C5  UNL     1     -33.652  17.969  -5.498  1.00 20.00     0.005 C 
ENDBRANCH   5   7
ENDBRANCH   3   5
BRANCH   2   9
HETATM    9  C7  UNL     1     -36.957  14.549  -4.033  1.00 20.00     0.120 C 
HETATM   10 CL10 UNL     1     -37.550  15.263  -5.558  1.00 20.00    -0.130 Cl
ENDBRANCH   2   9
TORSDOF 3
ENDMDL
MODEL 5
REMARK VINA RESULT:      -3.9     10.506     11.901
REMARK  3 active torsions:
REMARK  status: ('A' for Active; 'I' for Inactive)
REMARK    1  A    between atoms: C2_2  and  C7_7 
REMARK    2  A    between atoms: C3_3  and  C9_9 
REMARK    3  A    between atoms: C8_8  and  C9_9 
ROOT
HETATM    1  C1  UNL     1     -36.039  16.479  -4.863  1.00 20.00     0.016 A 
HETATM    2  C2  UNL     1     -36.775  15.172  -4.926  1.00 20.00     0.009 A 
HETATM    3  C3  UNL     1     -35.251  15.180  -4.819  1.00 20.00    -0.036 A 
HETATM    4  C4  UNL     1     -34.474  14.785  -6.047  1.00 20.00     0.016 C 
ENDROOT
BRANCH   3   5
HETATM    5  C9  UNL     1     -34.585  14.798  -3.524  1.00 20.00    -0.010 C 
HETATM    6  C6  UNL     1     -33.499  13.737  -3.766  1.00 20.00     0.011 C 
BRANCH   5   7
HETATM    7  C8  UNL     1     -33.953  16.003  -2.785  1.00 20.00     0.000 C 
HETATM    8  C5  UNL     1     -34.634  16.318  -1.460  1.00 20.00     0.005 C 
ENDBRANCH   5   7
ENDBRANCH   3   5
BRANCH   2   9
HETATM    9  C7  UNL     1     -37.659  14.753  -3.800  1.00 20.00     0.120 C 
HETATM   10 CL10 UNL     1     -39.348  14.553  -4.344  1.00 20.00    -0.130 Cl
ENDBRANCH   2   9
TORSDOF 3
ENDMDL
MODEL 6
REMARK VINA RESULT:      -3.9     10.921     12.573
REMARK  3 active torsions:
REMARK  status: ('A' for Active; 'I' for Inactive)
REMARK    1  A    between atoms: C2_2  and  C7_7 
REMARK    2  A    between atoms: C3_3  and  C9_9 
REMARK    3  A    between atoms: C8_8  and  C9_9 
ROOT
HETATM    1  C1  UNL     1     -34.873  13.306  -4.675  1.00 20.00     0.016 A 
HETATM    2  C2  UNL     1     -35.640  14.251  -3.795  1.00 20.00     0.009 A 
HETATM    3  C3  UNL     1     -34.428  14.756  -4.576  1.00 20.00    -0.036 A 
HETATM    4  C4  UNL     1     -33.180  15.057  -3.789  1.00 20.00     0.016 C 
ENDROOT
BRANCH   3   5
HETATM    5  C9  UNL     1     -34.623  15.641  -5.778  1.00 20.00    -0.010 C 
HETATM    6  C6  UNL     1     -33.651  16.833  -5.736  1.00 20.00     0.011 C 
BRANCH   5   7
HETATM    7  C8  UNL     1     -34.443  14.893  -7.121  1.00 20.00     0.000 C 
HETATM    8  C5  UNL     1     -35.734  14.772  -7.918  1.00 20.00     0.005 C 
ENDBRANCH   5   7
ENDBRANCH   3   5
BRANCH   2   9
HETATM    9  C7  UNL     1     -37.038  14.634  -4.141  1.00 20.00     0.120 C 
HETATM   10 CL10 UNL     1     -37.478  16.203  -3.413  1.00 20.00    -0.130 Cl
ENDBRANCH   2   9
TORSDOF 3
ENDMDL
MODEL 7
REMARK VINA RESULT:      -3.8     10.855     12.074
REMARK  3 active torsions:
REMARK  status: ('A' for Active; 'I' for Inactive)
REMARK    1  A    between atoms: C2_2  and  C7_7 
REMARK    2  A    between atoms: C3_3  and  C9_9 
REMARK    3  A    between atoms: C8_8  and  C9_9 
ROOT
HETATM    1  C1  UNL     1     -35.886  16.861  -3.878  1.00 20.00     0.016 A 
HETATM    2  C2  UNL     1     -35.605  16.148  -2.586  1.00 20.00     0.009 A 
HETATM    3  C3  UNL     1     -35.670  15.357  -3.892  1.00 20.00    -0.036 A 
HETATM    4  C4  UNL     1     -36.873  14.475  -4.101  1.00 20.00     0.016 C 
ENDROOT
BRANCH   3   5
HETATM    5  C9  UNL     1     -34.407  14.828  -4.516  1.00 20.00    -0.010 C 
HETATM    6  C6  UNL     1     -34.531  13.321  -4.796  1.00 20.00     0.011 C 
BRANCH   5   7
HETATM    7  C8  UNL     1     -34.026  15.553  -5.830  1.00 20.00     0.000 C 
HETATM    8  C5  UNL     1     -34.576  14.869  -7.073  1.00 20.00     0.005 C 
ENDBRANCH   5   7
ENDBRANCH   3   5
BRANCH   2   9
HETATM    9  C7  UNL     1     -34.328  16.392  -1.856  1.00 20.00     0.120 C 
HETATM   10 CL10 UNL     1     -34.634  16.952  -0.189  1.00 20.00    -0.130 Cl
ENDBRANCH   2   9
TORSDOF 3
ENDMDL
MODEL 8
REMARK VINA RESULT:      -3.8      1.302      2.542
REMARK  3 active torsions:
REMARK  status: ('A' for Active; 'I' for Inactive)
REMARK    1  A    between atoms: C2_2  and  C7_7 
REMARK    2  A    between atoms: C3_3  and  C9_9 
REMARK    3  A    between atoms: C8_8  and  C9_9 
ROOT
HETATM    1  C1  UNL     1     -33.757   5.037   2.567  1.00 20.00     0.016 A 
HETATM    2  C2  UNL     1     -33.583   6.512   2.790  1.00 20.00     0.009 A 
HETATM    3  C3  UNL     1     -34.419   5.689   3.769  1.00 20.00    -0.036 A 
HETATM    4  C4  UNL     1     -35.912   5.886   3.731  1.00 20.00     0.016 C 
ENDROOT
BRANCH   3   5
HETATM    5  C9  UNL     1     -33.878   5.370   5.137  1.00 20.00    -0.010 C 
HETATM    6  C6  UNL     1     -34.136   6.534   6.108  1.00 20.00     0.011 C 
BRANCH   5   7
HETATM    7  C8  UNL     1     -34.472   4.073   5.739  1.00 20.00     0.000 C 
HETATM    8  C5  UNL     1     -35.435   4.332   6.889  1.00 20.00     0.005 C 
ENDBRANCH   5   7
ENDBRANCH   3   5
BRANCH   2   9
HETATM    9  C7  UNL     1     -32.245   7.066   3.142  1.00 20.00     0.120 C 
HETATM   10 CL10 UNL     1     -31.734   8.315   1.973  1.00 20.00    -0.130 Cl
ENDBRANCH   2   9
TORSDOF 3
ENDMDL
MODEL 9
REMARK VINA RESULT:      -3.8     10.608     12.490
REMARK  3 active torsions:
REMARK  status: ('A' for Active; 'I' for Inactive)
REMARK    1  A    between atoms: C2_2  and  C7_7 
REMARK    2  A    between atoms: C3_3  and  C9_9 
REMARK    3  A    between atoms: C8_8  and  C9_9 
ROOT
HETATM    1  C1  UNL     1     -33.119  15.088  -3.522  1.00 20.00     0.016 A 
HETATM    2  C2  UNL     1     -34.509  14.773  -3.051  1.00 20.00     0.009 A 
HETATM    3  C3  UNL     1     -34.038  16.225  -3.110  1.00 20.00    -0.036 A 
HETATM    4  C4  UNL     1     -33.764  16.912  -1.797  1.00 20.00     0.016 C 
ENDROOT
BRANCH   3   5
HETATM    5  C9  UNL     1     -34.557  17.143  -4.183  1.00 20.00    -0.010 C 
HETATM    6  C6  UNL     1     -34.766  18.563  -3.629  1.00 20.00     0.011 C 
BRANCH   5   7
HETATM    7  C8  UNL     1     -33.631  17.218  -5.421  1.00 20.00     0.000 C 
HETATM    8  C5  UNL     1     -34.281  16.687  -6.691  1.00 20.00     0.005 C 
ENDBRANCH   5   7
ENDBRANCH   3   5
BRANCH   2   9
HETATM    9  C7  UNL     1     -35.515  14.215  -3.999  1.00 20.00     0.120 C 
HETATM   10 CL10 UNL     1     -34.734  13.216  -5.256  1.00 20.00    -0.130 Cl
ENDBRANCH   2   9
TORSDOF 3
ENDMDL
