MODEL 1
REMARK VINA RESULT:      -4.2      0.000      0.000
REMARK  3 active torsions:
REMARK  status: ('A' for Active; 'I' for Inactive)
REMARK    1  A    between atoms: C4_4  and  C6_6 
REMARK    2  A    between atoms: C5_5  and  C8_8 
REMARK    3  A    between atoms: C6_6  and  C9_9 
ROOT
HETATM    1  C3  UNL     1     -34.539   6.926   3.561  1.00 20.00     0.017 A 
HETATM    2  C5  UNL     1     -33.459   5.951   3.189  1.00 20.00     0.009 A 
HETATM    3  C6  UNL     1     -34.207   5.780   4.504  1.00 20.00    -0.032 A 
ENDROOT
BRANCH   3   4
HETATM    4  C4  UNL     1     -33.546   6.064   5.859  1.00 20.00    -0.006 A 
HETATM    5  C1  UNL     1     -33.105   7.439   6.276  1.00 20.00     0.006 A 
HETATM    6  C2  UNL     1     -34.257   6.775   6.977  1.00 20.00     0.006 A 
ENDBRANCH   3   4
BRANCH   3   7
HETATM    7  C9  UNL     1     -35.198   4.641   4.553  1.00 20.00     0.006 C 
HETATM    8  C7  UNL     1     -34.995   3.762   5.751  1.00 20.00     0.006 C 
ENDBRANCH   3   7
BRANCH   2   9
HETATM    9  C8  UNL     1     -32.036   6.392   3.139  1.00 20.00     0.120 C 
HETATM   10 CL10 UNL     1     -31.872   7.949   2.281  1.00 20.00    -0.130 Cl
ENDBRANCH   2   9
TORSDOF 3
ENDMDL
MODEL 2
REMARK VINA RESULT:      -4.1     11.803     13.299
REMARK  3 active torsions:
REMARK  status: ('A' for Active; 'I' for Inactive)
REMARK    1  A    between atoms: C4_4  and  C6_6 
REMARK    2  A    between atoms: C5_5  and  C8_8 
REMARK    3  A    between atoms: C6_6  and  C9_9 
ROOT
HETATM    1  C3  UNL     1     -33.273  16.258  -4.552  1.00 20.00     0.017 A 
HETATM    2  C5  UNL     1     -34.670  15.775  -4.289  1.00 20.00     0.009 A 
HETATM    3  C6  UNL     1     -34.081  16.882  -3.426  1.00 20.00    -0.032 A 
ENDROOT
BRANCH   3   4
HETATM    4  C4  UNL     1     -33.676  16.645  -1.964  1.00 20.00    -0.006 A 
HETATM    5  C1  UNL     1     -33.656  17.744  -0.939  1.00 20.00     0.006 A 
HETATM    6  C2  UNL     1     -34.670  16.640  -0.837  1.00 20.00     0.006 A 
ENDBRANCH   3   4
BRANCH   3   7
HETATM    7  C9  UNL     1     -34.623  18.269  -3.674  1.00 20.00     0.006 C 
HETATM    8  C7  UNL     1     -33.614  19.166  -4.329  1.00 20.00     0.006 C 
ENDBRANCH   3   7
BRANCH   2   9
HETATM    9  C8  UNL     1     -34.900  14.399  -3.765  1.00 20.00     0.120 C 
HETATM   10 CL10 UNL     1     -33.398  13.435  -3.800  1.00 20.00    -0.130 Cl
ENDBRANCH   2   9
TORSDOF 3
ENDMDL
MODEL 3
REMARK VINA RESULT:      -4.1     11.955     13.277
REMARK  3 active torsions:
REMARK  status: ('A' for Active; 'I' for Inactive)
REMARK    1  A    between atoms: C4_4  and  C6_6 
REMARK    2  A    between atoms: C5_5  and  C8_8 
REMARK    3  A    between atoms: C6_6  and  C9_9 
ROOT
HETATM    1  C3  UNL     1     -33.134  15.111  -3.454  1.00 20.00     0.017 A 
HETATM    2  C5  UNL     1     -34.165  15.617  -2.487  1.00 20.00     0.009 A 
HETATM    3  C6  UNL     1     -34.524  15.461  -3.958  1.00 20.00    -0.032 A 
ENDROOT
BRANCH   3   4
HETATM    4  C4  UNL     1     -34.728  16.672  -4.879  1.00 20.00    -0.006 A 
HETATM    5  C1  UNL     1     -33.582  17.441  -5.474  1.00 20.00     0.006 A 
HETATM    6  C2  UNL     1     -34.474  16.618  -6.360  1.00 20.00     0.006 A 
ENDBRANCH   3   4
BRANCH   3   7
HETATM    7  C9  UNL     1     -35.430  14.300  -4.295  1.00 20.00     0.006 C 
HETATM    8  C7  UNL     1     -34.688  13.169  -4.944  1.00 20.00     0.006 C 
ENDBRANCH   3   7
BRANCH   2   9
HETATM    9  C8  UNL     1     -34.002  16.954  -1.849  1.00 20.00     0.120 C 
HETATM   10 CL10 UNL     1     -34.706  16.978  -0.209  1.00 20.00    -0.130 Cl
ENDBRANCH   2   9
TORSDOF 3
ENDMDL
MODEL 4
REMARK VINA RESULT:      -4.0     12.283     13.594
REMARK  3 active torsions:
REMARK  status: ('A' for Active; 'I' for Inactive)
REMARK    1  A    between atoms: C4_4  and  C6_6 
REMARK    2  A    between atoms: C5_5  and  C8_8 
REMARK    3  A    between atoms: C6_6  and  C9_9 
ROOT
HETATM    1  C3  UNL     1     -34.517  15.986  -5.365  1.00 20.00     0.017 A 
HETATM    2  C5  UNL     1     -33.353  16.928  -5.250  1.00 20.00     0.009 A 
HETATM    3  C6  UNL     1     -33.819  16.153  -4.025  1.00 20.00    -0.032 A 
ENDROOT
BRANCH   3   4
HETATM    4  C4  UNL     1     -34.544  16.835  -2.858  1.00 20.00    -0.006 A 
HETATM    5  C1  UNL     1     -34.553  16.270  -1.465  1.00 20.00     0.006 A 
HETATM    6  C2  UNL     1     -33.815  17.547  -1.752  1.00 20.00     0.006 A 
ENDBRANCH   3   4
BRANCH   3   7
HETATM    7  C9  UNL     1     -32.925  15.017  -3.587  1.00 20.00     0.006 C 
HETATM    8  C7  UNL     1     -33.543  13.675  -3.842  1.00 20.00     0.006 C 
ENDBRANCH   3   7
BRANCH   2   9
HETATM    9  C8  UNL     1     -33.563  18.398  -5.384  1.00 20.00     0.120 C 
HETATM   10 CL10 UNL     1     -35.152  18.760  -6.112  1.00 20.00    -0.130 Cl
ENDBRANCH   2   9
TORSDOF 3
ENDMDL
MODEL 5
REMARK VINA RESULT:      -4.0     11.736     13.214
REMARK  3 active torsions:
REMARK  status: ('A' for Active; 'I' for Inactive)
REMARK    1  A    between atoms: C4_4  and  C6_6 
REMARK    2  A    between atoms: C5_5  and  C8_8 
REMARK    3  A    between atoms: C6_6  and  C9_9 
ROOT
HETATM    1  C3  UNL     1     -35.561  15.417  -3.431  1.00 20.00     0.017 A 
HETATM    2  C5  UNL     1     -34.422  14.468  -3.195  1.00 20.00     0.009 A 
HETATM    3  C6  UNL     1     -34.170  15.969  -3.161  1.00 20.00    -0.032 A 
ENDROOT
BRANCH   3   4
HETATM    4  C4  UNL     1     -33.397  16.690  -4.274  1.00 20.00    -0.006 A 
HETATM    5  C1  UNL     1     -34.029  17.076  -5.582  1.00 20.00     0.006 A 
HETATM    6  C2  UNL     1     -33.615  18.140  -4.605  1.00 20.00     0.006 A 
ENDBRANCH   3   4
BRANCH   3   7
HETATM    7  C9  UNL     1     -33.936  16.565  -1.794  1.00 20.00     0.006 C 
HETATM    8  C7  UNL     1     -35.140  17.297  -1.278  1.00 20.00     0.006 C 
ENDBRANCH   3   7
BRANCH   2   9
HETATM    9  C8  UNL     1     -33.924  13.606  -4.305  1.00 20.00     0.120 C 
HETATM   10 CL10 UNL     1     -35.051  13.619  -5.689  1.00 20.00    -0.130 Cl
ENDBRANCH   2   9
TORSDOF 3
ENDMDL
MODEL 6
REMARK VINA RESULT:      -4.0     11.811     12.885
REMARK  3 active torsions:
REMARK  status: ('A' for Active; 'I' for Inactive)
REMARK    1  A    between atoms: C4_4  and  C6_6 
REMARK    2  A    between atoms: C5_5  and  C8_8 
REMARK    3  A    between atoms: C6_6  and  C9_9 
ROOT
HETATM    1  C3  UNL     1     -33.307  15.764  -4.067  1.00 20.00     0.017 A 
HETATM    2  C5  UNL     1     -33.768  15.775  -2.638  1.00 20.00     0.009 A 
HETATM    3  C6  UNL     1     -34.748  15.405  -3.742  1.00 20.00    -0.032 A 
ENDROOT
BRANCH   3   4
HETATM    4  C4  UNL     1     -35.890  16.339  -4.164  1.00 20.00    -0.006 A 
HETATM    5  C1  UNL     1     -37.204  15.831  -4.686  1.00 20.00     0.006 A 
HETATM    6  C2  UNL     1     -37.141  16.513  -3.348  1.00 20.00     0.006 A 
ENDBRANCH   3   4
BRANCH   3   7
HETATM    7  C9  UNL     1     -35.114  13.942  -3.834  1.00 20.00     0.006 C 
HETATM    8  C7  UNL     1     -34.584  13.300  -5.082  1.00 20.00     0.006 C 
ENDBRANCH   3   7
BRANCH   2   9
HETATM    9  C8  UNL     1     -33.864  17.061  -1.892  1.00 20.00     0.120 C 
HETATM   10 CL10 UNL     1     -34.731  16.848  -0.346  1.00 20.00    -0.130 Cl
ENDBRANCH   2   9
TORSDOF 3
ENDMDL
MODEL 7
REMARK VINA RESULT:      -4.0     11.623     13.082
REMARK  3 active torsions:
REMARK  status: ('A' for Active; 'I' for Inactive)
REMARK    1  A    between atoms: C4_4  and  C6_6 
REMARK    2  A    between atoms: C5_5  and  C8_8 
REMARK    3  A    between atoms: C6_6  and  C9_9 
ROOT
HETATM    1  C3  UNL     1     -36.088  16.673  -3.109  1.00 20.00     0.017 A 
HETATM    2  C5  UNL     1     -34.625  17.000  -3.185  1.00 20.00     0.009 A 
HETATM    3  C6  UNL     1     -35.176  15.824  -3.979  1.00 20.00    -0.032 A 
ENDROOT
BRANCH   3   4
HETATM    4  C4  UNL     1     -34.876  14.369  -3.591  1.00 20.00    -0.006 A 
HETATM    5  C1  UNL     1     -34.753  13.268  -4.607  1.00 20.00     0.006 A 
HETATM    6  C2  UNL     1     -33.542  13.721  -3.840  1.00 20.00     0.006 A 
ENDBRANCH   3   4
BRANCH   3   7
HETATM    7  C9  UNL     1     -35.286  16.030  -5.471  1.00 20.00     0.006 C 
HETATM    8  C7  UNL     1     -36.711  16.060  -5.938  1.00 20.00     0.006 C 
ENDBRANCH   3   7
BRANCH   2   9
HETATM    9  C8  UNL     1     -33.752  16.812  -1.992  1.00 20.00     0.120 C 
HETATM   10 CL10 UNL     1     -34.720  16.674  -0.498  1.00 20.00    -0.130 Cl
ENDBRANCH   2   9
TORSDOF 3
ENDMDL
MODEL 8
REMARK VINA RESULT:      -4.0     11.850     12.888
REMARK  3 active torsions:
REMARK  status: ('A' for Active; 'I' for Inactive)
REMARK    1  A    between atoms: C4_4  and  C6_6 
REMARK    2  A    between atoms: C5_5  and  C8_8 
REMARK    3  A    between atoms: C6_6  and  C9_9 
ROOT
HETATM    1  C3  UNL     1     -35.756  16.349  -4.283  1.00 20.00     0.017 A 
HETATM    2  C5  UNL     1     -36.851  15.732  -3.461  1.00 20.00     0.009 A 
HETATM    3  C6  UNL     1     -35.402  15.359  -3.185  1.00 20.00    -0.032 A 
ENDROOT
BRANCH   3   4
HETATM    4  C4  UNL     1     -34.834  13.979  -3.544  1.00 20.00    -0.006 A 
HETATM    5  C1  UNL     1     -34.376  13.626  -4.932  1.00 20.00     0.006 A 
HETATM    6  C2  UNL     1     -33.374  13.748  -3.818  1.00 20.00     0.006 A 
ENDBRANCH   3   4
BRANCH   3   7
HETATM    7  C9  UNL     1     -34.802  15.939  -1.926  1.00 20.00     0.006 C 
HETATM    8  C7  UNL     1     -33.749  16.966  -2.217  1.00 20.00     0.006 C 
ENDBRANCH   3   7
BRANCH   2   9
HETATM    9  C8  UNL     1     -37.810  14.777  -4.086  1.00 20.00     0.120 C 
HETATM   10 CL10 UNL     1     -38.088  15.172  -5.804  1.00 20.00    -0.130 Cl
ENDBRANCH   2   9
TORSDOF 3
ENDMDL
MODEL 9
REMARK VINA RESULT:      -3.9     11.925     13.478
REMARK  3 active torsions:
REMARK  status: ('A' for Active; 'I' for Inactive)
REMARK    1  A    between atoms: C4_4  and  C6_6 
REMARK    2  A    between atoms: C5_5  and  C8_8 
REMARK    3  A    between atoms: C6_6  and  C9_9 
ROOT
HETATM    1  C3  UNL     1     -33.249  16.581  -5.070  1.00 20.00     0.017 A 
HETATM    2  C5  UNL     1     -34.637  17.124  -4.891  1.00 20.00     0.009 A 
HETATM    3  C6  UNL     1     -34.092  16.108  -3.898  1.00 20.00    -0.032 A 
ENDROOT
BRANCH   3   4
HETATM    4  C4  UNL     1     -34.604  14.662  -3.850  1.00 20.00    -0.006 A 
HETATM    5  C1  UNL     1     -34.398  13.690  -4.977  1.00 20.00     0.006 A 
HETATM    6  C2  UNL     1     -33.689  13.482  -3.668  1.00 20.00     0.006 A 
ENDBRANCH   3   4
BRANCH   3   7
HETATM    7  C9  UNL     1     -33.720  16.651  -2.538  1.00 20.00     0.006 C 
HETATM    8  C7  UNL     1     -34.720  16.281  -1.484  1.00 20.00     0.006 C 
ENDBRANCH   3   7
BRANCH   2   9
HETATM    9  C8  UNL     1     -35.708  16.780  -5.869  1.00 20.00     0.120 C 
HETATM   10 CL10 UNL     1     -35.016  16.324  -7.451  1.00 20.00    -0.130 Cl
ENDBRANCH   2   9
TORSDOF 3
ENDMDL
