MODEL 1
REMARK VINA RESULT:      -4.3      0.000      0.000
REMARK  2 active torsions:
REMARK  status: ('A' for Active; 'I' for Inactive)
REMARK    1  A    between atoms: C5_5  and  C6_6 
REMARK    2  A    between atoms: C7_7  and  C8_8 
ROOT
HETATM    1  C1  UNL     1     -34.410   5.279   3.191  1.00 20.00     0.033 C 
HETATM    2  C3  UNL     1     -35.552   5.107   4.170  1.00 20.00     0.168 C 
HETATM    3  C4  UNL     1     -33.775   6.117   5.287  1.00 20.00     0.172 C 
HETATM    4  C5  UNL     1     -33.649   6.433   3.806  1.00 20.00     0.016 C 
HETATM    5  O9  UNL     1     -35.053   5.486   5.461  1.00 20.00    -0.391 OA
ENDROOT
BRANCH   4   6
HETATM    6  C6  UNL     1     -32.216   6.560   3.327  1.00 20.00    -0.003 A 
HETATM    7  C2  UNL     1     -31.304   7.592   3.934  1.00 20.00     0.011 A 
HETATM    8  C7  UNL     1     -31.742   7.728   2.499  1.00 20.00     0.000 A 
BRANCH   8   9
HETATM    9  C8  UNL     1     -32.645   8.841   2.090  1.00 20.00     0.090 C 
HETATM   10 BR10 UNL     1     -32.427   9.235   0.191  1.00 20.00    -0.096 Br
ENDBRANCH   8   9
ENDBRANCH   4   6
TORSDOF 2
ENDMDL
MODEL 2
REMARK VINA RESULT:      -4.0     10.940     11.807
REMARK  2 active torsions:
REMARK  status: ('A' for Active; 'I' for Inactive)
REMARK    1  A    between atoms: C5_5  and  C6_6 
REMARK    2  A    between atoms: C7_7  and  C8_8 
ROOT
HETATM    1  C1  UNL     1     -34.714  16.358  -1.401  1.00 20.00     0.033 C 
HETATM    2  C3  UNL     1     -34.370  17.829  -1.504  1.00 20.00     0.168 C 
HETATM    3  C4  UNL     1     -33.640  16.768  -3.445  1.00 20.00     0.172 C 
HETATM    4  C5  UNL     1     -34.782  15.956  -2.858  1.00 20.00     0.016 C 
HETATM    5  O9  UNL     1     -33.579  17.988  -2.691  1.00 20.00    -0.391 OA
ENDROOT
BRANCH   4   6
HETATM    6  C6  UNL     1     -34.658  14.463  -3.098  1.00 20.00    -0.003 A 
HETATM    7  C2  UNL     1     -33.700  13.941  -4.134  1.00 20.00     0.011 A 
HETATM    8  C7  UNL     1     -35.185  13.800  -4.347  1.00 20.00     0.000 A 
BRANCH   8   9
HETATM    9  C8  UNL     1     -35.865  14.560  -5.433  1.00 20.00     0.090 C 
HETATM   10 BR10 UNL     1     -34.614  14.947  -6.881  1.00 20.00    -0.096 Br
ENDBRANCH   8   9
ENDBRANCH   4   6
TORSDOF 2
ENDMDL
MODEL 3
REMARK VINA RESULT:      -4.0     11.124     12.437
REMARK  2 active torsions:
REMARK  status: ('A' for Active; 'I' for Inactive)
REMARK    1  A    between atoms: C5_5  and  C6_6 
REMARK    2  A    between atoms: C7_7  and  C8_8 
ROOT
HETATM    1  C1  UNL     1     -34.232  16.126  -6.834  1.00 20.00     0.033 C 
HETATM    2  C3  UNL     1     -35.282  15.384  -7.634  1.00 20.00     0.168 C 
HETATM    3  C4  UNL     1     -34.757  14.111  -5.755  1.00 20.00     0.172 C 
HETATM    4  C5  UNL     1     -34.453  15.567  -5.446  1.00 20.00     0.016 C 
HETATM    5  O9  UNL     1     -35.443  14.098  -7.016  1.00 20.00    -0.391 OA
ENDROOT
BRANCH   4   6
HETATM    6  C6  UNL     1     -33.279  15.760  -4.504  1.00 20.00    -0.003 A 
HETATM    7  C2  UNL     1     -32.885  14.662  -3.553  1.00 20.00     0.011 A 
HETATM    8  C7  UNL     1     -33.459  15.948  -3.018  1.00 20.00     0.000 A 
BRANCH   8   9
HETATM    9  C8  UNL     1     -34.799  15.960  -2.367  1.00 20.00     0.090 C 
HETATM   10 BR10 UNL     1     -34.729  16.934  -0.677  1.00 20.00    -0.096 Br
ENDBRANCH   8   9
ENDBRANCH   4   6
TORSDOF 2
ENDMDL
MODEL 4
REMARK VINA RESULT:      -3.9     10.857     11.578
REMARK  2 active torsions:
REMARK  status: ('A' for Active; 'I' for Inactive)
REMARK    1  A    between atoms: C5_5  and  C6_6 
REMARK    2  A    between atoms: C7_7  and  C8_8 
ROOT
HETATM    1  C1  UNL     1     -33.679  13.994  -3.839  1.00 20.00     0.033 C 
HETATM    2  C3  UNL     1     -34.721  13.284  -4.677  1.00 20.00     0.168 C 
HETATM    3  C4  UNL     1     -35.796  14.897  -3.384  1.00 20.00     0.172 C 
HETATM    4  C5  UNL     1     -34.351  15.325  -3.577  1.00 20.00     0.016 C 
HETATM    5  O9  UNL     1     -36.002  13.764  -4.241  1.00 20.00    -0.391 OA
ENDROOT
BRANCH   4   6
HETATM    6  C6  UNL     1     -33.777  16.090  -2.400  1.00 20.00    -0.003 A 
HETATM    7  C2  UNL     1     -34.686  16.599  -1.314  1.00 20.00     0.011 A 
HETATM    8  C7  UNL     1     -33.984  17.574  -2.223  1.00 20.00     0.000 A 
BRANCH   8   9
HETATM    9  C8  UNL     1     -34.765  18.396  -3.191  1.00 20.00     0.090 C 
HETATM   10 BR10 UNL     1     -33.613  19.030  -4.634  1.00 20.00    -0.096 Br
ENDBRANCH   8   9
ENDBRANCH   4   6
TORSDOF 2
ENDMDL
MODEL 5
REMARK VINA RESULT:      -3.9     10.620     11.349
REMARK  2 active torsions:
REMARK  status: ('A' for Active; 'I' for Inactive)
REMARK    1  A    between atoms: C5_5  and  C6_6 
REMARK    2  A    between atoms: C7_7  and  C8_8 
ROOT
HETATM    1  C1  UNL     1     -35.686  14.399  -4.315  1.00 20.00     0.033 C 
HETATM    2  C3  UNL     1     -34.991  13.061  -4.453  1.00 20.00     0.168 C 
HETATM    3  C4  UNL     1     -33.463  14.597  -3.596  1.00 20.00     0.172 C 
HETATM    4  C5  UNL     1     -34.863  15.063  -3.233  1.00 20.00     0.016 C 
HETATM    5  O9  UNL     1     -33.604  13.282  -4.154  1.00 20.00    -0.391 OA
ENDROOT
BRANCH   4   6
HETATM    6  C6  UNL     1     -35.010  16.572  -3.177  1.00 20.00    -0.003 A 
HETATM    7  C2  UNL     1     -33.807  17.440  -2.923  1.00 20.00     0.011 A 
HETATM    8  C7  UNL     1     -34.897  17.346  -1.887  1.00 20.00     0.000 A 
BRANCH   8   9
HETATM    9  C8  UNL     1     -34.634  16.688  -0.576  1.00 20.00     0.090 C 
HETATM   10 BR10 UNL     1     -35.238  17.824   0.891  1.00 20.00    -0.096 Br
ENDBRANCH   8   9
ENDBRANCH   4   6
TORSDOF 2
ENDMDL
MODEL 6
REMARK VINA RESULT:      -3.9     10.480     11.755
REMARK  2 active torsions:
REMARK  status: ('A' for Active; 'I' for Inactive)
REMARK    1  A    between atoms: C5_5  and  C6_6 
REMARK    2  A    between atoms: C7_7  and  C8_8 
ROOT
HETATM    1  C1  UNL     1     -34.322  15.105  -5.240  1.00 20.00     0.033 C 
HETATM    2  C3  UNL     1     -34.816  13.775  -5.769  1.00 20.00     0.168 C 
HETATM    3  C4  UNL     1     -34.377  13.540  -3.493  1.00 20.00     0.172 C 
HETATM    4  C5  UNL     1     -34.679  15.003  -3.773  1.00 20.00     0.016 C 
HETATM    5  O9  UNL     1     -34.675  12.825  -4.702  1.00 20.00    -0.391 OA
ENDROOT
BRANCH   4   6
HETATM    6  C6  UNL     1     -33.921  15.965  -2.879  1.00 20.00    -0.003 A 
HETATM    7  C2  UNL     1     -34.459  16.317  -1.518  1.00 20.00     0.011 A 
HETATM    8  C7  UNL     1     -34.412  17.365  -2.600  1.00 20.00     0.000 A 
BRANCH   8   9
HETATM    9  C8  UNL     1     -35.675  17.903  -3.181  1.00 20.00     0.090 C 
HETATM   10 BR10 UNL     1     -35.298  18.933  -4.796  1.00 20.00    -0.096 Br
ENDBRANCH   8   9
ENDBRANCH   4   6
TORSDOF 2
ENDMDL
MODEL 7
REMARK VINA RESULT:      -3.9     11.048     11.764
REMARK  2 active torsions:
REMARK  status: ('A' for Active; 'I' for Inactive)
REMARK    1  A    between atoms: C5_5  and  C6_6 
REMARK    2  A    between atoms: C7_7  and  C8_8 
ROOT
HETATM    1  C1  UNL     1     -34.584  16.718  -0.876  1.00 20.00     0.033 C 
HETATM    2  C3  UNL     1     -35.696  17.740  -0.763  1.00 20.00     0.168 C 
HETATM    3  C4  UNL     1     -35.022  17.635  -2.990  1.00 20.00     0.172 C 
HETATM    4  C5  UNL     1     -34.692  16.308  -2.329  1.00 20.00     0.016 C 
HETATM    5  O9  UNL     1     -35.807  18.377  -2.045  1.00 20.00    -0.391 OA
ENDROOT
BRANCH   4   6
HETATM    6  C6  UNL     1     -33.446  15.642  -2.881  1.00 20.00    -0.003 A 
HETATM    7  C2  UNL     1     -33.098  15.781  -4.338  1.00 20.00     0.011 A 
HETATM    8  C7  UNL     1     -33.509  14.439  -3.789  1.00 20.00     0.000 A 
BRANCH   8   9
HETATM    9  C8  UNL     1     -34.796  13.817  -4.210  1.00 20.00     0.090 C 
HETATM   10 BR10 UNL     1     -35.207  14.282  -6.061  1.00 20.00    -0.096 Br
ENDBRANCH   8   9
ENDBRANCH   4   6
TORSDOF 2
ENDMDL
MODEL 8
REMARK VINA RESULT:      -3.8     10.812     12.414
REMARK  2 active torsions:
REMARK  status: ('A' for Active; 'I' for Inactive)
REMARK    1  A    between atoms: C5_5  and  C6_6 
REMARK    2  A    between atoms: C7_7  and  C8_8 
ROOT
HETATM    1  C1  UNL     1     -35.168  14.463  -7.431  1.00 20.00     0.033 C 
HETATM    2  C3  UNL     1     -36.325  15.310  -7.918  1.00 20.00     0.168 C 
HETATM    3  C4  UNL     1     -36.532  15.043  -5.613  1.00 20.00     0.172 C 
HETATM    4  C5  UNL     1     -35.066  14.886  -5.982  1.00 20.00     0.016 C 
HETATM    5  O9  UNL     1     -37.203  15.497  -6.798  1.00 20.00    -0.391 OA
ENDROOT
BRANCH   4   6
HETATM    6  C6  UNL     1     -34.315  13.909  -5.099  1.00 20.00    -0.003 A 
HETATM    7  C2  UNL     1     -34.807  13.613  -3.708  1.00 20.00     0.011 A 
HETATM    8  C7  UNL     1     -33.510  14.354  -3.903  1.00 20.00     0.000 A 
BRANCH   8   9
HETATM    9  C8  UNL     1     -33.394  15.785  -3.502  1.00 20.00     0.090 C 
HETATM   10 BR10 UNL     1     -34.589  16.175  -2.009  1.00 20.00    -0.096 Br
ENDBRANCH   8   9
ENDBRANCH   4   6
TORSDOF 2
ENDMDL
MODEL 9
REMARK VINA RESULT:      -3.7     11.112     11.724
REMARK  2 active torsions:
REMARK  status: ('A' for Active; 'I' for Inactive)
REMARK    1  A    between atoms: C5_5  and  C6_6 
REMARK    2  A    between atoms: C7_7  and  C8_8 
ROOT
HETATM    1  C1  UNL     1     -34.885  17.512   0.863  1.00 20.00     0.033 C 
HETATM    2  C3  UNL     1     -36.211  18.113   1.280  1.00 20.00     0.168 C 
HETATM    3  C4  UNL     1     -35.961  18.410  -1.017  1.00 20.00     0.172 C 
HETATM    4  C5  UNL     1     -35.132  17.208  -0.598  1.00 20.00     0.016 C 
HETATM    5  O9  UNL     1     -36.744  18.783   0.127  1.00 20.00    -0.391 OA
ENDROOT
BRANCH   4   6
HETATM    6  C6  UNL     1     -33.869  17.022  -1.417  1.00 20.00    -0.003 A 
HETATM    7  C2  UNL     1     -33.788  17.565  -2.818  1.00 20.00     0.011 A 
HETATM    8  C7  UNL     1     -33.799  16.076  -2.590  1.00 20.00     0.000 A 
BRANCH   8   9
HETATM    9  C8  UNL     1     -34.964  15.257  -3.030  1.00 20.00     0.090 C 
HETATM   10 BR10 UNL     1     -34.359  13.688  -4.021  1.00 20.00    -0.096 Br
ENDBRANCH   8   9
ENDBRANCH   4   6
TORSDOF 2
ENDMDL
