MODEL 1
REMARK VINA RESULT:      -4.4      0.000      0.000
REMARK  2 active torsions:
REMARK  status: ('A' for Active; 'I' for Inactive)
REMARK    1  A    between atoms: C4_4  and  C7_7 
REMARK    2  A    between atoms: C6_6  and  C9_9 
ROOT
HETATM    1  C5  UNL     1     -33.543  17.546  -1.207  1.00 20.00     0.021 A 
HETATM    2  C6  UNL     1     -34.630  16.879  -0.417  1.00 20.00     0.009 A 
HETATM    3  C7  UNL     1     -34.810  17.097  -1.919  1.00 20.00    -0.012 A 
HETATM    4  C8  UNL     1     -35.753  18.148  -2.430  1.00 20.00     0.021 C 
ENDROOT
BRANCH   3   5
HETATM    5  C4  UNL     1     -34.696  15.821  -2.802  1.00 20.00    -0.043 A 
HETATM    6  C1  UNL     1     -33.460  15.255  -3.227  1.00 20.00     0.015 A 
HETATM    7  C2  UNL     1     -33.644  14.129  -4.000  1.00 20.00     0.050 A 
HETATM    8  S10 UNL     1     -35.303  13.759  -4.209  1.00 20.00    -0.113 SA
HETATM    9  C3  UNL     1     -35.779  15.107  -3.266  1.00 20.00     0.057 A 
ENDBRANCH   3   5
BRANCH   2  10
HETATM   10  C9  UNL     1     -35.400  17.647   0.602  1.00 20.00     0.090 C 
HETATM   11 BR11 UNL     1     -34.187  18.535   1.846  1.00 20.00    -0.096 Br
ENDBRANCH   2  10
TORSDOF 2
ENDMDL
MODEL 2
REMARK VINA RESULT:      -4.3      0.576      1.254
REMARK  2 active torsions:
REMARK  status: ('A' for Active; 'I' for Inactive)
REMARK    1  A    between atoms: C4_4  and  C7_7 
REMARK    2  A    between atoms: C6_6  and  C9_9 
ROOT
HETATM    1  C5  UNL     1     -33.559  17.410  -1.304  1.00 20.00     0.021 A 
HETATM    2  C6  UNL     1     -34.633  16.791  -0.460  1.00 20.00     0.009 A 
HETATM    3  C7  UNL     1     -34.888  17.041  -1.946  1.00 20.00    -0.012 A 
HETATM    4  C8  UNL     1     -35.800  18.149  -2.388  1.00 20.00     0.021 C 
ENDROOT
BRANCH   3   5
HETATM    5  C4  UNL     1     -34.896  15.774  -2.849  1.00 20.00    -0.043 A 
HETATM    6  C1  UNL     1     -36.082  15.138  -3.317  1.00 20.00     0.015 A 
HETATM    7  C2  UNL     1     -35.806  14.037  -4.097  1.00 20.00     0.050 A 
HETATM    8  S10 UNL     1     -34.121  13.773  -4.263  1.00 20.00    -0.113 SA
HETATM    9  C3  UNL     1     -33.758  15.135  -3.289  1.00 20.00     0.057 A 
ENDBRANCH   3   5
BRANCH   2  10
HETATM   10  C9  UNL     1     -35.299  17.584   0.612  1.00 20.00     0.090 C 
HETATM   11 BR11 UNL     1     -33.982  18.618   1.614  1.00 20.00    -0.096 Br
ENDBRANCH   2  10
TORSDOF 2
ENDMDL
MODEL 3
REMARK VINA RESULT:      -4.3      3.834      5.254
REMARK  2 active torsions:
REMARK  status: ('A' for Active; 'I' for Inactive)
REMARK    1  A    between atoms: C4_4  and  C7_7 
REMARK    2  A    between atoms: C6_6  and  C9_9 
ROOT
HETATM    1  C5  UNL     1     -33.372  16.601  -5.235  1.00 20.00     0.021 A 
HETATM    2  C6  UNL     1     -34.565  15.722  -5.000  1.00 20.00     0.009 A 
HETATM    3  C7  UNL     1     -33.508  15.873  -3.906  1.00 20.00    -0.012 A 
HETATM    4  C8  UNL     1     -32.555  14.751  -3.606  1.00 20.00     0.021 C 
ENDROOT
BRANCH   3   5
HETATM    5  C4  UNL     1     -33.927  16.735  -2.681  1.00 20.00    -0.043 A 
HETATM    6  C1  UNL     1     -34.559  16.209  -1.517  1.00 20.00     0.015 A 
HETATM    7  C2  UNL     1     -34.824  17.187  -0.585  1.00 20.00     0.050 A 
HETATM    8  S10 UNL     1     -34.310  18.734  -1.113  1.00 20.00    -0.113 SA
HETATM    9  C3  UNL     1     -33.732  18.095  -2.593  1.00 20.00     0.057 A 
ENDBRANCH   3   5
BRANCH   2  10
HETATM   10  C9  UNL     1     -34.738  14.463  -5.779  1.00 20.00     0.090 C 
HETATM   11 BR11 UNL     1     -35.003  14.863  -7.671  1.00 20.00    -0.096 Br
ENDBRANCH   2  10
TORSDOF 2
ENDMDL
MODEL 4
REMARK VINA RESULT:      -4.2      3.574      5.063
REMARK  2 active torsions:
REMARK  status: ('A' for Active; 'I' for Inactive)
REMARK    1  A    between atoms: C4_4  and  C7_7 
REMARK    2  A    between atoms: C6_6  and  C9_9 
ROOT
HETATM    1  C5  UNL     1     -34.351  13.767  -3.484  1.00 20.00     0.021 A 
HETATM    2  C6  UNL     1     -34.325  14.594  -4.735  1.00 20.00     0.009 A 
HETATM    3  C7  UNL     1     -35.187  15.036  -3.553  1.00 20.00    -0.012 A 
HETATM    4  C8  UNL     1     -36.682  14.904  -3.608  1.00 20.00     0.021 C 
ENDROOT
BRANCH   3   5
HETATM    5  C4  UNL     1     -34.657  16.262  -2.756  1.00 20.00    -0.043 A 
HETATM    6  C1  UNL     1     -34.560  16.306  -1.335  1.00 20.00     0.015 A 
HETATM    7  C2  UNL     1     -34.060  17.509  -0.887  1.00 20.00     0.050 A 
HETATM    8  S10 UNL     1     -33.710  18.580  -2.178  1.00 20.00    -0.113 SA
HETATM    9  C3  UNL     1     -34.228  17.433  -3.340  1.00 20.00     0.057 A 
ENDBRANCH   3   5
BRANCH   2  10
HETATM   10  C9  UNL     1     -34.910  14.064  -6.000  1.00 20.00     0.090 C 
HETATM   11 BR11 UNL     1     -34.748  15.380  -7.431  1.00 20.00    -0.096 Br
ENDBRANCH   2  10
TORSDOF 2
ENDMDL
MODEL 5
REMARK VINA RESULT:      -4.2      2.524      3.639
REMARK  2 active torsions:
REMARK  status: ('A' for Active; 'I' for Inactive)
REMARK    1  A    between atoms: C4_4  and  C7_7 
REMARK    2  A    between atoms: C6_6  and  C9_9 
ROOT
HETATM    1  C5  UNL     1     -35.968  15.266  -3.086  1.00 20.00     0.021 A 
HETATM    2  C6  UNL     1     -34.829  16.190  -3.398  1.00 20.00     0.009 A 
HETATM    3  C7  UNL     1     -34.931  14.844  -4.115  1.00 20.00    -0.012 A 
HETATM    4  C8  UNL     1     -33.995  13.722  -3.768  1.00 20.00     0.021 C 
ENDROOT
BRANCH   3   5
HETATM    5  C4  UNL     1     -35.364  14.910  -5.608  1.00 20.00    -0.043 A 
HETATM    6  C1  UNL     1     -34.458  14.820  -6.704  1.00 20.00     0.015 A 
HETATM    7  C2  UNL     1     -35.104  14.908  -7.918  1.00 20.00     0.050 A 
HETATM    8  S10 UNL     1     -36.797  15.097  -7.733  1.00 20.00    -0.113 SA
HETATM    9  C3  UNL     1     -36.668  15.062  -6.025  1.00 20.00     0.057 A 
ENDBRANCH   3   5
BRANCH   2  10
HETATM   10  C9  UNL     1     -33.787  16.473  -2.369  1.00 20.00     0.090 C 
HETATM   11 BR11 UNL     1     -34.618  16.902  -0.657  1.00 20.00    -0.096 Br
ENDBRANCH   2  10
TORSDOF 2
ENDMDL
MODEL 6
REMARK VINA RESULT:      -4.2      3.489      4.942
REMARK  2 active torsions:
REMARK  status: ('A' for Active; 'I' for Inactive)
REMARK    1  A    between atoms: C4_4  and  C7_7 
REMARK    2  A    between atoms: C6_6  and  C9_9 
ROOT
HETATM    1  C5  UNL     1     -35.333  16.007  -2.583  1.00 20.00     0.021 A 
HETATM    2  C6  UNL     1     -33.910  15.536  -2.526  1.00 20.00     0.009 A 
HETATM    3  C7  UNL     1     -34.224  17.023  -2.361  1.00 20.00    -0.012 A 
HETATM    4  C8  UNL     1     -33.914  17.995  -3.464  1.00 20.00     0.021 C 
ENDROOT
BRANCH   3   5
HETATM    5  C4  UNL     1     -34.074  17.585  -0.918  1.00 20.00    -0.043 A 
HETATM    6  C1  UNL     1     -34.995  17.322   0.138  1.00 20.00     0.015 A 
HETATM    7  C2  UNL     1     -34.627  17.943   1.311  1.00 20.00     0.050 A 
HETATM    8  S10 UNL     1     -33.177  18.838   1.137  1.00 20.00    -0.113 SA
HETATM    9  C3  UNL     1     -33.039  18.397  -0.511  1.00 20.00     0.057 A 
ENDBRANCH   3   5
BRANCH   2  10
HETATM   10  C9  UNL     1     -33.250  14.986  -3.744  1.00 20.00     0.090 C 
HETATM   11 BR11 UNL     1     -34.324  13.551  -4.514  1.00 20.00    -0.096 Br
ENDBRANCH   2  10
TORSDOF 2
ENDMDL
MODEL 7
REMARK VINA RESULT:      -4.1      3.464      4.787
REMARK  2 active torsions:
REMARK  status: ('A' for Active; 'I' for Inactive)
REMARK    1  A    between atoms: C4_4  and  C7_7 
REMARK    2  A    between atoms: C6_6  and  C9_9 
ROOT
HETATM    1  C5  UNL     1     -35.421  15.870  -2.700  1.00 20.00     0.021 A 
HETATM    2  C6  UNL     1     -34.028  15.329  -2.572  1.00 20.00     0.009 A 
HETATM    3  C7  UNL     1     -34.266  16.836  -2.484  1.00 20.00    -0.012 A 
HETATM    4  C8  UNL     1     -33.868  17.739  -3.616  1.00 20.00     0.021 C 
ENDROOT
BRANCH   3   5
HETATM    5  C4  UNL     1     -34.134  17.455  -1.062  1.00 20.00    -0.043 A 
HETATM    6  C1  UNL     1     -33.032  18.254  -0.642  1.00 20.00     0.015 A 
HETATM    7  C2  UNL     1     -33.164  18.674   0.663  1.00 20.00     0.050 A 
HETATM    8  S10 UNL     1     -34.614  18.105   1.376  1.00 20.00    -0.113 SA
HETATM    9  C3  UNL     1     -35.067  17.294  -0.063  1.00 20.00     0.057 A 
ENDBRANCH   3   5
BRANCH   2  10
HETATM   10  C9  UNL     1     -33.358  14.690  -3.741  1.00 20.00     0.090 C 
HETATM   11 BR11 UNL     1     -34.556  13.412  -4.599  1.00 20.00    -0.096 Br
ENDBRANCH   2  10
TORSDOF 2
ENDMDL
MODEL 8
REMARK VINA RESULT:      -4.1      2.348      3.339
REMARK  2 active torsions:
REMARK  status: ('A' for Active; 'I' for Inactive)
REMARK    1  A    between atoms: C4_4  and  C7_7 
REMARK    2  A    between atoms: C6_6  and  C9_9 
ROOT
HETATM    1  C5  UNL     1     -35.034  14.998  -2.853  1.00 20.00     0.021 A 
HETATM    2  C6  UNL     1     -34.512  16.392  -3.031  1.00 20.00     0.009 A 
HETATM    3  C7  UNL     1     -33.955  15.260  -3.893  1.00 20.00    -0.012 A 
HETATM    4  C8  UNL     1     -32.576  14.719  -3.644  1.00 20.00     0.021 C 
ENDROOT
BRANCH   3   5
HETATM    5  C4  UNL     1     -34.409  15.263  -5.381  1.00 20.00    -0.043 A 
HETATM    6  C1  UNL     1     -34.132  16.321  -6.295  1.00 20.00     0.015 A 
HETATM    7  C2  UNL     1     -34.648  16.071  -7.547  1.00 20.00     0.050 A 
HETATM    8  S10 UNL     1     -35.462  14.566  -7.618  1.00 20.00    -0.113 SA
HETATM    9  C3  UNL     1     -35.125  14.245  -5.970  1.00 20.00     0.057 A 
ENDBRANCH   3   5
BRANCH   2  10
HETATM   10  C9  UNL     1     -33.717  17.042  -1.949  1.00 20.00     0.090 C 
HETATM   11 BR11 UNL     1     -34.750  17.120  -0.296  1.00 20.00    -0.096 Br
ENDBRANCH   2  10
TORSDOF 2
ENDMDL
MODEL 9
REMARK VINA RESULT:      -4.0      3.771      5.192
REMARK  2 active torsions:
REMARK  status: ('A' for Active; 'I' for Inactive)
REMARK    1  A    between atoms: C4_4  and  C7_7 
REMARK    2  A    between atoms: C6_6  and  C9_9 
ROOT
HETATM    1  C5  UNL     1     -35.346  17.601  -0.966  1.00 20.00     0.021 A 
HETATM    2  C6  UNL     1     -34.221  16.644  -1.230  1.00 20.00     0.009 A 
HETATM    3  C7  UNL     1     -33.923  18.132  -1.042  1.00 20.00    -0.012 A 
HETATM    4  C8  UNL     1     -33.541  18.987  -2.216  1.00 20.00     0.021 C 
ENDROOT
BRANCH   3   5
HETATM    5  C4  UNL     1     -33.251  18.517   0.307  1.00 20.00    -0.043 A 
HETATM    6  C1  UNL     1     -31.889  18.918   0.432  1.00 20.00     0.015 A 
HETATM    7  C2  UNL     1     -31.550  19.202   1.736  1.00 20.00     0.050 A 
HETATM    8  S10 UNL     1     -32.872  18.986   2.805  1.00 20.00    -0.113 SA
HETATM    9  C3  UNL     1     -33.901  18.511   1.521  1.00 20.00     0.057 A 
ENDBRANCH   3   5
BRANCH   2  10
HETATM   10  C9  UNL     1     -34.106  15.964  -2.551  1.00 20.00     0.090 C 
HETATM   11 BR11 UNL     1     -35.873  15.502  -3.237  1.00 20.00    -0.096 Br
ENDBRANCH   2  10
TORSDOF 2
ENDMDL
