MODEL 1
REMARK VINA RESULT:      -5.7      0.000      0.000
REMARK  2 active torsions:
REMARK  status: ('A' for Active; 'I' for Inactive)
REMARK    1  A    between atoms: C5_5  and  C6_6 
REMARK    2  A    between atoms: C7_7  and  C8_8 
ROOT
HETATM    1  C4  UNL     1     -31.957   5.977   3.273  1.00 20.00     0.011 A 
HETATM    2  C6  UNL     1     -33.411   6.296   3.078  1.00 20.00    -0.005 A 
HETATM    3  C7  UNL     1     -32.395   7.402   3.053  1.00 20.00     0.004 A 
ENDROOT
BRANCH   2   4
HETATM    4  C5  UNL     1     -34.435   6.154   4.184  1.00 20.00    -0.010 C 
HETATM    5  C2  UNL     1     -33.899   6.200   5.639  1.00 20.00     0.005 C 
HETATM    6  C1  UNL     1     -34.960   5.134   5.985  1.00 20.00     0.001 C 
HETATM    7  C3  UNL     1     -34.921   4.716   4.501  1.00 20.00     0.005 C 
ENDBRANCH   2   4
BRANCH   3   8
HETATM    8  C8  UNL     1     -32.081   8.094   1.772  1.00 20.00     0.119 C 
HETATM    9 CL9  UNL     1     -32.593   9.804   1.817  1.00 20.00    -0.130 Cl
ENDBRANCH   3   8
TORSDOF 2
ENDMDL
MODEL 2
REMARK VINA RESULT:      -4.4      2.278      4.530
REMARK  2 active torsions:
REMARK  status: ('A' for Active; 'I' for Inactive)
REMARK    1  A    between atoms: C5_5  and  C6_6 
REMARK    2  A    between atoms: C7_7  and  C8_8 
ROOT
HETATM    1  C4  UNL     1     -32.163   5.866   2.897  1.00 20.00     0.011 A 
HETATM    2  C6  UNL     1     -32.037   7.280   3.383  1.00 20.00    -0.005 A 
HETATM    3  C7  UNL     1     -33.378   6.606   3.394  1.00 20.00     0.004 A 
ENDROOT
BRANCH   2   4
HETATM    4  C5  UNL     1     -31.712   8.438   2.462  1.00 20.00    -0.010 C 
HETATM    5  C2  UNL     1     -32.831   9.490   2.247  1.00 20.00     0.005 C 
HETATM    6  C1  UNL     1     -32.353   9.592   0.784  1.00 20.00     0.001 C 
HETATM    7  C3  UNL     1     -31.801   8.159   0.939  1.00 20.00     0.005 C 
ENDBRANCH   2   4
BRANCH   3   8
HETATM    8  C8  UNL     1     -34.009   6.226   4.689  1.00 20.00     0.119 C 
HETATM    9 CL9  UNL     1     -35.325   5.044   4.446  1.00 20.00    -0.130 Cl
ENDBRANCH   3   8
TORSDOF 2
ENDMDL
MODEL 3
REMARK VINA RESULT:      -4.1      2.679      4.402
REMARK  2 active torsions:
REMARK  status: ('A' for Active; 'I' for Inactive)
REMARK    1  A    between atoms: C5_5  and  C6_6 
REMARK    2  A    between atoms: C7_7  and  C8_8 
ROOT
HETATM    1  C4  UNL     1     -34.871   5.748   3.684  1.00 20.00     0.011 A 
HETATM    2  C6  UNL     1     -33.390   5.634   3.899  1.00 20.00    -0.005 A 
HETATM    3  C7  UNL     1     -34.245   6.303   4.938  1.00 20.00     0.004 A 
ENDROOT
BRANCH   2   4
HETATM    4  C5  UNL     1     -32.380   6.391   3.062  1.00 20.00    -0.010 C 
HETATM    5  C2  UNL     1     -31.533   7.464   3.796  1.00 20.00     0.005 C 
HETATM    6  C1  UNL     1     -31.629   8.312   2.511  1.00 20.00     0.001 C 
HETATM    7  C3  UNL     1     -32.930   7.548   2.188  1.00 20.00     0.005 C 
ENDBRANCH   2   4
BRANCH   3   8
HETATM    8  C8  UNL     1     -34.478   5.638   6.249  1.00 20.00     0.119 C 
HETATM    9 CL9  UNL     1     -34.903   3.917   6.037  1.00 20.00    -0.130 Cl
ENDBRANCH   3   8
TORSDOF 2
ENDMDL
MODEL 4
REMARK VINA RESULT:      -4.1     10.849     11.492
REMARK  2 active torsions:
REMARK  status: ('A' for Active; 'I' for Inactive)
REMARK    1  A    between atoms: C5_5  and  C6_6 
REMARK    2  A    between atoms: C7_7  and  C8_8 
ROOT
HETATM    1  C4  UNL     1     -33.727  16.948  -2.486  1.00 20.00     0.011 A 
HETATM    2  C6  UNL     1     -34.925  16.055  -2.632  1.00 20.00    -0.005 A 
HETATM    3  C7  UNL     1     -34.521  16.544  -1.271  1.00 20.00     0.004 A 
ENDROOT
BRANCH   2   4
HETATM    4  C5  UNL     1     -34.817  14.601  -3.043  1.00 20.00    -0.010 C 
HETATM    5  C2  UNL     1     -33.613  14.220  -3.944  1.00 20.00     0.005 C 
HETATM    6  C1  UNL     1     -34.559  13.239  -4.666  1.00 20.00     0.001 C 
HETATM    7  C3  UNL     1     -35.726  14.139  -4.210  1.00 20.00     0.005 C 
ENDBRANCH   2   4
BRANCH   3   8
HETATM    8  C8  UNL     1     -35.365  17.544  -0.560  1.00 20.00     0.119 C 
HETATM    9 CL9  UNL     1     -35.182  17.405   1.210  1.00 20.00    -0.130 Cl
ENDBRANCH   3   8
TORSDOF 2
ENDMDL
MODEL 5
REMARK VINA RESULT:      -4.1     10.625     11.735
REMARK  2 active torsions:
REMARK  status: ('A' for Active; 'I' for Inactive)
REMARK    1  A    between atoms: C5_5  and  C6_6 
REMARK    2  A    between atoms: C7_7  and  C8_8 
ROOT
HETATM    1  C4  UNL     1     -33.471  16.379  -4.122  1.00 20.00     0.011 A 
HETATM    2  C6  UNL     1     -33.492  16.235  -2.628  1.00 20.00    -0.005 A 
HETATM    3  C7  UNL     1     -34.311  15.307  -3.478  1.00 20.00     0.004 A 
ENDROOT
BRANCH   2   4
HETATM    4  C5  UNL     1     -34.114  17.270  -1.714  1.00 20.00    -0.010 C 
HETATM    5  C2  UNL     1     -33.151  18.030  -0.765  1.00 20.00     0.005 C 
HETATM    6  C1  UNL     1     -34.275  17.988   0.290  1.00 20.00     0.001 C 
HETATM    7  C3  UNL     1     -34.814  16.738  -0.437  1.00 20.00     0.005 C 
ENDBRANCH   2   4
BRANCH   3   8
HETATM    8  C8  UNL     1     -33.923  13.875  -3.602  1.00 20.00     0.119 C 
HETATM    9 CL9  UNL     1     -34.790  13.083  -4.947  1.00 20.00    -0.130 Cl
ENDBRANCH   3   8
TORSDOF 2
ENDMDL
MODEL 6
REMARK VINA RESULT:      -4.1     11.110     11.908
REMARK  2 active torsions:
REMARK  status: ('A' for Active; 'I' for Inactive)
REMARK    1  A    between atoms: C5_5  and  C6_6 
REMARK    2  A    between atoms: C7_7  and  C8_8 
ROOT
HETATM    1  C4  UNL     1     -36.081  14.969  -3.348  1.00 20.00     0.011 A 
HETATM    2  C6  UNL     1     -34.743  15.608  -3.582  1.00 20.00    -0.005 A 
HETATM    3  C7  UNL     1     -34.900  14.125  -3.753  1.00 20.00     0.004 A 
ENDROOT
BRANCH   2   4
HETATM    4  C5  UNL     1     -33.921  16.219  -2.466  1.00 20.00    -0.010 C 
HETATM    5  C2  UNL     1     -34.639  16.430  -1.108  1.00 20.00     0.005 C 
HETATM    6  C1  UNL     1     -33.830  17.735  -0.966  1.00 20.00     0.001 C 
HETATM    7  C3  UNL     1     -33.730  17.757  -2.505  1.00 20.00     0.005 C 
ENDBRANCH   2   4
BRANCH   3   8
HETATM    8  C8  UNL     1     -34.841  13.523  -5.113  1.00 20.00     0.119 C 
HETATM    9 CL9  UNL     1     -34.360  14.731  -6.336  1.00 20.00    -0.130 Cl
ENDBRANCH   3   8
TORSDOF 2
ENDMDL
MODEL 7
REMARK VINA RESULT:      -4.0     11.347     12.056
REMARK  2 active torsions:
REMARK  status: ('A' for Active; 'I' for Inactive)
REMARK    1  A    between atoms: C5_5  and  C6_6 
REMARK    2  A    between atoms: C7_7  and  C8_8 
ROOT
HETATM    1  C4  UNL     1     -34.675  14.988  -3.044  1.00 20.00     0.011 A 
HETATM    2  C6  UNL     1     -34.539  16.384  -2.510  1.00 20.00    -0.005 A 
HETATM    3  C7  UNL     1     -33.447  15.801  -3.361  1.00 20.00     0.004 A 
ENDROOT
BRANCH   2   4
HETATM    4  C5  UNL     1     -34.356  16.682  -1.037  1.00 20.00    -0.010 C 
HETATM    5  C2  UNL     1     -35.436  17.571  -0.368  1.00 20.00     0.005 C 
HETATM    6  C1  UNL     1     -34.299  18.200   0.463  1.00 20.00     0.001 C 
HETATM    7  C3  UNL     1     -33.339  17.796  -0.675  1.00 20.00     0.005 C 
ENDBRANCH   2   4
BRANCH   3   8
HETATM    8  C8  UNL     1     -33.224  16.317  -4.740  1.00 20.00     0.119 C 
HETATM    9 CL9  UNL     1     -33.514  18.076  -4.829  1.00 20.00    -0.130 Cl
ENDBRANCH   3   8
TORSDOF 2
ENDMDL
MODEL 8
REMARK VINA RESULT:      -4.0     10.949     11.957
REMARK  2 active torsions:
REMARK  status: ('A' for Active; 'I' for Inactive)
REMARK    1  A    between atoms: C5_5  and  C6_6 
REMARK    2  A    between atoms: C7_7  and  C8_8 
ROOT
HETATM    1  C4  UNL     1     -34.400  16.590  -1.396  1.00 20.00     0.011 A 
HETATM    2  C6  UNL     1     -33.954  15.929  -2.667  1.00 20.00    -0.005 A 
HETATM    3  C7  UNL     1     -34.744  17.204  -2.728  1.00 20.00     0.004 A 
ENDROOT
BRANCH   2   4
HETATM    4  C5  UNL     1     -34.510  14.601  -3.138  1.00 20.00    -0.010 C 
HETATM    5  C2  UNL     1     -33.525  13.658  -3.878  1.00 20.00     0.005 C 
HETATM    6  C1  UNL     1     -34.707  13.253  -4.782  1.00 20.00     0.001 C 
HETATM    7  C3  UNL     1     -35.339  14.620  -4.448  1.00 20.00     0.005 C 
ENDBRANCH   2   4
BRANCH   3   8
HETATM    8  C8  UNL     1     -34.085  18.467  -3.163  1.00 20.00     0.119 C 
HETATM    9 CL9  UNL     1     -33.461  18.330  -4.831  1.00 20.00    -0.130 Cl
ENDBRANCH   3   8
TORSDOF 2
ENDMDL
MODEL 9
REMARK VINA RESULT:      -4.0     10.568     12.458
REMARK  2 active torsions:
REMARK  status: ('A' for Active; 'I' for Inactive)
REMARK    1  A    between atoms: C5_5  and  C6_6 
REMARK    2  A    between atoms: C7_7  and  C8_8 
ROOT
HETATM    1  C4  UNL     1     -33.589  13.732  -3.709  1.00 20.00     0.011 A 
HETATM    2  C6  UNL     1     -34.003  14.657  -4.817  1.00 20.00    -0.005 A 
HETATM    3  C7  UNL     1     -34.432  14.943  -3.407  1.00 20.00     0.004 A 
ENDROOT
BRANCH   2   4
HETATM    4  C5  UNL     1     -34.979  14.250  -5.901  1.00 20.00    -0.010 C 
HETATM    5  C2  UNL     1     -34.700  14.793  -7.327  1.00 20.00     0.005 C 
HETATM    6  C1  UNL     1     -36.227  14.924  -7.496  1.00 20.00     0.001 C 
HETATM    7  C3  UNL     1     -36.317  15.031  -5.960  1.00 20.00     0.005 C 
ENDBRANCH   2   4
BRANCH   3   8
HETATM    8  C8  UNL     1     -33.848  16.100  -2.672  1.00 20.00     0.119 C 
HETATM    9 CL9  UNL     1     -34.671  16.356  -1.108  1.00 20.00    -0.130 Cl
ENDBRANCH   3   8
TORSDOF 2
ENDMDL
