MODEL 1
REMARK VINA RESULT:      -4.9      0.000      0.000
REMARK  1 active torsions:
REMARK  status: ('A' for Active; 'I' for Inactive)
REMARK    1  A    between atoms: C1_1  and  C5_5 
ROOT
HETATM    1  C2  UNL     1     -33.646  14.432  -3.129  1.00 20.00     0.013 C 
HETATM    2  C3  UNL     1     -33.243  15.884  -3.381  1.00 20.00     0.009 C 
HETATM    3  C4  UNL     1     -35.661  16.313  -2.647  1.00 20.00     0.013 C 
HETATM    4  C5  UNL     1     -35.027  14.111  -3.720  1.00 20.00     0.059 C 
HETATM    5  C6  UNL     1     -35.965  15.336  -3.791  1.00 20.00    -0.007 C 
HETATM    6  C7  UNL     1     -34.223  16.890  -2.728  1.00 20.00    -0.047 C 
HETATM    7  C9  UNL     1     -37.432  14.900  -3.748  1.00 20.00     0.011 C 
HETATM    8  C10 UNL     1     -33.750  17.238  -1.303  1.00 20.00     0.015 C 
HETATM    9  C11 UNL     1     -34.225  18.187  -3.559  1.00 20.00     0.015 C 
ENDROOT
BRANCH   4  10
HETATM   10  C1  UNL     1     -34.846  13.540  -5.098  1.00 20.00     0.127 C 
HETATM   11  C8  UNL     1     -34.882  14.515  -6.244  1.00 20.00     0.091 C 
HETATM   12  O12 UNL     1     -34.677  12.336  -5.279  1.00 20.00    -0.298 OA
ENDBRANCH   4  10
TORSDOF 1
ENDMDL
MODEL 2
REMARK VINA RESULT:      -4.7      1.594      2.689
REMARK  1 active torsions:
REMARK  status: ('A' for Active; 'I' for Inactive)
REMARK    1  A    between atoms: C1_1  and  C5_5 
ROOT
HETATM    1  C2  UNL     1     -35.815  17.131  -4.173  1.00 20.00     0.013 C 
HETATM    2  C3  UNL     1     -35.820  17.456  -2.681  1.00 20.00     0.009 C 
HETATM    3  C4  UNL     1     -33.776  15.911  -2.696  1.00 20.00     0.013 C 
HETATM    4  C5  UNL     1     -35.595  15.633  -4.432  1.00 20.00     0.059 C 
HETATM    5  C6  UNL     1     -34.776  14.932  -3.326  1.00 20.00    -0.007 C 
HETATM    6  C7  UNL     1     -34.477  17.104  -1.995  1.00 20.00    -0.047 C 
HETATM    7  C9  UNL     1     -34.048  13.707  -3.883  1.00 20.00     0.011 C 
HETATM    8  C10 UNL     1     -33.533  18.322  -2.031  1.00 20.00     0.015 C 
HETATM    9  C11 UNL     1     -34.752  16.758  -0.520  1.00 20.00     0.015 C 
ENDROOT
BRANCH   4  10
HETATM   10  C1  UNL     1     -36.932  14.960  -4.565  1.00 20.00     0.127 C 
HETATM   11  C8  UNL     1     -37.734  15.286  -5.796  1.00 20.00     0.091 C 
HETATM   12  O12 UNL     1     -37.349  14.181  -3.710  1.00 20.00    -0.298 OA
ENDBRANCH   4  10
TORSDOF 1
ENDMDL
MODEL 3
REMARK VINA RESULT:      -4.7      1.594      2.703
REMARK  1 active torsions:
REMARK  status: ('A' for Active; 'I' for Inactive)
REMARK    1  A    between atoms: C1_1  and  C5_5 
ROOT
HETATM    1  C2  UNL     1     -32.927  16.018  -4.917  1.00 20.00     0.013 C 
HETATM    2  C3  UNL     1     -34.000  16.778  -5.695  1.00 20.00     0.009 C 
HETATM    3  C4  UNL     1     -34.403  17.849  -3.402  1.00 20.00     0.013 C 
HETATM    4  C5  UNL     1     -33.451  15.510  -3.566  1.00 20.00     0.059 C 
HETATM    5  C6  UNL     1     -34.579  16.385  -2.977  1.00 20.00    -0.007 C 
HETATM    6  C7  UNL     1     -34.498  18.034  -4.939  1.00 20.00    -0.047 C 
HETATM    7  C9  UNL     1     -34.616  16.270  -1.451  1.00 20.00     0.011 C 
HETATM    8  C10 UNL     1     -33.653  19.259  -5.341  1.00 20.00     0.015 C 
HETATM    9  C11 UNL     1     -35.958  18.309  -5.346  1.00 20.00     0.015 C 
ENDROOT
BRANCH   4  10
HETATM   10  C1  UNL     1     -33.946  14.102  -3.733  1.00 20.00     0.127 C 
HETATM   11  C8  UNL     1     -35.411  13.931  -4.031  1.00 20.00     0.091 C 
HETATM   12  O12 UNL     1     -33.191  13.137  -3.630  1.00 20.00    -0.298 OA
ENDBRANCH   4  10
TORSDOF 1
ENDMDL
MODEL 4
REMARK VINA RESULT:      -4.7      1.770      2.847
REMARK  1 active torsions:
REMARK  status: ('A' for Active; 'I' for Inactive)
REMARK    1  A    between atoms: C1_1  and  C5_5 
ROOT
HETATM    1  C2  UNL     1     -35.208  15.786  -2.284  1.00 20.00     0.013 C 
HETATM    2  C3  UNL     1     -34.460  16.508  -1.164  1.00 20.00     0.009 C 
HETATM    3  C4  UNL     1     -34.288  18.345  -2.942  1.00 20.00     0.013 C 
HETATM    4  C5  UNL     1     -34.485  15.919  -3.633  1.00 20.00     0.059 C 
HETATM    5  C6  UNL     1     -33.651  17.212  -3.757  1.00 20.00    -0.007 C 
HETATM    6  C7  UNL     1     -34.333  18.029  -1.424  1.00 20.00    -0.047 C 
HETATM    7  C9  UNL     1     -33.503  17.624  -5.224  1.00 20.00     0.011 C 
HETATM    8  C10 UNL     1     -35.531  18.771  -0.801  1.00 20.00     0.015 C 
HETATM    9  C11 UNL     1     -33.050  18.541  -0.743  1.00 20.00     0.015 C 
ENDROOT
BRANCH   4  10
HETATM   10  C1  UNL     1     -33.592  14.727  -3.827  1.00 20.00     0.127 C 
HETATM   11  C8  UNL     1     -34.238  13.479  -4.367  1.00 20.00     0.091 C 
HETATM   12  O12 UNL     1     -32.393  14.770  -3.558  1.00 20.00    -0.298 OA
ENDBRANCH   4  10
TORSDOF 1
ENDMDL
MODEL 5
REMARK VINA RESULT:      -4.6      1.262      2.402
REMARK  1 active torsions:
REMARK  status: ('A' for Active; 'I' for Inactive)
REMARK    1  A    between atoms: C1_1  and  C5_5 
ROOT
HETATM    1  C2  UNL     1     -36.158  15.289  -3.328  1.00 20.00     0.013 C 
HETATM    2  C3  UNL     1     -35.382  16.309  -2.496  1.00 20.00     0.009 C 
HETATM    3  C4  UNL     1     -34.970  17.349  -4.803  1.00 20.00     0.013 C 
HETATM    4  C5  UNL     1     -35.380  14.862  -4.582  1.00 20.00     0.059 C 
HETATM    5  C6  UNL     1     -34.419  15.949  -5.108  1.00 20.00    -0.007 C 
HETATM    6  C7  UNL     1     -35.098  17.614  -3.280  1.00 20.00    -0.047 C 
HETATM    7  C9  UNL     1     -34.182  15.783  -6.611  1.00 20.00     0.011 C 
HETATM    8  C10 UNL     1     -36.238  18.625  -3.049  1.00 20.00     0.015 C 
HETATM    9  C11 UNL     1     -33.795  18.238  -2.745  1.00 20.00     0.015 C 
ENDROOT
BRANCH   4  10
HETATM   10  C1  UNL     1     -34.602  13.615  -4.271  1.00 20.00     0.127 C 
HETATM   11  C8  UNL     1     -33.224  13.804  -3.696  1.00 20.00     0.091 C 
HETATM   12  O12 UNL     1     -35.068  12.496  -4.477  1.00 20.00    -0.298 OA
ENDBRANCH   4  10
TORSDOF 1
ENDMDL
MODEL 6
REMARK VINA RESULT:      -4.5      1.998      3.562
REMARK  1 active torsions:
REMARK  status: ('A' for Active; 'I' for Inactive)
REMARK    1  A    between atoms: C1_1  and  C5_5 
ROOT
HETATM    1  C2  UNL     1     -34.843  14.775  -6.782  1.00 20.00     0.013 C 
HETATM    2  C3  UNL     1     -35.751  15.989  -6.970  1.00 20.00     0.009 C 
HETATM    3  C4  UNL     1     -33.931  17.124  -5.566  1.00 20.00     0.013 C 
HETATM    4  C5  UNL     1     -34.359  14.641  -5.330  1.00 20.00     0.059 C 
HETATM    5  C6  UNL     1     -34.268  15.992  -4.587  1.00 20.00    -0.007 C 
HETATM    6  C7  UNL     1     -35.030  17.321  -6.644  1.00 20.00    -0.047 C 
HETATM    7  C9  UNL     1     -33.229  15.926  -3.465  1.00 20.00     0.011 C 
HETATM    8  C10 UNL     1     -34.375  17.890  -7.917  1.00 20.00     0.015 C 
HETATM    9  C11 UNL     1     -36.074  18.339  -6.149  1.00 20.00     0.015 C 
ENDROOT
BRANCH   4  10
HETATM   10  C1  UNL     1     -35.289  13.725  -4.588  1.00 20.00     0.127 C 
HETATM   11  C8  UNL     1     -36.540  14.342  -4.023  1.00 20.00     0.091 C 
HETATM   12  O12 UNL     1     -35.040  12.528  -4.450  1.00 20.00    -0.298 OA
ENDBRANCH   4  10
TORSDOF 1
ENDMDL
MODEL 7
REMARK VINA RESULT:      -4.5      2.084      4.288
REMARK  1 active torsions:
REMARK  status: ('A' for Active; 'I' for Inactive)
REMARK    1  A    between atoms: C1_1  and  C5_5 
ROOT
HETATM    1  C2  UNL     1     -36.183  16.045  -3.813  1.00 20.00     0.013 C 
HETATM    2  C3  UNL     1     -35.896  16.617  -5.200  1.00 20.00     0.009 C 
HETATM    3  C4  UNL     1     -34.595  14.423  -5.449  1.00 20.00     0.013 C 
HETATM    4  C5  UNL     1     -34.920  15.459  -3.163  1.00 20.00     0.059 C 
HETATM    5  C6  UNL     1     -33.889  14.937  -4.187  1.00 20.00    -0.007 C 
HETATM    6  C7  UNL     1     -35.378  15.541  -6.186  1.00 20.00    -0.047 C 
HETATM    7  C9  UNL     1     -33.021  13.836  -3.572  1.00 20.00     0.011 C 
HETATM    8  C10 UNL     1     -36.562  14.902  -6.937  1.00 20.00     0.015 C 
HETATM    9  C11 UNL     1     -34.467  16.222  -7.225  1.00 20.00     0.015 C 
ENDROOT
BRANCH   4  10
HETATM   10  C1  UNL     1     -34.281  16.511  -2.303  1.00 20.00     0.127 C 
HETATM   11  C8  UNL     1     -34.670  16.523  -0.848  1.00 20.00     0.091 C 
HETATM   12  O12 UNL     1     -33.480  17.322  -2.764  1.00 20.00    -0.298 OA
ENDBRANCH   4  10
TORSDOF 1
ENDMDL
MODEL 8
REMARK VINA RESULT:      -4.4      2.354      4.213
REMARK  1 active torsions:
REMARK  status: ('A' for Active; 'I' for Inactive)
REMARK    1  A    between atoms: C1_1  and  C5_5 
ROOT
HETATM    1  C2  UNL     1     -33.473  16.816  -4.248  1.00 20.00     0.013 C 
HETATM    2  C3  UNL     1     -33.517  15.289  -4.282  1.00 20.00     0.009 C 
HETATM    3  C4  UNL     1     -36.010  15.723  -4.688  1.00 20.00     0.013 C 
HETATM    4  C5  UNL     1     -34.617  17.404  -3.408  1.00 20.00     0.059 C 
HETATM    5  C6  UNL     1     -35.877  16.511  -3.378  1.00 20.00    -0.007 C 
HETATM    6  C7  UNL     1     -34.823  14.751  -4.917  1.00 20.00    -0.047 C 
HETATM    7  C9  UNL     1     -37.132  17.350  -3.127  1.00 20.00     0.011 C 
HETATM    8  C10 UNL     1     -34.629  14.559  -6.434  1.00 20.00     0.015 C 
HETATM    9  C11 UNL     1     -35.142  13.377  -4.300  1.00 20.00     0.015 C 
ENDROOT
BRANCH   4  10
HETATM   10  C1  UNL     1     -34.129  17.626  -2.006  1.00 20.00     0.127 C 
HETATM   11  C8  UNL     1     -34.527  16.599  -0.980  1.00 20.00     0.091 C 
HETATM   12  O12 UNL     1     -33.438  18.600  -1.711  1.00 20.00    -0.298 OA
ENDBRANCH   4  10
TORSDOF 1
ENDMDL
MODEL 9
REMARK VINA RESULT:      -4.4      1.748      3.499
REMARK  1 active torsions:
REMARK  status: ('A' for Active; 'I' for Inactive)
REMARK    1  A    between atoms: C1_1  and  C5_5 
ROOT
HETATM    1  C2  UNL     1     -36.068  13.811  -3.993  1.00 20.00     0.013 C 
HETATM    2  C3  UNL     1     -36.705  15.146  -3.612  1.00 20.00     0.009 C 
HETATM    3  C4  UNL     1     -36.467  15.574  -6.128  1.00 20.00     0.013 C 
HETATM    4  C5  UNL     1     -34.880  13.995  -4.949  1.00 20.00     0.059 C 
HETATM    5  C6  UNL     1     -34.995  15.254  -5.835  1.00 20.00    -0.007 C 
HETATM    6  C7  UNL     1     -37.268  15.902  -4.840  1.00 20.00    -0.047 C 
HETATM    7  C9  UNL     1     -34.216  15.073  -7.141  1.00 20.00     0.011 C 
HETATM    8  C10 UNL     1     -38.743  15.516  -5.065  1.00 20.00     0.015 C 
HETATM    9  C11 UNL     1     -37.210  17.415  -4.558  1.00 20.00     0.015 C 
ENDROOT
BRANCH   4  10
HETATM   10  C1  UNL     1     -33.613  14.063  -4.146  1.00 20.00     0.127 C 
HETATM   11  C8  UNL     1     -33.128  15.436  -3.762  1.00 20.00     0.091 C 
HETATM   12  O12 UNL     1     -33.003  13.047  -3.817  1.00 20.00    -0.298 OA
ENDBRANCH   4  10
TORSDOF 1
ENDMDL
