MODEL 1
REMARK VINA RESULT:      -4.6      0.000      0.000
REMARK  1 active torsions:
REMARK  status: ('A' for Active; 'I' for Inactive)
REMARK    1  A    between atoms: C5_5  and  C10_10 
ROOT
HETATM    1  C1  UNL     1     -34.591  14.157  -5.245  1.00 20.00     0.036 C 
HETATM    2  C2  UNL     1     -32.670  14.759  -3.637  1.00 20.00     0.016 A 
HETATM    3  C3  UNL     1     -33.523  16.420  -5.428  1.00 20.00     0.047 C 
HETATM    4  C4  UNL     1     -35.847  14.762  -5.854  1.00 20.00     0.169 C 
HETATM    5  C5  UNL     1     -33.909  15.350  -3.023  1.00 20.00     0.009 A 
HETATM    6  C6  UNL     1     -33.794  15.227  -4.537  1.00 20.00    -0.031 A 
HETATM    7  C7  UNL     1     -34.811  16.926  -6.113  1.00 20.00     0.054 C 
HETATM    8  C8  UNL     1     -35.726  17.693  -5.148  1.00 20.00     0.045 C 
HETATM    9  C9  UNL     1     -34.424  17.875  -7.259  1.00 20.00     0.045 C 
HETATM   10  O11 UNL     1     -35.518  15.838  -6.732  1.00 20.00    -0.381 OA
ENDROOT
BRANCH   5  11
HETATM   11  C10 UNL     1     -33.807  16.634  -2.275  1.00 20.00     0.120 C 
HETATM   12 CL12 UNL     1     -34.707  16.559  -0.735  1.00 20.00    -0.130 Cl
ENDBRANCH   5  11
TORSDOF 1
ENDMDL
MODEL 2
REMARK VINA RESULT:      -4.6      1.687      2.098
REMARK  1 active torsions:
REMARK  status: ('A' for Active; 'I' for Inactive)
REMARK    1  A    between atoms: C5_5  and  C10_10 
ROOT
HETATM    1  C1  UNL     1     -34.079  13.956  -3.487  1.00 20.00     0.036 C 
HETATM    2  C2  UNL     1     -33.767  16.270  -2.399  1.00 20.00     0.016 A 
HETATM    3  C3  UNL     1     -34.258  16.004  -4.925  1.00 20.00     0.047 C 
HETATM    4  C4  UNL     1     -34.969  13.240  -4.492  1.00 20.00     0.169 C 
HETATM    5  C5  UNL     1     -35.253  16.050  -2.458  1.00 20.00     0.009 A 
HETATM    6  C6  UNL     1     -34.351  15.441  -3.524  1.00 20.00    -0.031 A 
HETATM    7  C7  UNL     1     -35.087  15.176  -5.930  1.00 20.00     0.054 C 
HETATM    8  C8  UNL     1     -36.596  15.424  -5.792  1.00 20.00     0.045 C 
HETATM    9  C9  UNL     1     -34.668  15.562  -7.357  1.00 20.00     0.045 C 
HETATM   10  O11 UNL     1     -34.786  13.775  -5.803  1.00 20.00    -0.381 OA
ENDROOT
BRANCH   5  11
HETATM   11  C10 UNL     1     -36.151  17.217  -2.686  1.00 20.00     0.120 C 
HETATM   12 CL12 UNL     1     -35.294  18.757  -2.402  1.00 20.00    -0.130 Cl
ENDBRANCH   5  11
TORSDOF 1
ENDMDL
MODEL 3
REMARK VINA RESULT:      -4.5     12.913     14.221
REMARK  1 active torsions:
REMARK  status: ('A' for Active; 'I' for Inactive)
REMARK    1  A    between atoms: C5_5  and  C10_10 
ROOT
HETATM    1  C1  UNL     1     -42.234   4.387   0.479  1.00 20.00     0.036 C 
HETATM    2  C2  UNL     1     -40.417   6.135  -0.051  1.00 20.00     0.016 A 
HETATM    3  C3  UNL     1     -41.071   4.290  -1.743  1.00 20.00     0.047 C 
HETATM    4  C4  UNL     1     -43.417   3.688  -0.173  1.00 20.00     0.169 C 
HETATM    5  C5  UNL     1     -41.676   6.657  -0.687  1.00 20.00     0.009 A 
HETATM    6  C6  UNL     1     -41.453   5.155  -0.561  1.00 20.00    -0.031 A 
HETATM    7  C7  UNL     1     -42.284   3.513  -2.298  1.00 20.00     0.054 C 
HETATM    8  C8  UNL     1     -43.240   4.409  -3.098  1.00 20.00     0.045 C 
HETATM    9  C9  UNL     1     -41.778   2.402  -3.231  1.00 20.00     0.045 C 
HETATM   10  O11 UNL     1     -42.983   2.840  -1.236  1.00 20.00    -0.381 OA
ENDROOT
BRANCH   5  11
HETATM   11  C10 UNL     1     -41.582   7.414  -1.967  1.00 20.00     0.120 C 
HETATM   12 CL12 UNL     1     -43.184   8.009  -2.485  1.00 20.00    -0.130 Cl
ENDBRANCH   5  11
TORSDOF 1
ENDMDL
MODEL 4
REMARK VINA RESULT:      -4.5      2.425      3.638
REMARK  1 active torsions:
REMARK  status: ('A' for Active; 'I' for Inactive)
REMARK    1  A    between atoms: C5_5  and  C10_10 
ROOT
HETATM    1  C1  UNL     1     -34.792  13.419  -5.535  1.00 20.00     0.036 C 
HETATM    2  C2  UNL     1     -34.699  14.973  -7.588  1.00 20.00     0.016 A 
HETATM    3  C3  UNL     1     -36.631  15.091  -5.871  1.00 20.00     0.047 C 
HETATM    4  C4  UNL     1     -35.107  13.455  -4.047  1.00 20.00     0.169 C 
HETATM    5  C5  UNL     1     -34.125  15.773  -6.451  1.00 20.00     0.009 A 
HETATM    6  C6  UNL     1     -35.196  14.724  -6.179  1.00 20.00    -0.031 A 
HETATM    7  C7  UNL     1     -36.933  15.002  -4.360  1.00 20.00     0.054 C 
HETATM    8  C8  UNL     1     -36.329  16.172  -3.570  1.00 20.00     0.045 C 
HETATM    9  C9  UNL     1     -38.456  15.024  -4.155  1.00 20.00     0.045 C 
HETATM   10  O11 UNL     1     -36.487  13.743  -3.828  1.00 20.00    -0.381 OA
ENDROOT
BRANCH   5  11
HETATM   11  C10 UNL     1     -34.362  17.243  -6.406  1.00 20.00     0.120 C 
HETATM   12 CL12 UNL     1     -33.457  18.003  -5.067  1.00 20.00    -0.130 Cl
ENDBRANCH   5  11
TORSDOF 1
ENDMDL
MODEL 5
REMARK VINA RESULT:      -4.4      2.601      3.888
REMARK  1 active torsions:
REMARK  status: ('A' for Active; 'I' for Inactive)
REMARK    1  A    between atoms: C5_5  and  C10_10 
ROOT
HETATM    1  C1  UNL     1     -33.293  16.211  -4.521  1.00 20.00     0.036 C 
HETATM    2  C2  UNL     1     -34.259  13.834  -4.295  1.00 20.00     0.016 A 
HETATM    3  C3  UNL     1     -34.378  15.547  -2.359  1.00 20.00     0.047 C 
HETATM    4  C4  UNL     1     -33.633  17.655  -4.184  1.00 20.00     0.169 C 
HETATM    5  C5  UNL     1     -35.426  14.710  -4.657  1.00 20.00     0.009 A 
HETATM    6  C6  UNL     1     -34.270  15.280  -3.844  1.00 20.00    -0.031 A 
HETATM    7  C7  UNL     1     -34.609  17.044  -2.062  1.00 20.00     0.054 C 
HETATM    8  C8  UNL     1     -36.044  17.490  -2.377  1.00 20.00     0.045 C 
HETATM    9  C9  UNL     1     -34.346  17.301  -0.570  1.00 20.00     0.045 C 
HETATM   10  O11 UNL     1     -33.655  17.854  -2.771  1.00 20.00    -0.381 OA
ENDROOT
BRANCH   5  11
HETATM   11  C10 UNL     1     -36.771  14.397  -4.097  1.00 20.00     0.120 C 
HETATM   12 CL12 UNL     1     -38.019  15.484  -4.766  1.00 20.00    -0.130 Cl
ENDBRANCH   5  11
TORSDOF 1
ENDMDL
MODEL 6
REMARK VINA RESULT:      -4.4      1.945      3.826
REMARK  1 active torsions:
REMARK  status: ('A' for Active; 'I' for Inactive)
REMARK    1  A    between atoms: C5_5  and  C10_10 
ROOT
HETATM    1  C1  UNL     1     -34.178  16.430  -6.450  1.00 20.00     0.036 C 
HETATM    2  C2  UNL     1     -36.154  14.878  -7.022  1.00 20.00     0.016 A 
HETATM    3  C3  UNL     1     -34.460  14.301  -5.153  1.00 20.00     0.047 C 
HETATM    4  C4  UNL     1     -33.442  17.000  -5.248  1.00 20.00     0.169 C 
HETATM    5  C5  UNL     1     -36.614  15.700  -5.849  1.00 20.00     0.009 A 
HETATM    6  C6  UNL     1     -35.138  15.353  -6.003  1.00 20.00    -0.031 A 
HETATM    7  C7  UNL     1     -33.632  14.933  -4.014  1.00 20.00     0.054 C 
HETATM    8  C8  UNL     1     -34.512  15.470  -2.877  1.00 20.00     0.045 C 
HETATM    9  C9  UNL     1     -32.695  13.865  -3.429  1.00 20.00     0.045 C 
HETATM   10  O11 UNL     1     -32.772  15.966  -4.526  1.00 20.00    -0.381 OA
ENDROOT
BRANCH   5  11
HETATM   11  C10 UNL     1     -37.520  15.082  -4.840  1.00 20.00     0.120 C 
HETATM   12 CL12 UNL     1     -37.994  16.264  -3.589  1.00 20.00    -0.130 Cl
ENDBRANCH   5  11
TORSDOF 1
ENDMDL
MODEL 7
REMARK VINA RESULT:      -4.3      1.352      3.221
REMARK  1 active torsions:
REMARK  status: ('A' for Active; 'I' for Inactive)
REMARK    1  A    between atoms: C5_5  and  C10_10 
ROOT
HETATM    1  C1  UNL     1     -35.060  17.416  -4.928  1.00 20.00     0.036 C 
HETATM    2  C2  UNL     1     -35.862  17.877  -2.523  1.00 20.00     0.016 A 
HETATM    3  C3  UNL     1     -35.229  15.498  -3.320  1.00 20.00     0.047 C 
HETATM    4  C4  UNL     1     -34.008  16.618  -5.683  1.00 20.00     0.169 C 
HETATM    5  C5  UNL     1     -34.360  17.858  -2.450  1.00 20.00     0.009 A 
HETATM    6  C6  UNL     1     -35.083  16.996  -3.477  1.00 20.00    -0.031 A 
HETATM    7  C7  UNL     1     -34.214  14.730  -4.194  1.00 20.00     0.054 C 
HETATM    8  C8  UNL     1     -32.790  14.780  -3.623  1.00 20.00     0.045 C 
HETATM    9  C9  UNL     1     -34.644  13.256  -4.275  1.00 20.00     0.045 C 
HETATM   10  O11 UNL     1     -34.240  15.217  -5.546  1.00 20.00    -0.381 OA
ENDROOT
BRANCH   5  11
HETATM   11  C10 UNL     1     -33.700  17.326  -1.225  1.00 20.00     0.120 C 
HETATM   12 CL12 UNL     1     -34.881  17.074   0.089  1.00 20.00    -0.130 Cl
ENDBRANCH   5  11
TORSDOF 1
ENDMDL
MODEL 8
REMARK VINA RESULT:      -4.3      2.784      3.866
REMARK  1 active torsions:
REMARK  status: ('A' for Active; 'I' for Inactive)
REMARK    1  A    between atoms: C5_5  and  C10_10 
ROOT
HETATM    1  C1  UNL     1     -33.753  15.996  -2.787  1.00 20.00     0.036 C 
HETATM    2  C2  UNL     1     -34.286  13.602  -3.576  1.00 20.00     0.016 A 
HETATM    3  C3  UNL     1     -36.132  15.395  -3.313  1.00 20.00     0.047 C 
HETATM    4  C4  UNL     1     -34.108  17.442  -3.099  1.00 20.00     0.169 C 
HETATM    5  C5  UNL     1     -34.174  14.423  -4.830  1.00 20.00     0.009 A 
HETATM    6  C6  UNL     1     -34.673  15.065  -3.542  1.00 20.00    -0.031 A 
HETATM    7  C7  UNL     1     -36.419  16.896  -3.531  1.00 20.00     0.054 C 
HETATM    8  C8  UNL     1     -36.432  17.282  -5.017  1.00 20.00     0.045 C 
HETATM    9  C9  UNL     1     -37.798  17.229  -2.940  1.00 20.00     0.045 C 
HETATM   10  O11 UNL     1     -35.479  17.703  -2.802  1.00 20.00    -0.381 OA
ENDROOT
BRANCH   5  11
HETATM   11  C10 UNL     1     -35.043  14.093  -5.994  1.00 20.00     0.120 C 
HETATM   12 CL12 UNL     1     -34.498  14.938  -7.469  1.00 20.00    -0.130 Cl
ENDBRANCH   5  11
TORSDOF 1
ENDMDL
MODEL 9
REMARK VINA RESULT:      -4.2      1.549      1.720
REMARK  1 active torsions:
REMARK  status: ('A' for Active; 'I' for Inactive)
REMARK    1  A    between atoms: C5_5  and  C10_10 
ROOT
HETATM    1  C1  UNL     1     -35.392  14.106  -4.169  1.00 20.00     0.036 C 
HETATM    2  C2  UNL     1     -33.128  15.204  -3.619  1.00 20.00     0.016 A 
HETATM    3  C3  UNL     1     -35.039  16.517  -4.766  1.00 20.00     0.047 C 
HETATM    4  C4  UNL     1     -36.884  14.397  -4.110  1.00 20.00     0.169 C 
HETATM    5  C5  UNL     1     -34.042  15.578  -2.485  1.00 20.00     0.009 A 
HETATM    6  C6  UNL     1     -34.610  15.366  -3.883  1.00 20.00    -0.031 A 
HETATM    7  C7  UNL     1     -36.572  16.700  -4.762  1.00 20.00     0.054 C 
HETATM    8  C8  UNL     1     -37.084  17.337  -3.463  1.00 20.00     0.045 C 
HETATM    9  C9  UNL     1     -36.966  17.616  -5.931  1.00 20.00     0.045 C 
HETATM   10  O11 UNL     1     -37.232  15.447  -5.012  1.00 20.00    -0.381 OA
ENDROOT
BRANCH   5  11
HETATM   11  C10 UNL     1     -33.887  16.910  -1.836  1.00 20.00     0.120 C 
HETATM   12 CL12 UNL     1     -34.661  16.939  -0.227  1.00 20.00    -0.130 Cl
ENDBRANCH   5  11
TORSDOF 1
ENDMDL
