MODEL 1
REMARK VINA RESULT:      -4.6      0.000      0.000
REMARK  3 active torsions:
REMARK  status: ('A' for Active; 'I' for Inactive)
REMARK    1  A    between atoms: C2_2  and  C6_6 
REMARK    2  A    between atoms: C3_3  and  C7_7 
REMARK    3  A    between atoms: C3_3  and  C8_8 
ROOT
HETATM    1  C1  UNL     1     -32.421   5.501   3.350  1.00 20.00     0.016 A 
HETATM    2  C2  UNL     1     -32.904   6.789   2.739  1.00 20.00     0.009 A 
HETATM    3  C3  UNL     1     -33.541   6.271   4.019  1.00 20.00    -0.036 A 
ENDROOT
BRANCH   3   4
HETATM    4  C7  UNL     1     -33.248   6.944   5.333  1.00 20.00     0.005 C 
HETATM    5  C4  UNL     1     -34.116   6.431   6.446  1.00 20.00     0.006 C 
ENDBRANCH   3   4
BRANCH   3   6
HETATM    6  C8  UNL     1     -34.937   5.715   3.914  1.00 20.00     0.005 C 
HETATM    7  C5  UNL     1     -35.038   4.316   4.446  1.00 20.00     0.006 C 
ENDBRANCH   3   6
BRANCH   2   8
HETATM    8  C6  UNL     1     -32.017   7.986   2.709  1.00 20.00     0.120 C 
HETATM    9 CL9  UNL     1     -32.043   8.770   1.105  1.00 20.00    -0.130 Cl
ENDBRANCH   2   8
TORSDOF 3
ENDMDL
MODEL 2
REMARK VINA RESULT:      -4.4     10.696     11.955
REMARK  3 active torsions:
REMARK  status: ('A' for Active; 'I' for Inactive)
REMARK    1  A    between atoms: C2_2  and  C6_6 
REMARK    2  A    between atoms: C3_3  and  C7_7 
REMARK    3  A    between atoms: C3_3  and  C8_8 
ROOT
HETATM    1  C1  UNL     1     -35.518  15.899  -3.428  1.00 20.00     0.016 A 
HETATM    2  C2  UNL     1     -34.755  15.741  -2.140  1.00 20.00     0.009 A 
HETATM    3  C3  UNL     1     -34.183  15.183  -3.433  1.00 20.00    -0.036 A 
ENDROOT
BRANCH   3   4
HETATM    4  C7  UNL     1     -33.018  15.865  -4.100  1.00 20.00     0.005 C 
HETATM    5  C4  UNL     1     -33.436  16.682  -5.288  1.00 20.00     0.006 C 
ENDBRANCH   3   4
BRANCH   3   6
HETATM    6  C8  UNL     1     -34.189  13.685  -3.595  1.00 20.00     0.005 C 
HETATM    7  C5  UNL     1     -34.808  13.252  -4.891  1.00 20.00     0.006 C 
ENDBRANCH   3   6
BRANCH   2   8
HETATM    8  C6  UNL     1     -34.181  16.934  -1.455  1.00 20.00     0.120 C 
HETATM    9 CL9  UNL     1     -34.852  17.122   0.189  1.00 20.00    -0.130 Cl
ENDBRANCH   2   8
TORSDOF 3
ENDMDL
MODEL 3
REMARK VINA RESULT:      -4.2     11.031     12.000
REMARK  3 active torsions:
REMARK  status: ('A' for Active; 'I' for Inactive)
REMARK    1  A    between atoms: C2_2  and  C6_6 
REMARK    2  A    between atoms: C3_3  and  C7_7 
REMARK    3  A    between atoms: C3_3  and  C8_8 
ROOT
HETATM    1  C1  UNL     1     -33.635  16.489  -4.129  1.00 20.00     0.016 A 
HETATM    2  C2  UNL     1     -33.260  15.205  -3.438  1.00 20.00     0.009 A 
HETATM    3  C3  UNL     1     -34.231  16.168  -2.773  1.00 20.00    -0.036 A 
ENDROOT
BRANCH   3   4
HETATM    4  C7  UNL     1     -35.697  15.835  -2.707  1.00 20.00     0.005 C 
HETATM    5  C4  UNL     1     -36.511  16.634  -3.683  1.00 20.00     0.006 C 
ENDBRANCH   3   4
BRANCH   3   6
HETATM    6  C8  UNL     1     -33.724  16.939  -1.583  1.00 20.00     0.005 C 
HETATM    7  C5  UNL     1     -34.685  16.908  -0.430  1.00 20.00     0.006 C 
ENDBRANCH   3   6
BRANCH   2   8
HETATM    8  C6  UNL     1     -33.688  13.894  -4.003  1.00 20.00     0.120 C 
HETATM    9 CL9  UNL     1     -34.432  14.096  -5.614  1.00 20.00    -0.130 Cl
ENDBRANCH   2   8
TORSDOF 3
ENDMDL
MODEL 4
REMARK VINA RESULT:      -4.2     10.852     12.067
REMARK  3 active torsions:
REMARK  status: ('A' for Active; 'I' for Inactive)
REMARK    1  A    between atoms: C2_2  and  C6_6 
REMARK    2  A    between atoms: C3_3  and  C7_7 
REMARK    3  A    between atoms: C3_3  and  C8_8 
ROOT
HETATM    1  C1  UNL     1     -36.523  15.308  -3.578  1.00 20.00     0.016 A 
HETATM    2  C2  UNL     1     -35.752  15.662  -4.822  1.00 20.00     0.009 A 
HETATM    3  C3  UNL     1     -35.015  15.162  -3.589  1.00 20.00    -0.036 A 
ENDROOT
BRANCH   3   4
HETATM    4  C7  UNL     1     -34.440  13.771  -3.566  1.00 20.00     0.005 C 
HETATM    5  C4  UNL     1     -32.939  13.771  -3.581  1.00 20.00     0.006 C 
ENDBRANCH   3   4
BRANCH   3   6
HETATM    6  C8  UNL     1     -34.205  16.171  -2.819  1.00 20.00     0.005 C 
HETATM    7  C5  UNL     1     -34.676  16.322  -1.402  1.00 20.00     0.006 C 
ENDBRANCH   3   6
BRANCH   2   8
HETATM    8  C6  UNL     1     -35.901  14.842  -6.058  1.00 20.00     0.120 C 
HETATM    9 CL9  UNL     1     -34.441  14.940  -7.080  1.00 20.00    -0.130 Cl
ENDBRANCH   2   8
TORSDOF 3
ENDMDL
MODEL 5
REMARK VINA RESULT:      -4.1     11.182     12.547
REMARK  3 active torsions:
REMARK  status: ('A' for Active; 'I' for Inactive)
REMARK    1  A    between atoms: C2_2  and  C6_6 
REMARK    2  A    between atoms: C3_3  and  C7_7 
REMARK    3  A    between atoms: C3_3  and  C8_8 
ROOT
HETATM    1  C1  UNL     1     -32.905  15.053  -3.634  1.00 20.00     0.016 A 
HETATM    2  C2  UNL     1     -33.856  16.128  -3.181  1.00 20.00     0.009 A 
HETATM    3  C3  UNL     1     -33.966  15.562  -4.587  1.00 20.00    -0.036 A 
ENDROOT
BRANCH   3   4
HETATM    4  C7  UNL     1     -35.099  14.636  -4.942  1.00 20.00     0.005 C 
HETATM    5  C4  UNL     1     -34.698  13.191  -4.883  1.00 20.00     0.006 C 
ENDBRANCH   3   4
BRANCH   3   6
HETATM    6  C8  UNL     1     -33.525  16.451  -5.721  1.00 20.00     0.005 C 
HETATM    7  C5  UNL     1     -34.464  16.394  -6.890  1.00 20.00     0.006 C 
ENDBRANCH   3   6
BRANCH   2   8
HETATM    8  C6  UNL     1     -34.861  15.843  -2.118  1.00 20.00     0.120 C 
HETATM    9 CL9  UNL     1     -34.488  16.738  -0.618  1.00 20.00    -0.130 Cl
ENDBRANCH   2   8
TORSDOF 3
ENDMDL
MODEL 6
REMARK VINA RESULT:      -4.1     10.899     12.360
REMARK  3 active torsions:
REMARK  status: ('A' for Active; 'I' for Inactive)
REMARK    1  A    between atoms: C2_2  and  C6_6 
REMARK    2  A    between atoms: C3_3  and  C7_7 
REMARK    3  A    between atoms: C3_3  and  C8_8 
ROOT
HETATM    1  C1  UNL     1     -34.268  13.865  -3.407  1.00 20.00     0.016 A 
HETATM    2  C2  UNL     1     -35.192  14.273  -4.524  1.00 20.00     0.009 A 
HETATM    3  C3  UNL     1     -34.390  15.328  -3.778  1.00 20.00    -0.036 A 
ENDROOT
BRANCH   3   4
HETATM    4  C7  UNL     1     -33.212  15.989  -4.442  1.00 20.00     0.005 C 
HETATM    5  C4  UNL     1     -33.530  17.374  -4.927  1.00 20.00     0.006 C 
ENDBRANCH   3   4
BRANCH   3   6
HETATM    6  C8  UNL     1     -35.150  16.231  -2.841  1.00 20.00     0.005 C 
HETATM    7  C5  UNL     1     -34.515  16.310  -1.484  1.00 20.00     0.006 C 
ENDBRANCH   3   6
BRANCH   2   8
HETATM    8  C6  UNL     1     -34.892  13.878  -5.929  1.00 20.00     0.120 C 
HETATM    9 CL9  UNL     1     -35.890  14.801  -7.087  1.00 20.00    -0.130 Cl
ENDBRANCH   2   8
TORSDOF 3
ENDMDL
MODEL 7
REMARK VINA RESULT:      -4.0     10.914     12.445
REMARK  3 active torsions:
REMARK  status: ('A' for Active; 'I' for Inactive)
REMARK    1  A    between atoms: C2_2  and  C6_6 
REMARK    2  A    between atoms: C3_3  and  C7_7 
REMARK    3  A    between atoms: C3_3  and  C8_8 
ROOT
HETATM    1  C1  UNL     1     -35.224  15.877  -4.055  1.00 20.00     0.016 A 
HETATM    2  C2  UNL     1     -34.329  16.888  -4.720  1.00 20.00     0.009 A 
HETATM    3  C3  UNL     1     -33.843  16.137  -3.491  1.00 20.00    -0.036 A 
ENDROOT
BRANCH   3   4
HETATM    4  C7  UNL     1     -32.808  15.052  -3.630  1.00 20.00     0.005 C 
HETATM    5  C4  UNL     1     -33.420  13.684  -3.709  1.00 20.00     0.006 C 
ENDBRANCH   3   4
BRANCH   3   6
HETATM    6  C8  UNL     1     -33.743  16.917  -2.206  1.00 20.00     0.005 C 
HETATM    7  C5  UNL     1     -34.680  16.405  -1.152  1.00 20.00     0.006 C 
ENDBRANCH   3   6
BRANCH   2   8
HETATM    8  C6  UNL     1     -33.790  16.631  -6.086  1.00 20.00     0.120 C 
HETATM    9 CL9  UNL     1     -34.551  15.193  -6.821  1.00 20.00    -0.130 Cl
ENDBRANCH   2   8
TORSDOF 3
ENDMDL
MODEL 8
REMARK VINA RESULT:      -4.0      9.005     10.128
REMARK  3 active torsions:
REMARK  status: ('A' for Active; 'I' for Inactive)
REMARK    1  A    between atoms: C2_2  and  C6_6 
REMARK    2  A    between atoms: C3_3  and  C7_7 
REMARK    3  A    between atoms: C3_3  and  C8_8 
ROOT
HETATM    1  C1  UNL     1     -40.748   6.139  -0.041  1.00 20.00     0.016 A 
HETATM    2  C2  UNL     1     -41.162   6.657  -1.392  1.00 20.00     0.009 A 
HETATM    3  C3  UNL     1     -41.580   5.262  -0.954  1.00 20.00    -0.036 A 
ENDROOT
BRANCH   3   4
HETATM    4  C7  UNL     1     -43.008   4.990  -0.564  1.00 20.00     0.005 C 
HETATM    5  C4  UNL     1     -43.154   4.688   0.899  1.00 20.00     0.006 C 
ENDBRANCH   3   4
BRANCH   3   6
HETATM    6  C8  UNL     1     -40.897   4.100  -1.627  1.00 20.00     0.005 C 
HETATM    7  C5  UNL     1     -41.799   3.387  -2.591  1.00 20.00     0.006 C 
ENDBRANCH   3   6
BRANCH   2   8
HETATM    8  C6  UNL     1     -42.127   7.789  -1.499  1.00 20.00     0.120 C 
HETATM    9 CL9  UNL     1     -42.681   8.009  -3.183  1.00 20.00    -0.130 Cl
ENDBRANCH   2   8
TORSDOF 3
ENDMDL
MODEL 9
REMARK VINA RESULT:      -4.0      1.179      2.309
REMARK  3 active torsions:
REMARK  status: ('A' for Active; 'I' for Inactive)
REMARK    1  A    between atoms: C2_2  and  C6_6 
REMARK    2  A    between atoms: C3_3  and  C7_7 
REMARK    3  A    between atoms: C3_3  and  C8_8 
ROOT
HETATM    1  C1  UNL     1     -33.968   7.351   4.545  1.00 20.00     0.016 A 
HETATM    2  C2  UNL     1     -32.792   6.444   4.294  1.00 20.00     0.009 A 
HETATM    3  C3  UNL     1     -34.125   5.856   4.726  1.00 20.00    -0.036 A 
ENDROOT
BRANCH   3   4
HETATM    4  C7  UNL     1     -34.978   5.110   3.734  1.00 20.00     0.005 C 
HETATM    5  C4  UNL     1     -36.145   5.924   3.256  1.00 20.00     0.006 C 
ENDBRANCH   3   4
BRANCH   3   6
HETATM    6  C8  UNL     1     -34.216   5.323   6.132  1.00 20.00     0.005 C 
HETATM    7  C5  UNL     1     -35.148   4.152   6.242  1.00 20.00     0.006 C 
ENDBRANCH   3   6
BRANCH   2   8
HETATM    8  C6  UNL     1     -32.249   6.281   2.915  1.00 20.00     0.120 C 
HETATM    9 CL9  UNL     1     -32.004   7.864   2.125  1.00 20.00    -0.130 Cl
ENDBRANCH   2   8
TORSDOF 3
ENDMDL
