MODEL 1
REMARK VINA RESULT:      -3.9      0.000      0.000
REMARK  1 active torsions:
REMARK  status: ('A' for Active; 'I' for Inactive)
REMARK    1  A    between atoms: C5_5  and  C7_7 
ROOT
HETATM    1  C1  UNL     1     -35.671  14.467  -5.185  1.00 20.00     0.020 C 
HETATM    2  C2  UNL     1     -33.520  14.164  -3.756  1.00 20.00     0.017 A 
HETATM    3  C3  UNL     1     -35.362  14.241  -6.652  1.00 20.00     0.075 C 
HETATM    4  C4  UNL     1     -33.812  16.101  -5.467  1.00 20.00     0.083 C 
HETATM    5  C5  UNL     1     -34.362  15.198  -3.062  1.00 20.00     0.005 A 
HETATM    6  C6  UNL     1     -34.431  15.061  -4.571  1.00 20.00    -0.026 A 
HETATM    7  S8  UNL     1     -34.417  15.705  -7.140  1.00 20.00    -0.168 SA
ENDROOT
BRANCH   5   8
HETATM    8  C7  UNL     1     -33.711  16.363  -2.399  1.00 20.00     0.090 C 
HETATM    9 BR9  UNL     1     -34.650  16.821  -0.750  1.00 20.00    -0.096 Br
ENDBRANCH   5   8
TORSDOF 1
ENDMDL
MODEL 2
REMARK VINA RESULT:      -3.8      1.373      1.548
REMARK  1 active torsions:
REMARK  status: ('A' for Active; 'I' for Inactive)
REMARK    1  A    between atoms: C5_5  and  C7_7 
ROOT
HETATM    1  C1  UNL     1     -34.810  13.738  -3.802  1.00 20.00     0.020 C 
HETATM    2  C2  UNL     1     -33.293  15.787  -3.293  1.00 20.00     0.017 A 
HETATM    3  C3  UNL     1     -34.789  13.425  -5.286  1.00 20.00     0.075 C 
HETATM    4  C4  UNL     1     -35.475  15.965  -4.697  1.00 20.00     0.083 C 
HETATM    5  C5  UNL     1     -34.417  15.819  -2.296  1.00 20.00     0.005 A 
HETATM    6  C6  UNL     1     -34.650  15.229  -3.674  1.00 20.00    -0.026 A 
HETATM    7  S8  UNL     1     -35.753  14.760  -6.036  1.00 20.00    -0.168 SA
ENDROOT
BRANCH   5   8
HETATM    8  C7  UNL     1     -35.006  17.124  -1.881  1.00 20.00     0.090 C 
HETATM    9 BR9  UNL     1     -34.792  17.388   0.041  1.00 20.00    -0.096 Br
ENDBRANCH   5   8
TORSDOF 1
ENDMDL
MODEL 3
REMARK VINA RESULT:      -3.7      3.102      4.264
REMARK  1 active torsions:
REMARK  status: ('A' for Active; 'I' for Inactive)
REMARK    1  A    between atoms: C5_5  and  C7_7 
ROOT
HETATM    1  C1  UNL     1     -34.535  16.529  -1.004  1.00 20.00     0.020 C 
HETATM    2  C2  UNL     1     -35.741  15.595  -3.109  1.00 20.00     0.017 A 
HETATM    3  C3  UNL     1     -34.826  18.009  -0.846  1.00 20.00     0.075 C 
HETATM    4  C4  UNL     1     -33.807  17.330  -3.247  1.00 20.00     0.083 C 
HETATM    5  C5  UNL     1     -34.472  14.806  -2.948  1.00 20.00     0.005 A 
HETATM    6  C6  UNL     1     -34.525  16.248  -2.483  1.00 20.00    -0.026 A 
HETATM    7  S8  UNL     1     -33.870  18.795  -2.165  1.00 20.00    -0.168 SA
ENDROOT
BRANCH   5   8
HETATM    8  C7  UNL     1     -33.699  14.386  -4.151  1.00 20.00     0.090 C 
HETATM    9 BR9  UNL     1     -34.863  14.307  -5.716  1.00 20.00    -0.096 Br
ENDBRANCH   5   8
TORSDOF 1
ENDMDL
MODEL 4
REMARK VINA RESULT:      -3.6     11.227     12.275
REMARK  1 active torsions:
REMARK  status: ('A' for Active; 'I' for Inactive)
REMARK    1  A    between atoms: C5_5  and  C7_7 
ROOT
HETATM    1  C1  UNL     1     -33.586   6.638   5.238  1.00 20.00     0.020 C 
HETATM    2  C2  UNL     1     -31.756   5.965   3.519  1.00 20.00     0.017 A 
HETATM    3  C3  UNL     1     -34.376   5.417   5.670  1.00 20.00     0.075 C 
HETATM    4  C4  UNL     1     -34.300   5.804   3.003  1.00 20.00     0.083 C 
HETATM    5  C5  UNL     1     -32.190   7.360   3.168  1.00 20.00     0.005 A 
HETATM    6  C6  UNL     1     -33.178   6.403   3.808  1.00 20.00    -0.026 A 
HETATM    7  S8  UNL     1     -35.392   5.011   4.228  1.00 20.00    -0.168 SA
ENDROOT
BRANCH   5   8
HETATM    8  C7  UNL     1     -32.294   7.771   1.739  1.00 20.00     0.090 C 
HETATM    9 BR9  UNL     1     -32.501   9.707   1.599  1.00 20.00    -0.096 Br
ENDBRANCH   5   8
TORSDOF 1
ENDMDL
MODEL 5
REMARK VINA RESULT:      -3.6      3.228      4.377
REMARK  1 active torsions:
REMARK  status: ('A' for Active; 'I' for Inactive)
REMARK    1  A    between atoms: C5_5  and  C7_7 
ROOT
HETATM    1  C1  UNL     1     -33.754  16.937  -1.376  1.00 20.00     0.020 C 
HETATM    2  C2  UNL     1     -34.363  15.084  -3.096  1.00 20.00     0.017 A 
HETATM    3  C3  UNL     1     -34.933  17.212  -0.462  1.00 20.00     0.075 C 
HETATM    4  C4  UNL     1     -35.494  17.427  -3.090  1.00 20.00     0.083 C 
HETATM    5  C5  UNL     1     -33.392  16.008  -3.776  1.00 20.00     0.005 A 
HETATM    6  C6  UNL     1     -34.328  16.551  -2.714  1.00 20.00    -0.026 A 
HETATM    7  S8  UNL     1     -36.114  18.093  -1.512  1.00 20.00    -0.168 SA
ENDROOT
BRANCH   5   8
HETATM    8  C7  UNL     1     -33.559  16.329  -5.222  1.00 20.00     0.090 C 
HETATM    9 BR9  UNL     1     -34.558  14.915  -6.124  1.00 20.00    -0.096 Br
ENDBRANCH   5   8
TORSDOF 1
ENDMDL
MODEL 6
REMARK VINA RESULT:      -3.6      3.068      4.128
REMARK  1 active torsions:
REMARK  status: ('A' for Active; 'I' for Inactive)
REMARK    1  A    between atoms: C5_5  and  C7_7 
ROOT
HETATM    1  C1  UNL     1     -33.432  16.072  -3.157  1.00 20.00     0.020 C 
HETATM    2  C2  UNL     1     -34.411  13.693  -3.534  1.00 20.00     0.017 A 
HETATM    3  C3  UNL     1     -33.970  16.664  -1.869  1.00 20.00     0.075 C 
HETATM    4  C4  UNL     1     -35.873  15.844  -3.593  1.00 20.00     0.083 C 
HETATM    5  C5  UNL     1     -34.196  14.296  -4.894  1.00 20.00     0.005 A 
HETATM    6  C6  UNL     1     -34.520  15.195  -3.716  1.00 20.00    -0.026 A 
HETATM    7  S8  UNL     1     -35.695  17.059  -2.247  1.00 20.00    -0.168 SA
ENDROOT
BRANCH   5   8
HETATM    8  C7  UNL     1     -35.175  14.034  -5.987  1.00 20.00     0.090 C 
HETATM    9 BR9  UNL     1     -34.748  15.112  -7.557  1.00 20.00    -0.096 Br
ENDBRANCH   5   8
TORSDOF 1
ENDMDL
MODEL 7
REMARK VINA RESULT:      -3.6      2.483      3.527
REMARK  1 active torsions:
REMARK  status: ('A' for Active; 'I' for Inactive)
REMARK    1  A    between atoms: C5_5  and  C7_7 
ROOT
HETATM    1  C1  UNL     1     -34.671  15.524  -2.456  1.00 20.00     0.020 C 
HETATM    2  C2  UNL     1     -33.623  17.485  -1.107  1.00 20.00     0.017 A 
HETATM    3  C3  UNL     1     -34.527  15.775  -3.944  1.00 20.00     0.075 C 
HETATM    4  C4  UNL     1     -35.737  17.771  -2.595  1.00 20.00     0.083 C 
HETATM    5  C5  UNL     1     -34.770  16.960  -0.291  1.00 20.00     0.005 A 
HETATM    6  C6  UNL     1     -34.822  16.873  -1.805  1.00 20.00    -0.026 A 
HETATM    7  S8  UNL     1     -35.710  17.100  -4.290  1.00 20.00    -0.168 SA
ENDROOT
BRANCH   5   8
HETATM    8  C7  UNL     1     -35.627  17.904   0.481  1.00 20.00     0.090 C 
HETATM    9 BR9  UNL     1     -35.323  17.690   2.397  1.00 20.00    -0.096 Br
ENDBRANCH   5   8
TORSDOF 1
ENDMDL
MODEL 8
REMARK VINA RESULT:      -3.5     13.227     14.175
REMARK  1 active torsions:
REMARK  status: ('A' for Active; 'I' for Inactive)
REMARK    1  A    between atoms: C5_5  and  C7_7 
ROOT
HETATM    1  C1  UNL     1     -40.754   4.540  -1.112  1.00 20.00     0.020 C 
HETATM    2  C2  UNL     1     -43.179   3.611  -1.249  1.00 20.00     0.017 A 
HETATM    3  C3  UNL     1     -40.742   5.870  -0.384  1.00 20.00     0.075 C 
HETATM    4  C4  UNL     1     -42.427   5.772  -2.486  1.00 20.00     0.083 C 
HETATM    5  C5  UNL     1     -42.463   3.145  -2.486  1.00 20.00     0.005 A 
HETATM    6  C6  UNL     1     -42.070   4.460  -1.840  1.00 20.00    -0.026 A 
HETATM    7  S8  UNL     1     -41.488   7.028  -1.558  1.00 20.00    -0.168 SA
ENDROOT
BRANCH   5   8
HETATM    8  C7  UNL     1     -43.189   3.085  -3.787  1.00 20.00     0.090 C 
HETATM    9 BR9  UNL     1     -42.629   1.518  -4.808  1.00 20.00    -0.096 Br
ENDBRANCH   5   8
TORSDOF 1
ENDMDL
MODEL 9
REMARK VINA RESULT:      -3.4      2.080      2.549
REMARK  1 active torsions:
REMARK  status: ('A' for Active; 'I' for Inactive)
REMARK    1  A    between atoms: C5_5  and  C7_7 
ROOT
HETATM    1  C1  UNL     1     -35.773  15.081  -3.397  1.00 20.00     0.020 C 
HETATM    2  C2  UNL     1     -33.692  16.351  -2.493  1.00 20.00     0.017 A 
HETATM    3  C3  UNL     1     -35.982  15.396  -4.866  1.00 20.00     0.075 C 
HETATM    4  C4  UNL     1     -35.854  17.567  -3.274  1.00 20.00     0.083 C 
HETATM    5  C5  UNL     1     -34.661  16.234  -1.350  1.00 20.00     0.005 A 
HETATM    6  C6  UNL     1     -35.182  16.317  -2.773  1.00 20.00    -0.026 A 
HETATM    7  S8  UNL     1     -36.590  17.100  -4.875  1.00 20.00    -0.168 SA
ENDROOT
BRANCH   5   8
HETATM    8  C7  UNL     1     -34.810  17.358  -0.383  1.00 20.00     0.090 C 
HETATM    9 BR9  UNL     1     -33.165  18.405  -0.296  1.00 20.00    -0.096 Br
ENDBRANCH   5   8
TORSDOF 1
ENDMDL
