MODEL 1
REMARK VINA RESULT:      -4.7      0.000      0.000
REMARK  1 active torsions:
REMARK  status: ('A' for Active; 'I' for Inactive)
REMARK    1  A    between atoms: C1_1  and  C5_5 
ROOT
HETATM    1  C2  UNL     1     -33.751  15.127  -3.879  1.00 20.00     0.013 C 
HETATM    2  C3  UNL     1     -33.240  16.156  -2.866  1.00 20.00     0.009 C 
HETATM    3  C4  UNL     1     -35.636  16.979  -3.099  1.00 20.00     0.013 C 
HETATM    4  C5  UNL     1     -35.070  14.499  -3.438  1.00 20.00     0.051 C 
HETATM    5  C6  UNL     1     -36.195  15.551  -3.288  1.00 20.00    -0.007 C 
HETATM    6  C7  UNL     1     -34.349  17.047  -2.249  1.00 20.00    -0.047 C 
HETATM    7  C8  UNL     1     -37.213  15.569  -4.435  1.00 20.00     0.011 C 
HETATM    8  C9  UNL     1     -33.859  18.508  -2.203  1.00 20.00     0.015 C 
HETATM    9  C10 UNL     1     -34.639  16.611  -0.798  1.00 20.00     0.015 C 
ENDROOT
BRANCH   4  10
HETATM   10  C1  UNL     1     -35.423  13.370  -4.362  1.00 20.00     0.236 C 
HETATM   11  O11 UNL     1     -34.593  12.606  -4.843  1.00 20.00    -0.306 OA
ENDBRANCH   4  10
TORSDOF 1
ENDMDL
MODEL 2
REMARK VINA RESULT:      -4.4      1.372      1.844
REMARK  1 active torsions:
REMARK  status: ('A' for Active; 'I' for Inactive)
REMARK    1  A    between atoms: C1_1  and  C5_5 
ROOT
HETATM    1  C2  UNL     1     -34.315  14.862  -3.062  1.00 20.00     0.013 C 
HETATM    2  C3  UNL     1     -34.448  16.070  -2.129  1.00 20.00     0.009 C 
HETATM    3  C4  UNL     1     -34.060  17.299  -4.323  1.00 20.00     0.013 C 
HETATM    4  C5  UNL     1     -35.196  14.998  -4.301  1.00 20.00     0.051 C 
HETATM    5  C6  UNL     1     -34.825  16.239  -5.147  1.00 20.00    -0.007 C 
HETATM    6  C7  UNL     1     -34.543  17.433  -2.862  1.00 20.00    -0.047 C 
HETATM    7  C8  UNL     1     -34.023  15.931  -6.417  1.00 20.00     0.011 C 
HETATM    8  C9  UNL     1     -33.653  18.462  -2.137  1.00 20.00     0.015 C 
HETATM    9  C10 UNL     1     -35.990  17.963  -2.821  1.00 20.00     0.015 C 
ENDROOT
BRANCH   4  10
HETATM   10  C1  UNL     1     -35.173  13.713  -5.076  1.00 20.00     0.236 C 
HETATM   11  O11 UNL     1     -34.877  12.630  -4.582  1.00 20.00    -0.306 OA
ENDBRANCH   4  10
TORSDOF 1
ENDMDL
MODEL 3
REMARK VINA RESULT:      -4.3      1.089      2.508
REMARK  1 active torsions:
REMARK  status: ('A' for Active; 'I' for Inactive)
REMARK    1  A    between atoms: C1_1  and  C5_5 
ROOT
HETATM    1  C2  UNL     1     -35.919  14.893  -3.484  1.00 20.00     0.013 C 
HETATM    2  C3  UNL     1     -36.280  16.257  -2.888  1.00 20.00     0.009 C 
HETATM    3  C4  UNL     1     -33.767  16.299  -2.491  1.00 20.00     0.013 C 
HETATM    4  C5  UNL     1     -34.754  14.989  -4.465  1.00 20.00     0.051 C 
HETATM    5  C6  UNL     1     -33.466  15.519  -3.791  1.00 20.00    -0.007 C 
HETATM    6  C7  UNL     1     -35.056  17.147  -2.547  1.00 20.00    -0.047 C 
HETATM    7  C8  UNL     1     -32.413  14.445  -3.488  1.00 20.00     0.011 C 
HETATM    8  C9  UNL     1     -35.276  17.807  -1.172  1.00 20.00     0.015 C 
HETATM    9  C10 UNL     1     -34.911  18.278  -3.585  1.00 20.00     0.015 C 
ENDROOT
BRANCH   4  10
HETATM   10  C1  UNL     1     -34.571  13.671  -5.158  1.00 20.00     0.236 C 
HETATM   11  O11 UNL     1     -34.952  12.602  -4.691  1.00 20.00    -0.306 OA
ENDBRANCH   4  10
TORSDOF 1
ENDMDL
MODEL 4
REMARK VINA RESULT:      -4.3      2.302      2.763
REMARK  1 active torsions:
REMARK  status: ('A' for Active; 'I' for Inactive)
REMARK    1  A    between atoms: C1_1  and  C5_5 
ROOT
HETATM    1  C2  UNL     1     -33.540  15.396  -4.370  1.00 20.00     0.013 C 
HETATM    2  C3  UNL     1     -33.641  16.887  -4.035  1.00 20.00     0.009 C 
HETATM    3  C4  UNL     1     -34.424  16.967  -6.454  1.00 20.00     0.013 C 
HETATM    4  C5  UNL     1     -34.815  14.871  -5.026  1.00 20.00     0.051 C 
HETATM    5  C6  UNL     1     -35.124  15.593  -6.359  1.00 20.00    -0.007 C 
HETATM    6  C7  UNL     1     -34.357  17.736  -5.117  1.00 20.00    -0.047 C 
HETATM    7  C8  UNL     1     -34.790  14.783  -7.619  1.00 20.00     0.011 C 
HETATM    8  C9  UNL     1     -33.572  19.045  -5.335  1.00 20.00     0.015 C 
HETATM    9  C10 UNL     1     -35.774  18.119  -4.645  1.00 20.00     0.015 C 
ENDROOT
BRANCH   4  10
HETATM   10  C1  UNL     1     -34.735  13.378  -5.156  1.00 20.00     0.236 C 
HETATM   11  O11 UNL     1     -35.087  12.603  -4.273  1.00 20.00    -0.306 OA
ENDBRANCH   4  10
TORSDOF 1
ENDMDL
MODEL 5
REMARK VINA RESULT:      -4.2      2.279      4.174
REMARK  1 active torsions:
REMARK  status: ('A' for Active; 'I' for Inactive)
REMARK    1  A    between atoms: C1_1  and  C5_5 
ROOT
HETATM    1  C2  UNL     1     -36.156  15.621  -2.888  1.00 20.00     0.013 C 
HETATM    2  C3  UNL     1     -35.962  14.440  -3.845  1.00 20.00     0.009 C 
HETATM    3  C4  UNL     1     -34.087  15.944  -4.680  1.00 20.00     0.013 C 
HETATM    4  C5  UNL     1     -34.845  16.043  -2.230  1.00 20.00     0.051 C 
HETATM    5  C6  UNL     1     -33.791  16.497  -3.268  1.00 20.00    -0.007 C 
HETATM    6  C7  UNL     1     -34.664  14.511  -4.690  1.00 20.00    -0.047 C 
HETATM    7  C8  UNL     1     -33.601  18.016  -3.365  1.00 20.00     0.011 C 
HETATM    8  C9  UNL     1     -34.983  14.113  -6.144  1.00 20.00     0.015 C 
HETATM    9  C10 UNL     1     -33.621  13.509  -4.153  1.00 20.00     0.015 C 
ENDROOT
BRANCH   4  10
HETATM   10  C1  UNL     1     -35.122  17.066  -1.168  1.00 20.00     0.236 C 
HETATM   11  O11 UNL     1     -34.845  16.904   0.016  1.00 20.00    -0.306 OA
ENDBRANCH   4  10
TORSDOF 1
ENDMDL
MODEL 6
REMARK VINA RESULT:      -4.2      2.304      3.334
REMARK  1 active torsions:
REMARK  status: ('A' for Active; 'I' for Inactive)
REMARK    1  A    between atoms: C1_1  and  C5_5 
ROOT
HETATM    1  C2  UNL     1     -34.910  18.329  -3.225  1.00 20.00     0.013 C 
HETATM    2  C3  UNL     1     -34.959  18.853  -1.786  1.00 20.00     0.009 C 
HETATM    3  C4  UNL     1     -34.640  16.376  -1.298  1.00 20.00     0.013 C 
HETATM    4  C5  UNL     1     -33.714  17.410  -3.457  1.00 20.00     0.051 C 
HETATM    5  C6  UNL     1     -33.751  16.162  -2.544  1.00 20.00    -0.007 C 
HETATM    6  C7  UNL     1     -34.573  17.804  -0.712  1.00 20.00    -0.047 C 
HETATM    7  C8  UNL     1     -34.189  14.869  -3.244  1.00 20.00     0.011 C 
HETATM    8  C9  UNL     1     -35.557  17.902   0.470  1.00 20.00     0.015 C 
HETATM    9  C10 UNL     1     -33.160  18.093  -0.164  1.00 20.00     0.015 C 
ENDROOT
BRANCH   4  10
HETATM   10  C1  UNL     1     -33.608  17.083  -4.918  1.00 20.00     0.236 C 
HETATM   11  O11 UNL     1     -33.528  17.935  -5.797  1.00 20.00    -0.306 OA
ENDBRANCH   4  10
TORSDOF 1
ENDMDL
MODEL 7
REMARK VINA RESULT:      -4.2      2.409      4.216
REMARK  1 active torsions:
REMARK  status: ('A' for Active; 'I' for Inactive)
REMARK    1  A    between atoms: C1_1  and  C5_5 
ROOT
HETATM    1  C2  UNL     1     -33.698  17.040  -4.397  1.00 20.00     0.013 C 
HETATM    2  C3  UNL     1     -34.115  15.815  -5.217  1.00 20.00     0.009 C 
HETATM    3  C4  UNL     1     -34.719  14.967  -2.895  1.00 20.00     0.013 C 
HETATM    4  C5  UNL     1     -34.792  17.476  -3.426  1.00 20.00     0.051 C 
HETATM    5  C6  UNL     1     -35.139  16.370  -2.402  1.00 20.00    -0.007 C 
HETATM    6  C7  UNL     1     -34.903  14.748  -4.413  1.00 20.00    -0.047 C 
HETATM    7  C8  UNL     1     -34.561  16.592  -0.999  1.00 20.00     0.011 C 
HETATM    8  C9  UNL     1     -34.379  13.346  -4.780  1.00 20.00     0.015 C 
HETATM    9  C10 UNL     1     -36.399  14.795  -4.784  1.00 20.00     0.015 C 
ENDROOT
BRANCH   4  10
HETATM   10  C1  UNL     1     -34.410  18.782  -2.794  1.00 20.00     0.236 C 
HETATM   11  O11 UNL     1     -33.283  19.261  -2.858  1.00 20.00    -0.306 OA
ENDBRANCH   4  10
TORSDOF 1
ENDMDL
MODEL 8
REMARK VINA RESULT:      -4.2      2.485      3.185
REMARK  1 active torsions:
REMARK  status: ('A' for Active; 'I' for Inactive)
REMARK    1  A    between atoms: C1_1  and  C5_5 
ROOT
HETATM    1  C2  UNL     1     -34.585  14.726  -6.330  1.00 20.00     0.013 C 
HETATM    2  C3  UNL     1     -34.359  16.041  -7.082  1.00 20.00     0.009 C 
HETATM    3  C4  UNL     1     -35.786  16.916  -5.165  1.00 20.00     0.013 C 
HETATM    4  C5  UNL     1     -34.283  14.861  -4.840  1.00 20.00     0.051 C 
HETATM    5  C6  UNL     1     -35.189  15.911  -4.154  1.00 20.00    -0.007 C 
HETATM    6  C7  UNL     1     -34.827  17.303  -6.312  1.00 20.00    -0.047 C 
HETATM    7  C8  UNL     1     -36.330  15.322  -3.315  1.00 20.00     0.011 C 
HETATM    8  C9  UNL     1     -35.567  18.244  -7.282  1.00 20.00     0.015 C 
HETATM    9  C10 UNL     1     -33.611  18.074  -5.758  1.00 20.00     0.015 C 
ENDROOT
BRANCH   4  10
HETATM   10  C1  UNL     1     -34.334  13.508  -4.192  1.00 20.00     0.236 C 
HETATM   11  O11 UNL     1     -34.815  12.518  -4.732  1.00 20.00    -0.306 OA
ENDBRANCH   4  10
TORSDOF 1
ENDMDL
MODEL 9
REMARK VINA RESULT:      -4.2     11.421     13.451
REMARK  1 active torsions:
REMARK  status: ('A' for Active; 'I' for Inactive)
REMARK    1  A    between atoms: C1_1  and  C5_5 
ROOT
HETATM    1  C2  UNL     1     -42.689   6.165  -2.898  1.00 20.00     0.013 C 
HETATM    2  C3  UNL     1     -42.965   4.704  -3.265  1.00 20.00     0.009 C 
HETATM    3  C4  UNL     1     -41.213   4.339  -1.457  1.00 20.00     0.013 C 
HETATM    4  C5  UNL     1     -42.746   6.396  -1.391  1.00 20.00     0.051 C 
HETATM    5  C6  UNL     1     -41.692   5.555  -0.632  1.00 20.00    -0.007 C 
HETATM    6  C7  UNL     1     -42.320   3.673  -2.303  1.00 20.00    -0.047 C 
HETATM    7  C8  UNL     1     -40.464   6.343  -0.159  1.00 20.00     0.011 C 
HETATM    8  C9  UNL     1     -41.695   2.531  -3.129  1.00 20.00     0.015 C 
HETATM    9  C10 UNL     1     -43.393   3.050  -1.388  1.00 20.00     0.015 C 
ENDROOT
BRANCH   4  10
HETATM   10  C1  UNL     1     -42.661   7.866  -1.104  1.00 20.00     0.236 C 
HETATM   11  O11 UNL     1     -43.417   8.450  -0.334  1.00 20.00    -0.306 OA
ENDBRANCH   4  10
TORSDOF 1
ENDMDL
