MODEL 1
REMARK VINA RESULT:      -4.7      0.000      0.000
REMARK  3 active torsions:
REMARK  status: ('A' for Active; 'I' for Inactive)
REMARK    1  A    between atoms: C2_2  and  C7_7 
REMARK    2  A    between atoms: C3_3  and  C9_9 
REMARK    3  A    between atoms: C8_8  and  C9_9 
ROOT
HETATM    1  C1  UNL     1     -33.919   4.855   2.701  1.00 20.00     0.016 A 
HETATM    2  C2  UNL     1     -33.661   6.312   2.952  1.00 20.00     0.009 A 
HETATM    3  C3  UNL     1     -34.584   5.533   3.888  1.00 20.00    -0.036 A 
HETATM    4  C4  UNL     1     -36.060   5.822   3.797  1.00 20.00     0.016 C 
ENDROOT
BRANCH   3   5
HETATM    5  C9  UNL     1     -34.117   5.161   5.269  1.00 20.00    -0.010 C 
HETATM    6  C6  UNL     1     -34.687   3.794   5.686  1.00 20.00     0.011 C 
BRANCH   5   7
HETATM    7  C8  UNL     1     -34.501   6.203   6.347  1.00 20.00     0.000 C 
HETATM    8  C5  UNL     1     -33.366   7.160   6.687  1.00 20.00     0.005 C 
ENDBRANCH   5   7
ENDBRANCH   3   5
BRANCH   2   9
HETATM    9  C7  UNL     1     -32.306   6.777   3.362  1.00 20.00     0.120 C 
HETATM   10 CL10 UNL     1     -31.775   8.169   2.379  1.00 20.00    -0.130 Cl
ENDBRANCH   2   9
TORSDOF 3
ENDMDL
MODEL 2
REMARK VINA RESULT:      -4.5      1.501      2.963
REMARK  3 active torsions:
REMARK  status: ('A' for Active; 'I' for Inactive)
REMARK    1  A    between atoms: C2_2  and  C7_7 
REMARK    2  A    between atoms: C3_3  and  C9_9 
REMARK    3  A    between atoms: C8_8  and  C9_9 
ROOT
HETATM    1  C1  UNL     1     -31.432   7.470   3.853  1.00 20.00     0.016 A 
HETATM    2  C2  UNL     1     -32.022   7.708   2.493  1.00 20.00     0.009 A 
HETATM    3  C3  UNL     1     -32.532   6.549   3.348  1.00 20.00    -0.036 A 
HETATM    4  C4  UNL     1     -32.142   5.157   2.922  1.00 20.00     0.016 C 
ENDROOT
BRANCH   3   5
HETATM    5  C9  UNL     1     -33.884   6.634   4.003  1.00 20.00    -0.010 C 
HETATM    6  C6  UNL     1     -33.745   6.643   5.536  1.00 20.00     0.011 C 
BRANCH   5   7
HETATM    7  C8  UNL     1     -34.832   5.479   3.602  1.00 20.00     0.000 C 
HETATM    8  C5  UNL     1     -35.234   4.598   4.777  1.00 20.00     0.005 C 
ENDBRANCH   5   7
ENDBRANCH   3   5
BRANCH   2   9
HETATM    9  C7  UNL     1     -32.833   8.930   2.228  1.00 20.00     0.120 C 
HETATM   10 CL10 UNL     1     -32.404   9.663   0.658  1.00 20.00    -0.130 Cl
ENDBRANCH   2   9
TORSDOF 3
ENDMDL
MODEL 3
REMARK VINA RESULT:      -4.3     11.668     12.783
REMARK  3 active torsions:
REMARK  status: ('A' for Active; 'I' for Inactive)
REMARK    1  A    between atoms: C2_2  and  C7_7 
REMARK    2  A    between atoms: C3_3  and  C9_9 
REMARK    3  A    between atoms: C8_8  and  C9_9 
ROOT
HETATM    1  C1  UNL     1     -34.872  14.051  -5.514  1.00 20.00     0.016 A 
HETATM    2  C2  UNL     1     -35.634  13.807  -4.244  1.00 20.00     0.009 A 
HETATM    3  C3  UNL     1     -34.275  14.503  -4.191  1.00 20.00    -0.036 A 
HETATM    4  C4  UNL     1     -33.119  13.714  -3.635  1.00 20.00     0.016 C 
ENDROOT
BRANCH   3   5
HETATM    5  C9  UNL     1     -34.196  15.981  -3.918  1.00 20.00    -0.010 C 
HETATM    6  C6  UNL     1     -33.322  16.682  -4.973  1.00 20.00     0.011 C 
BRANCH   5   7
HETATM    7  C8  UNL     1     -33.637  16.316  -2.514  1.00 20.00     0.000 C 
HETATM    8  C5  UNL     1     -34.708  16.341  -1.433  1.00 20.00     0.005 C 
ENDBRANCH   5   7
ENDBRANCH   3   5
BRANCH   2   9
HETATM    9  C7  UNL     1     -36.916  14.522  -3.986  1.00 20.00     0.120 C 
HETATM   10 CL10 UNL     1     -37.554  15.262  -5.480  1.00 20.00    -0.130 Cl
ENDBRANCH   2   9
TORSDOF 3
ENDMDL
MODEL 4
REMARK VINA RESULT:      -4.1     11.835     13.287
REMARK  3 active torsions:
REMARK  status: ('A' for Active; 'I' for Inactive)
REMARK    1  A    between atoms: C2_2  and  C7_7 
REMARK    2  A    between atoms: C3_3  and  C9_9 
REMARK    3  A    between atoms: C8_8  and  C9_9 
ROOT
HETATM    1  C1  UNL     1     -34.623  15.631  -2.303  1.00 20.00     0.016 A 
HETATM    2  C2  UNL     1     -33.705  16.364  -3.238  1.00 20.00     0.009 A 
HETATM    3  C3  UNL     1     -34.316  15.031  -3.666  1.00 20.00    -0.036 A 
HETATM    4  C4  UNL     1     -33.397  13.839  -3.719  1.00 20.00     0.016 C 
ENDROOT
BRANCH   3   5
HETATM    5  C9  UNL     1     -35.418  15.001  -4.691  1.00 20.00    -0.010 C 
HETATM    6  C6  UNL     1     -36.726  14.484  -4.067  1.00 20.00     0.011 C 
BRANCH   5   7
HETATM    7  C8  UNL     1     -35.083  14.130  -5.926  1.00 20.00     0.000 C 
HETATM    8  C5  UNL     1     -34.544  14.935  -7.100  1.00 20.00     0.005 C 
ENDBRANCH   5   7
ENDBRANCH   3   5
BRANCH   2   9
HETATM    9  C7  UNL     1     -34.120  17.667  -3.832  1.00 20.00     0.120 C 
HETATM   10 CL10 UNL     1     -33.357  17.924  -5.424  1.00 20.00    -0.130 Cl
ENDBRANCH   2   9
TORSDOF 3
ENDMDL
MODEL 5
REMARK VINA RESULT:      -4.1     11.956     13.375
REMARK  3 active torsions:
REMARK  status: ('A' for Active; 'I' for Inactive)
REMARK    1  A    between atoms: C2_2  and  C7_7 
REMARK    2  A    between atoms: C3_3  and  C9_9 
REMARK    3  A    between atoms: C8_8  and  C9_9 
ROOT
HETATM    1  C1  UNL     1     -32.924  15.036  -3.570  1.00 20.00     0.016 A 
HETATM    2  C2  UNL     1     -33.797  16.143  -3.054  1.00 20.00     0.009 A 
HETATM    3  C3  UNL     1     -33.894  15.722  -4.519  1.00 20.00    -0.036 A 
HETATM    4  C4  UNL     1     -33.325  16.666  -5.546  1.00 20.00     0.016 C 
ENDROOT
BRANCH   3   5
HETATM    5  C9  UNL     1     -35.086  14.939  -5.000  1.00 20.00    -0.010 C 
HETATM    6  C6  UNL     1     -34.744  13.443  -5.113  1.00 20.00     0.011 C 
BRANCH   5   7
HETATM    7  C8  UNL     1     -35.627  15.425  -6.367  1.00 20.00     0.000 C 
HETATM    8  C5  UNL     1     -35.441  14.405  -7.482  1.00 20.00     0.005 C 
ENDBRANCH   5   7
ENDBRANCH   3   5
BRANCH   2   9
HETATM    9  C7  UNL     1     -34.870  15.855  -2.060  1.00 20.00     0.120 C 
HETATM   10 CL10 UNL     1     -34.578  16.717  -0.525  1.00 20.00    -0.130 Cl
ENDBRANCH   2   9
TORSDOF 3
ENDMDL
MODEL 6
REMARK VINA RESULT:      -3.9     11.834     13.452
REMARK  3 active torsions:
REMARK  status: ('A' for Active; 'I' for Inactive)
REMARK    1  A    between atoms: C2_2  and  C7_7 
REMARK    2  A    between atoms: C3_3  and  C9_9 
REMARK    3  A    between atoms: C8_8  and  C9_9 
ROOT
HETATM    1  C1  UNL     1     -35.921  14.880  -3.379  1.00 20.00     0.016 A 
HETATM    2  C2  UNL     1     -34.463  14.951  -3.025  1.00 20.00     0.009 A 
HETATM    3  C3  UNL     1     -34.880  14.622  -4.457  1.00 20.00    -0.036 A 
HETATM    4  C4  UNL     1     -34.686  13.202  -4.921  1.00 20.00     0.016 C 
ENDROOT
BRANCH   3   5
HETATM    5  C9  UNL     1     -34.716  15.650  -5.544  1.00 20.00    -0.010 C 
HETATM    6  C6  UNL     1     -36.019  16.447  -5.739  1.00 20.00     0.011 C 
BRANCH   5   7
HETATM    7  C8  UNL     1     -34.304  15.040  -6.906  1.00 20.00     0.000 C 
HETATM    8  C5  UNL     1     -35.442  15.006  -7.917  1.00 20.00     0.005 C 
ENDBRANCH   5   7
ENDBRANCH   3   5
BRANCH   2   9
HETATM    9  C7  UNL     1     -33.844  16.252  -2.645  1.00 20.00     0.120 C 
HETATM   10 CL10 UNL     1     -34.337  16.749  -1.003  1.00 20.00    -0.130 Cl
ENDBRANCH   2   9
TORSDOF 3
ENDMDL
MODEL 7
REMARK VINA RESULT:      -3.8     12.147     13.308
REMARK  3 active torsions:
REMARK  status: ('A' for Active; 'I' for Inactive)
REMARK    1  A    between atoms: C2_2  and  C7_7 
REMARK    2  A    between atoms: C3_3  and  C9_9 
REMARK    3  A    between atoms: C8_8  and  C9_9 
ROOT
HETATM    1  C1  UNL     1     -34.400  15.249  -6.342  1.00 20.00     0.016 A 
HETATM    2  C2  UNL     1     -34.631  16.655  -5.869  1.00 20.00     0.009 A 
HETATM    3  C3  UNL     1     -35.030  15.480  -4.978  1.00 20.00    -0.036 A 
HETATM    4  C4  UNL     1     -36.503  15.200  -4.827  1.00 20.00     0.016 C 
ENDROOT
BRANCH   3   5
HETATM    5  C9  UNL     1     -34.215  15.150  -3.756  1.00 20.00    -0.010 C 
HETATM    6  C6  UNL     1     -33.862  13.652  -3.727  1.00 20.00     0.011 C 
BRANCH   5   7
HETATM    7  C8  UNL     1     -34.925  15.514  -2.430  1.00 20.00     0.000 C 
HETATM    8  C5  UNL     1     -34.205  16.601  -1.644  1.00 20.00     0.005 C 
ENDBRANCH   5   7
ENDBRANCH   3   5
BRANCH   2   9
HETATM    9  C7  UNL     1     -33.475  17.544  -5.559  1.00 20.00     0.120 C 
HETATM   10 CL10 UNL     1     -33.966  18.899  -4.506  1.00 20.00    -0.130 Cl
ENDBRANCH   2   9
TORSDOF 3
ENDMDL
MODEL 8
REMARK VINA RESULT:      -3.8     12.234     13.834
REMARK  3 active torsions:
REMARK  status: ('A' for Active; 'I' for Inactive)
REMARK    1  A    between atoms: C2_2  and  C7_7 
REMARK    2  A    between atoms: C3_3  and  C9_9 
REMARK    3  A    between atoms: C8_8  and  C9_9 
ROOT
HETATM    1  C1  UNL     1     -33.778  16.284  -2.492  1.00 20.00     0.016 A 
HETATM    2  C2  UNL     1     -34.450  15.078  -3.082  1.00 20.00     0.009 A 
HETATM    3  C3  UNL     1     -34.658  16.451  -3.720  1.00 20.00    -0.036 A 
HETATM    4  C4  UNL     1     -36.007  17.097  -3.536  1.00 20.00     0.016 C 
ENDROOT
BRANCH   3   5
HETATM    5  C9  UNL     1     -33.993  16.783  -5.028  1.00 20.00    -0.010 C 
HETATM    6  C6  UNL     1     -33.501  18.241  -5.033  1.00 20.00     0.011 C 
BRANCH   5   7
HETATM    7  C8  UNL     1     -34.913  16.570  -6.255  1.00 20.00     0.000 C 
HETATM    8  C5  UNL     1     -34.392  15.515  -7.220  1.00 20.00     0.005 C 
ENDBRANCH   5   7
ENDBRANCH   3   5
BRANCH   2   9
HETATM    9  C7  UNL     1     -33.639  14.006  -3.727  1.00 20.00     0.120 C 
HETATM   10 CL10 UNL     1     -34.643  12.997  -4.805  1.00 20.00    -0.130 Cl
ENDBRANCH   2   9
TORSDOF 3
ENDMDL
MODEL 9
REMARK VINA RESULT:      -3.8     12.018     13.554
REMARK  3 active torsions:
REMARK  status: ('A' for Active; 'I' for Inactive)
REMARK    1  A    between atoms: C2_2  and  C7_7 
REMARK    2  A    between atoms: C3_3  and  C9_9 
REMARK    3  A    between atoms: C8_8  and  C9_9 
ROOT
HETATM    1  C1  UNL     1     -35.273  13.624  -4.284  1.00 20.00     0.016 A 
HETATM    2  C2  UNL     1     -35.565  14.755  -3.341  1.00 20.00     0.009 A 
HETATM    3  C3  UNL     1     -34.381  14.854  -4.302  1.00 20.00    -0.036 A 
HETATM    4  C4  UNL     1     -33.002  14.731  -3.708  1.00 20.00     0.016 C 
ENDROOT
BRANCH   3   5
HETATM    5  C9  UNL     1     -34.455  15.766  -5.497  1.00 20.00    -0.010 C 
HETATM    6  C6  UNL     1     -34.372  14.956  -6.803  1.00 20.00     0.011 C 
BRANCH   5   7
HETATM    7  C8  UNL     1     -33.344  16.844  -5.515  1.00 20.00     0.000 C 
HETATM    8  C5  UNL     1     -33.788  18.172  -4.917  1.00 20.00     0.005 C 
ENDBRANCH   5   7
ENDBRANCH   3   5
BRANCH   2   9
HETATM    9  C7  UNL     1     -36.803  15.569  -3.503  1.00 20.00     0.120 C 
HETATM   10 CL10 UNL     1     -36.626  17.173  -2.740  1.00 20.00    -0.130 Cl
ENDBRANCH   2   9
TORSDOF 3
ENDMDL
