MODEL 1
REMARK VINA RESULT:      -4.9      0.000      0.000
REMARK  3 active torsions:
REMARK  status: ('A' for Active; 'I' for Inactive)
REMARK    1  A    between atoms: C2_2  and  C5_5 
REMARK    2  A    between atoms: C3_3  and  C6_6 
REMARK    3  A    between atoms: C5_5  and  C7_7 
ROOT
HETATM    1  C1  UNL     1     -32.170   5.720   3.275  1.00 20.00     0.011 A 
HETATM    2  C2  UNL     1     -33.421   6.357   3.819  1.00 20.00    -0.009 A 
HETATM    3  C3  UNL     1     -32.792   6.888   2.556  1.00 20.00     0.004 A 
ENDROOT
BRANCH   2   4
HETATM    4  C5  UNL     1     -34.719   5.629   3.759  1.00 20.00     0.005 C 
BRANCH   4   5
HETATM    5  C7  UNL     1     -35.035   4.877   5.064  1.00 20.00    -0.004 C 
HETATM    6  C4  UNL     1     -34.488   5.587   6.292  1.00 20.00     0.005 C 
ENDBRANCH   4   5
ENDBRANCH   2   4
BRANCH   3   7
HETATM    7  C6  UNL     1     -32.118   8.215   2.559  1.00 20.00     0.119 C 
HETATM    8 CL8  UNL     1     -32.054   8.912   0.915  1.00 20.00    -0.130 Cl
ENDBRANCH   3   7
TORSDOF 3
ENDMDL
MODEL 2
REMARK VINA RESULT:      -4.8      2.383      4.285
REMARK  3 active torsions:
REMARK  status: ('A' for Active; 'I' for Inactive)
REMARK    1  A    between atoms: C2_2  and  C5_5 
REMARK    2  A    between atoms: C3_3  and  C6_6 
REMARK    3  A    between atoms: C5_5  and  C7_7 
ROOT
HETATM    1  C1  UNL     1     -35.066   5.367   3.792  1.00 20.00     0.011 A 
HETATM    2  C2  UNL     1     -33.900   6.313   3.908  1.00 20.00    -0.009 A 
HETATM    3  C3  UNL     1     -34.144   5.283   4.981  1.00 20.00     0.004 A 
ENDROOT
BRANCH   2   4
HETATM    4  C5  UNL     1     -32.732   6.177   2.993  1.00 20.00     0.005 C 
BRANCH   4   5
HETATM    5  C7  UNL     1     -31.825   7.420   3.006  1.00 20.00    -0.004 C 
HETATM    6  C4  UNL     1     -32.122   8.370   1.856  1.00 20.00     0.005 C 
ENDBRANCH   4   5
ENDBRANCH   2   4
BRANCH   3   7
HETATM    7  C6  UNL     1     -34.618   5.705   6.327  1.00 20.00     0.119 C 
HETATM    8 CL8  UNL     1     -33.709   7.125   6.917  1.00 20.00    -0.130 Cl
ENDBRANCH   3   7
TORSDOF 3
ENDMDL
MODEL 3
REMARK VINA RESULT:      -4.5      0.959      1.341
REMARK  3 active torsions:
REMARK  status: ('A' for Active; 'I' for Inactive)
REMARK    1  A    between atoms: C2_2  and  C5_5 
REMARK    2  A    between atoms: C3_3  and  C6_6 
REMARK    3  A    between atoms: C5_5  and  C7_7 
ROOT
HETATM    1  C1  UNL     1     -33.978   5.370   2.496  1.00 20.00     0.011 A 
HETATM    2  C2  UNL     1     -33.818   5.294   3.992  1.00 20.00    -0.009 A 
HETATM    3  C3  UNL     1     -33.539   6.587   3.268  1.00 20.00     0.004 A 
ENDROOT
BRANCH   2   4
HETATM    4  C5  UNL     1     -35.016   5.172   4.868  1.00 20.00     0.005 C 
BRANCH   4   5
HETATM    5  C7  UNL     1     -34.676   5.339   6.360  1.00 20.00    -0.004 C 
HETATM    6  C4  UNL     1     -33.968   6.653   6.652  1.00 20.00     0.005 C 
ENDBRANCH   4   5
ENDBRANCH   2   4
BRANCH   3   7
HETATM    7  C6  UNL     1     -32.142   7.088   3.146  1.00 20.00     0.119 C 
HETATM    8 CL8  UNL     1     -31.993   8.269   1.814  1.00 20.00    -0.130 Cl
ENDBRANCH   3   7
TORSDOF 3
ENDMDL
MODEL 4
REMARK VINA RESULT:      -4.5      2.867      4.687
REMARK  3 active torsions:
REMARK  status: ('A' for Active; 'I' for Inactive)
REMARK    1  A    between atoms: C2_2  and  C5_5 
REMARK    2  A    between atoms: C3_3  and  C6_6 
REMARK    3  A    between atoms: C5_5  and  C7_7 
ROOT
HETATM    1  C1  UNL     1     -34.351   5.494   3.210  1.00 20.00     0.011 A 
HETATM    2  C2  UNL     1     -33.539   6.721   3.529  1.00 20.00    -0.009 A 
HETATM    3  C3  UNL     1     -33.625   5.593   4.525  1.00 20.00     0.004 A 
ENDROOT
BRANCH   2   4
HETATM    4  C5  UNL     1     -32.263   6.983   2.806  1.00 20.00     0.005 C 
BRANCH   4   5
HETATM    5  C7  UNL     1     -32.130   8.450   2.357  1.00 20.00    -0.004 C 
HETATM    6  C4  UNL     1     -31.812   8.579   0.876  1.00 20.00     0.005 C 
ENDBRANCH   4   5
ENDBRANCH   2   4
BRANCH   3   7
HETATM    7  C6  UNL     1     -34.388   5.772   5.791  1.00 20.00     0.119 C 
HETATM    8 CL8  UNL     1     -35.246   4.272   6.247  1.00 20.00    -0.130 Cl
ENDBRANCH   3   7
TORSDOF 3
ENDMDL
MODEL 5
REMARK VINA RESULT:      -4.5      2.820      4.556
REMARK  3 active torsions:
REMARK  status: ('A' for Active; 'I' for Inactive)
REMARK    1  A    between atoms: C2_2  and  C5_5 
REMARK    2  A    between atoms: C3_3  and  C6_6 
REMARK    3  A    between atoms: C5_5  and  C7_7 
ROOT
HETATM    1  C1  UNL     1     -33.686   6.657   4.772  1.00 20.00     0.011 A 
HETATM    2  C2  UNL     1     -33.074   5.796   3.698  1.00 20.00    -0.009 A 
HETATM    3  C3  UNL     1     -34.561   5.754   3.941  1.00 20.00     0.004 A 
ENDROOT
BRANCH   2   4
HETATM    4  C5  UNL     1     -32.538   6.418   2.455  1.00 20.00     0.005 C 
BRANCH   4   5
HETATM    5  C7  UNL     1     -31.974   7.830   2.699  1.00 20.00    -0.004 C 
HETATM    6  C4  UNL     1     -32.031   8.702   1.455  1.00 20.00     0.005 C 
ENDBRANCH   4   5
ENDBRANCH   2   4
BRANCH   3   7
HETATM    7  C6  UNL     1     -35.185   4.548   4.550  1.00 20.00     0.119 C 
HETATM    8 CL8  UNL     1     -35.052   4.579   6.332  1.00 20.00    -0.130 Cl
ENDBRANCH   3   7
TORSDOF 3
ENDMDL
MODEL 6
REMARK VINA RESULT:      -3.8      2.821      4.583
REMARK  3 active torsions:
REMARK  status: ('A' for Active; 'I' for Inactive)
REMARK    1  A    between atoms: C2_2  and  C5_5 
REMARK    2  A    between atoms: C3_3  and  C6_6 
REMARK    3  A    between atoms: C5_5  and  C7_7 
ROOT
HETATM    1  C1  UNL     1     -33.197   7.150   5.615  1.00 20.00     0.011 A 
HETATM    2  C2  UNL     1     -33.067   6.190   4.462  1.00 20.00    -0.009 A 
HETATM    3  C3  UNL     1     -34.346   6.244   5.258  1.00 20.00     0.004 A 
ENDROOT
BRANCH   2   4
HETATM    4  C5  UNL     1     -33.035   6.700   3.063  1.00 20.00     0.005 C 
BRANCH   4   5
HETATM    5  C7  UNL     1     -31.845   7.643   2.806  1.00 20.00    -0.004 C 
HETATM    6  C4  UNL     1     -32.076   8.559   1.615  1.00 20.00     0.005 C 
ENDBRANCH   4   5
ENDBRANCH   2   4
BRANCH   3   7
HETATM    7  C6  UNL     1     -34.716   5.115   6.154  1.00 20.00     0.119 C 
HETATM    8 CL8  UNL     1     -35.099   3.643   5.217  1.00 20.00    -0.130 Cl
ENDBRANCH   3   7
TORSDOF 3
ENDMDL
MODEL 7
REMARK VINA RESULT:      -3.6     10.643     11.446
REMARK  3 active torsions:
REMARK  status: ('A' for Active; 'I' for Inactive)
REMARK    1  A    between atoms: C2_2  and  C5_5 
REMARK    2  A    between atoms: C3_3  and  C6_6 
REMARK    3  A    between atoms: C5_5  and  C7_7 
ROOT
HETATM    1  C1  UNL     1     -34.981  15.917  -3.755  1.00 20.00     0.011 A 
HETATM    2  C2  UNL     1     -34.463  15.708  -2.356  1.00 20.00    -0.009 A 
HETATM    3  C3  UNL     1     -33.660  15.226  -3.537  1.00 20.00     0.004 A 
ENDROOT
BRANCH   2   4
HETATM    4  C5  UNL     1     -33.988  16.869  -1.553  1.00 20.00     0.005 C 
BRANCH   4   5
HETATM    5  C7  UNL     1     -34.773  17.037  -0.239  1.00 20.00    -0.004 C 
HETATM    6  C4  UNL     1     -34.161  18.088   0.674  1.00 20.00     0.005 C 
ENDBRANCH   4   5
ENDBRANCH   2   4
BRANCH   3   7
HETATM    7  C6  UNL     1     -33.524  13.768  -3.803  1.00 20.00     0.119 C 
HETATM    8 CL8  UNL     1     -34.754  13.205  -4.971  1.00 20.00    -0.130 Cl
ENDBRANCH   3   7
TORSDOF 3
ENDMDL
MODEL 8
REMARK VINA RESULT:      -3.6     11.495     12.162
REMARK  3 active torsions:
REMARK  status: ('A' for Active; 'I' for Inactive)
REMARK    1  A    between atoms: C2_2  and  C5_5 
REMARK    2  A    between atoms: C3_3  and  C6_6 
REMARK    3  A    between atoms: C5_5  and  C7_7 
ROOT
HETATM    1  C1  UNL     1     -32.929  15.118  -3.574  1.00 20.00     0.011 A 
HETATM    2  C2  UNL     1     -33.742  16.225  -2.958  1.00 20.00    -0.009 A 
HETATM    3  C3  UNL     1     -33.977  15.826  -4.392  1.00 20.00     0.004 A 
ENDROOT
BRANCH   2   4
HETATM    4  C5  UNL     1     -34.764  15.915  -1.919  1.00 20.00     0.005 C 
BRANCH   4   5
HETATM    5  C7  UNL     1     -34.613  16.792  -0.663  1.00 20.00    -0.004 C 
HETATM    6  C4  UNL     1     -33.491  17.810  -0.795  1.00 20.00     0.005 C 
ENDBRANCH   4   5
ENDBRANCH   2   4
BRANCH   3   7
HETATM    7  C6  UNL     1     -33.574  16.739  -5.497  1.00 20.00     0.119 C 
HETATM    8 CL8  UNL     1     -34.221  16.182  -7.066  1.00 20.00    -0.130 Cl
ENDBRANCH   3   7
TORSDOF 3
ENDMDL
MODEL 9
REMARK VINA RESULT:      -3.6     10.894     11.626
REMARK  3 active torsions:
REMARK  status: ('A' for Active; 'I' for Inactive)
REMARK    1  A    between atoms: C2_2  and  C5_5 
REMARK    2  A    between atoms: C3_3  and  C6_6 
REMARK    3  A    between atoms: C5_5  and  C7_7 
ROOT
HETATM    1  C1  UNL     1     -33.668  13.659  -3.821  1.00 20.00     0.011 A 
HETATM    2  C2  UNL     1     -34.211  15.059  -3.699  1.00 20.00    -0.009 A 
HETATM    3  C3  UNL     1     -34.892  14.062  -4.602  1.00 20.00     0.004 A 
ENDROOT
BRANCH   2   4
HETATM    4  C5  UNL     1     -34.871  15.498  -2.438  1.00 20.00     0.005 C 
BRANCH   4   5
HETATM    5  C7  UNL     1     -34.100  16.627  -1.731  1.00 20.00    -0.004 C 
HETATM    6  C4  UNL     1     -34.688  16.971  -0.371  1.00 20.00     0.005 C 
ENDBRANCH   4   5
ENDBRANCH   2   4
BRANCH   3   7
HETATM    7  C6  UNL     1     -34.819  14.222  -6.080  1.00 20.00     0.119 C 
HETATM    8 CL8  UNL     1     -36.334  14.908  -6.733  1.00 20.00    -0.130 Cl
ENDBRANCH   3   7
TORSDOF 3
ENDMDL
