MODEL 1
REMARK VINA RESULT:      -4.2      0.000      0.000
REMARK  2 active torsions:
REMARK  status: ('A' for Active; 'I' for Inactive)
REMARK    1  A    between atoms: C4_4  and  C9_9 
REMARK    2  A    between atoms: C5_5  and  C6_6 
ROOT
HETATM    1  C3  UNL     1     -33.354  16.908  -4.899  1.00 20.00     0.017 A 
HETATM    2  C4  UNL     1     -34.269  16.775  -3.715  1.00 20.00     0.009 A 
HETATM    3  C6  UNL     1     -33.703  15.521  -4.381  1.00 20.00    -0.032 A 
HETATM    4  C8  UNL     1     -32.599  14.763  -3.685  1.00 20.00     0.016 C 
ENDROOT
BRANCH   3   5
HETATM    5  C5  UNL     1     -34.647  14.613  -5.184  1.00 20.00    -0.036 A 
HETATM    6  C1  UNL     1     -35.846  15.197  -5.894  1.00 20.00     0.011 A 
HETATM    7  C2  UNL     1     -34.679  14.690  -6.692  1.00 20.00     0.011 A 
HETATM    8  C7  UNL     1     -34.826  13.242  -4.578  1.00 20.00     0.016 C 
ENDBRANCH   3   5
BRANCH   2   9
HETATM    9  C9  UNL     1     -33.833  17.242  -2.368  1.00 20.00     0.120 C 
HETATM   10 CL10 UNL     1     -34.697  16.371  -1.071  1.00 20.00    -0.130 Cl
ENDBRANCH   2   9
TORSDOF 2
ENDMDL
MODEL 2
REMARK VINA RESULT:      -4.2     11.301     12.749
REMARK  2 active torsions:
REMARK  status: ('A' for Active; 'I' for Inactive)
REMARK    1  A    between atoms: C4_4  and  C9_9 
REMARK    2  A    between atoms: C5_5  and  C6_6 
ROOT
HETATM    1  C3  UNL     1     -32.207   5.668   3.456  1.00 20.00     0.017 A 
HETATM    2  C4  UNL     1     -33.011   6.808   2.898  1.00 20.00     0.009 A 
HETATM    3  C6  UNL     1     -33.368   6.225   4.265  1.00 20.00    -0.032 A 
HETATM    4  C8  UNL     1     -33.013   7.009   5.505  1.00 20.00     0.016 C 
ENDROOT
BRANCH   3   5
HETATM    5  C5  UNL     1     -34.665   5.413   4.413  1.00 20.00    -0.036 A 
HETATM    6  C1  UNL     1     -34.611   3.958   4.816  1.00 20.00     0.011 A 
HETATM    7  C2  UNL     1     -35.141   4.982   5.780  1.00 20.00     0.011 A 
HETATM    8  C7  UNL     1     -35.734   5.797   3.419  1.00 20.00     0.016 C 
ENDBRANCH   3   5
BRANCH   2   9
HETATM    9  C9  UNL     1     -32.395   8.154   2.729  1.00 20.00     0.120 C 
HETATM   10 CL10 UNL     1     -31.776   8.378   1.069  1.00 20.00    -0.130 Cl
ENDBRANCH   2   9
TORSDOF 2
ENDMDL
MODEL 3
REMARK VINA RESULT:      -4.2      1.061      2.149
REMARK  2 active torsions:
REMARK  status: ('A' for Active; 'I' for Inactive)
REMARK    1  A    between atoms: C4_4  and  C9_9 
REMARK    2  A    between atoms: C5_5  and  C6_6 
ROOT
HETATM    1  C3  UNL     1     -35.795  16.455  -3.274  1.00 20.00     0.017 A 
HETATM    2  C4  UNL     1     -34.687  15.933  -2.403  1.00 20.00     0.009 A 
HETATM    3  C6  UNL     1     -34.504  15.975  -3.920  1.00 20.00    -0.032 A 
HETATM    4  C8  UNL     1     -33.612  17.037  -4.515  1.00 20.00     0.016 C 
ENDROOT
BRANCH   3   5
HETATM    5  C5  UNL     1     -34.479  14.655  -4.705  1.00 20.00    -0.036 A 
HETATM    6  C1  UNL     1     -33.757  13.450  -4.148  1.00 20.00     0.011 A 
HETATM    7  C2  UNL     1     -35.258  13.459  -4.209  1.00 20.00     0.011 A 
HETATM    8  C7  UNL     1     -34.418  14.843  -6.201  1.00 20.00     0.016 C 
ENDBRANCH   3   5
BRANCH   2   9
HETATM    9  C9  UNL     1     -33.963  16.846  -1.475  1.00 20.00     0.120 C 
HETATM   10 CL10 UNL     1     -34.859  17.057   0.055  1.00 20.00    -0.130 Cl
ENDBRANCH   2   9
TORSDOF 2
ENDMDL
MODEL 4
REMARK VINA RESULT:      -4.1     11.746     13.231
REMARK  2 active torsions:
REMARK  status: ('A' for Active; 'I' for Inactive)
REMARK    1  A    between atoms: C4_4  and  C9_9 
REMARK    2  A    between atoms: C5_5  and  C6_6 
ROOT
HETATM    1  C3  UNL     1     -34.177   7.470   3.826  1.00 20.00     0.017 A 
HETATM    2  C4  UNL     1     -32.794   6.890   3.916  1.00 20.00     0.009 A 
HETATM    3  C6  UNL     1     -34.009   6.001   4.180  1.00 20.00    -0.032 A 
HETATM    4  C8  UNL     1     -34.422   5.002   3.126  1.00 20.00     0.016 C 
ENDROOT
BRANCH   3   5
HETATM    5  C5  UNL     1     -34.281   5.516   5.612  1.00 20.00    -0.036 A 
HETATM    6  C1  UNL     1     -35.401   4.540   5.887  1.00 20.00     0.011 A 
HETATM    7  C2  UNL     1     -33.972   4.090   6.005  1.00 20.00     0.011 A 
HETATM    8  C7  UNL     1     -34.035   6.570   6.663  1.00 20.00     0.016 C 
ENDBRANCH   3   5
BRANCH   2   9
HETATM    9  C9  UNL     1     -31.949   6.763   2.695  1.00 20.00     0.120 C 
HETATM   10 CL10 UNL     1     -31.975   8.266   1.733  1.00 20.00    -0.130 Cl
ENDBRANCH   2   9
TORSDOF 2
ENDMDL
MODEL 5
REMARK VINA RESULT:      -4.0      2.538      3.749
REMARK  2 active torsions:
REMARK  status: ('A' for Active; 'I' for Inactive)
REMARK    1  A    between atoms: C4_4  and  C9_9 
REMARK    2  A    between atoms: C5_5  and  C6_6 
ROOT
HETATM    1  C3  UNL     1     -33.566  17.160  -5.375  1.00 20.00     0.017 A 
HETATM    2  C4  UNL     1     -33.944  15.902  -6.104  1.00 20.00     0.009 A 
HETATM    3  C6  UNL     1     -34.554  16.198  -4.734  1.00 20.00    -0.032 A 
HETATM    4  C8  UNL     1     -35.991  16.656  -4.661  1.00 20.00     0.016 C 
ENDROOT
BRANCH   3   5
HETATM    5  C5  UNL     1     -34.130  15.345  -3.529  1.00 20.00    -0.036 A 
HETATM    6  C1  UNL     1     -34.133  13.837  -3.623  1.00 20.00     0.011 A 
HETATM    7  C2  UNL     1     -32.828  14.578  -3.558  1.00 20.00     0.011 A 
HETATM    8  C7  UNL     1     -34.531  15.936  -2.199  1.00 20.00     0.016 C 
ENDBRANCH   3   5
BRANCH   2   9
HETATM    9  C9  UNL     1     -34.728  15.970  -7.370  1.00 20.00     0.120 C 
HETATM   10 CL10 UNL     1     -35.476  14.395  -7.752  1.00 20.00    -0.130 Cl
ENDBRANCH   2   9
TORSDOF 2
ENDMDL
MODEL 6
REMARK VINA RESULT:      -4.0      1.862      3.165
REMARK  2 active torsions:
REMARK  status: ('A' for Active; 'I' for Inactive)
REMARK    1  A    between atoms: C4_4  and  C9_9 
REMARK    2  A    between atoms: C5_5  and  C6_6 
ROOT
HETATM    1  C3  UNL     1     -34.760  16.254  -1.534  1.00 20.00     0.017 A 
HETATM    2  C4  UNL     1     -33.550  17.145  -1.554  1.00 20.00     0.009 A 
HETATM    3  C6  UNL     1     -34.300  16.853  -2.853  1.00 20.00    -0.032 A 
HETATM    4  C8  UNL     1     -35.174  17.931  -3.447  1.00 20.00     0.016 C 
ENDROOT
BRANCH   3   5
HETATM    5  C5  UNL     1     -33.634  15.963  -3.914  1.00 20.00    -0.036 A 
HETATM    6  C1  UNL     1     -32.667  14.878  -3.501  1.00 20.00     0.011 A 
HETATM    7  C2  UNL     1     -34.020  14.507  -4.039  1.00 20.00     0.011 A 
HETATM    8  C7  UNL     1     -33.323  16.687  -5.201  1.00 20.00     0.016 C 
ENDBRANCH   3   5
BRANCH   2   9
HETATM    9  C9  UNL     1     -33.582  18.475  -0.883  1.00 20.00     0.120 C 
HETATM   10 CL10 UNL     1     -32.102  18.749   0.078  1.00 20.00    -0.130 Cl
ENDBRANCH   2   9
TORSDOF 2
ENDMDL
MODEL 7
REMARK VINA RESULT:      -3.9      2.369      3.956
REMARK  2 active torsions:
REMARK  status: ('A' for Active; 'I' for Inactive)
REMARK    1  A    between atoms: C4_4  and  C9_9 
REMARK    2  A    between atoms: C5_5  and  C6_6 
ROOT
HETATM    1  C3  UNL     1     -36.535  14.911  -4.000  1.00 20.00     0.017 A 
HETATM    2  C4  UNL     1     -35.861  15.414  -5.245  1.00 20.00     0.009 A 
HETATM    3  C6  UNL     1     -35.052  14.643  -4.204  1.00 20.00    -0.032 A 
HETATM    4  C8  UNL     1     -34.658  13.216  -4.499  1.00 20.00     0.016 C 
ENDROOT
BRANCH   3   5
HETATM    5  C5  UNL     1     -34.009  15.396  -3.363  1.00 20.00    -0.036 A 
HETATM    6  C1  UNL     1     -34.115  16.892  -3.179  1.00 20.00     0.011 A 
HETATM    7  C2  UNL     1     -34.387  15.976  -2.020  1.00 20.00     0.011 A 
HETATM    8  C7  UNL     1     -32.615  14.831  -3.482  1.00 20.00     0.016 C 
ENDBRANCH   3   5
BRANCH   2   9
HETATM    9  C9  UNL     1     -36.216  14.846  -6.577  1.00 20.00     0.120 C 
HETATM   10 CL10 UNL     1     -34.834  14.931  -7.704  1.00 20.00    -0.130 Cl
ENDBRANCH   2   9
TORSDOF 2
ENDMDL
MODEL 8
REMARK VINA RESULT:      -3.9      2.002      4.043
REMARK  2 active torsions:
REMARK  status: ('A' for Active; 'I' for Inactive)
REMARK    1  A    between atoms: C4_4  and  C9_9 
REMARK    2  A    between atoms: C5_5  and  C6_6 
ROOT
HETATM    1  C3  UNL     1     -32.942  14.918  -3.565  1.00 20.00     0.017 A 
HETATM    2  C4  UNL     1     -34.326  14.727  -4.118  1.00 20.00     0.009 A 
HETATM    3  C6  UNL     1     -33.796  16.139  -3.871  1.00 20.00    -0.032 A 
HETATM    4  C8  UNL     1     -33.377  16.977  -5.054  1.00 20.00     0.016 C 
ENDROOT
BRANCH   3   5
HETATM    5  C5  UNL     1     -34.394  16.969  -2.724  1.00 20.00    -0.036 A 
HETATM    6  C1  UNL     1     -34.722  16.317  -1.401  1.00 20.00     0.011 A 
HETATM    7  C2  UNL     1     -33.570  17.276  -1.496  1.00 20.00     0.011 A 
HETATM    8  C7  UNL     1     -35.334  18.054  -3.191  1.00 20.00     0.016 C 
ENDBRANCH   3   5
BRANCH   2   9
HETATM    9  C9  UNL     1     -34.520  14.164  -5.485  1.00 20.00     0.120 C 
HETATM   10 CL10 UNL     1     -36.045  14.744  -6.210  1.00 20.00    -0.130 Cl
ENDBRANCH   2   9
TORSDOF 2
ENDMDL
MODEL 9
REMARK VINA RESULT:      -3.9      1.033      1.759
REMARK  2 active torsions:
REMARK  status: ('A' for Active; 'I' for Inactive)
REMARK    1  A    between atoms: C4_4  and  C9_9 
REMARK    2  A    between atoms: C5_5  and  C6_6 
ROOT
HETATM    1  C3  UNL     1     -33.192  15.458  -4.056  1.00 20.00     0.017 A 
HETATM    2  C4  UNL     1     -34.407  16.095  -3.443  1.00 20.00     0.009 A 
HETATM    3  C6  UNL     1     -34.573  14.991  -4.488  1.00 20.00    -0.032 A 
HETATM    4  C8  UNL     1     -34.994  13.615  -4.032  1.00 20.00     0.016 C 
ENDROOT
BRANCH   3   5
HETATM    5  C5  UNL     1     -35.111  15.358  -5.880  1.00 20.00    -0.036 A 
HETATM    6  C1  UNL     1     -34.392  16.378  -6.731  1.00 20.00     0.011 A 
HETATM    7  C2  UNL     1     -34.366  14.928  -7.122  1.00 20.00     0.011 A 
HETATM    8  C7  UNL     1     -36.618  15.353  -5.965  1.00 20.00     0.016 C 
ENDBRANCH   3   5
BRANCH   2   9
HETATM    9  C9  UNL     1     -34.717  15.894  -1.999  1.00 20.00     0.120 C 
HETATM   10 CL10 UNL     1     -33.917  17.131  -0.990  1.00 20.00    -0.130 Cl
ENDBRANCH   2   9
TORSDOF 2
ENDMDL
