MODEL 1
REMARK VINA RESULT:      -4.5      0.000      0.000
REMARK  1 active torsions:
REMARK  status: ('A' for Active; 'I' for Inactive)
REMARK    1  A    between atoms: C6_6  and  C8_8 
ROOT
HETATM    1  C1  UNL     1     -33.752  14.090  -3.458  1.00 20.00     0.036 C 
HETATM    2  C2  UNL     1     -35.972  15.258  -3.283  1.00 20.00     0.036 C 
HETATM    3  C3  UNL     1     -33.911  16.600  -4.136  1.00 20.00     0.016 A 
HETATM    4  C4  UNL     1     -34.369  13.240  -4.564  1.00 20.00     0.168 C 
HETATM    5  C5  UNL     1     -36.459  14.333  -4.394  1.00 20.00     0.168 C 
HETATM    6  C6  UNL     1     -33.768  16.547  -2.638  1.00 20.00     0.009 A 
HETATM    7  C7  UNL     1     -34.471  15.419  -3.372  1.00 20.00    -0.032 A 
HETATM    8  O9  UNL     1     -35.773  13.079  -4.342  1.00 20.00    -0.391 OA
ENDROOT
BRANCH   6   9
HETATM    9  C8  UNL     1     -34.496  17.523  -1.779  1.00 20.00     0.120 C 
HETATM   10 CL10 UNL     1     -34.730  16.882  -0.128  1.00 20.00    -0.130 Cl
ENDBRANCH   6   9
TORSDOF 1
ENDMDL
MODEL 2
REMARK VINA RESULT:      -4.4     10.855     11.728
REMARK  1 active torsions:
REMARK  status: ('A' for Active; 'I' for Inactive)
REMARK    1  A    between atoms: C6_6  and  C8_8 
ROOT
HETATM    1  C1  UNL     1     -33.552   6.679   5.499  1.00 20.00     0.036 C 
HETATM    2  C2  UNL     1     -34.590   5.951   3.328  1.00 20.00     0.036 C 
HETATM    3  C3  UNL     1     -31.998   5.912   3.555  1.00 20.00     0.016 A 
HETATM    4  C4  UNL     1     -34.193   5.449   6.134  1.00 20.00     0.168 C 
HETATM    5  C5  UNL     1     -35.176   4.768   4.094  1.00 20.00     0.168 C 
HETATM    6  C6  UNL     1     -32.361   7.351   3.300  1.00 20.00     0.009 A 
HETATM    7  C7  UNL     1     -33.338   6.440   4.020  1.00 20.00    -0.032 A 
HETATM    8  O9  UNL     1     -35.411   5.120   5.460  1.00 20.00    -0.391 OA
ENDROOT
BRANCH   6   9
HETATM    9  C8  UNL     1     -32.588   7.833   1.909  1.00 20.00     0.120 C 
HETATM   10 CL10 UNL     1     -32.501   9.614   1.819  1.00 20.00    -0.130 Cl
ENDBRANCH   6   9
TORSDOF 1
ENDMDL
MODEL 3
REMARK VINA RESULT:      -4.0      1.450      1.713
REMARK  1 active torsions:
REMARK  status: ('A' for Active; 'I' for Inactive)
REMARK    1  A    between atoms: C6_6  and  C8_8 
ROOT
HETATM    1  C1  UNL     1     -35.020  13.722  -4.169  1.00 20.00     0.036 C 
HETATM    2  C2  UNL     1     -34.809  16.079  -5.020  1.00 20.00     0.036 C 
HETATM    3  C3  UNL     1     -32.927  15.121  -3.499  1.00 20.00     0.016 A 
HETATM    4  C4  UNL     1     -34.865  13.263  -5.614  1.00 20.00     0.168 C 
HETATM    5  C5  UNL     1     -34.675  15.479  -6.417  1.00 20.00     0.168 C 
HETATM    6  C6  UNL     1     -34.044  15.508  -2.566  1.00 20.00     0.009 A 
HETATM    7  C7  UNL     1     -34.359  15.072  -3.986  1.00 20.00    -0.032 A 
HETATM    8  O9  UNL     1     -35.395  14.247  -6.508  1.00 20.00    -0.391 OA
ENDROOT
BRANCH   6   9
HETATM    9  C8  UNL     1     -34.186  16.919  -2.109  1.00 20.00     0.120 C 
HETATM   10 CL10 UNL     1     -34.581  16.999  -0.370  1.00 20.00    -0.130 Cl
ENDBRANCH   6   9
TORSDOF 1
ENDMDL
MODEL 4
REMARK VINA RESULT:      -3.9      1.257      1.685
REMARK  1 active torsions:
REMARK  status: ('A' for Active; 'I' for Inactive)
REMARK    1  A    between atoms: C6_6  and  C8_8 
ROOT
HETATM    1  C1  UNL     1     -34.356  15.766  -5.530  1.00 20.00     0.036 C 
HETATM    2  C2  UNL     1     -34.319  14.334  -3.464  1.00 20.00     0.036 C 
HETATM    3  C3  UNL     1     -35.650  16.570  -3.417  1.00 20.00     0.016 A 
HETATM    4  C4  UNL     1     -35.151  14.651  -6.201  1.00 20.00     0.168 C 
HETATM    5  C5  UNL     1     -35.110  13.300  -4.261  1.00 20.00     0.168 C 
HETATM    6  C6  UNL     1     -34.206  16.954  -3.233  1.00 20.00     0.009 A 
HETATM    7  C7  UNL     1     -34.564  15.714  -4.032  1.00 20.00    -0.032 A 
HETATM    8  O9  UNL     1     -34.786  13.381  -5.652  1.00 20.00    -0.391 OA
ENDROOT
BRANCH   6   9
HETATM    9  C8  UNL     1     -33.577  16.887  -1.884  1.00 20.00     0.120 C 
HETATM   10 CL10 UNL     1     -34.805  16.658  -0.608  1.00 20.00    -0.130 Cl
ENDBRANCH   6   9
TORSDOF 1
ENDMDL
MODEL 5
REMARK VINA RESULT:      -3.9     11.569     12.421
REMARK  1 active torsions:
REMARK  status: ('A' for Active; 'I' for Inactive)
REMARK    1  A    between atoms: C6_6  and  C8_8 
ROOT
HETATM    1  C1  UNL     1     -34.183   4.396   4.321  1.00 20.00     0.036 C 
HETATM    2  C2  UNL     1     -33.423   6.404   5.630  1.00 20.00     0.036 C 
HETATM    3  C3  UNL     1     -34.482   6.765   3.280  1.00 20.00     0.016 A 
HETATM    4  C4  UNL     1     -35.247   4.191   5.393  1.00 20.00     0.168 C 
HETATM    5  C5  UNL     1     -34.528   6.074   6.629  1.00 20.00     0.168 C 
HETATM    6  C6  UNL     1     -33.061   6.337   3.023  1.00 20.00     0.009 A 
HETATM    7  C7  UNL     1     -33.784   5.855   4.268  1.00 20.00    -0.032 A 
HETATM    8  O9  UNL     1     -34.777   4.666   6.658  1.00 20.00    -0.391 OA
ENDROOT
BRANCH   6   9
HETATM    9  C8  UNL     1     -31.955   7.334   3.071  1.00 20.00     0.120 C 
HETATM   10 CL10 UNL     1     -31.973   8.390   1.631  1.00 20.00    -0.130 Cl
ENDBRANCH   6   9
TORSDOF 1
ENDMDL
MODEL 6
REMARK VINA RESULT:      -3.9      2.944      4.284
REMARK  1 active torsions:
REMARK  status: ('A' for Active; 'I' for Inactive)
REMARK    1  A    between atoms: C6_6  and  C8_8 
ROOT
HETATM    1  C1  UNL     1     -34.419  16.280  -1.536  1.00 20.00     0.036 C 
HETATM    2  C2  UNL     1     -33.590  16.656  -3.880  1.00 20.00     0.036 C 
HETATM    3  C3  UNL     1     -35.810  15.345  -3.530  1.00 20.00     0.016 A 
HETATM    4  C4  UNL     1     -34.635  17.787  -1.449  1.00 20.00     0.168 C 
HETATM    5  C5  UNL     1     -33.847  18.143  -3.650  1.00 20.00     0.168 C 
HETATM    6  C6  UNL     1     -34.708  14.358  -3.249  1.00 20.00     0.009 A 
HETATM    7  C7  UNL     1     -34.488  15.836  -2.982  1.00 20.00    -0.032 A 
HETATM    8  O9  UNL     1     -33.684  18.474  -2.268  1.00 20.00    -0.391 OA
ENDROOT
BRANCH   6   9
HETATM    9  C8  UNL     1     -34.042  13.635  -4.368  1.00 20.00     0.120 C 
HETATM   10 CL10 UNL     1     -34.936  13.849  -5.899  1.00 20.00    -0.130 Cl
ENDBRANCH   6   9
TORSDOF 1
ENDMDL
MODEL 7
REMARK VINA RESULT:      -3.9      2.614      3.355
REMARK  1 active torsions:
REMARK  status: ('A' for Active; 'I' for Inactive)
REMARK    1  A    between atoms: C6_6  and  C8_8 
ROOT
HETATM    1  C1  UNL     1     -34.406  15.300  -2.872  1.00 20.00     0.036 C 
HETATM    2  C2  UNL     1     -35.597  13.536  -4.210  1.00 20.00     0.036 C 
HETATM    3  C3  UNL     1     -36.060  16.042  -4.742  1.00 20.00     0.016 A 
HETATM    4  C4  UNL     1     -33.113  14.816  -3.520  1.00 20.00     0.168 C 
HETATM    5  C5  UNL     1     -34.232  13.152  -4.773  1.00 20.00     0.168 C 
HETATM    6  C6  UNL     1     -36.878  15.730  -3.516  1.00 20.00     0.009 A 
HETATM    7  C7  UNL     1     -35.581  14.984  -3.772  1.00 20.00    -0.032 A 
HETATM    8  O9  UNL     1     -33.200  13.419  -3.820  1.00 20.00    -0.391 OA
ENDROOT
BRANCH   6   9
HETATM    9  C8  UNL     1     -38.215  15.086  -3.648  1.00 20.00     0.120 C 
HETATM   10 CL10 UNL     1     -38.856  15.260  -5.305  1.00 20.00    -0.130 Cl
ENDBRANCH   6   9
TORSDOF 1
ENDMDL
MODEL 8
REMARK VINA RESULT:      -3.8     12.053     13.568
REMARK  1 active torsions:
REMARK  status: ('A' for Active; 'I' for Inactive)
REMARK    1  A    between atoms: C6_6  and  C8_8 
ROOT
HETATM    1  C1  UNL     1     -40.756   4.651  -1.084  1.00 20.00     0.036 C 
HETATM    2  C2  UNL     1     -42.349   5.791  -2.661  1.00 20.00     0.036 C 
HETATM    3  C3  UNL     1     -43.199   3.766  -1.266  1.00 20.00     0.016 A 
HETATM    4  C4  UNL     1     -40.758   5.939  -0.267  1.00 20.00     0.168 C 
HETATM    5  C5  UNL     1     -42.249   7.015  -1.754  1.00 20.00     0.168 C 
HETATM    6  C6  UNL     1     -42.420   3.171  -2.409  1.00 20.00     0.009 A 
HETATM    7  C7  UNL     1     -42.047   4.540  -1.868  1.00 20.00    -0.032 A 
HETATM    8  O9  UNL     1     -40.968   7.068  -1.121  1.00 20.00    -0.391 OA
ENDROOT
BRANCH   6   9
HETATM    9  C8  UNL     1     -43.063   2.981  -3.739  1.00 20.00     0.120 C 
HETATM   10 CL10 UNL     1     -42.221   1.727  -4.691  1.00 20.00    -0.130 Cl
ENDBRANCH   6   9
TORSDOF 1
ENDMDL
MODEL 9
REMARK VINA RESULT:      -3.8      2.221      3.147
REMARK  1 active torsions:
REMARK  status: ('A' for Active; 'I' for Inactive)
REMARK    1  A    between atoms: C6_6  and  C8_8 
ROOT
HETATM    1  C1  UNL     1     -36.803  15.476  -5.665  1.00 20.00     0.036 C 
HETATM    2  C2  UNL     1     -34.294  15.444  -5.825  1.00 20.00     0.036 C 
HETATM    3  C3  UNL     1     -35.473  13.738  -4.252  1.00 20.00     0.016 A 
HETATM    4  C4  UNL     1     -36.829  15.014  -7.118  1.00 20.00     0.168 C 
HETATM    5  C5  UNL     1     -34.469  14.991  -7.272  1.00 20.00     0.168 C 
HETATM    6  C6  UNL     1     -35.454  15.040  -3.496  1.00 20.00     0.009 A 
HETATM    7  C7  UNL     1     -35.506  15.046  -5.013  1.00 20.00    -0.032 A 
HETATM    8  O9  UNL     1     -35.684  15.511  -7.818  1.00 20.00    -0.391 OA
ENDROOT
BRANCH   6   9
HETATM    9  C8  UNL     1     -34.243  15.449  -2.732  1.00 20.00     0.120 C 
HETATM   10 CL10 UNL     1     -34.684  16.319  -1.237  1.00 20.00    -0.130 Cl
ENDBRANCH   6   9
TORSDOF 1
ENDMDL
