MODEL 1
REMARK VINA RESULT:      -4.4      0.000      0.000
REMARK  1 active torsions:
REMARK  status: ('A' for Active; 'I' for Inactive)
REMARK    1  A    between atoms: C4_4  and  C10_10 
ROOT
HETATM    1  C1  UNL     1     -33.894  16.611  -5.248  1.00 20.00     0.006 C 
HETATM    2  C2  UNL     1     -34.870  16.438  -6.418  1.00 20.00     0.009 C 
HETATM    3  C3  UNL     1     -34.829  14.036  -5.593  1.00 20.00     0.013 C 
HETATM    4  C4  UNL     1     -34.428  15.987  -3.956  1.00 20.00    -0.001 C 
HETATM    5  C5  UNL     1     -34.644  14.456  -4.117  1.00 20.00    -0.013 C 
HETATM    6  C6  UNL     1     -35.584  15.063  -6.460  1.00 20.00    -0.047 C 
HETATM    7  C7  UNL     1     -33.546  13.583  -3.498  1.00 20.00     0.010 C 
HETATM    8  C8  UNL     1     -37.045  15.197  -5.986  1.00 20.00     0.015 C 
HETATM    9  C9  UNL     1     -35.618  14.556  -7.917  1.00 20.00     0.015 C 
ENDROOT
BRANCH   4  10
HETATM   10  C10 UNL     1     -33.561  16.392  -2.764  1.00 20.00     0.090 C 
HETATM   11 BR11 UNL     1     -34.678  16.558  -1.190  1.00 20.00    -0.096 Br
ENDBRANCH   4  10
TORSDOF 1
ENDMDL
MODEL 2
REMARK VINA RESULT:      -4.3      2.513      4.307
REMARK  1 active torsions:
REMARK  status: ('A' for Active; 'I' for Inactive)
REMARK    1  A    between atoms: C4_4  and  C10_10 
ROOT
HETATM    1  C1  UNL     1     -36.681  15.856  -4.010  1.00 20.00     0.006 C 
HETATM    2  C2  UNL     1     -36.179  16.775  -2.890  1.00 20.00     0.009 C 
HETATM    3  C3  UNL     1     -34.284  15.084  -2.879  1.00 20.00     0.013 C 
HETATM    4  C4  UNL     1     -35.593  15.565  -5.047  1.00 20.00    -0.001 C 
HETATM    5  C5  UNL     1     -34.380  14.839  -4.402  1.00 20.00    -0.013 C 
HETATM    6  C6  UNL     1     -34.727  16.490  -2.429  1.00 20.00    -0.047 C 
HETATM    7  C7  UNL     1     -34.327  13.327  -4.654  1.00 20.00     0.010 C 
HETATM    8  C8  UNL     1     -33.764  17.561  -2.981  1.00 20.00     0.015 C 
HETATM    9  C9  UNL     1     -34.662  16.564  -0.889  1.00 20.00     0.015 C 
ENDROOT
BRANCH   4  10
HETATM   10  C10 UNL     1     -36.187  14.864  -6.269  1.00 20.00     0.090 C 
HETATM   11 BR11 UNL     1     -35.099  15.259  -7.822  1.00 20.00    -0.096 Br
ENDBRANCH   4  10
TORSDOF 1
ENDMDL
MODEL 3
REMARK VINA RESULT:      -4.3      2.706      4.823
REMARK  1 active torsions:
REMARK  status: ('A' for Active; 'I' for Inactive)
REMARK    1  A    between atoms: C4_4  and  C10_10 
ROOT
HETATM    1  C1  UNL     1     -34.898  18.027  -3.606  1.00 20.00     0.006 C 
HETATM    2  C2  UNL     1     -34.995  18.667  -2.216  1.00 20.00     0.009 C 
HETATM    3  C3  UNL     1     -34.644  16.254  -1.506  1.00 20.00     0.013 C 
HETATM    4  C4  UNL     1     -33.676  17.114  -3.735  1.00 20.00    -0.001 C 
HETATM    5  C5  UNL     1     -33.743  15.938  -2.722  1.00 20.00    -0.013 C 
HETATM    6  C6  UNL     1     -34.606  17.725  -1.048  1.00 20.00    -0.047 C 
HETATM    7  C7  UNL     1     -34.188  14.597  -3.320  1.00 20.00     0.010 C 
HETATM    8  C8  UNL     1     -33.208  18.084  -0.506  1.00 20.00     0.015 C 
HETATM    9  C9  UNL     1     -35.610  17.913   0.108  1.00 20.00     0.015 C 
ENDROOT
BRANCH   4  10
HETATM   10  C10 UNL     1     -33.467  16.696  -5.192  1.00 20.00     0.090 C 
HETATM   11 BR11 UNL     1     -35.086  17.051  -6.194  1.00 20.00    -0.096 Br
ENDBRANCH   4  10
TORSDOF 1
ENDMDL
MODEL 4
REMARK VINA RESULT:      -4.2      1.550      2.968
REMARK  1 active torsions:
REMARK  status: ('A' for Active; 'I' for Inactive)
REMARK    1  A    between atoms: C4_4  and  C10_10 
ROOT
HETATM    1  C1  UNL     1     -35.939  15.913  -3.022  1.00 20.00     0.006 C 
HETATM    2  C2  UNL     1     -35.708  14.526  -3.634  1.00 20.00     0.009 C 
HETATM    3  C3  UNL     1     -33.973  15.824  -4.957  1.00 20.00     0.013 C 
HETATM    4  C4  UNL     1     -34.629  16.571  -2.579  1.00 20.00    -0.001 C 
HETATM    5  C5  UNL     1     -33.671  16.784  -3.784  1.00 20.00    -0.013 C 
HETATM    6  C6  UNL     1     -34.448  14.422  -4.530  1.00 20.00    -0.047 C 
HETATM    7  C7  UNL     1     -33.629  18.218  -4.328  1.00 20.00     0.010 C 
HETATM    8  C8  UNL     1     -33.320  13.672  -3.793  1.00 20.00     0.015 C 
HETATM    9  C9  UNL     1     -34.793  13.606  -5.794  1.00 20.00     0.015 C 
ENDROOT
BRANCH   4  10
HETATM   10  C10 UNL     1     -34.910  17.826  -1.752  1.00 20.00     0.090 C 
HETATM   11 BR11 UNL     1     -34.793  17.388   0.131  1.00 20.00    -0.096 Br
ENDBRANCH   4  10
TORSDOF 1
ENDMDL
MODEL 5
REMARK VINA RESULT:      -4.2      2.304      4.870
REMARK  1 active torsions:
REMARK  status: ('A' for Active; 'I' for Inactive)
REMARK    1  A    between atoms: C4_4  and  C10_10 
ROOT
HETATM    1  C1  UNL     1     -34.639  15.491  -2.561  1.00 20.00     0.006 C 
HETATM    2  C2  UNL     1     -34.620  16.360  -1.298  1.00 20.00     0.009 C 
HETATM    3  C3  UNL     1     -33.658  18.044  -2.938  1.00 20.00     0.013 C 
HETATM    4  C4  UNL     1     -35.284  16.214  -3.747  1.00 20.00    -0.001 C 
HETATM    5  C5  UNL     1     -34.495  17.501  -4.118  1.00 20.00    -0.013 C 
HETATM    6  C6  UNL     1     -34.309  17.857  -1.553  1.00 20.00    -0.047 C 
HETATM    7  C7  UNL     1     -33.578  17.363  -5.341  1.00 20.00     0.010 C 
HETATM    8  C8  UNL     1     -35.594  18.703  -1.444  1.00 20.00     0.015 C 
HETATM    9  C9  UNL     1     -33.332  18.362  -0.471  1.00 20.00     0.015 C 
ENDROOT
BRANCH   4  10
HETATM   10  C10 UNL     1     -35.516  15.245  -4.907  1.00 20.00     0.090 C 
HETATM   11 BR11 UNL     1     -34.747  13.524  -4.463  1.00 20.00    -0.096 Br
ENDBRANCH   4  10
TORSDOF 1
ENDMDL
MODEL 6
REMARK VINA RESULT:      -4.1      1.689      2.892
REMARK  1 active torsions:
REMARK  status: ('A' for Active; 'I' for Inactive)
REMARK    1  A    between atoms: C4_4  and  C10_10 
ROOT
HETATM    1  C1  UNL     1     -34.124  15.879  -2.433  1.00 20.00     0.006 C 
HETATM    2  C2  UNL     1     -33.661  14.921  -3.537  1.00 20.00     0.009 C 
HETATM    3  C3  UNL     1     -36.041  15.308  -4.335  1.00 20.00     0.013 C 
HETATM    4  C4  UNL     1     -34.798  17.130  -3.002  1.00 20.00    -0.001 C 
HETATM    5  C5  UNL     1     -36.069  16.764  -3.817  1.00 20.00    -0.013 C 
HETATM    6  C6  UNL     1     -34.642  14.797  -4.731  1.00 20.00    -0.047 C 
HETATM    7  C7  UNL     1     -37.395  16.992  -3.080  1.00 20.00     0.010 C 
HETATM    8  C8  UNL     1     -34.110  15.575  -5.951  1.00 20.00     0.015 C 
HETATM    9  C9  UNL     1     -34.751  13.315  -5.143  1.00 20.00     0.015 C 
ENDROOT
BRANCH   4  10
HETATM   10  C10 UNL     1     -35.017  18.171  -1.903  1.00 20.00     0.090 C 
HETATM   11 BR11 UNL     1     -34.760  17.335  -0.174  1.00 20.00    -0.096 Br
ENDBRANCH   4  10
TORSDOF 1
ENDMDL
MODEL 7
REMARK VINA RESULT:      -4.1      1.525      1.689
REMARK  1 active torsions:
REMARK  status: ('A' for Active; 'I' for Inactive)
REMARK    1  A    between atoms: C4_4  and  C10_10 
ROOT
HETATM    1  C1  UNL     1     -35.429  17.011  -4.008  1.00 20.00     0.006 C 
HETATM    2  C2  UNL     1     -36.748  16.804  -4.762  1.00 20.00     0.009 C 
HETATM    3  C3  UNL     1     -35.811  14.452  -4.971  1.00 20.00     0.013 C 
HETATM    4  C4  UNL     1     -35.195  15.929  -2.950  1.00 20.00    -0.001 C 
HETATM    5  C5  UNL     1     -35.106  14.519  -3.597  1.00 20.00    -0.013 C 
HETATM    6  C6  UNL     1     -37.077  15.323  -5.083  1.00 20.00    -0.047 C 
HETATM    7  C7  UNL     1     -33.682  13.971  -3.754  1.00 20.00     0.010 C 
HETATM    8  C8  UNL     1     -38.178  14.798  -4.139  1.00 20.00     0.015 C 
HETATM    9  C9  UNL     1     -37.622  15.228  -6.523  1.00 20.00     0.015 C 
ENDROOT
BRANCH   4  10
HETATM   10  C10 UNL     1     -34.014  16.300  -2.052  1.00 20.00     0.090 C 
HETATM   11 BR11 UNL     1     -34.682  17.084  -0.412  1.00 20.00    -0.096 Br
ENDBRANCH   4  10
TORSDOF 1
ENDMDL
MODEL 8
REMARK VINA RESULT:      -4.1      1.400      2.808
REMARK  1 active torsions:
REMARK  status: ('A' for Active; 'I' for Inactive)
REMARK    1  A    between atoms: C4_4  and  C10_10 
ROOT
HETATM    1  C1  UNL     1     -35.528  16.184  -2.442  1.00 20.00     0.006 C 
HETATM    2  C2  UNL     1     -35.990  15.100  -3.422  1.00 20.00     0.009 C 
HETATM    3  C3  UNL     1     -34.769  16.607  -5.062  1.00 20.00     0.013 C 
HETATM    4  C4  UNL     1     -34.037  16.500  -2.593  1.00 20.00    -0.001 C 
HETATM    5  C5  UNL     1     -33.717  17.037  -4.015  1.00 20.00    -0.013 C 
HETATM    6  C6  UNL     1     -35.359  15.201  -4.835  1.00 20.00    -0.047 C 
HETATM    7  C7  UNL     1     -33.538  18.558  -4.103  1.00 20.00     0.010 C 
HETATM    8  C8  UNL     1     -34.272  14.124  -5.020  1.00 20.00     0.015 C 
HETATM    9  C9  UNL     1     -36.450  14.942  -5.894  1.00 20.00     0.015 C 
ENDROOT
BRANCH   4  10
HETATM   10  C10 UNL     1     -33.556  17.389  -1.446  1.00 20.00     0.090 C 
HETATM   11 BR11 UNL     1     -34.841  17.313   0.002  1.00 20.00    -0.096 Br
ENDBRANCH   4  10
TORSDOF 1
ENDMDL
MODEL 9
REMARK VINA RESULT:      -4.0      2.433      4.293
REMARK  1 active torsions:
REMARK  status: ('A' for Active; 'I' for Inactive)
REMARK    1  A    between atoms: C4_4  and  C10_10 
ROOT
HETATM    1  C1  UNL     1     -34.103  16.323  -4.613  1.00 20.00     0.006 C 
HETATM    2  C2  UNL     1     -33.884  17.325  -3.473  1.00 20.00     0.009 C 
HETATM    3  C3  UNL     1     -36.238  16.578  -2.881  1.00 20.00     0.013 C 
HETATM    4  C4  UNL     1     -34.629  14.978  -4.104  1.00 20.00    -0.001 C 
HETATM    5  C5  UNL     1     -36.005  15.141  -3.400  1.00 20.00    -0.013 C 
HETATM    6  C6  UNL     1     -34.970  17.286  -2.367  1.00 20.00    -0.047 C 
HETATM    7  C7  UNL     1     -37.214  14.728  -4.248  1.00 20.00     0.010 C 
HETATM    8  C8  UNL     1     -34.432  16.580  -1.106  1.00 20.00     0.015 C 
HETATM    9  C9  UNL     1     -35.333  18.731  -1.966  1.00 20.00     0.015 C 
ENDROOT
BRANCH   4  10
HETATM   10  C10 UNL     1     -34.596  13.931  -5.218  1.00 20.00     0.090 C 
HETATM   11 BR11 UNL     1     -34.611  14.827  -6.935  1.00 20.00    -0.096 Br
ENDBRANCH   4  10
TORSDOF 1
ENDMDL
