MODEL 1
REMARK VINA RESULT:      -4.3      0.000      0.000
REMARK  1 active torsions:
REMARK  status: ('A' for Active; 'I' for Inactive)
REMARK    1  A    between atoms: C3_3  and  O10_10 
ROOT
HETATM    1  C1  UNL     1     -34.892  14.033  -4.527  1.00 20.00     0.143 C 
HETATM    2  C2  UNL     1     -35.199  14.972  -5.707  1.00 20.00     0.082 C 
HETATM    3  C3  UNL     1     -34.534  16.122  -4.890  1.00 20.00     0.146 C 
HETATM    4  C4  UNL     1     -34.091  15.122  -3.763  1.00 20.00     0.040 C 
HETATM    5  C5  UNL     1     -34.566  14.568  -7.025  1.00 20.00     0.020 C 
HETATM    6  C6  UNL     1     -32.597  14.816  -3.682  1.00 20.00     0.026 C 
HETATM    7  C7  UNL     1     -34.670  15.455  -2.390  1.00 20.00     0.026 C 
HETATM    8  O9  UNL     1     -35.164  12.873  -4.292  1.00 20.00    -0.297 OA
ENDROOT
BRANCH   3   9
HETATM    9  O10 UNL     1     -33.482  16.851  -5.555  1.00 20.00    -0.389 OA
HETATM   10  C8  UNL     1     -33.625  18.241  -5.344  1.00 20.00     0.202 C 
ENDBRANCH   3   9
TORSDOF 1
ENDMDL
MODEL 2
REMARK VINA RESULT:      -4.1      1.673      3.725
REMARK  1 active torsions:
REMARK  status: ('A' for Active; 'I' for Inactive)
REMARK    1  A    between atoms: C3_3  and  O10_10 
ROOT
HETATM    1  C1  UNL     1     -33.794  15.681  -4.380  1.00 20.00     0.143 C 
HETATM    2  C2  UNL     1     -34.930  16.272  -3.526  1.00 20.00     0.082 C 
HETATM    3  C3  UNL     1     -35.923  15.382  -4.334  1.00 20.00     0.146 C 
HETATM    4  C4  UNL     1     -34.740  14.677  -5.090  1.00 20.00     0.040 C 
HETATM    5  C5  UNL     1     -34.799  16.029  -2.034  1.00 20.00     0.020 C 
HETATM    6  C6  UNL     1     -34.465  13.224  -4.705  1.00 20.00     0.026 C 
HETATM    7  C7  UNL     1     -34.793  14.854  -6.606  1.00 20.00     0.026 C 
HETATM    8  O9  UNL     1     -32.604  15.910  -4.456  1.00 20.00    -0.297 OA
ENDROOT
BRANCH   3   9
HETATM    9  O10 UNL     1     -36.791  14.530  -3.560  1.00 20.00    -0.389 OA
HETATM   10  C8  UNL     1     -38.145  14.755  -3.898  1.00 20.00     0.202 C 
ENDBRANCH   3   9
TORSDOF 1
ENDMDL
MODEL 3
REMARK VINA RESULT:      -4.1      0.768      2.785
REMARK  1 active torsions:
REMARK  status: ('A' for Active; 'I' for Inactive)
REMARK    1  A    between atoms: C3_3  and  O10_10 
ROOT
HETATM    1  C1  UNL     1     -34.718  13.854  -4.813  1.00 20.00     0.143 C 
HETATM    2  C2  UNL     1     -33.723  14.863  -4.213  1.00 20.00     0.082 C 
HETATM    3  C3  UNL     1     -34.089  15.831  -5.380  1.00 20.00     0.146 C 
HETATM    4  C4  UNL     1     -35.209  14.856  -5.892  1.00 20.00     0.040 C 
HETATM    5  C5  UNL     1     -34.035  15.299  -2.794  1.00 20.00     0.020 C 
HETATM    6  C6  UNL     1     -36.651  15.310  -5.670  1.00 20.00     0.026 C 
HETATM    7  C7  UNL     1     -34.989  14.371  -7.323  1.00 20.00     0.026 C 
HETATM    8  O9  UNL     1     -35.012  12.709  -4.536  1.00 20.00    -0.297 OA
ENDROOT
BRANCH   3   9
HETATM    9  O10 UNL     1     -34.513  17.156  -5.001  1.00 20.00    -0.389 OA
HETATM   10  C8  UNL     1     -33.686  18.135  -5.596  1.00 20.00     0.202 C 
ENDBRANCH   3   9
TORSDOF 1
ENDMDL
MODEL 4
REMARK VINA RESULT:      -4.1      1.936      2.950
REMARK  1 active torsions:
REMARK  status: ('A' for Active; 'I' for Inactive)
REMARK    1  A    between atoms: C3_3  and  O10_10 
ROOT
HETATM    1  C1  UNL     1     -33.370  14.759  -3.497  1.00 20.00     0.143 C 
HETATM    2  C2  UNL     1     -34.550  13.805  -3.748  1.00 20.00     0.082 C 
HETATM    3  C3  UNL     1     -35.503  14.962  -3.316  1.00 20.00     0.146 C 
HETATM    4  C4  UNL     1     -34.301  15.968  -3.213  1.00 20.00     0.040 C 
HETATM    5  C5  UNL     1     -34.656  13.280  -5.167  1.00 20.00     0.020 C 
HETATM    6  C6  UNL     1     -34.229  17.044  -4.296  1.00 20.00     0.026 C 
HETATM    7  C7  UNL     1     -34.121  16.564  -1.819  1.00 20.00     0.026 C 
HETATM    8  O9  UNL     1     -32.164  14.618  -3.525  1.00 20.00    -0.297 OA
ENDROOT
BRANCH   3   9
HETATM    9  O10 UNL     1     -36.552  15.304  -4.244  1.00 20.00    -0.389 OA
HETATM   10  C8  UNL     1     -37.822  15.058  -3.676  1.00 20.00     0.202 C 
ENDBRANCH   3   9
TORSDOF 1
ENDMDL
MODEL 5
REMARK VINA RESULT:      -4.0      1.745      2.331
REMARK  1 active torsions:
REMARK  status: ('A' for Active; 'I' for Inactive)
REMARK    1  A    between atoms: C3_3  and  O10_10 
ROOT
HETATM    1  C1  UNL     1     -35.181  13.898  -4.099  1.00 20.00     0.143 C 
HETATM    2  C2  UNL     1     -36.271  14.765  -3.447  1.00 20.00     0.082 C 
HETATM    3  C3  UNL     1     -35.328  15.993  -3.639  1.00 20.00     0.146 C 
HETATM    4  C4  UNL     1     -34.293  15.124  -4.439  1.00 20.00     0.040 C 
HETATM    5  C5  UNL     1     -37.605  14.764  -4.170  1.00 20.00     0.020 C 
HETATM    6  C6  UNL     1     -34.201  15.397  -5.939  1.00 20.00     0.026 C 
HETATM    7  C7  UNL     1     -32.910  15.075  -3.793  1.00 20.00     0.026 C 
HETATM    8  O9  UNL     1     -35.068  12.703  -4.286  1.00 20.00    -0.297 OA
ENDROOT
BRANCH   3   9
HETATM    9  O10 UNL     1     -35.890  17.126  -4.332  1.00 20.00    -0.389 OA
HETATM   10  C8  UNL     1     -35.635  18.322  -3.624  1.00 20.00     0.202 C 
ENDBRANCH   3   9
TORSDOF 1
ENDMDL
MODEL 6
REMARK VINA RESULT:      -3.8      1.572      2.911
REMARK  1 active torsions:
REMARK  status: ('A' for Active; 'I' for Inactive)
REMARK    1  A    between atoms: C3_3  and  O10_10 
ROOT
HETATM    1  C1  UNL     1     -34.149  15.657  -5.276  1.00 20.00     0.143 C 
HETATM    2  C2  UNL     1     -34.623  16.919  -4.534  1.00 20.00     0.082 C 
HETATM    3  C3  UNL     1     -34.613  16.081  -3.219  1.00 20.00     0.146 C 
HETATM    4  C4  UNL     1     -33.984  14.848  -3.962  1.00 20.00     0.040 C 
HETATM    5  C5  UNL     1     -33.685  18.108  -4.634  1.00 20.00     0.020 C 
HETATM    6  C6  UNL     1     -32.525  14.535  -3.632  1.00 20.00     0.026 C 
HETATM    7  C7  UNL     1     -34.852  13.593  -3.904  1.00 20.00     0.026 C 
HETATM    8  O9  UNL     1     -33.963  15.400  -6.448  1.00 20.00    -0.297 OA
ENDROOT
BRANCH   3   9
HETATM    9  O10 UNL     1     -33.856  16.626  -2.120  1.00 20.00    -0.389 OA
HETATM   10  C8  UNL     1     -34.612  16.596  -0.927  1.00 20.00     0.202 C 
ENDBRANCH   3   9
TORSDOF 1
ENDMDL
MODEL 7
REMARK VINA RESULT:      -3.8      1.624      3.139
REMARK  1 active torsions:
REMARK  status: ('A' for Active; 'I' for Inactive)
REMARK    1  A    between atoms: C3_3  and  O10_10 
ROOT
HETATM    1  C1  UNL     1     -34.287  15.178  -5.837  1.00 20.00     0.143 C 
HETATM    2  C2  UNL     1     -34.073  14.375  -4.541  1.00 20.00     0.082 C 
HETATM    3  C3  UNL     1     -34.199  15.718  -3.757  1.00 20.00     0.146 C 
HETATM    4  C4  UNL     1     -34.568  16.498  -5.070  1.00 20.00     0.040 C 
HETATM    5  C5  UNL     1     -35.106  13.294  -4.283  1.00 20.00     0.020 C 
HETATM    6  C6  UNL     1     -36.018  16.962  -5.192  1.00 20.00     0.026 C 
HETATM    7  C7  UNL     1     -33.590  17.621  -5.408  1.00 20.00     0.026 C 
HETATM    8  O9  UNL     1     -34.258  14.882  -7.014  1.00 20.00    -0.297 OA
ENDROOT
BRANCH   3   9
HETATM    9  O10 UNL     1     -35.173  15.748  -2.695  1.00 20.00    -0.389 OA
HETATM   10  C8  UNL     1     -34.621  16.316  -1.525  1.00 20.00     0.202 C 
ENDBRANCH   3   9
TORSDOF 1
ENDMDL
MODEL 8
REMARK VINA RESULT:      -3.8      1.791      2.759
REMARK  1 active torsions:
REMARK  status: ('A' for Active; 'I' for Inactive)
REMARK    1  A    between atoms: C3_3  and  O10_10 
ROOT
HETATM    1  C1  UNL     1     -34.976  14.401  -4.783  1.00 20.00     0.143 C 
HETATM    2  C2  UNL     1     -36.040  14.768  -3.734  1.00 20.00     0.082 C 
HETATM    3  C3  UNL     1     -34.879  15.238  -2.805  1.00 20.00     0.146 C 
HETATM    4  C4  UNL     1     -33.820  15.002  -3.941  1.00 20.00     0.040 C 
HETATM    5  C5  UNL     1     -37.056  15.798  -4.190  1.00 20.00     0.020 C 
HETATM    6  C6  UNL     1     -33.215  16.257  -4.568  1.00 20.00     0.026 C 
HETATM    7  C7  UNL     1     -32.742  13.986  -3.569  1.00 20.00     0.026 C 
HETATM    8  O9  UNL     1     -35.029  13.856  -5.867  1.00 20.00    -0.297 OA
ENDROOT
BRANCH   3   9
HETATM    9  O10 UNL     1     -34.979  16.580  -2.287  1.00 20.00    -0.389 OA
HETATM   10  C8  UNL     1     -34.622  16.617  -0.920  1.00 20.00     0.202 C 
ENDBRANCH   3   9
TORSDOF 1
ENDMDL
MODEL 9
REMARK VINA RESULT:      -3.7      1.867      3.667
REMARK  1 active torsions:
REMARK  status: ('A' for Active; 'I' for Inactive)
REMARK    1  A    between atoms: C3_3  and  O10_10 
ROOT
HETATM    1  C1  UNL     1     -33.831  17.542  -3.230  1.00 20.00     0.143 C 
HETATM    2  C2  UNL     1     -33.375  16.430  -4.191  1.00 20.00     0.082 C 
HETATM    3  C3  UNL     1     -34.317  15.455  -3.419  1.00 20.00     0.146 C 
HETATM    4  C4  UNL     1     -34.886  16.632  -2.547  1.00 20.00     0.040 C 
HETATM    5  C5  UNL     1     -33.663  16.695  -5.657  1.00 20.00     0.020 C 
HETATM    6  C6  UNL     1     -36.323  17.057  -2.845  1.00 20.00     0.026 C 
HETATM    7  C7  UNL     1     -34.657  16.447  -1.049  1.00 20.00     0.026 C 
HETATM    8  O9  UNL     1     -33.496  18.699  -3.077  1.00 20.00    -0.297 OA
ENDROOT
BRANCH   3   9
HETATM    9  O10 UNL     1     -35.271  14.724  -4.216  1.00 20.00    -0.389 OA
HETATM   10  C8  UNL     1     -34.994  13.339  -4.182  1.00 20.00     0.202 C 
ENDBRANCH   3   9
TORSDOF 1
ENDMDL
