MODEL 1
REMARK VINA RESULT:      -4.8      0.000      0.000
REMARK  0 active torsions:
REMARK  status: ('A' for Active; 'I' for Inactive)
ROOT
HETATM    1  C1  UNL     1     -33.738  14.252  -3.830  1.00 20.00     0.068 C 
HETATM    2  C2  UNL     1     -34.254  16.411  -1.397  1.00 20.00     0.010 A 
HETATM    3  C3  UNL     1     -35.182  17.262  -0.791  1.00 20.00     0.019 A 
HETATM    4  C4  UNL     1     -35.851  18.149  -2.957  1.00 20.00     0.026 A 
HETATM    5  C5  UNL     1     -34.134  16.446  -2.778  1.00 20.00    -0.034 A 
HETATM    6  C6  UNL     1     -34.921  17.311  -3.547  1.00 20.00    -0.049 A 
HETATM    7  C7  UNL     1     -35.976  18.123  -1.565  1.00 20.00     0.011 A 
HETATM    8  C8  UNL     1     -34.635  17.140  -5.006  1.00 20.00     0.041 C 
HETATM    9  C9  UNL     1     -33.274  16.425  -4.961  1.00 20.00     0.028 C 
HETATM   10  C10 UNL     1     -33.229  15.616  -3.646  1.00 20.00     0.126 C 
HETATM   11  N11 UNL     1     -34.139  13.173  -3.976  1.00 20.00    -0.197 NA
HETATM   12 BR12 UNL     1     -37.231  19.255  -0.716  1.00 20.00    -0.051 Br
ENDROOT
TORSDOF 0
ENDMDL
MODEL 2
REMARK VINA RESULT:      -4.8      2.013      2.901
REMARK  0 active torsions:
REMARK  status: ('A' for Active; 'I' for Inactive)
ROOT
HETATM    1  C1  UNL     1     -34.939  14.956  -6.316  1.00 20.00     0.068 C 
HETATM    2  C2  UNL     1     -36.425  16.510  -3.821  1.00 20.00     0.010 A 
HETATM    3  C3  UNL     1     -36.241  17.311  -2.691  1.00 20.00     0.019 A 
HETATM    4  C4  UNL     1     -34.417  15.892  -1.926  1.00 20.00     0.026 A 
HETATM    5  C5  UNL     1     -35.604  15.405  -3.985  1.00 20.00    -0.034 A 
HETATM    6  C6  UNL     1     -34.615  15.097  -3.043  1.00 20.00    -0.049 A 
HETATM    7  C7  UNL     1     -35.243  17.005  -1.752  1.00 20.00     0.011 A 
HETATM    8  C8  UNL     1     -33.840  13.886  -3.456  1.00 20.00     0.041 C 
HETATM    9  C9  UNL     1     -34.792  13.263  -4.492  1.00 20.00     0.028 C 
HETATM   10  C10 UNL     1     -35.599  14.420  -5.120  1.00 20.00     0.126 C 
HETATM   11  N11 UNL     1     -34.417  15.379  -7.262  1.00 20.00    -0.197 NA
HETATM   12 BR12 UNL     1     -35.012  18.115  -0.238  1.00 20.00    -0.051 Br
ENDROOT
TORSDOF 0
ENDMDL
MODEL 3
REMARK VINA RESULT:      -4.7      4.027      5.599
REMARK  0 active torsions:
REMARK  status: ('A' for Active; 'I' for Inactive)
ROOT
HETATM    1  C1  UNL     1     -34.533  17.020  -1.024  1.00 20.00     0.068 C 
HETATM    2  C2  UNL     1     -32.338  19.076   0.320  1.00 20.00     0.010 A 
HETATM    3  C3  UNL     1     -31.420  19.263   1.356  1.00 20.00     0.019 A 
HETATM    4  C4  UNL     1     -33.034  18.456   2.990  1.00 20.00     0.026 A 
HETATM    5  C5  UNL     1     -33.596  18.585   0.634  1.00 20.00    -0.034 A 
HETATM    6  C6  UNL     1     -33.940  18.285   1.958  1.00 20.00    -0.049 A 
HETATM    7  C7  UNL     1     -31.765  18.953   2.682  1.00 20.00     0.011 A 
HETATM    8  C8  UNL     1     -35.331  17.740   2.038  1.00 20.00     0.041 C 
HETATM    9  C9  UNL     1     -35.909  18.199   0.688  1.00 20.00     0.028 C 
HETATM   10  C10 UNL     1     -34.730  18.284  -0.305  1.00 20.00     0.126 C 
HETATM   11  N11 UNL     1     -34.377  16.020  -1.592  1.00 20.00    -0.197 NA
HETATM   12 BR12 UNL     1     -30.497  19.207   4.061  1.00 20.00    -0.051 Br
ENDROOT
TORSDOF 0
ENDMDL
MODEL 4
REMARK VINA RESULT:      -4.6      2.404      2.616
REMARK  0 active torsions:
REMARK  status: ('A' for Active; 'I' for Inactive)
ROOT
HETATM    1  C1  UNL     1     -37.331  14.509  -4.141  1.00 20.00     0.068 C 
HETATM    2  C2  UNL     1     -34.790  15.498  -2.293  1.00 20.00     0.010 A 
HETATM    3  C3  UNL     1     -34.188  16.582  -1.650  1.00 20.00     0.019 A 
HETATM    4  C4  UNL     1     -34.476  17.973  -3.626  1.00 20.00     0.026 A 
HETATM    5  C5  UNL     1     -35.222  15.666  -3.600  1.00 20.00    -0.034 A 
HETATM    6  C6  UNL     1     -35.060  16.890  -4.260  1.00 20.00    -0.049 A 
HETATM    7  C7  UNL     1     -34.034  17.811  -2.311  1.00 20.00     0.011 A 
HETATM    8  C8  UNL     1     -35.634  16.834  -5.640  1.00 20.00     0.041 C 
HETATM    9  C9  UNL     1     -35.721  15.315  -5.866  1.00 20.00     0.028 C 
HETATM   10  C10 UNL     1     -35.911  14.661  -4.480  1.00 20.00     0.126 C 
HETATM   11  N11 UNL     1     -38.453  14.388  -3.874  1.00 20.00    -0.197 NA
HETATM   12 BR12 UNL     1     -33.225  19.263  -1.408  1.00 20.00    -0.051 Br
ENDROOT
TORSDOF 0
ENDMDL
MODEL 5
REMARK VINA RESULT:      -4.6      2.352      2.733
REMARK  0 active torsions:
REMARK  status: ('A' for Active; 'I' for Inactive)
ROOT
HETATM    1  C1  UNL     1     -36.491  15.134  -6.066  1.00 20.00     0.068 C 
HETATM    2  C2  UNL     1     -35.036  15.110  -3.111  1.00 20.00     0.010 A 
HETATM    3  C3  UNL     1     -34.648  15.882  -2.012  1.00 20.00     0.019 A 
HETATM    4  C4  UNL     1     -33.705  17.579  -3.480  1.00 20.00     0.026 A 
HETATM    5  C5  UNL     1     -34.747  15.582  -4.382  1.00 20.00    -0.034 A 
HETATM    6  C6  UNL     1     -34.083  16.801  -4.562  1.00 20.00    -0.049 A 
HETATM    7  C7  UNL     1     -33.989  17.108  -2.196  1.00 20.00     0.011 A 
HETATM    8  C8  UNL     1     -33.918  17.111  -6.016  1.00 20.00     0.041 C 
HETATM    9  C9  UNL     1     -34.138  15.723  -6.643  1.00 20.00     0.028 C 
HETATM   10  C10 UNL     1     -35.081  14.945  -5.701  1.00 20.00     0.126 C 
HETATM   11  N11 UNL     1     -37.604  15.283  -6.355  1.00 20.00    -0.197 NA
HETATM   12 BR12 UNL     1     -33.488  18.134  -0.689  1.00 20.00    -0.051 Br
ENDROOT
TORSDOF 0
ENDMDL
MODEL 6
REMARK VINA RESULT:      -4.5      3.066      4.335
REMARK  0 active torsions:
REMARK  status: ('A' for Active; 'I' for Inactive)
ROOT
HETATM    1  C1  UNL     1     -33.936  16.328  -2.165  1.00 20.00     0.068 C 
HETATM    2  C2  UNL     1     -34.897  17.099  -5.220  1.00 20.00     0.010 A 
HETATM    3  C3  UNL     1     -35.842  16.866  -6.223  1.00 20.00     0.019 A 
HETATM    4  C4  UNL     1     -35.653  14.461  -5.905  1.00 20.00     0.026 A 
HETATM    5  C5  UNL     1     -34.338  16.006  -4.576  1.00 20.00    -0.034 A 
HETATM    6  C6  UNL     1     -34.709  14.701  -4.921  1.00 20.00    -0.049 A 
HETATM    7  C7  UNL     1     -36.218  15.557  -6.561  1.00 20.00     0.011 A 
HETATM    8  C8  UNL     1     -33.999  13.699  -4.067  1.00 20.00     0.041 C 
HETATM    9  C9  UNL     1     -32.837  14.545  -3.518  1.00 20.00     0.028 C 
HETATM   10  C10 UNL     1     -33.328  16.008  -3.463  1.00 20.00     0.126 C 
HETATM   11  N11 UNL     1     -34.416  16.581  -1.139  1.00 20.00    -0.197 NA
HETATM   12 BR12 UNL     1     -37.508  15.276  -7.915  1.00 20.00    -0.051 Br
ENDROOT
TORSDOF 0
ENDMDL
MODEL 7
REMARK VINA RESULT:      -4.5      3.823      5.095
REMARK  0 active torsions:
REMARK  status: ('A' for Active; 'I' for Inactive)
ROOT
HETATM    1  C1  UNL     1     -35.990  18.251  -1.174  1.00 20.00     0.068 C 
HETATM    2  C2  UNL     1     -35.415  17.511   1.984  1.00 20.00     0.010 A 
HETATM    3  C3  UNL     1     -34.906  17.974   3.200  1.00 20.00     0.019 A 
HETATM    4  C4  UNL     1     -32.923  18.847   2.091  1.00 20.00     0.026 A 
HETATM    5  C5  UNL     1     -34.665  17.718   0.835  1.00 20.00    -0.034 A 
HETATM    6  C6  UNL     1     -33.430  18.374   0.892  1.00 20.00    -0.049 A 
HETATM    7  C7  UNL     1     -33.671  18.638   3.252  1.00 20.00     0.011 A 
HETATM    8  C8  UNL     1     -32.832  18.507  -0.473  1.00 20.00     0.041 C 
HETATM    9  C9  UNL     1     -33.631  17.449  -1.253  1.00 20.00     0.028 C 
HETATM   10  C10 UNL     1     -35.013  17.333  -0.575  1.00 20.00     0.126 C 
HETATM   11  N11 UNL     1     -36.762  18.975  -1.649  1.00 20.00    -0.197 NA
HETATM   12 BR12 UNL     1     -33.015  19.263   4.913  1.00 20.00    -0.051 Br
ENDROOT
TORSDOF 0
ENDMDL
MODEL 8
REMARK VINA RESULT:      -4.5      3.137      4.309
REMARK  0 active torsions:
REMARK  status: ('A' for Active; 'I' for Inactive)
ROOT
HETATM    1  C1  UNL     1     -33.220  18.336  -1.001  1.00 20.00     0.068 C 
HETATM    2  C2  UNL     1     -33.373  15.665  -2.923  1.00 20.00     0.010 A 
HETATM    3  C3  UNL     1     -33.725  15.172  -4.182  1.00 20.00     0.019 A 
HETATM    4  C4  UNL     1     -35.844  16.366  -4.109  1.00 20.00     0.026 A 
HETATM    5  C5  UNL     1     -34.267  16.500  -2.270  1.00 20.00    -0.034 A 
HETATM    6  C6  UNL     1     -35.492  16.841  -2.856  1.00 20.00    -0.049 A 
HETATM    7  C7  UNL     1     -34.950  15.521  -4.771  1.00 20.00     0.011 A 
HETATM    8  C8  UNL     1     -36.263  17.776  -1.980  1.00 20.00     0.041 C 
HETATM    9  C9  UNL     1     -35.561  17.564  -0.627  1.00 20.00     0.028 C 
HETATM   10  C10 UNL     1     -34.101  17.164  -0.932  1.00 20.00     0.126 C 
HETATM   11  N11 UNL     1     -32.524  19.262  -1.055  1.00 20.00    -0.197 NA
HETATM   12 BR12 UNL     1     -35.392  14.846  -6.481  1.00 20.00    -0.051 Br
ENDROOT
TORSDOF 0
ENDMDL
MODEL 9
REMARK VINA RESULT:      -4.5      3.374      4.269
REMARK  0 active torsions:
REMARK  status: ('A' for Active; 'I' for Inactive)
ROOT
HETATM    1  C1  UNL     1     -37.210  14.551  -3.791  1.00 20.00     0.068 C 
HETATM    2  C2  UNL     1     -35.429  17.257  -4.385  1.00 20.00     0.010 A 
HETATM    3  C3  UNL     1     -34.997  18.160  -5.360  1.00 20.00     0.019 A 
HETATM    4  C4  UNL     1     -34.407  16.332  -6.855  1.00 20.00     0.026 A 
HETATM    5  C5  UNL     1     -35.338  15.900  -4.657  1.00 20.00    -0.034 A 
HETATM    6  C6  UNL     1     -34.826  15.445  -5.878  1.00 20.00    -0.049 A 
HETATM    7  C7  UNL     1     -34.491  17.700  -6.586  1.00 20.00     0.011 A 
HETATM    8  C8  UNL     1     -34.863  13.951  -5.950  1.00 20.00     0.041 C 
HETATM    9  C9  UNL     1     -35.012  13.585  -4.463  1.00 20.00     0.028 C 
HETATM   10  C10 UNL     1     -35.756  14.754  -3.781  1.00 20.00     0.126 C 
HETATM   11  N11 UNL     1     -38.359  14.390  -3.798  1.00 20.00    -0.197 NA
HETATM   12 BR12 UNL     1     -33.925  18.948  -7.890  1.00 20.00    -0.051 Br
ENDROOT
TORSDOF 0
ENDMDL
