MODEL 1
REMARK VINA RESULT:      -4.2      0.000      0.000
REMARK  1 active torsions:
REMARK  status: ('A' for Active; 'I' for Inactive)
REMARK       I    between atoms: C1_1  and  N5_5 
REMARK    1  A    between atoms: C4_4  and  N5_5 
ROOT
HETATM    1  C1  UNL     1     -33.344   6.136   3.395  1.00 20.00     0.314 C 
HETATM    2  N5  UNL     1     -33.811   6.136   4.709  1.00 20.00    -0.343 N 
HETATM    3  O6  UNL     1     -33.860   5.470   2.500  1.00 20.00    -0.254 OA
HETATM    4 CL7  UNL     1     -31.961   7.179   3.179  1.00 20.00    -0.020 Cl
HETATM    5  H13 UNL     1     -33.325   6.719   5.394  1.00 20.00     0.164 HD
ENDROOT
BRANCH   2   6
HETATM    6  C4  UNL     1     -34.924   5.372   5.146  1.00 20.00     0.085 A 
HETATM    7  C2  UNL     1     -34.805   3.893   5.392  1.00 20.00     0.027 A 
HETATM    8  C3  UNL     1     -34.997   4.831   6.547  1.00 20.00     0.027 A 
ENDBRANCH   2   6
TORSDOF 1
ENDMDL
MODEL 2
REMARK VINA RESULT:      -3.9      1.180      1.425
REMARK  1 active torsions:
REMARK  status: ('A' for Active; 'I' for Inactive)
REMARK       I    between atoms: C1_1  and  N5_5 
REMARK    1  A    between atoms: C4_4  and  N5_5 
ROOT
HETATM    1  C1  UNL     1     -32.542   6.572   3.198  1.00 20.00     0.314 C 
HETATM    2  N5  UNL     1     -33.553   6.542   4.157  1.00 20.00    -0.343 N 
HETATM    3  O6  UNL     1     -31.847   5.595   2.926  1.00 20.00    -0.254 OA
HETATM    4 CL7  UNL     1     -32.386   8.137   2.442  1.00 20.00    -0.020 Cl
HETATM    5  H13 UNL     1     -34.086   7.399   4.324  1.00 20.00     0.164 HD
ENDROOT
BRANCH   2   6
HETATM    6  C4  UNL     1     -33.883   5.388   4.915  1.00 20.00     0.085 A 
HETATM    7  C2  UNL     1     -34.680   5.493   6.185  1.00 20.00     0.027 A 
HETATM    8  C3  UNL     1     -35.292   4.866   4.967  1.00 20.00     0.027 A 
ENDBRANCH   2   6
TORSDOF 1
ENDMDL
MODEL 3
REMARK VINA RESULT:      -3.9      2.391      3.648
REMARK  1 active torsions:
REMARK  status: ('A' for Active; 'I' for Inactive)
REMARK       I    between atoms: C1_1  and  N5_5 
REMARK    1  A    between atoms: C4_4  and  N5_5 
ROOT
HETATM    1  C1  UNL     1     -34.975   5.177   4.792  1.00 20.00     0.314 C 
HETATM    2  N5  UNL     1     -33.729   5.796   4.715  1.00 20.00    -0.343 N 
HETATM    3  O6  UNL     1     -35.822   5.262   3.905  1.00 20.00    -0.254 OA
HETATM    4 CL7  UNL     1     -35.185   4.283   6.277  1.00 20.00    -0.020 Cl
HETATM    5  H13 UNL     1     -33.081   5.677   5.496  1.00 20.00     0.164 HD
ENDROOT
BRANCH   2   6
HETATM    6  C4  UNL     1     -33.311   6.583   3.610  1.00 20.00     0.085 A 
HETATM    7  C2  UNL     1     -31.964   7.249   3.594  1.00 20.00     0.027 A 
HETATM    8  C3  UNL     1     -32.242   6.101   2.669  1.00 20.00     0.027 A 
ENDBRANCH   2   6
TORSDOF 1
ENDMDL
MODEL 4
REMARK VINA RESULT:      -3.6     12.357     13.652
REMARK  1 active torsions:
REMARK  status: ('A' for Active; 'I' for Inactive)
REMARK       I    between atoms: C1_1  and  N5_5 
REMARK    1  A    between atoms: C4_4  and  N5_5 
ROOT
HETATM    1  C1  UNL     1     -34.225  13.499  -4.602  1.00 20.00     0.314 C 
HETATM    2  N5  UNL     1     -34.240  14.315  -5.732  1.00 20.00    -0.343 N 
HETATM    3  O6  UNL     1     -35.076  12.638  -4.386  1.00 20.00    -0.254 OA
HETATM    4 CL7  UNL     1     -32.876  13.841  -3.550  1.00 20.00    -0.020 Cl
HETATM    5  H13 UNL     1     -33.494  15.007  -5.838  1.00 20.00     0.164 HD
ENDROOT
BRANCH   2   6
HETATM    6  C4  UNL     1     -35.232  14.237  -6.744  1.00 20.00     0.085 A 
HETATM    7  C2  UNL     1     -36.297  15.290  -6.872  1.00 20.00     0.027 A 
HETATM    8  C3  UNL     1     -35.226  15.178  -7.917  1.00 20.00     0.027 A 
ENDBRANCH   2   6
TORSDOF 1
ENDMDL
MODEL 5
REMARK VINA RESULT:      -3.4     12.593     12.786
REMARK  1 active torsions:
REMARK  status: ('A' for Active; 'I' for Inactive)
REMARK       I    between atoms: C1_1  and  N5_5 
REMARK    1  A    between atoms: C4_4  and  N5_5 
ROOT
HETATM    1  C1  UNL     1     -34.919  13.829  -5.173  1.00 20.00     0.314 C 
HETATM    2  N5  UNL     1     -34.700  15.020  -4.484  1.00 20.00    -0.343 N 
HETATM    3  O6  UNL     1     -34.867  12.725  -4.636  1.00 20.00    -0.254 OA
HETATM    4 CL7  UNL     1     -35.269  14.091  -6.863  1.00 20.00    -0.020 Cl
HETATM    5  H13 UNL     1     -34.762  15.899  -5.004  1.00 20.00     0.164 HD
ENDROOT
BRANCH   2   6
HETATM    6  C4  UNL     1     -34.397  15.081  -3.098  1.00 20.00     0.085 A 
HETATM    7  C2  UNL     1     -33.666  16.256  -2.512  1.00 20.00     0.027 A 
HETATM    8  C3  UNL     1     -35.113  16.037  -2.184  1.00 20.00     0.027 A 
ENDBRANCH   2   6
TORSDOF 1
ENDMDL
MODEL 6
REMARK VINA RESULT:      -3.4      2.956      4.702
REMARK  1 active torsions:
REMARK  status: ('A' for Active; 'I' for Inactive)
REMARK       I    between atoms: C1_1  and  N5_5 
REMARK    1  A    between atoms: C4_4  and  N5_5 
ROOT
HETATM    1  C1  UNL     1     -32.955   6.289   3.183  1.00 20.00     0.314 C 
HETATM    2  N5  UNL     1     -33.143   7.574   2.678  1.00 20.00    -0.343 N 
HETATM    3  O6  UNL     1     -31.850   5.754   3.261  1.00 20.00    -0.254 OA
HETATM    4 CL7  UNL     1     -34.451   5.542   3.684  1.00 20.00    -0.020 Cl
HETATM    5  H13 UNL     1     -34.095   7.946   2.648  1.00 20.00     0.164 HD
ENDROOT
BRANCH   2   6
HETATM    6  C4  UNL     1     -32.086   8.394   2.205  1.00 20.00     0.085 A 
HETATM    7  C2  UNL     1     -31.800   8.524   0.735  1.00 20.00     0.027 A 
HETATM    8  C3  UNL     1     -32.363   9.690   1.493  1.00 20.00     0.027 A 
ENDBRANCH   2   6
TORSDOF 1
ENDMDL
MODEL 7
REMARK VINA RESULT:      -3.3     12.267     12.519
REMARK  1 active torsions:
REMARK  status: ('A' for Active; 'I' for Inactive)
REMARK       I    between atoms: C1_1  and  N5_5 
REMARK    1  A    between atoms: C4_4  and  N5_5 
ROOT
HETATM    1  C1  UNL     1     -34.289  16.581  -1.906  1.00 20.00     0.314 C 
HETATM    2  N5  UNL     1     -34.747  15.349  -2.369  1.00 20.00    -0.343 N 
HETATM    3  O6  UNL     1     -33.620  17.350  -2.594  1.00 20.00    -0.254 OA
HETATM    4 CL7  UNL     1     -34.770  16.895  -0.258  1.00 20.00    -0.020 Cl
HETATM    5  H13 UNL     1     -35.298  14.768  -1.733  1.00 20.00     0.164 HD
ENDROOT
BRANCH   2   6
HETATM    6  C4  UNL     1     -34.491  14.858  -3.676  1.00 20.00     0.085 A 
HETATM    7  C2  UNL     1     -33.556  13.703  -3.904  1.00 20.00     0.027 A 
HETATM    8  C3  UNL     1     -35.030  13.529  -4.129  1.00 20.00     0.027 A 
ENDBRANCH   2   6
TORSDOF 1
ENDMDL
MODEL 8
REMARK VINA RESULT:      -3.3     12.190     12.546
REMARK  1 active torsions:
REMARK  status: ('A' for Active; 'I' for Inactive)
REMARK       I    between atoms: C1_1  and  N5_5 
REMARK    1  A    between atoms: C4_4  and  N5_5 
ROOT
HETATM    1  C1  UNL     1     -34.492  14.869  -3.235  1.00 20.00     0.314 C 
HETATM    2  N5  UNL     1     -33.741  15.849  -2.589  1.00 20.00    -0.343 N 
HETATM    3  O6  UNL     1     -35.720  14.889  -3.284  1.00 20.00    -0.254 OA
HETATM    4 CL7  UNL     1     -33.494  13.631  -3.955  1.00 20.00    -0.020 Cl
HETATM    5  H13 UNL     1     -32.723  15.760  -2.594  1.00 20.00     0.164 HD
ENDROOT
BRANCH   2   6
HETATM    6  C4  UNL     1     -34.314  16.965  -1.924  1.00 20.00     0.085 A 
HETATM    7  C2  UNL     1     -34.708  16.890  -0.475  1.00 20.00     0.027 A 
HETATM    8  C3  UNL     1     -33.542  17.738  -0.891  1.00 20.00     0.027 A 
ENDBRANCH   2   6
TORSDOF 1
ENDMDL
MODEL 9
REMARK VINA RESULT:      -3.2     10.611     10.776
REMARK  1 active torsions:
REMARK  status: ('A' for Active; 'I' for Inactive)
REMARK       I    between atoms: C1_1  and  N5_5 
REMARK    1  A    between atoms: C4_4  and  N5_5 
ROOT
HETATM    1  C1  UNL     1     -42.475   7.442  -3.628  1.00 20.00     0.314 C 
HETATM    2  N5  UNL     1     -41.728   7.498  -2.453  1.00 20.00    -0.343 N 
HETATM    3  O6  UNL     1     -43.347   6.598  -3.828  1.00 20.00    -0.254 OA
HETATM    4 CL7  UNL     1     -42.032   8.693  -4.761  1.00 20.00    -0.020 Cl
HETATM    5  H13 UNL     1     -41.021   8.232  -2.364  1.00 20.00     0.164 HD
ENDROOT
BRANCH   2   6
HETATM    6  C4  UNL     1     -41.895   6.593  -1.372  1.00 20.00     0.085 A 
HETATM    7  C2  UNL     1     -41.185   5.268  -1.350  1.00 20.00     0.027 A 
HETATM    8  C3  UNL     1     -40.789   6.345  -0.384  1.00 20.00     0.027 A 
ENDBRANCH   2   6
TORSDOF 1
ENDMDL
