MODEL 1
REMARK VINA RESULT:      -4.2      0.000      0.000
REMARK  0 active torsions:
REMARK  status: ('A' for Active; 'I' for Inactive)
ROOT
HETATM    1  C1  UNL     1     -32.807  14.718  -3.679  1.00 20.00     0.007 C 
HETATM    2  C2  UNL     1     -33.310  15.994  -4.370  1.00 20.00     0.027 C 
HETATM    3  C3  UNL     1     -34.491  13.340  -4.910  1.00 20.00     0.027 C 
HETATM    4  C4  UNL     1     -35.144  14.962  -3.269  1.00 20.00     0.032 C 
HETATM    5  C5  UNL     1     -34.088  13.881  -3.522  1.00 20.00    -0.011 C 
HETATM    6  C6  UNL     1     -35.065  14.588  -5.607  1.00 20.00     0.106 C 
HETATM    7  C7  UNL     1     -34.811  15.703  -4.568  1.00 20.00     0.054 C 
HETATM    8 CL8  UNL     1     -34.340  14.878  -7.198  1.00 20.00    -0.123 Cl
HETATM    9 CL9  UNL     1     -35.766  17.151  -4.840  1.00 20.00    -0.118 Cl
ENDROOT
TORSDOF 0
ENDMDL
MODEL 2
REMARK VINA RESULT:      -4.2     12.113     13.025
REMARK  0 active torsions:
REMARK  status: ('A' for Active; 'I' for Inactive)
ROOT
HETATM    1  C1  UNL     1     -42.297   5.388   0.593  1.00 20.00     0.007 C 
HETATM    2  C2  UNL     1     -42.848   4.424  -0.467  1.00 20.00     0.027 C 
HETATM    3  C3  UNL     1     -41.341   6.861  -1.185  1.00 20.00     0.027 C 
HETATM    4  C4  UNL     1     -40.507   4.647  -0.797  1.00 20.00     0.032 C 
HETATM    5  C5  UNL     1     -40.988   5.889  -0.041  1.00 20.00    -0.011 C 
HETATM    6  C6  UNL     1     -41.835   5.914  -2.294  1.00 20.00     0.106 C 
HETATM    7  C7  UNL     1     -41.808   4.535  -1.600  1.00 20.00     0.054 C 
HETATM    8 CL8  UNL     1     -43.416   6.386  -2.943  1.00 20.00    -0.123 Cl
HETATM    9 CL9  UNL     1     -41.855   3.181  -2.717  1.00 20.00    -0.118 Cl
ENDROOT
TORSDOF 0
ENDMDL
MODEL 3
REMARK VINA RESULT:      -4.1      1.048      2.624
REMARK  0 active torsions:
REMARK  status: ('A' for Active; 'I' for Inactive)
ROOT
HETATM    1  C1  UNL     1     -35.832  15.041  -3.501  1.00 20.00     0.007 C 
HETATM    2  C2  UNL     1     -35.841  15.489  -4.971  1.00 20.00     0.027 C 
HETATM    3  C3  UNL     1     -33.380  15.498  -3.336  1.00 20.00     0.027 C 
HETATM    4  C4  UNL     1     -34.248  13.745  -4.724  1.00 20.00     0.032 C 
HETATM    5  C5  UNL     1     -34.449  14.385  -3.347  1.00 20.00    -0.011 C 
HETATM    6  C6  UNL     1     -33.316  15.921  -4.815  1.00 20.00     0.106 C 
HETATM    7  C7  UNL     1     -34.438  15.077  -5.459  1.00 20.00     0.054 C 
HETATM    8 CL8  UNL     1     -33.489  17.672  -5.034  1.00 20.00    -0.123 Cl
HETATM    9 CL9  UNL     1     -34.320  14.962  -7.207  1.00 20.00    -0.118 Cl
ENDROOT
TORSDOF 0
ENDMDL
MODEL 4
REMARK VINA RESULT:      -4.1      1.572      2.754
REMARK  0 active torsions:
REMARK  status: ('A' for Active; 'I' for Inactive)
ROOT
HETATM    1  C1  UNL     1     -36.385  14.353  -4.266  1.00 20.00     0.007 C 
HETATM    2  C2  UNL     1     -35.961  15.801  -4.553  1.00 20.00     0.027 C 
HETATM    3  C3  UNL     1     -34.067  13.777  -3.530  1.00 20.00     0.027 C 
HETATM    4  C4  UNL     1     -34.564  14.345  -5.806  1.00 20.00     0.032 C 
HETATM    5  C5  UNL     1     -35.127  13.545  -4.626  1.00 20.00    -0.011 C 
HETATM    6  C6  UNL     1     -33.571  15.203  -3.835  1.00 20.00     0.106 C 
HETATM    7  C7  UNL     1     -34.492  15.642  -4.994  1.00 20.00     0.054 C 
HETATM    8 CL8  UNL     1     -33.613  16.261  -2.413  1.00 20.00    -0.123 Cl
HETATM    9 CL9  UNL     1     -33.886  17.024  -5.892  1.00 20.00    -0.118 Cl
ENDROOT
TORSDOF 0
ENDMDL
MODEL 5
REMARK VINA RESULT:      -4.1      1.601      2.383
REMARK  0 active torsions:
REMARK  status: ('A' for Active; 'I' for Inactive)
ROOT
HETATM    1  C1  UNL     1     -34.748  13.291  -4.584  1.00 20.00     0.007 C 
HETATM    2  C2  UNL     1     -33.999  14.069  -3.492  1.00 20.00     0.027 C 
HETATM    3  C3  UNL     1     -35.492  15.424  -5.651  1.00 20.00     0.027 C 
HETATM    4  C4  UNL     1     -36.272  14.758  -3.484  1.00 20.00     0.032 C 
HETATM    5  C5  UNL     1     -35.968  14.182  -4.870  1.00 20.00    -0.011 C 
HETATM    6  C6  UNL     1     -34.793  16.262  -4.564  1.00 20.00     0.106 C 
HETATM    7  C7  UNL     1     -34.861  15.337  -3.328  1.00 20.00     0.054 C 
HETATM    8 CL8  UNL     1     -33.156  16.758  -5.029  1.00 20.00    -0.123 Cl
HETATM    9 CL9  UNL     1     -34.584  16.170  -1.807  1.00 20.00    -0.118 Cl
ENDROOT
TORSDOF 0
ENDMDL
MODEL 6
REMARK VINA RESULT:      -4.0      1.294      2.519
REMARK  0 active torsions:
REMARK  status: ('A' for Active; 'I' for Inactive)
ROOT
HETATM    1  C1  UNL     1     -33.415  13.762  -3.790  1.00 20.00     0.007 C 
HETATM    2  C2  UNL     1     -34.380  13.820  -4.983  1.00 20.00     0.027 C 
HETATM    3  C3  UNL     1     -34.628  15.635  -2.665  1.00 20.00     0.027 C 
HETATM    4  C4  UNL     1     -33.403  15.966  -4.700  1.00 20.00     0.032 C 
HETATM    5  C5  UNL     1     -33.309  15.234  -3.358  1.00 20.00    -0.011 C 
HETATM    6  C6  UNL     1     -35.605  15.769  -3.849  1.00 20.00     0.106 C 
HETATM    7  C7  UNL     1     -34.746  15.316  -5.050  1.00 20.00     0.054 C 
HETATM    8 CL8  UNL     1     -37.097  14.842  -3.613  1.00 20.00    -0.123 Cl
HETATM    9 CL9  UNL     1     -35.399  15.800  -6.607  1.00 20.00    -0.118 Cl
ENDROOT
TORSDOF 0
ENDMDL
MODEL 7
REMARK VINA RESULT:      -4.0     12.476     13.324
REMARK  0 active torsions:
REMARK  status: ('A' for Active; 'I' for Inactive)
ROOT
HETATM    1  C1  UNL     1     -40.720   6.172  -0.231  1.00 20.00     0.007 C 
HETATM    2  C2  UNL     1     -40.693   4.748  -0.807  1.00 20.00     0.027 C 
HETATM    3  C3  UNL     1     -43.219   6.182  -0.270  1.00 20.00     0.027 C 
HETATM    4  C4  UNL     1     -41.925   6.137  -2.288  1.00 20.00     0.032 C 
HETATM    5  C5  UNL     1     -41.954   6.795  -0.905  1.00 20.00    -0.011 C 
HETATM    6  C6  UNL     1     -43.258   4.770  -0.885  1.00 20.00     0.106 C 
HETATM    7  C7  UNL     1     -41.948   4.721  -1.702  1.00 20.00     0.054 C 
HETATM    8 CL8  UNL     1     -43.417   3.496   0.337  1.00 20.00    -0.123 Cl
HETATM    9 CL9  UNL     1     -41.913   3.440  -2.903  1.00 20.00    -0.118 Cl
ENDROOT
TORSDOF 0
ENDMDL
MODEL 8
REMARK VINA RESULT:      -3.9      1.555      2.069
REMARK  0 active torsions:
REMARK  status: ('A' for Active; 'I' for Inactive)
ROOT
HETATM    1  C1  UNL     1     -33.676  16.703  -4.297  1.00 20.00     0.007 C 
HETATM    2  C2  UNL     1     -35.121  16.340  -4.670  1.00 20.00     0.027 C 
HETATM    3  C3  UNL     1     -33.236  14.358  -3.553  1.00 20.00     0.027 C 
HETATM    4  C4  UNL     1     -34.770  15.786  -2.387  1.00 20.00     0.032 C 
HETATM    5  C5  UNL     1     -33.400  15.815  -3.072  1.00 20.00    -0.011 C 
HETATM    6  C6  UNL     1     -34.684  13.941  -3.870  1.00 20.00     0.106 C 
HETATM    7  C7  UNL     1     -35.472  15.249  -3.639  1.00 20.00     0.054 C 
HETATM    8 CL8  UNL     1     -34.856  13.249  -5.494  1.00 20.00    -0.123 Cl
HETATM    9 CL9  UNL     1     -37.201  15.006  -3.451  1.00 20.00    -0.118 Cl
ENDROOT
TORSDOF 0
ENDMDL
MODEL 9
REMARK VINA RESULT:      -3.9      1.978      3.033
REMARK  0 active torsions:
REMARK  status: ('A' for Active; 'I' for Inactive)
ROOT
HETATM    1  C1  UNL     1     -34.302  15.267  -7.067  1.00 20.00     0.007 C 
HETATM    2  C2  UNL     1     -35.119  14.265  -6.239  1.00 20.00     0.027 C 
HETATM    3  C3  UNL     1     -33.250  16.183  -4.994  1.00 20.00     0.027 C 
HETATM    4  C4  UNL     1     -35.588  16.454  -5.449  1.00 20.00     0.032 C 
HETATM    5  C5  UNL     1     -34.226  16.496  -6.147  1.00 20.00    -0.011 C 
HETATM    6  C6  UNL     1     -34.070  15.229  -4.105  1.00 20.00     0.106 C 
HETATM    7  C7  UNL     1     -35.365  15.032  -4.925  1.00 20.00     0.054 C 
HETATM    8 CL8  UNL     1     -33.201  13.733  -3.722  1.00 20.00    -0.123 Cl
HETATM    9 CL9  UNL     1     -36.702  14.388  -3.987  1.00 20.00    -0.118 Cl
ENDROOT
TORSDOF 0
ENDMDL
