MODEL 1
REMARK VINA RESULT:      -4.5      0.000      0.000
REMARK  1 active torsions:
REMARK  status: ('A' for Active; 'I' for Inactive)
REMARK    1  A    between atoms: C1_1  and  C5_5 
ROOT
HETATM    1  C1  UNL     1     -34.154   5.896   4.086  1.00 20.00    -0.089 C 
HETATM    2  C2  UNL     1     -33.331   6.550   3.506  1.00 20.00    -0.023 C 
HETATM    3 BR6  UNL     1     -32.029   7.585   2.588  1.00 20.00     0.010 Br
ENDROOT
BRANCH   1   4
HETATM    4  C5  UNL     1     -35.136   5.116   4.778  1.00 20.00     0.066 A 
HETATM    5  C3  UNL     1     -35.033   4.980   6.274  1.00 20.00     0.018 A 
HETATM    6  C4  UNL     1     -34.721   3.807   5.394  1.00 20.00     0.018 A 
ENDBRANCH   1   4
TORSDOF 1
ENDMDL
MODEL 2
REMARK VINA RESULT:      -3.9      0.911      1.280
REMARK  1 active torsions:
REMARK  status: ('A' for Active; 'I' for Inactive)
REMARK    1  A    between atoms: C1_1  and  C5_5 
ROOT
HETATM    1  C1  UNL     1     -33.271   6.123   3.833  1.00 20.00    -0.089 C 
HETATM    2  C2  UNL     1     -32.791   6.959   3.117  1.00 20.00    -0.023 C 
HETATM    3 BR6  UNL     1     -32.032   8.282   1.984  1.00 20.00     0.010 Br
ENDROOT
BRANCH   1   4
HETATM    4  C5  UNL     1     -33.843   5.126   4.688  1.00 20.00     0.066 A 
HETATM    5  C3  UNL     1     -35.342   5.000   4.755  1.00 20.00     0.018 A 
HETATM    6  C4  UNL     1     -34.586   5.566   5.920  1.00 20.00     0.018 A 
ENDBRANCH   1   4
TORSDOF 1
ENDMDL
MODEL 3
REMARK VINA RESULT:      -3.6      2.585      4.240
REMARK  1 active torsions:
REMARK  status: ('A' for Active; 'I' for Inactive)
REMARK    1  A    between atoms: C1_1  and  C5_5 
ROOT
HETATM    1  C1  UNL     1     -33.129   6.049   3.836  1.00 20.00    -0.089 C 
HETATM    2  C2  UNL     1     -33.890   5.567   4.630  1.00 20.00    -0.023 C 
HETATM    3 BR6  UNL     1     -35.094   4.805   5.887  1.00 20.00     0.010 Br
ENDROOT
BRANCH   1   4
HETATM    4  C5  UNL     1     -32.221   6.623   2.889  1.00 20.00     0.066 A 
HETATM    5  C3  UNL     1     -31.346   7.768   3.325  1.00 20.00     0.018 A 
HETATM    6  C4  UNL     1     -32.485   8.015   2.382  1.00 20.00     0.018 A 
ENDBRANCH   1   4
TORSDOF 1
ENDMDL
MODEL 4
REMARK VINA RESULT:      -3.5      2.869      4.970
REMARK  1 active torsions:
REMARK  status: ('A' for Active; 'I' for Inactive)
REMARK    1  A    between atoms: C1_1  and  C5_5 
ROOT
HETATM    1  C1  UNL     1     -32.657   7.359   2.888  1.00 20.00    -0.089 C 
HETATM    2  C2  UNL     1     -33.373   6.574   3.448  1.00 20.00    -0.023 C 
HETATM    3 BR6  UNL     1     -34.506   5.332   4.334  1.00 20.00     0.010 Br
ENDROOT
BRANCH   1   4
HETATM    4  C5  UNL     1     -31.803   8.296   2.221  1.00 20.00     0.066 A 
HETATM    5  C3  UNL     1     -32.410   9.544   1.638  1.00 20.00     0.018 A 
HETATM    6  C4  UNL     1     -31.925   8.454   0.730  1.00 20.00     0.018 A 
ENDBRANCH   1   4
TORSDOF 1
ENDMDL
MODEL 5
REMARK VINA RESULT:      -3.3     11.850     12.273
REMARK  1 active torsions:
REMARK  status: ('A' for Active; 'I' for Inactive)
REMARK    1  A    between atoms: C1_1  and  C5_5 
ROOT
HETATM    1  C1  UNL     1     -34.413  15.686  -2.585  1.00 20.00    -0.089 C 
HETATM    2  C2  UNL     1     -34.583  16.313  -1.575  1.00 20.00    -0.023 C 
HETATM    3 BR6  UNL     1     -34.852  17.306   0.023  1.00 20.00     0.010 Br
ENDROOT
BRANCH   1   4
HETATM    4  C5  UNL     1     -34.212  14.938  -3.790  1.00 20.00     0.066 A 
HETATM    5  C3  UNL     1     -34.844  13.578  -3.914  1.00 20.00     0.018 A 
HETATM    6  C4  UNL     1     -33.360  13.698  -3.740  1.00 20.00     0.018 A 
ENDBRANCH   1   4
TORSDOF 1
ENDMDL
MODEL 6
REMARK VINA RESULT:      -3.1     12.135     12.601
REMARK  1 active torsions:
REMARK  status: ('A' for Active; 'I' for Inactive)
REMARK    1  A    between atoms: C1_1  and  C5_5 
ROOT
HETATM    1  C1  UNL     1     -34.642  16.060  -2.357  1.00 20.00    -0.089 C 
HETATM    2  C2  UNL     1     -34.525  15.082  -3.043  1.00 20.00    -0.023 C 
HETATM    3 BR6  UNL     1     -34.339  13.533  -4.129  1.00 20.00     0.010 Br
ENDROOT
BRANCH   1   4
HETATM    4  C5  UNL     1     -34.781  17.227  -1.538  1.00 20.00     0.066 A 
HETATM    5  C3  UNL     1     -33.600  17.690  -0.728  1.00 20.00     0.018 A 
HETATM    6  C4  UNL     1     -34.779  17.067  -0.041  1.00 20.00     0.018 A 
ENDBRANCH   1   4
TORSDOF 1
ENDMDL
MODEL 7
REMARK VINA RESULT:      -3.1      9.484      9.992
REMARK  1 active torsions:
REMARK  status: ('A' for Active; 'I' for Inactive)
REMARK    1  A    between atoms: C1_1  and  C5_5 
ROOT
HETATM    1  C1  UNL     1     -41.097   4.315  -1.627  1.00 20.00    -0.089 C 
HETATM    2  C2  UNL     1     -41.373   3.426  -2.386  1.00 20.00    -0.023 C 
HETATM    3 BR6  UNL     1     -41.811   2.020  -3.587  1.00 20.00     0.010 Br
ENDROOT
BRANCH   1   4
HETATM    4  C5  UNL     1     -40.767   5.375  -0.723  1.00 20.00     0.066 A 
HETATM    5  C3  UNL     1     -41.882   6.098  -0.015  1.00 20.00     0.018 A 
HETATM    6  C4  UNL     1     -41.116   6.789  -1.103  1.00 20.00     0.018 A 
ENDBRANCH   1   4
TORSDOF 1
ENDMDL
MODEL 8
REMARK VINA RESULT:      -3.0     12.010     12.644
REMARK  1 active torsions:
REMARK  status: ('A' for Active; 'I' for Inactive)
REMARK    1  A    between atoms: C1_1  and  C5_5 
ROOT
HETATM    1  C1  UNL     1     -34.245  16.224  -1.881  1.00 20.00    -0.089 C 
HETATM    2  C2  UNL     1     -34.585  16.750  -0.857  1.00 20.00    -0.023 C 
HETATM    3 BR6  UNL     1     -35.123  17.583   0.764  1.00 20.00     0.010 Br
ENDROOT
BRANCH   1   4
HETATM    4  C5  UNL     1     -33.839  15.597  -3.103  1.00 20.00     0.066 A 
HETATM    5  C3  UNL     1     -34.851  15.431  -4.205  1.00 20.00     0.018 A 
HETATM    6  C4  UNL     1     -34.382  14.233  -3.434  1.00 20.00     0.018 A 
ENDBRANCH   1   4
TORSDOF 1
ENDMDL
MODEL 9
REMARK VINA RESULT:      -3.0      9.693     10.058
REMARK  1 active torsions:
REMARK  status: ('A' for Active; 'I' for Inactive)
REMARK    1  A    between atoms: C1_1  and  C5_5 
ROOT
HETATM    1  C1  UNL     1     -41.575   6.836  -1.917  1.00 20.00    -0.089 C 
HETATM    2  C2  UNL     1     -42.131   7.368  -2.838  1.00 20.00    -0.023 C 
HETATM    3 BR6  UNL     1     -43.010   8.212  -4.296  1.00 20.00     0.010 Br
ENDROOT
BRANCH   1   4
HETATM    4  C5  UNL     1     -40.912   6.200  -0.818  1.00 20.00     0.066 A 
HETATM    5  C3  UNL     1     -40.719   4.708  -0.851  1.00 20.00     0.018 A 
HETATM    6  C4  UNL     1     -41.711   5.312   0.097  1.00 20.00     0.018 A 
ENDBRANCH   1   4
TORSDOF 1
ENDMDL
