MODEL 1
REMARK VINA RESULT:      -4.0      0.000      0.000
REMARK  1 active torsions:
REMARK  status: ('A' for Active; 'I' for Inactive)
REMARK    1  A    between atoms: C2_2  and  C3_3 
ROOT
HETATM    1  C1  UNL     1     -33.185   5.523   3.979  1.00 20.00     0.060 C 
HETATM    2  C2  UNL     1     -34.424   5.555   4.869  1.00 20.00     0.206 C 
HETATM    3 CL7  UNL     1     -34.205   6.808   6.131  1.00 20.00    -0.092 Cl
HETATM    4 CL8  UNL     1     -35.847   6.000   3.873  1.00 20.00    -0.092 Cl
ENDROOT
BRANCH   2   5
HETATM    5  C3  UNL     1     -34.670   4.207   5.531  1.00 20.00     0.422 C 
HETATM    6  F4  UNL     1     -35.610   4.297   6.498  1.00 20.00    -0.168 F 
HETATM    7  F5  UNL     1     -35.104   3.290   4.635  1.00 20.00    -0.168 F 
HETATM    8  F6  UNL     1     -33.547   3.716   6.101  1.00 20.00    -0.168 F 
ENDBRANCH   2   5
TORSDOF 1
ENDMDL
MODEL 2
REMARK VINA RESULT:      -4.0      1.202      1.715
REMARK  1 active torsions:
REMARK  status: ('A' for Active; 'I' for Inactive)
REMARK    1  A    between atoms: C2_2  and  C3_3 
ROOT
HETATM    1  C1  UNL     1     -35.495   6.118   4.088  1.00 20.00     0.060 C 
HETATM    2  C2  UNL     1     -34.349   5.611   4.957  1.00 20.00     0.206 C 
HETATM    3 CL7  UNL     1     -32.861   5.513   3.964  1.00 20.00    -0.092 Cl
HETATM    4 CL8  UNL     1     -34.063   6.778   6.288  1.00 20.00    -0.092 Cl
ENDROOT
BRANCH   2   5
HETATM    5  C3  UNL     1     -34.657   4.241   5.543  1.00 20.00     0.422 C 
HETATM    6  F4  UNL     1     -35.615   4.315   6.494  1.00 20.00    -0.168 F 
HETATM    7  F5  UNL     1     -35.105   3.388   4.592  1.00 20.00    -0.168 F 
HETATM    8  F6  UNL     1     -33.565   3.679   6.108  1.00 20.00    -0.168 F 
ENDBRANCH   2   5
TORSDOF 1
ENDMDL
MODEL 3
REMARK VINA RESULT:      -3.9      1.167      1.691
REMARK  1 active torsions:
REMARK  status: ('A' for Active; 'I' for Inactive)
REMARK    1  A    between atoms: C2_2  and  C3_3 
ROOT
HETATM    1  C1  UNL     1     -34.161   6.669   5.837  1.00 20.00     0.060 C 
HETATM    2  C2  UNL     1     -34.411   5.554   4.827  1.00 20.00     0.206 C 
HETATM    3 CL7  UNL     1     -35.843   5.974   3.835  1.00 20.00    -0.092 Cl
HETATM    4 CL8  UNL     1     -32.992   5.418   3.740  1.00 20.00    -0.092 Cl
ENDROOT
BRANCH   2   5
HETATM    5  C3  UNL     1     -34.649   4.219   5.518  1.00 20.00     0.422 C 
HETATM    6  F4  UNL     1     -35.603   4.320   6.470  1.00 20.00    -0.168 F 
HETATM    7  F5  UNL     1     -35.061   3.275   4.639  1.00 20.00    -0.168 F 
HETATM    8  F6  UNL     1     -33.528   3.756   6.115  1.00 20.00    -0.168 F 
ENDBRANCH   2   5
TORSDOF 1
ENDMDL
MODEL 4
REMARK VINA RESULT:      -3.7      2.315      3.211
REMARK  1 active torsions:
REMARK  status: ('A' for Active; 'I' for Inactive)
REMARK    1  A    between atoms: C2_2  and  C3_3 
ROOT
HETATM    1  C1  UNL     1     -34.370   4.027   4.923  1.00 20.00     0.060 C 
HETATM    2  C2  UNL     1     -34.493   5.498   4.536  1.00 20.00     0.206 C 
HETATM    3 CL7  UNL     1     -36.140   5.798   3.898  1.00 20.00    -0.092 Cl
HETATM    4 CL8  UNL     1     -34.260   6.509   5.997  1.00 20.00    -0.092 Cl
ENDROOT
BRANCH   2   5
HETATM    5  C3  UNL     1     -33.464   5.885   3.483  1.00 20.00     0.422 C 
HETATM    6  F4  UNL     1     -33.728   5.294   2.296  1.00 20.00    -0.168 F 
HETATM    7  F5  UNL     1     -33.455   7.221   3.271  1.00 20.00    -0.168 F 
HETATM    8  F6  UNL     1     -32.213   5.523   3.847  1.00 20.00    -0.168 F 
ENDBRANCH   2   5
TORSDOF 1
ENDMDL
MODEL 5
REMARK VINA RESULT:      -3.7     13.241     13.800
REMARK  1 active torsions:
REMARK  status: ('A' for Active; 'I' for Inactive)
REMARK    1  A    between atoms: C2_2  and  C3_3 
ROOT
HETATM    1  C1  UNL     1     -33.175  16.313  -4.819  1.00 20.00     0.060 C 
HETATM    2  C2  UNL     1     -34.213  15.200  -4.924  1.00 20.00     0.206 C 
HETATM    3 CL7  UNL     1     -35.784  15.806  -4.311  1.00 20.00    -0.092 Cl
HETATM    4 CL8  UNL     1     -34.415  14.750  -6.648  1.00 20.00    -0.092 Cl
ENDROOT
BRANCH   2   5
HETATM    5  C3  UNL     1     -33.797  13.973  -4.125  1.00 20.00     0.422 C 
HETATM    6  F4  UNL     1     -34.556  13.827  -3.016  1.00 20.00    -0.168 F 
HETATM    7  F5  UNL     1     -33.934  12.841  -4.854  1.00 20.00    -0.168 F 
HETATM    8  F6  UNL     1     -32.508  14.047  -3.728  1.00 20.00    -0.168 F 
ENDBRANCH   2   5
TORSDOF 1
ENDMDL
MODEL 6
REMARK VINA RESULT:      -3.6     13.241     13.862
REMARK  1 active torsions:
REMARK  status: ('A' for Active; 'I' for Inactive)
REMARK    1  A    between atoms: C2_2  and  C3_3 
ROOT
HETATM    1  C1  UNL     1     -33.177  16.320  -4.822  1.00 20.00     0.060 C 
HETATM    2  C2  UNL     1     -34.213  15.204  -4.917  1.00 20.00     0.206 C 
HETATM    3 CL7  UNL     1     -35.783  15.810  -4.300  1.00 20.00    -0.092 Cl
HETATM    4 CL8  UNL     1     -34.422  14.745  -6.637  1.00 20.00    -0.092 Cl
ENDROOT
BRANCH   2   5
HETATM    5  C3  UNL     1     -33.791  13.983  -4.113  1.00 20.00     0.422 C 
HETATM    6  F4  UNL     1     -33.912  12.849  -4.840  1.00 20.00    -0.168 F 
HETATM    7  F5  UNL     1     -32.498  14.071  -3.725  1.00 20.00    -0.168 F 
HETATM    8  F6  UNL     1     -34.540  13.832  -2.998  1.00 20.00    -0.168 F 
ENDBRANCH   2   5
TORSDOF 1
ENDMDL
MODEL 7
REMARK VINA RESULT:      -3.6      2.595      3.108
REMARK  1 active torsions:
REMARK  status: ('A' for Active; 'I' for Inactive)
REMARK    1  A    between atoms: C2_2  and  C3_3 
ROOT
HETATM    1  C1  UNL     1     -35.860   5.683   4.055  1.00 20.00     0.060 C 
HETATM    2  C2  UNL     1     -34.430   5.519   4.560  1.00 20.00     0.206 C 
HETATM    3 CL7  UNL     1     -34.184   6.591   5.975  1.00 20.00    -0.092 Cl
HETATM    4 CL8  UNL     1     -34.186   3.823   5.088  1.00 20.00    -0.092 Cl
ENDROOT
BRANCH   2   5
HETATM    5  C3  UNL     1     -33.415   5.865   3.481  1.00 20.00     0.422 C 
HETATM    6  F4  UNL     1     -33.715   5.259   2.310  1.00 20.00    -0.168 F 
HETATM    7  F5  UNL     1     -33.381   7.197   3.244  1.00 20.00    -0.168 F 
HETATM    8  F6  UNL     1     -32.165   5.483   3.827  1.00 20.00    -0.168 F 
ENDBRANCH   2   5
TORSDOF 1
ENDMDL
MODEL 8
REMARK VINA RESULT:      -3.6     13.331     13.892
REMARK  1 active torsions:
REMARK  status: ('A' for Active; 'I' for Inactive)
REMARK    1  A    between atoms: C2_2  and  C3_3 
ROOT
HETATM    1  C1  UNL     1     -34.738  15.520  -5.726  1.00 20.00     0.060 C 
HETATM    2  C2  UNL     1     -34.512  14.767  -4.419  1.00 20.00     0.206 C 
HETATM    3 CL7  UNL     1     -35.858  15.133  -3.293  1.00 20.00    -0.092 Cl
HETATM    4 CL8  UNL     1     -34.517  13.005  -4.750  1.00 20.00    -0.092 Cl
ENDROOT
BRANCH   2   5
HETATM    5  C3  UNL     1     -33.191  15.157  -3.771  1.00 20.00     0.422 C 
HETATM    6  F4  UNL     1     -32.513  16.045  -4.533  1.00 20.00    -0.168 F 
HETATM    7  F5  UNL     1     -33.386  15.735  -2.563  1.00 20.00    -0.168 F 
HETATM    8  F6  UNL     1     -32.389  14.086  -3.584  1.00 20.00    -0.168 F 
ENDBRANCH   2   5
TORSDOF 1
ENDMDL
MODEL 9
REMARK VINA RESULT:      -3.6     13.324     13.891
REMARK  1 active torsions:
REMARK  status: ('A' for Active; 'I' for Inactive)
REMARK    1  A    between atoms: C2_2  and  C3_3 
ROOT
HETATM    1  C1  UNL     1     -34.759  13.299  -4.227  1.00 20.00     0.060 C 
HETATM    2  C2  UNL     1     -34.607  14.816  -4.170  1.00 20.00     0.206 C 
HETATM    3 CL7  UNL     1     -34.933  15.498  -5.795  1.00 20.00    -0.092 Cl
HETATM    4 CL8  UNL     1     -35.815  15.483  -3.026  1.00 20.00    -0.092 Cl
ENDROOT
BRANCH   2   5
HETATM    5  C3  UNL     1     -33.209  15.219  -3.723  1.00 20.00     0.422 C 
HETATM    6  F4  UNL     1     -33.238  15.857  -2.532  1.00 20.00    -0.168 F 
HETATM    7  F5  UNL     1     -32.408  14.139  -3.579  1.00 20.00    -0.168 F 
HETATM    8  F6  UNL     1     -32.618  16.047  -4.613  1.00 20.00    -0.168 F 
ENDBRANCH   2   5
TORSDOF 1
ENDMDL
