MODEL 1
REMARK VINA RESULT:      -5.4      0.000      0.000
REMARK  2 active torsions:
REMARK  status: ('A' for Active; 'I' for Inactive)
REMARK    1  A    between atoms: C1_1  and  C3_3 
REMARK    2  A    between atoms: C2_2  and  C5_5 
ROOT
HETATM    1  C1  UNL     1     -34.168   6.025   3.203  1.00 20.00     0.005 C 
HETATM    2  C2  UNL     1     -35.166   5.411   3.855  1.00 20.00     0.068 C 
ENDROOT
BRANCH   1   3
HETATM    3  C3  UNL     1     -32.819   6.085   3.721  1.00 20.00    -0.004 C 
HETATM    4  C4  UNL     1     -31.911   6.978   3.300  1.00 20.00    -0.031 C 
HETATM    5  C6  UNL     1     -32.186   8.008   2.253  1.00 20.00     0.036 C 
ENDBRANCH   1   3
BRANCH   2   6
HETATM    6  C5  UNL     1     -34.926   4.748   5.173  1.00 20.00     0.241 C 
HETATM    7  O7  UNL     1     -34.976   3.525   5.276  1.00 20.00    -0.275 OA
HETATM    8 CL8  UNL     1     -34.580   5.827   6.508  1.00 20.00    -0.039 Cl
ENDBRANCH   2   6
TORSDOF 2
ENDMDL
MODEL 2
REMARK VINA RESULT:      -4.8      3.057      4.307
REMARK  2 active torsions:
REMARK  status: ('A' for Active; 'I' for Inactive)
REMARK    1  A    between atoms: C1_1  and  C3_3 
REMARK    2  A    between atoms: C2_2  and  C5_5 
ROOT
HETATM    1  C1  UNL     1     -33.622   5.736   3.707  1.00 20.00     0.005 C 
HETATM    2  C2  UNL     1     -32.771   6.208   2.785  1.00 20.00     0.068 C 
ENDROOT
BRANCH   1   3
HETATM    3  C3  UNL     1     -33.860   6.408   4.966  1.00 20.00    -0.004 C 
HETATM    4  C4  UNL     1     -34.437   5.809   6.019  1.00 20.00    -0.031 C 
HETATM    5  C6  UNL     1     -34.900   4.389   6.014  1.00 20.00     0.036 C 
ENDBRANCH   1   3
BRANCH   2   6
HETATM    6  C5  UNL     1     -32.013   7.474   3.020  1.00 20.00     0.241 C 
HETATM    7  O7  UNL     1     -31.224   7.567   3.957  1.00 20.00    -0.275 OA
HETATM    8 CL8  UNL     1     -32.334   8.768   1.883  1.00 20.00    -0.039 Cl
ENDBRANCH   2   6
TORSDOF 2
ENDMDL
MODEL 3
REMARK VINA RESULT:      -4.3     11.532     12.163
REMARK  2 active torsions:
REMARK  status: ('A' for Active; 'I' for Inactive)
REMARK    1  A    between atoms: C1_1  and  C3_3 
REMARK    2  A    between atoms: C2_2  and  C5_5 
ROOT
HETATM    1  C1  UNL     1     -33.750  16.265  -3.119  1.00 20.00     0.005 C 
HETATM    2  C2  UNL     1     -33.362  15.346  -4.015  1.00 20.00     0.068 C 
ENDROOT
BRANCH   1   3
HETATM    3  C3  UNL     1     -34.599  15.945  -1.992  1.00 20.00    -0.004 C 
HETATM    4  C4  UNL     1     -34.579  16.634  -0.842  1.00 20.00    -0.031 C 
HETATM    5  C6  UNL     1     -33.685  17.804  -0.591  1.00 20.00     0.036 C 
ENDBRANCH   1   3
BRANCH   2   6
HETATM    6  C5  UNL     1     -33.796  13.922  -3.889  1.00 20.00     0.241 C 
HETATM    7  O7  UNL     1     -33.007  13.059  -3.512  1.00 20.00    -0.275 OA
HETATM    8 CL8  UNL     1     -35.466  13.602  -4.309  1.00 20.00    -0.039 Cl
ENDBRANCH   2   6
TORSDOF 2
ENDMDL
MODEL 4
REMARK VINA RESULT:      -4.2     12.295     12.374
REMARK  2 active torsions:
REMARK  status: ('A' for Active; 'I' for Inactive)
REMARK    1  A    between atoms: C1_1  and  C3_3 
REMARK    2  A    between atoms: C2_2  and  C5_5 
ROOT
HETATM    1  C1  UNL     1     -35.772  15.399  -3.130  1.00 20.00     0.005 C 
HETATM    2  C2  UNL     1     -36.174  14.419  -3.952  1.00 20.00     0.068 C 
ENDROOT
BRANCH   1   3
HETATM    3  C3  UNL     1     -34.389  15.808  -3.022  1.00 20.00    -0.004 C 
HETATM    4  C4  UNL     1     -33.890  16.428  -1.942  1.00 20.00    -0.031 C 
HETATM    5  C6  UNL     1     -34.698  16.766  -0.733  1.00 20.00     0.036 C 
ENDBRANCH   1   3
BRANCH   2   6
HETATM    6  C5  UNL     1     -35.194  13.689  -4.811  1.00 20.00     0.241 C 
HETATM    7  O7  UNL     1     -34.743  12.601  -4.460  1.00 20.00    -0.275 OA
HETATM    8 CL8  UNL     1     -34.760  14.488  -6.308  1.00 20.00    -0.039 Cl
ENDBRANCH   2   6
TORSDOF 2
ENDMDL
MODEL 5
REMARK VINA RESULT:      -4.1      3.352      4.646
REMARK  2 active torsions:
REMARK  status: ('A' for Active; 'I' for Inactive)
REMARK    1  A    between atoms: C1_1  and  C3_3 
REMARK    2  A    between atoms: C2_2  and  C5_5 
ROOT
HETATM    1  C1  UNL     1     -32.454   6.632   3.656  1.00 20.00     0.005 C 
HETATM    2  C2  UNL     1     -31.705   7.663   3.238  1.00 20.00     0.068 C 
ENDROOT
BRANCH   1   3
HETATM    3  C3  UNL     1     -33.607   6.159   2.922  1.00 20.00    -0.004 C 
HETATM    4  C4  UNL     1     -34.630   5.512   3.500  1.00 20.00    -0.031 C 
HETATM    5  C6  UNL     1     -34.697   5.206   4.961  1.00 20.00     0.036 C 
ENDBRANCH   1   3
BRANCH   2   6
HETATM    6  C5  UNL     1     -32.033   8.385   1.972  1.00 20.00     0.241 C 
HETATM    7  O7  UNL     1     -31.656   7.948   0.887  1.00 20.00    -0.275 OA
HETATM    8 CL8  UNL     1     -32.967   9.855   2.161  1.00 20.00    -0.039 Cl
ENDBRANCH   2   6
TORSDOF 2
ENDMDL
MODEL 6
REMARK VINA RESULT:      -4.0      1.425      2.185
REMARK  2 active torsions:
REMARK  status: ('A' for Active; 'I' for Inactive)
REMARK    1  A    between atoms: C1_1  and  C3_3 
REMARK    2  A    between atoms: C2_2  and  C5_5 
ROOT
HETATM    1  C1  UNL     1     -32.092   6.756   2.857  1.00 20.00     0.005 C 
HETATM    2  C2  UNL     1     -32.736   5.736   3.444  1.00 20.00     0.068 C 
ENDROOT
BRANCH   1   3
HETATM    3  C3  UNL     1     -32.596   8.111   2.878  1.00 20.00    -0.004 C 
HETATM    4  C4  UNL     1     -32.404   8.980   1.874  1.00 20.00    -0.031 C 
HETATM    5  C6  UNL     1     -31.651   8.652   0.627  1.00 20.00     0.036 C 
ENDBRANCH   1   3
BRANCH   2   6
HETATM    6  C5  UNL     1     -34.029   5.956   4.159  1.00 20.00     0.241 C 
HETATM    7  O7  UNL     1     -35.100   5.767   3.588  1.00 20.00    -0.275 OA
HETATM    8 CL8  UNL     1     -33.890   6.487   5.822  1.00 20.00    -0.039 Cl
ENDBRANCH   2   6
TORSDOF 2
ENDMDL
MODEL 7
REMARK VINA RESULT:      -4.0      2.353      3.404
REMARK  2 active torsions:
REMARK  status: ('A' for Active; 'I' for Inactive)
REMARK    1  A    between atoms: C1_1  and  C3_3 
REMARK    2  A    between atoms: C2_2  and  C5_5 
ROOT
HETATM    1  C1  UNL     1     -35.649   5.209   4.411  1.00 20.00     0.005 C 
HETATM    2  C2  UNL     1     -35.185   5.756   3.278  1.00 20.00     0.068 C 
ENDROOT
BRANCH   1   3
HETATM    3  C3  UNL     1     -34.814   4.431   5.299  1.00 20.00    -0.004 C 
HETATM    4  C4  UNL     1     -34.141   4.966   6.329  1.00 20.00    -0.031 C 
HETATM    5  C6  UNL     1     -34.174   6.419   6.675  1.00 20.00     0.036 C 
ENDBRANCH   1   3
BRANCH   2   6
HETATM    6  C5  UNL     1     -33.758   5.585   2.872  1.00 20.00     0.241 C 
HETATM    7  O7  UNL     1     -33.429   4.681   2.108  1.00 20.00    -0.275 OA
HETATM    8 CL8  UNL     1     -32.635   6.743   3.555  1.00 20.00    -0.039 Cl
ENDBRANCH   2   6
TORSDOF 2
ENDMDL
MODEL 8
REMARK VINA RESULT:      -3.9     12.161     12.751
REMARK  2 active torsions:
REMARK  status: ('A' for Active; 'I' for Inactive)
REMARK    1  A    between atoms: C1_1  and  C3_3 
REMARK    2  A    between atoms: C2_2  and  C5_5 
ROOT
HETATM    1  C1  UNL     1     -34.135  13.885  -3.511  1.00 20.00     0.005 C 
HETATM    2  C2  UNL     1     -35.153  13.578  -4.328  1.00 20.00     0.068 C 
ENDROOT
BRANCH   1   3
HETATM    3  C3  UNL     1     -33.427  15.144  -3.587  1.00 20.00    -0.004 C 
HETATM    4  C4  UNL     1     -33.673  16.174  -2.765  1.00 20.00    -0.031 C 
HETATM    5  C6  UNL     1     -34.703  16.143  -1.683  1.00 20.00     0.036 C 
ENDBRANCH   1   3
BRANCH   2   6
HETATM    6  C5  UNL     1     -35.611  14.539  -5.376  1.00 20.00     0.241 C 
HETATM    7  O7  UNL     1     -36.589  15.257  -5.181  1.00 20.00    -0.275 OA
HETATM    8 CL8  UNL     1     -34.668  14.553  -6.852  1.00 20.00    -0.039 Cl
ENDBRANCH   2   6
TORSDOF 2
ENDMDL
MODEL 9
REMARK VINA RESULT:      -3.9     11.641     13.069
REMARK  2 active torsions:
REMARK  status: ('A' for Active; 'I' for Inactive)
REMARK    1  A    between atoms: C1_1  and  C3_3 
REMARK    2  A    between atoms: C2_2  and  C5_5 
ROOT
HETATM    1  C1  UNL     1     -35.103  15.811  -5.163  1.00 20.00     0.005 C 
HETATM    2  C2  UNL     1     -35.299  14.926  -4.176  1.00 20.00     0.068 C 
ENDROOT
BRANCH   1   3
HETATM    3  C3  UNL     1     -34.149  15.593  -6.228  1.00 20.00    -0.004 C 
HETATM    4  C4  UNL     1     -34.479  15.040  -7.405  1.00 20.00    -0.031 C 
HETATM    5  C6  UNL     1     -35.860  14.587  -7.750  1.00 20.00     0.036 C 
ENDBRANCH   1   3
BRANCH   2   6
HETATM    6  C5  UNL     1     -34.527  13.647  -4.128  1.00 20.00     0.241 C 
HETATM    7  O7  UNL     1     -35.042  12.591  -4.487  1.00 20.00    -0.275 OA
HETATM    8 CL8  UNL     1     -32.883  13.781  -3.539  1.00 20.00    -0.039 Cl
ENDBRANCH   2   6
TORSDOF 2
ENDMDL
