MODEL 1
REMARK VINA RESULT:      -5.3      0.000      0.000
REMARK  4 active torsions:
REMARK  status: ('A' for Active; 'I' for Inactive)
REMARK    1  A    between atoms: C2_2  and  C4_4 
REMARK    2  A    between atoms: C3_3  and  C7_7 
REMARK    3  A    between atoms: C6_6  and  O10_10 
REMARK    4  A    between atoms: C7_7  and  O10_10 
ROOT
HETATM    1  C2  UNL     1     -34.011   6.337   3.779  1.00 20.00     0.006 C 
HETATM    2  C3  UNL     1     -32.767   6.155   3.315  1.00 20.00     0.082 C 
ENDROOT
BRANCH   2   3
HETATM    3  C7  UNL     1     -31.846   7.310   3.197  1.00 20.00     0.287 C 
HETATM    4  O9  UNL     1     -31.190   7.778   4.115  1.00 20.00    -0.260 OA
BRANCH   3   5
HETATM    5  O10 UNL     1     -31.893   7.728   1.896  1.00 20.00    -0.289 OA
BRANCH   5   6
HETATM    6  C6  UNL     1     -32.225   9.061   1.748  1.00 20.00     0.135 C 
HETATM    7  C1  UNL     1     -32.449   9.668   0.580  1.00 20.00     0.038 C 
ENDBRANCH   5   6
ENDBRANCH   3   5
ENDBRANCH   2   3
BRANCH   1   8
HETATM    8  C4  UNL     1     -34.959   5.255   3.917  1.00 20.00    -0.004 C 
HETATM    9  C5  UNL     1     -35.243   4.672   5.092  1.00 20.00    -0.031 C 
HETATM   10  C8  UNL     1     -34.616   5.072   6.387  1.00 20.00     0.036 C 
ENDBRANCH   1   8
TORSDOF 4
ENDMDL
MODEL 2
REMARK VINA RESULT:      -4.8      2.226      5.005
REMARK  4 active torsions:
REMARK  status: ('A' for Active; 'I' for Inactive)
REMARK    1  A    between atoms: C2_2  and  C4_4 
REMARK    2  A    between atoms: C3_3  and  C7_7 
REMARK    3  A    between atoms: C6_6  and  O10_10 
REMARK    4  A    between atoms: C7_7  and  O10_10 
ROOT
HETATM    1  C2  UNL     1     -32.968   6.905   3.244  1.00 20.00     0.006 C 
HETATM    2  C3  UNL     1     -33.582   5.723   3.098  1.00 20.00     0.082 C 
ENDROOT
BRANCH   2   3
HETATM    3  C7  UNL     1     -34.759   5.395   3.937  1.00 20.00     0.287 C 
HETATM    4  O9  UNL     1     -35.920   5.629   3.637  1.00 20.00    -0.260 OA
BRANCH   3   5
HETATM    5  O10 UNL     1     -34.286   4.804   5.076  1.00 20.00    -0.289 OA
BRANCH   5   6
HETATM    6  C6  UNL     1     -34.575   5.505   6.231  1.00 20.00     0.135 C 
HETATM    7  C1  UNL     1     -33.986   6.644   6.603  1.00 20.00     0.038 C 
ENDBRANCH   5   6
ENDBRANCH   3   5
ENDBRANCH   2   3
BRANCH   1   8
HETATM    8  C4  UNL     1     -31.815   7.287   2.460  1.00 20.00    -0.004 C 
HETATM    9  C5  UNL     1     -31.750   8.429   1.759  1.00 20.00    -0.031 C 
HETATM   10  C8  UNL     1     -32.854   9.433   1.706  1.00 20.00     0.036 C 
ENDBRANCH   1   8
TORSDOF 4
ENDMDL
MODEL 3
REMARK VINA RESULT:      -4.5      1.910      5.181
REMARK  4 active torsions:
REMARK  status: ('A' for Active; 'I' for Inactive)
REMARK    1  A    between atoms: C2_2  and  C4_4 
REMARK    2  A    between atoms: C3_3  and  C7_7 
REMARK    3  A    between atoms: C6_6  and  O10_10 
REMARK    4  A    between atoms: C7_7  and  O10_10 
ROOT
HETATM    1  C2  UNL     1     -32.523   7.467   3.048  1.00 20.00     0.006 C 
HETATM    2  C3  UNL     1     -33.159   6.326   3.346  1.00 20.00     0.082 C 
ENDROOT
BRANCH   2   3
HETATM    3  C7  UNL     1     -33.960   6.231   4.590  1.00 20.00     0.287 C 
HETATM    4  O9  UNL     1     -33.611   6.657   5.681  1.00 20.00    -0.260 OA
BRANCH   3   5
HETATM    5  O10 UNL     1     -35.121   5.584   4.271  1.00 20.00    -0.289 OA
BRANCH   5   6
HETATM    6  C6  UNL     1     -35.179   4.281   4.725  1.00 20.00     0.135 C 
HETATM    7  C1  UNL     1     -34.885   3.889   5.966  1.00 20.00     0.038 C 
ENDBRANCH   5   6
ENDBRANCH   3   5
ENDBRANCH   2   3
BRANCH   1   8
HETATM    8  C4  UNL     1     -31.724   7.626   1.854  1.00 20.00    -0.004 C 
HETATM    9  C5  UNL     1     -31.735   8.740   1.106  1.00 20.00    -0.031 C 
HETATM   10  C8  UNL     1     -32.568   9.939   1.418  1.00 20.00     0.036 C 
ENDBRANCH   1   8
TORSDOF 4
ENDMDL
MODEL 4
REMARK VINA RESULT:      -4.3     10.248     11.490
REMARK  4 active torsions:
REMARK  status: ('A' for Active; 'I' for Inactive)
REMARK    1  A    between atoms: C2_2  and  C4_4 
REMARK    2  A    between atoms: C3_3  and  C7_7 
REMARK    3  A    between atoms: C6_6  and  O10_10 
REMARK    4  A    between atoms: C7_7  and  O10_10 
ROOT
HETATM    1  C2  UNL     1     -33.742  16.916  -1.670  1.00 20.00     0.006 C 
HETATM    2  C3  UNL     1     -34.112  15.967  -2.540  1.00 20.00     0.082 C 
ENDROOT
BRANCH   2   3
HETATM    3  C7  UNL     1     -33.274  15.690  -3.731  1.00 20.00     0.287 C 
HETATM    4  O9  UNL     1     -32.910  16.529  -4.541  1.00 20.00    -0.260 OA
BRANCH   3   5
HETATM    5  O10 UNL     1     -33.013  14.348  -3.734  1.00 20.00    -0.289 OA
BRANCH   5   6
HETATM    6  C6  UNL     1     -34.144  13.557  -3.792  1.00 20.00     0.135 C 
HETATM    7  C1  UNL     1     -34.778  13.210  -4.914  1.00 20.00     0.038 C 
ENDBRANCH   5   6
ENDBRANCH   3   5
ENDBRANCH   2   3
BRANCH   1   8
HETATM    8  C4  UNL     1     -34.515  17.238  -0.491  1.00 20.00    -0.004 C 
HETATM    9  C5  UNL     1     -34.082  18.073   0.465  1.00 20.00    -0.031 C 
HETATM   10  C8  UNL     1     -32.759  18.765   0.423  1.00 20.00     0.036 C 
ENDBRANCH   1   8
TORSDOF 4
ENDMDL
MODEL 5
REMARK VINA RESULT:      -4.3     10.511     11.837
REMARK  4 active torsions:
REMARK  status: ('A' for Active; 'I' for Inactive)
REMARK    1  A    between atoms: C2_2  and  C4_4 
REMARK    2  A    between atoms: C3_3  and  C7_7 
REMARK    3  A    between atoms: C6_6  and  O10_10 
REMARK    4  A    between atoms: C7_7  and  O10_10 
ROOT
HETATM    1  C2  UNL     1     -35.060  15.506  -2.668  1.00 20.00     0.006 C 
HETATM    2  C3  UNL     1     -34.411  14.494  -3.258  1.00 20.00     0.082 C 
ENDROOT
BRANCH   2   3
HETATM    3  C7  UNL     1     -35.054  13.752  -4.369  1.00 20.00     0.287 C 
HETATM    4  O9  UNL     1     -34.979  12.545  -4.540  1.00 20.00    -0.260 OA
BRANCH   3   5
HETATM    5  O10 UNL     1     -35.716  14.671  -5.135  1.00 20.00    -0.289 OA
BRANCH   5   6
HETATM    6  C6  UNL     1     -35.455  14.565  -6.487  1.00 20.00     0.135 C 
HETATM    7  C1  UNL     1     -34.385  15.073  -7.103  1.00 20.00     0.038 C 
ENDBRANCH   5   6
ENDBRANCH   3   5
ENDBRANCH   2   3
BRANCH   1   8
HETATM    8  C4  UNL     1     -34.492  16.269  -1.580  1.00 20.00    -0.004 C 
HETATM    9  C5  UNL     1     -33.916  17.469  -1.746  1.00 20.00    -0.031 C 
HETATM   10  C8  UNL     1     -33.797  18.155  -3.067  1.00 20.00     0.036 C 
ENDBRANCH   1   8
TORSDOF 4
ENDMDL
MODEL 6
REMARK VINA RESULT:      -4.2     10.628     11.598
REMARK  4 active torsions:
REMARK  status: ('A' for Active; 'I' for Inactive)
REMARK    1  A    between atoms: C2_2  and  C4_4 
REMARK    2  A    between atoms: C3_3  and  C7_7 
REMARK    3  A    between atoms: C6_6  and  O10_10 
REMARK    4  A    between atoms: C7_7  and  O10_10 
ROOT
HETATM    1  C2  UNL     1     -34.103  16.131  -2.106  1.00 20.00     0.006 C 
HETATM    2  C3  UNL     1     -34.602  15.130  -2.844  1.00 20.00     0.082 C 
ENDROOT
BRANCH   2   3
HETATM    3  C7  UNL     1     -33.780  14.525  -3.919  1.00 20.00     0.287 C 
HETATM    4  O9  UNL     1     -33.415  13.360  -3.948  1.00 20.00    -0.260 OA
BRANCH   3   5
HETATM    5  O10 UNL     1     -33.523  15.512  -4.830  1.00 20.00    -0.289 OA
BRANCH   5   6
HETATM    6  C6  UNL     1     -34.468  15.609  -5.832  1.00 20.00     0.135 C 
HETATM    7  C1  UNL     1     -34.376  15.028  -7.031  1.00 20.00     0.038 C 
ENDBRANCH   5   6
ENDBRANCH   3   5
ENDBRANCH   2   3
BRANCH   1   8
HETATM    8  C4  UNL     1     -34.851  16.767  -1.045  1.00 20.00    -0.004 C 
HETATM    9  C5  UNL     1     -34.346  17.740  -0.272  1.00 20.00    -0.031 C 
HETATM   10  C8  UNL     1     -32.961  18.278  -0.417  1.00 20.00     0.036 C 
ENDBRANCH   1   8
TORSDOF 4
ENDMDL
MODEL 7
REMARK VINA RESULT:      -4.2     10.481     11.440
REMARK  4 active torsions:
REMARK  status: ('A' for Active; 'I' for Inactive)
REMARK    1  A    between atoms: C2_2  and  C4_4 
REMARK    2  A    between atoms: C3_3  and  C7_7 
REMARK    3  A    between atoms: C6_6  and  O10_10 
REMARK    4  A    between atoms: C7_7  and  O10_10 
ROOT
HETATM    1  C2  UNL     1     -34.309  16.213  -1.977  1.00 20.00     0.006 C 
HETATM    2  C3  UNL     1     -33.789  15.549  -3.017  1.00 20.00     0.082 C 
ENDROOT
BRANCH   2   3
HETATM    3  C7  UNL     1     -34.509  14.382  -3.582  1.00 20.00     0.287 C 
HETATM    4  O9  UNL     1     -34.190  13.215  -3.412  1.00 20.00    -0.260 OA
BRANCH   3   5
HETATM    5  O10 UNL     1     -35.558  14.871  -4.309  1.00 20.00    -0.289 OA
BRANCH   5   6
HETATM    6  C6  UNL     1     -35.192  15.410  -5.527  1.00 20.00     0.135 C 
HETATM    7  C1  UNL     1     -34.696  14.716  -6.553  1.00 20.00     0.038 C 
ENDBRANCH   5   6
ENDBRANCH   3   5
ENDBRANCH   2   3
BRANCH   1   8
HETATM    8  C4  UNL     1     -33.659  17.357  -1.378  1.00 20.00    -0.004 C 
HETATM    9  C5  UNL     1     -34.028  17.876  -0.197  1.00 20.00    -0.031 C 
HETATM   10  C8  UNL     1     -35.148  17.338   0.631  1.00 20.00     0.036 C 
ENDBRANCH   1   8
TORSDOF 4
ENDMDL
MODEL 8
REMARK VINA RESULT:      -3.9     11.318     12.243
REMARK  4 active torsions:
REMARK  status: ('A' for Active; 'I' for Inactive)
REMARK    1  A    between atoms: C2_2  and  C4_4 
REMARK    2  A    between atoms: C3_3  and  C7_7 
REMARK    3  A    between atoms: C6_6  and  O10_10 
REMARK    4  A    between atoms: C7_7  and  O10_10 
ROOT
HETATM    1  C2  UNL     1     -33.987  16.383  -2.146  1.00 20.00     0.006 C 
HETATM    2  C3  UNL     1     -34.646  16.350  -3.312  1.00 20.00     0.082 C 
ENDROOT
BRANCH   2   3
HETATM    3  C7  UNL     1     -33.908  16.080  -4.569  1.00 20.00     0.287 C 
HETATM    4  O9  UNL     1     -32.697  16.167  -4.702  1.00 20.00    -0.260 OA
BRANCH   3   5
HETATM    5  O10 UNL     1     -34.836  15.736  -5.513  1.00 20.00    -0.289 OA
BRANCH   5   6
HETATM    6  C6  UNL     1     -34.299  15.485  -6.761  1.00 20.00     0.135 C 
HETATM    7  C1  UNL     1     -34.903  14.791  -7.728  1.00 20.00     0.038 C 
ENDBRANCH   5   6
ENDBRANCH   3   5
ENDBRANCH   2   3
BRANCH   1   8
HETATM    8  C4  UNL     1     -34.645  16.643  -0.885  1.00 20.00    -0.004 C 
HETATM    9  C5  UNL     1     -34.232  17.582  -0.021  1.00 20.00    -0.031 C 
HETATM   10  C8  UNL     1     -33.050  18.464  -0.259  1.00 20.00     0.036 C 
ENDBRANCH   1   8
TORSDOF 4
ENDMDL
MODEL 9
REMARK VINA RESULT:      -3.8     10.708     12.914
REMARK  4 active torsions:
REMARK  status: ('A' for Active; 'I' for Inactive)
REMARK    1  A    between atoms: C2_2  and  C4_4 
REMARK    2  A    between atoms: C3_3  and  C7_7 
REMARK    3  A    between atoms: C6_6  and  O10_10 
REMARK    4  A    between atoms: C7_7  and  O10_10 
ROOT
HETATM    1  C2  UNL     1     -34.671  14.862  -6.570  1.00 20.00     0.006 C 
HETATM    2  C3  UNL     1     -35.650  14.539  -5.715  1.00 20.00     0.082 C 
ENDROOT
BRANCH   2   3
HETATM    3  C7  UNL     1     -35.336  13.759  -4.495  1.00 20.00     0.287 C 
HETATM    4  O9  UNL     1     -34.953  12.599  -4.485  1.00 20.00    -0.260 OA
BRANCH   3   5
HETATM    5  O10 UNL     1     -35.565  14.579  -3.425  1.00 20.00    -0.289 OA
BRANCH   5   6
HETATM    6  C6  UNL     1     -34.418  15.131  -2.887  1.00 20.00     0.135 C 
HETATM    7  C1  UNL     1     -34.372  16.260  -2.177  1.00 20.00     0.038 C 
ENDBRANCH   5   6
ENDBRANCH   3   5
ENDBRANCH   2   3
BRANCH   1   8
HETATM    8  C4  UNL     1     -34.909  15.619  -7.779  1.00 20.00    -0.004 C 
HETATM    9  C5  UNL     1     -34.749  16.949  -7.857  1.00 20.00    -0.031 C 
HETATM   10  C8  UNL     1     -34.309  17.798  -6.710  1.00 20.00     0.036 C 
ENDBRANCH   1   8
TORSDOF 4
ENDMDL
