MODEL 1
REMARK VINA RESULT:      -4.8      0.000      0.000
REMARK  0 active torsions:
REMARK  status: ('A' for Active; 'I' for Inactive)
ROOT
HETATM    1  C1  UNL     1     -33.642  16.214  -2.740  1.00 20.00     0.005 C 
HETATM    2  C2  UNL     1     -33.409  13.887  -3.749  1.00 20.00     0.005 C 
HETATM    3  C3  UNL     1     -33.554  15.926  -5.270  1.00 20.00     0.005 C 
HETATM    4  C4  UNL     1     -34.991  15.777  -2.185  1.00 20.00     0.006 C 
HETATM    5  C5  UNL     1     -34.727  13.416  -4.350  1.00 20.00     0.006 C 
HETATM    6  C6  UNL     1     -34.976  16.469  -5.324  1.00 20.00     0.006 C 
HETATM    7  C7  UNL     1     -33.102  15.381  -3.909  1.00 20.00    -0.014 C 
HETATM    8  C8  UNL     1     -36.063  15.421  -3.159  1.00 20.00    -0.006 A 
HETATM    9  C9  UNL     1     -35.936  14.262  -4.128  1.00 20.00    -0.006 A 
HETATM   10  C10 UNL     1     -36.049  15.679  -4.654  1.00 20.00    -0.006 A 
ENDROOT
TORSDOF 0
ENDMDL
MODEL 2
REMARK VINA RESULT:      -4.8      0.048      2.392
REMARK  0 active torsions:
REMARK  status: ('A' for Active; 'I' for Inactive)
ROOT
HETATM    1  C1  UNL     1     -33.350  13.909  -3.731  1.00 20.00     0.005 C 
HETATM    2  C2  UNL     1     -33.523  15.938  -5.261  1.00 20.00     0.005 C 
HETATM    3  C3  UNL     1     -33.642  16.235  -2.734  1.00 20.00     0.005 C 
HETATM    4  C4  UNL     1     -34.651  13.407  -4.342  1.00 20.00     0.006 C 
HETATM    5  C5  UNL     1     -34.956  16.450  -5.331  1.00 20.00     0.006 C 
HETATM    6  C6  UNL     1     -34.988  15.771  -2.190  1.00 20.00     0.006 C 
HETATM    7  C7  UNL     1     -33.074  15.408  -3.894  1.00 20.00    -0.014 C 
HETATM    8  C8  UNL     1     -35.880  14.227  -4.135  1.00 20.00    -0.006 A 
HETATM    9  C9  UNL     1     -36.019  15.639  -4.668  1.00 20.00    -0.006 A 
HETATM   10  C10 UNL     1     -36.041  15.388  -3.173  1.00 20.00    -0.006 A 
ENDROOT
TORSDOF 0
ENDMDL
MODEL 3
REMARK VINA RESULT:      -4.8      0.072      2.375
REMARK  0 active torsions:
REMARK  status: ('A' for Active; 'I' for Inactive)
ROOT
HETATM    1  C1  UNL     1     -33.497  15.981  -5.188  1.00 20.00     0.005 C 
HETATM    2  C2  UNL     1     -33.640  16.189  -2.653  1.00 20.00     0.005 C 
HETATM    3  C3  UNL     1     -33.378  13.895  -3.729  1.00 20.00     0.005 C 
HETATM    4  C4  UNL     1     -34.919  16.521  -5.257  1.00 20.00     0.006 C 
HETATM    5  C5  UNL     1     -35.000  15.731  -2.142  1.00 20.00     0.006 C 
HETATM    6  C6  UNL     1     -34.681  13.439  -4.373  1.00 20.00     0.006 C 
HETATM    7  C7  UNL     1     -33.073  15.394  -3.836  1.00 20.00    -0.014 C 
HETATM    8  C8  UNL     1     -36.005  15.708  -4.635  1.00 20.00    -0.006 A 
HETATM    9  C9  UNL     1     -36.050  15.403  -3.151  1.00 20.00    -0.006 A 
HETATM   10  C10 UNL     1     -35.897  14.275  -4.151  1.00 20.00    -0.006 A 
ENDROOT
TORSDOF 0
ENDMDL
MODEL 4
REMARK VINA RESULT:      -4.8      0.778      2.947
REMARK  0 active torsions:
REMARK  status: ('A' for Active; 'I' for Inactive)
ROOT
HETATM    1  C1  UNL     1     -36.028  14.864  -3.469  1.00 20.00     0.005 C 
HETATM    2  C2  UNL     1     -35.320  15.592  -5.805  1.00 20.00     0.005 C 
HETATM    3  C3  UNL     1     -34.509  13.368  -4.865  1.00 20.00     0.005 C 
HETATM    4  C4  UNL     1     -35.265  16.064  -2.924  1.00 20.00     0.006 C 
HETATM    5  C5  UNL     1     -33.868  16.051  -5.819  1.00 20.00     0.006 C 
HETATM    6  C6  UNL     1     -33.428  13.579  -3.812  1.00 20.00     0.006 C 
HETATM    7  C7  UNL     1     -35.634  14.410  -4.880  1.00 20.00    -0.014 C 
HETATM    8  C8  UNL     1     -33.788  16.104  -3.133  1.00 20.00    -0.006 A 
HETATM    9  C9  UNL     1     -33.159  16.160  -4.511  1.00 20.00    -0.006 A 
HETATM   10  C10 UNL     1     -32.912  14.964  -3.613  1.00 20.00    -0.006 A 
ENDROOT
TORSDOF 0
ENDMDL
MODEL 5
REMARK VINA RESULT:      -4.8      0.822      2.857
REMARK  0 active torsions:
REMARK  status: ('A' for Active; 'I' for Inactive)
ROOT
HETATM    1  C1  UNL     1     -34.455  13.329  -4.775  1.00 20.00     0.005 C 
HETATM    2  C2  UNL     1     -36.014  14.869  -3.477  1.00 20.00     0.005 C 
HETATM    3  C3  UNL     1     -35.336  15.458  -5.861  1.00 20.00     0.005 C 
HETATM    4  C4  UNL     1     -33.378  13.643  -3.745  1.00 20.00     0.006 C 
HETATM    5  C5  UNL     1     -35.286  16.127  -3.020  1.00 20.00     0.006 C 
HETATM    6  C6  UNL     1     -33.898  15.959  -5.914  1.00 20.00     0.006 C 
HETATM    7  C7  UNL     1     -35.611  14.333  -4.856  1.00 20.00    -0.014 C 
HETATM    8  C8  UNL     1     -32.902  15.054  -3.644  1.00 20.00    -0.006 A 
HETATM    9  C9  UNL     1     -33.811  16.197  -3.239  1.00 20.00    -0.006 A 
HETATM   10  C10 UNL     1     -33.189  16.177  -4.621  1.00 20.00    -0.006 A 
ENDROOT
TORSDOF 0
ENDMDL
MODEL 6
REMARK VINA RESULT:      -4.8      0.820      2.914
REMARK  0 active torsions:
REMARK  status: ('A' for Active; 'I' for Inactive)
ROOT
HETATM    1  C1  UNL     1     -35.338  15.556  -5.905  1.00 20.00     0.005 C 
HETATM    2  C2  UNL     1     -34.534  13.358  -4.899  1.00 20.00     0.005 C 
HETATM    3  C3  UNL     1     -36.101  14.868  -3.573  1.00 20.00     0.005 C 
HETATM    4  C4  UNL     1     -33.890  16.027  -5.891  1.00 20.00     0.006 C 
HETATM    5  C5  UNL     1     -33.483  13.600  -3.823  1.00 20.00     0.006 C 
HETATM    6  C6  UNL     1     -35.361  16.086  -3.034  1.00 20.00     0.006 C 
HETATM    7  C7  UNL     1     -35.667  14.390  -4.965  1.00 20.00    -0.014 C 
HETATM    8  C8  UNL     1     -33.216  16.169  -4.568  1.00 20.00    -0.006 A 
HETATM    9  C9  UNL     1     -32.982  14.994  -3.640  1.00 20.00    -0.006 A 
HETATM   10  C10 UNL     1     -33.881  16.135  -3.206  1.00 20.00    -0.006 A 
ENDROOT
TORSDOF 0
ENDMDL
MODEL 7
REMARK VINA RESULT:      -4.7      0.985      2.415
REMARK  0 active torsions:
REMARK  status: ('A' for Active; 'I' for Inactive)
ROOT
HETATM    1  C1  UNL     1     -33.460  16.311  -3.730  1.00 20.00     0.005 C 
HETATM    2  C2  UNL     1     -34.101  15.924  -6.165  1.00 20.00     0.005 C 
HETATM    3  C3  UNL     1     -35.916  16.259  -4.408  1.00 20.00     0.005 C 
HETATM    4  C4  UNL     1     -32.863  14.910  -3.723  1.00 20.00     0.006 C 
HETATM    5  C5  UNL     1     -34.640  14.515  -6.372  1.00 20.00     0.006 C 
HETATM    6  C6  UNL     1     -36.071  15.018  -3.538  1.00 20.00     0.006 C 
HETATM    7  C7  UNL     1     -34.482  16.593  -4.838  1.00 20.00    -0.014 C 
HETATM    8  C8  UNL     1     -33.787  13.758  -3.938  1.00 20.00    -0.006 A 
HETATM    9  C9  UNL     1     -34.566  13.564  -5.224  1.00 20.00    -0.006 A 
HETATM   10  C10 UNL     1     -35.303  13.799  -3.920  1.00 20.00    -0.006 A 
ENDROOT
TORSDOF 0
ENDMDL
MODEL 8
REMARK VINA RESULT:      -4.7      0.977      2.904
REMARK  0 active torsions:
REMARK  status: ('A' for Active; 'I' for Inactive)
ROOT
HETATM    1  C1  UNL     1     -34.039  15.996  -6.052  1.00 20.00     0.005 C 
HETATM    2  C2  UNL     1     -35.913  16.221  -4.342  1.00 20.00     0.005 C 
HETATM    3  C3  UNL     1     -33.486  16.169  -3.571  1.00 20.00     0.005 C 
HETATM    4  C4  UNL     1     -34.593  14.620  -6.396  1.00 20.00     0.006 C 
HETATM    5  C5  UNL     1     -36.122  14.917  -3.584  1.00 20.00     0.006 C 
HETATM    6  C6  UNL     1     -32.913  14.760  -3.659  1.00 20.00     0.006 C 
HETATM    7  C7  UNL     1     -34.459  16.561  -4.690  1.00 20.00    -0.014 C 
HETATM    8  C8  UNL     1     -34.579  13.577  -5.329  1.00 20.00    -0.006 A 
HETATM    9  C9  UNL     1     -35.360  13.717  -4.038  1.00 20.00    -0.006 A 
HETATM   10  C10 UNL     1     -33.846  13.649  -4.003  1.00 20.00    -0.006 A 
ENDROOT
TORSDOF 0
ENDMDL
MODEL 9
REMARK VINA RESULT:      -4.7      1.004      2.111
REMARK  0 active torsions:
REMARK  status: ('A' for Active; 'I' for Inactive)
ROOT
HETATM    1  C1  UNL     1     -35.863  16.280  -4.303  1.00 20.00     0.005 C 
HETATM    2  C2  UNL     1     -33.459  16.003  -3.509  1.00 20.00     0.005 C 
HETATM    3  C3  UNL     1     -33.985  15.998  -6.002  1.00 20.00     0.005 C 
HETATM    4  C4  UNL     1     -36.183  14.959  -3.616  1.00 20.00     0.006 C 
HETATM    5  C5  UNL     1     -32.994  14.560  -3.663  1.00 20.00     0.006 C 
HETATM    6  C6  UNL     1     -34.637  14.687  -6.422  1.00 20.00     0.006 C 
HETATM    7  C7  UNL     1     -34.382  16.524  -4.617  1.00 20.00    -0.014 C 
HETATM    8  C8  UNL     1     -35.508  13.729  -4.122  1.00 20.00    -0.006 A 
HETATM    9  C9  UNL     1     -34.005  13.542  -4.074  1.00 20.00    -0.006 A 
HETATM   10  C10 UNL     1     -34.719  13.595  -5.410  1.00 20.00    -0.006 A 
ENDROOT
TORSDOF 0
ENDMDL
