MODEL 1
REMARK VINA RESULT:      -5.0      0.000      0.000
REMARK  1 active torsions:
REMARK  status: ('A' for Active; 'I' for Inactive)
REMARK    1  A    between atoms: C8_8  and  C11_11 
ROOT
HETATM    1  C1  UNL     1     -34.348  15.615  -2.643  1.00 20.00    -0.076 C 
HETATM    2  C2  UNL     1     -36.260  14.357  -4.170  1.00 20.00     0.136 C 
HETATM    3  C3  UNL     1     -34.743  16.228  -1.530  1.00 20.00     0.015 C 
HETATM    4  C4  UNL     1     -33.073  15.683  -3.537  1.00 20.00     0.045 C 
HETATM    5  C5  UNL     1     -35.970  14.128  -5.657  1.00 20.00     0.080 C 
HETATM    6  C6  UNL     1     -34.430  14.416  -5.766  1.00 20.00     0.018 C 
HETATM    7  C7  UNL     1     -34.892  14.562  -3.540  1.00 20.00     0.092 C 
HETATM    8  C8  UNL     1     -34.155  15.450  -4.659  1.00 20.00    -0.019 C 
HETATM    9  O12 UNL     1     -37.370  14.349  -3.664  1.00 20.00    -0.297 OA
ENDROOT
BRANCH   8  10
HETATM   10  C11 UNL     1     -34.652  16.839  -5.143  1.00 20.00    -0.013 C 
HETATM   11  C9  UNL     1     -33.606  17.893  -4.829  1.00 20.00     0.010 C 
HETATM   12  C10 UNL     1     -34.959  16.781  -6.628  1.00 20.00     0.010 C 
ENDBRANCH   8  10
TORSDOF 1
ENDMDL
MODEL 2
REMARK VINA RESULT:      -4.9      1.108      1.194
REMARK  1 active torsions:
REMARK  status: ('A' for Active; 'I' for Inactive)
REMARK    1  A    between atoms: C8_8  and  C11_11 
ROOT
HETATM    1  C1  UNL     1     -35.268  16.543  -2.628  1.00 20.00    -0.076 C 
HETATM    2  C2  UNL     1     -36.224  14.248  -3.804  1.00 20.00     0.136 C 
HETATM    3  C3  UNL     1     -36.146  17.486  -2.296  1.00 20.00     0.015 C 
HETATM    4  C4  UNL     1     -33.723  16.510  -2.834  1.00 20.00     0.045 C 
HETATM    5  C5  UNL     1     -35.267  13.417  -4.666  1.00 20.00     0.080 C 
HETATM    6  C6  UNL     1     -33.860  14.016  -4.310  1.00 20.00     0.018 C 
HETATM    7  C7  UNL     1     -35.315  15.087  -2.923  1.00 20.00     0.092 C 
HETATM    8  C8  UNL     1     -34.149  15.486  -3.953  1.00 20.00    -0.019 C 
HETATM    9  O12 UNL     1     -37.442  14.189  -3.856  1.00 20.00    -0.297 OA
ENDROOT
BRANCH   8  10
HETATM   10  C11 UNL     1     -34.375  16.279  -5.269  1.00 20.00    -0.013 C 
HETATM   11  C9  UNL     1     -33.455  17.486  -5.302  1.00 20.00     0.010 C 
HETATM   12  C10 UNL     1     -34.144  15.367  -6.460  1.00 20.00     0.010 C 
ENDBRANCH   8  10
TORSDOF 1
ENDMDL
MODEL 3
REMARK VINA RESULT:      -4.7      1.613      2.694
REMARK  1 active torsions:
REMARK  status: ('A' for Active; 'I' for Inactive)
REMARK    1  A    between atoms: C8_8  and  C11_11 
ROOT
HETATM    1  C1  UNL     1     -36.911  15.155  -3.871  1.00 20.00    -0.076 C 
HETATM    2  C2  UNL     1     -34.652  13.606  -4.128  1.00 20.00     0.136 C 
HETATM    3  C3  UNL     1     -37.995  14.793  -4.553  1.00 20.00     0.015 C 
HETATM    4  C4  UNL     1     -36.445  16.466  -3.170  1.00 20.00     0.045 C 
HETATM    5  C5  UNL     1     -33.292  14.246  -3.827  1.00 20.00     0.080 C 
HETATM    6  C6  UNL     1     -33.682  15.584  -3.103  1.00 20.00     0.018 C 
HETATM    7  C7  UNL     1     -35.658  14.495  -3.417  1.00 20.00     0.092 C 
HETATM    8  C8  UNL     1     -35.052  15.956  -3.700  1.00 20.00    -0.019 C 
HETATM    9  O12 UNL     1     -34.818  12.595  -4.790  1.00 20.00    -0.297 OA
ENDROOT
BRANCH   8  10
HETATM   10  C11 UNL     1     -34.829  16.553  -5.117  1.00 20.00    -0.013 C 
HETATM   11  C9  UNL     1     -35.648  17.822  -5.270  1.00 20.00     0.010 C 
HETATM   12  C10 UNL     1     -33.350  16.813  -5.334  1.00 20.00     0.010 C 
ENDBRANCH   8  10
TORSDOF 1
ENDMDL
MODEL 4
REMARK VINA RESULT:      -4.7      1.999      3.882
REMARK  1 active torsions:
REMARK  status: ('A' for Active; 'I' for Inactive)
REMARK    1  A    between atoms: C8_8  and  C11_11 
ROOT
HETATM    1  C1  UNL     1     -34.714  14.358  -5.436  1.00 20.00    -0.076 C 
HETATM    2  C2  UNL     1     -33.510  16.597  -4.387  1.00 20.00     0.136 C 
HETATM    3  C3  UNL     1     -34.862  14.290  -6.757  1.00 20.00     0.015 C 
HETATM    4  C4  UNL     1     -35.355  13.617  -4.224  1.00 20.00     0.045 C 
HETATM    5  C5  UNL     1     -33.798  16.963  -2.927  1.00 20.00     0.080 C 
HETATM    6  C6  UNL     1     -34.484  15.667  -2.365  1.00 20.00     0.018 C 
HETATM    7  C7  UNL     1     -33.862  15.123  -4.488  1.00 20.00     0.092 C 
HETATM    8  C8  UNL     1     -35.190  15.048  -3.586  1.00 20.00    -0.019 C 
HETATM    9  O12 UNL     1     -33.078  17.367  -5.229  1.00 20.00    -0.297 OA
ENDROOT
BRANCH   8  10
HETATM   10  C11 UNL     1     -36.488  15.853  -3.868  1.00 20.00    -0.013 C 
HETATM   11  C9  UNL     1     -37.679  14.913  -3.879  1.00 20.00     0.010 C 
HETATM   12  C10 UNL     1     -36.647  16.945  -2.826  1.00 20.00     0.010 C 
ENDBRANCH   8  10
TORSDOF 1
ENDMDL
MODEL 5
REMARK VINA RESULT:      -4.5      2.116      4.001
REMARK  1 active torsions:
REMARK  status: ('A' for Active; 'I' for Inactive)
REMARK    1  A    between atoms: C8_8  and  C11_11 
ROOT
HETATM    1  C1  UNL     1     -34.844  15.840  -7.333  1.00 20.00    -0.076 C 
HETATM    2  C2  UNL     1     -33.567  15.557  -4.913  1.00 20.00     0.136 C 
HETATM    3  C3  UNL     1     -34.815  17.036  -7.917  1.00 20.00     0.015 C 
HETATM    4  C4  UNL     1     -35.720  14.562  -7.499  1.00 20.00     0.045 C 
HETATM    5  C5  UNL     1     -34.013  14.425  -3.982  1.00 20.00     0.080 C 
HETATM    6  C6  UNL     1     -34.902  13.528  -4.915  1.00 20.00     0.018 C 
HETATM    7  C7  UNL     1     -34.055  15.136  -6.289  1.00 20.00     0.092 C 
HETATM    8  C8  UNL     1     -35.494  14.512  -5.941  1.00 20.00    -0.019 C 
HETATM    9  O12 UNL     1     -32.945  16.547  -4.564  1.00 20.00    -0.297 OA
ENDROOT
BRANCH   8  10
HETATM   10  C11 UNL     1     -36.649  15.298  -5.262  1.00 20.00    -0.013 C 
HETATM   11  C9  UNL     1     -37.837  15.375  -6.204  1.00 20.00     0.010 C 
HETATM   12  C10 UNL     1     -37.019  14.630  -3.950  1.00 20.00     0.010 C 
ENDBRANCH   8  10
TORSDOF 1
ENDMDL
MODEL 6
REMARK VINA RESULT:      -4.5      1.899      2.798
REMARK  1 active torsions:
REMARK  status: ('A' for Active; 'I' for Inactive)
REMARK    1  A    between atoms: C8_8  and  C11_11 
ROOT
HETATM    1  C1  UNL     1     -33.911  14.450  -3.753  1.00 20.00    -0.076 C 
HETATM    2  C2  UNL     1     -35.824  16.230  -2.891  1.00 20.00     0.136 C 
HETATM    3  C3  UNL     1     -32.637  14.832  -3.702  1.00 20.00     0.015 C 
HETATM    4  C4  UNL     1     -34.689  13.327  -4.502  1.00 20.00     0.045 C 
HETATM    5  C5  UNL     1     -37.255  16.072  -3.415  1.00 20.00     0.080 C 
HETATM    6  C6  UNL     1     -37.237  14.645  -4.070  1.00 20.00     0.018 C 
HETATM    7  C7  UNL     1     -35.184  14.870  -3.108  1.00 20.00     0.092 C 
HETATM    8  C8  UNL     1     -35.783  14.460  -4.542  1.00 20.00    -0.019 C 
HETATM    9  O12 UNL     1     -35.366  17.251  -2.403  1.00 20.00    -0.297 OA
ENDROOT
BRANCH   8  10
HETATM   10  C11 UNL     1     -35.577  15.280  -5.845  1.00 20.00    -0.013 C 
HETATM   11  C9  UNL     1     -34.825  14.442  -6.862  1.00 20.00     0.010 C 
HETATM   12  C10 UNL     1     -36.923  15.733  -6.380  1.00 20.00     0.010 C 
ENDBRANCH   8  10
TORSDOF 1
ENDMDL
MODEL 7
REMARK VINA RESULT:      -4.5      1.530      2.985
REMARK  1 active torsions:
REMARK  status: ('A' for Active; 'I' for Inactive)
REMARK    1  A    between atoms: C8_8  and  C11_11 
ROOT
HETATM    1  C1  UNL     1     -34.183  14.361  -4.434  1.00 20.00    -0.076 C 
HETATM    2  C2  UNL     1     -35.139  16.214  -6.229  1.00 20.00     0.136 C 
HETATM    3  C3  UNL     1     -34.905  13.261  -4.231  1.00 20.00     0.015 C 
HETATM    4  C4  UNL     1     -33.038  15.078  -3.659  1.00 20.00     0.045 C 
HETATM    5  C5  UNL     1     -34.667  17.667  -6.097  1.00 20.00     0.080 C 
HETATM    6  C6  UNL     1     -33.453  17.556  -5.108  1.00 20.00     0.018 C 
HETATM    7  C7  UNL     1     -34.088  15.403  -5.491  1.00 20.00     0.092 C 
HETATM    8  C8  UNL     1     -33.789  16.343  -4.222  1.00 20.00    -0.019 C 
HETATM    9  O12 UNL     1     -36.142  15.856  -6.823  1.00 20.00    -0.297 OA
ENDROOT
BRANCH   8  10
HETATM   10  C11 UNL     1     -34.857  16.772  -3.179  1.00 20.00    -0.013 C 
HETATM   11  C9  UNL     1     -34.492  16.212  -1.816  1.00 20.00     0.010 C 
HETATM   12  C10 UNL     1     -34.962  18.286  -3.151  1.00 20.00     0.010 C 
ENDBRANCH   8  10
TORSDOF 1
ENDMDL
MODEL 8
REMARK VINA RESULT:      -4.5      1.865      3.764
REMARK  1 active torsions:
REMARK  status: ('A' for Active; 'I' for Inactive)
REMARK    1  A    between atoms: C8_8  and  C11_11 
ROOT
HETATM    1  C1  UNL     1     -34.129  16.742  -6.603  1.00 20.00    -0.076 C 
HETATM    2  C2  UNL     1     -33.636  16.781  -3.897  1.00 20.00     0.136 C 
HETATM    3  C3  UNL     1     -34.406  17.897  -7.203  1.00 20.00     0.015 C 
HETATM    4  C4  UNL     1     -34.328  15.241  -6.974  1.00 20.00     0.045 C 
HETATM    5  C5  UNL     1     -33.850  15.490  -3.099  1.00 20.00     0.080 C 
HETATM    6  C6  UNL     1     -33.981  14.398  -4.220  1.00 20.00     0.018 C 
HETATM    7  C7  UNL     1     -33.477  16.319  -5.336  1.00 20.00     0.092 C 
HETATM    8  C8  UNL     1     -34.580  15.153  -5.421  1.00 20.00    -0.019 C 
HETATM    9  O12 UNL     1     -33.597  17.902  -3.418  1.00 20.00    -0.297 OA
ENDROOT
BRANCH   8  10
HETATM   10  C11 UNL     1     -36.098  15.362  -5.168  1.00 20.00    -0.013 C 
HETATM   11  C9  UNL     1     -36.868  15.117  -6.453  1.00 20.00     0.010 C 
HETATM   12  C10 UNL     1     -36.561  14.439  -4.056  1.00 20.00     0.010 C 
ENDBRANCH   8  10
TORSDOF 1
ENDMDL
MODEL 9
REMARK VINA RESULT:      -4.5      1.531      3.279
REMARK  1 active torsions:
REMARK  status: ('A' for Active; 'I' for Inactive)
REMARK    1  A    between atoms: C8_8  and  C11_11 
ROOT
HETATM    1  C1  UNL     1     -35.962  15.114  -6.720  1.00 20.00    -0.076 C 
HETATM    2  C2  UNL     1     -35.164  13.678  -4.513  1.00 20.00     0.136 C 
HETATM    3  C3  UNL     1     -35.793  14.560  -7.918  1.00 20.00     0.015 C 
HETATM    4  C4  UNL     1     -36.213  16.565  -6.210  1.00 20.00     0.045 C 
HETATM    5  C5  UNL     1     -34.836  14.443  -3.226  1.00 20.00     0.080 C 
HETATM    6  C6  UNL     1     -35.415  15.875  -3.507  1.00 20.00     0.018 C 
HETATM    7  C7  UNL     1     -36.032  14.633  -5.314  1.00 20.00     0.092 C 
HETATM    8  C8  UNL     1     -35.305  16.039  -5.035  1.00 20.00    -0.019 C 
HETATM    9  O12 UNL     1     -34.789  12.546  -4.769  1.00 20.00    -0.297 OA
ENDROOT
BRANCH   8  10
HETATM   10  C11 UNL     1     -33.826  16.347  -5.395  1.00 20.00    -0.013 C 
HETATM   11  C9  UNL     1     -33.685  17.813  -5.762  1.00 20.00     0.010 C 
HETATM   12  C10 UNL     1     -32.929  15.975  -4.228  1.00 20.00     0.010 C 
ENDBRANCH   8  10
TORSDOF 1
ENDMDL
