MODEL 1
REMARK VINA RESULT:      -4.1      0.000      0.000
REMARK  3 active torsions:
REMARK  status: ('A' for Active; 'I' for Inactive)
REMARK    1  A    between atoms: C3_3  and  C5_5 
REMARK    2  A    between atoms: C4_4  and  C5_5 
REMARK    3  A    between atoms: C5_5  and  O6_6 
ROOT
HETATM    1  C5  UNL     1     -33.983   6.368   3.863  1.00 20.00     0.132 C 
ENDROOT
BRANCH   1   2
HETATM    2  C3  UNL     1     -32.614   6.436   3.280  1.00 20.00     0.015 A 
HETATM    3  C1  UNL     1     -32.216   7.605   2.421  1.00 20.00     0.007 A 
HETATM    4  C2  UNL     1     -31.622   7.444   3.793  1.00 20.00     0.007 A 
ENDBRANCH   1   2
BRANCH   1   5
HETATM    5  C4  UNL     1     -33.934   6.143   5.372  1.00 20.00     0.117 C 
HETATM    6 BR7  UNL     1     -34.855   4.489   5.850  1.00 20.00    -0.094 Br
ENDBRANCH   1   5
BRANCH   1   7
HETATM    7  O6  UNL     1     -34.696   5.277   3.272  1.00 20.00    -0.394 OA
HETATM    8  H16 UNL     1     -34.854   4.639   3.983  1.00 20.00     0.210 HD
ENDBRANCH   1   7
TORSDOF 3
ENDMDL
MODEL 2
REMARK VINA RESULT:      -4.0      2.353      3.621
REMARK  3 active torsions:
REMARK  status: ('A' for Active; 'I' for Inactive)
REMARK    1  A    between atoms: C3_3  and  C5_5 
REMARK    2  A    between atoms: C4_4  and  C5_5 
REMARK    3  A    between atoms: C5_5  and  O6_6 
ROOT
HETATM    1  C5  UNL     1     -33.782   5.468   3.960  1.00 20.00     0.132 C 
ENDROOT
BRANCH   1   2
HETATM    2  C3  UNL     1     -34.915   5.197   4.889  1.00 20.00     0.015 A 
HETATM    3  C1  UNL     1     -34.883   3.992   5.790  1.00 20.00     0.007 A 
HETATM    4  C2  UNL     1     -34.735   5.371   6.372  1.00 20.00     0.007 A 
ENDBRANCH   1   2
BRANCH   1   5
HETATM    5  C4  UNL     1     -33.203   6.863   4.181  1.00 20.00     0.117 C 
HETATM    6 BR7  UNL     1     -32.122   7.406   2.649  1.00 20.00    -0.094 Br
ENDBRANCH   1   5
BRANCH   1   7
HETATM    7  O6  UNL     1     -34.248   5.385   2.610  1.00 20.00    -0.394 OA
HETATM    8  H16 UNL     1     -35.162   5.703   2.618  1.00 20.00     0.210 HD
ENDBRANCH   1   7
TORSDOF 3
ENDMDL
MODEL 3
REMARK VINA RESULT:      -3.6     11.703     12.153
REMARK  3 active torsions:
REMARK  status: ('A' for Active; 'I' for Inactive)
REMARK    1  A    between atoms: C3_3  and  C5_5 
REMARK    2  A    between atoms: C4_4  and  C5_5 
REMARK    3  A    between atoms: C5_5  and  O6_6 
ROOT
HETATM    1  C5  UNL     1     -34.591  13.616  -4.726  1.00 20.00     0.132 C 
ENDROOT
BRANCH   1   2
HETATM    2  C3  UNL     1     -33.970  14.363  -3.596  1.00 20.00     0.015 A 
HETATM    3  C1  UNL     1     -32.480  14.564  -3.550  1.00 20.00     0.007 A 
HETATM    4  C2  UNL     1     -33.389  15.731  -3.823  1.00 20.00     0.007 A 
ENDBRANCH   1   2
BRANCH   1   5
HETATM    5  C4  UNL     1     -35.524  14.510  -5.539  1.00 20.00     0.117 C 
HETATM    6 BR7  UNL     1     -34.758  14.884  -7.295  1.00 20.00    -0.094 Br
ENDBRANCH   1   5
BRANCH   1   7
HETATM    7  O6  UNL     1     -35.357  12.524  -4.207  1.00 20.00    -0.394 OA
HETATM    8  H16 UNL     1     -36.254  12.634  -4.554  1.00 20.00     0.210 HD
ENDBRANCH   1   7
TORSDOF 3
ENDMDL
MODEL 4
REMARK VINA RESULT:      -3.5     11.378     12.333
REMARK  3 active torsions:
REMARK  status: ('A' for Active; 'I' for Inactive)
REMARK    1  A    between atoms: C3_3  and  C5_5 
REMARK    2  A    between atoms: C4_4  and  C5_5 
REMARK    3  A    between atoms: C5_5  and  O6_6 
ROOT
HETATM    1  C5  UNL     1     -35.045  13.887  -4.498  1.00 20.00     0.132 C 
ENDROOT
BRANCH   1   2
HETATM    2  C3  UNL     1     -34.876  13.944  -5.977  1.00 20.00     0.015 A 
HETATM    3  C1  UNL     1     -35.821  14.760  -6.815  1.00 20.00     0.007 A 
HETATM    4  C2  UNL     1     -34.396  15.208  -6.636  1.00 20.00     0.007 A 
ENDBRANCH   1   2
BRANCH   1   5
HETATM    5  C4  UNL     1     -33.763  14.292  -3.776  1.00 20.00     0.117 C 
HETATM    6 BR7  UNL     1     -34.039  15.934  -2.757  1.00 20.00    -0.094 Br
ENDBRANCH   1   5
BRANCH   1   7
HETATM    7  O6  UNL     1     -35.372  12.549  -4.110  1.00 20.00    -0.394 OA
HETATM    8  H16 UNL     1     -36.250  12.368  -4.476  1.00 20.00     0.210 HD
ENDBRANCH   1   7
TORSDOF 3
ENDMDL
MODEL 5
REMARK VINA RESULT:      -3.5     11.911     12.420
REMARK  3 active torsions:
REMARK  status: ('A' for Active; 'I' for Inactive)
REMARK    1  A    between atoms: C3_3  and  C5_5 
REMARK    2  A    between atoms: C4_4  and  C5_5 
REMARK    3  A    between atoms: C5_5  and  O6_6 
ROOT
HETATM    1  C5  UNL     1     -33.735  16.216  -4.187  1.00 20.00     0.132 C 
ENDROOT
BRANCH   1   2
HETATM    2  C3  UNL     1     -33.644  15.950  -2.725  1.00 20.00     0.015 A 
HETATM    3  C1  UNL     1     -33.725  17.087  -1.743  1.00 20.00     0.007 A 
HETATM    4  C2  UNL     1     -34.859  16.104  -1.851  1.00 20.00     0.007 A 
ENDBRANCH   1   2
BRANCH   1   5
HETATM    5  C4  UNL     1     -34.835  15.381  -4.838  1.00 20.00     0.117 C 
HETATM    6 BR7  UNL     1     -34.473  13.476  -4.615  1.00 20.00    -0.094 Br
ENDBRANCH   1   5
BRANCH   1   7
HETATM    7  O6  UNL     1     -32.491  15.878  -4.808  1.00 20.00    -0.394 OA
HETATM    8  H16 UNL     1     -32.704  15.608  -5.714  1.00 20.00     0.210 HD
ENDBRANCH   1   7
TORSDOF 3
ENDMDL
MODEL 6
REMARK VINA RESULT:      -3.4      2.647      3.956
REMARK  3 active torsions:
REMARK  status: ('A' for Active; 'I' for Inactive)
REMARK    1  A    between atoms: C3_3  and  C5_5 
REMARK    2  A    between atoms: C4_4  and  C5_5 
REMARK    3  A    between atoms: C5_5  and  O6_6 
ROOT
HETATM    1  C5  UNL     1     -33.957   6.224   4.770  1.00 20.00     0.132 C 
ENDROOT
BRANCH   1   2
HETATM    2  C3  UNL     1     -34.060   4.928   5.497  1.00 20.00     0.015 A 
HETATM    3  C1  UNL     1     -35.230   4.660   6.404  1.00 20.00     0.007 A 
HETATM    4  C2  UNL     1     -35.103   3.919   5.101  1.00 20.00     0.007 A 
ENDBRANCH   1   2
BRANCH   1   5
HETATM    5  C4  UNL     1     -33.493   6.018   3.330  1.00 20.00     0.117 C 
HETATM    6 BR7  UNL     1     -32.127   7.330   2.856  1.00 20.00    -0.094 Br
ENDBRANCH   1   5
BRANCH   1   7
HETATM    7  O6  UNL     1     -33.006   7.064   5.431  1.00 20.00    -0.394 OA
HETATM    8  H16 UNL     1     -33.164   7.961   5.105  1.00 20.00     0.210 HD
ENDBRANCH   1   7
TORSDOF 3
ENDMDL
MODEL 7
REMARK VINA RESULT:      -3.4     11.753     12.323
REMARK  3 active torsions:
REMARK  status: ('A' for Active; 'I' for Inactive)
REMARK    1  A    between atoms: C3_3  and  C5_5 
REMARK    2  A    between atoms: C4_4  and  C5_5 
REMARK    3  A    between atoms: C5_5  and  O6_6 
ROOT
HETATM    1  C5  UNL     1     -33.523  15.428  -4.016  1.00 20.00     0.132 C 
ENDROOT
BRANCH   1   2
HETATM    2  C3  UNL     1     -34.481  14.663  -4.862  1.00 20.00     0.015 A 
HETATM    3  C1  UNL     1     -34.585  13.169  -4.726  1.00 20.00     0.007 A 
HETATM    4  C2  UNL     1     -35.708  14.047  -4.248  1.00 20.00     0.007 A 
ENDBRANCH   1   2
BRANCH   1   5
HETATM    5  C4  UNL     1     -34.171  16.684  -3.438  1.00 20.00     0.117 C 
HETATM    6 BR7  UNL     1     -34.533  16.455  -1.533  1.00 20.00    -0.094 Br
ENDBRANCH   1   5
BRANCH   1   7
HETATM    7  O6  UNL     1     -32.403  15.828  -4.811  1.00 20.00    -0.394 OA
HETATM    8  H16 UNL     1     -32.011  16.591  -4.362  1.00 20.00     0.210 HD
ENDBRANCH   1   7
TORSDOF 3
ENDMDL
MODEL 8
REMARK VINA RESULT:      -3.4     11.171     11.609
REMARK  3 active torsions:
REMARK  status: ('A' for Active; 'I' for Inactive)
REMARK    1  A    between atoms: C3_3  and  C5_5 
REMARK    2  A    between atoms: C4_4  and  C5_5 
REMARK    3  A    between atoms: C5_5  and  O6_6 
ROOT
HETATM    1  C5  UNL     1     -35.088  15.482  -3.392  1.00 20.00     0.132 C 
ENDROOT
BRANCH   1   2
HETATM    2  C3  UNL     1     -34.710  14.043  -3.458  1.00 20.00     0.015 A 
HETATM    3  C1  UNL     1     -34.438  13.393  -4.786  1.00 20.00     0.007 A 
HETATM    4  C2  UNL     1     -33.307  13.646  -3.828  1.00 20.00     0.007 A 
ENDBRANCH   1   2
BRANCH   1   5
HETATM    5  C4  UNL     1     -34.019  16.307  -2.680  1.00 20.00     0.117 C 
HETATM    6 BR7  UNL     1     -34.597  16.768  -0.873  1.00 20.00    -0.094 Br
ENDBRANCH   1   5
BRANCH   1   7
HETATM    7  O6  UNL     1     -36.314  15.617  -2.665  1.00 20.00    -0.394 OA
HETATM    8  H16 UNL     1     -36.143  16.260  -1.962  1.00 20.00     0.210 HD
ENDBRANCH   1   7
TORSDOF 3
ENDMDL
MODEL 9
REMARK VINA RESULT:      -3.3      2.006      2.361
REMARK  3 active torsions:
REMARK  status: ('A' for Active; 'I' for Inactive)
REMARK    1  A    between atoms: C3_3  and  C5_5 
REMARK    2  A    between atoms: C4_4  and  C5_5 
REMARK    3  A    between atoms: C5_5  and  O6_6 
ROOT
HETATM    1  C5  UNL     1     -35.053   5.033   5.062  1.00 20.00     0.132 C 
ENDROOT
BRANCH   1   2
HETATM    2  C3  UNL     1     -33.896   5.296   4.162  1.00 20.00     0.015 A 
HETATM    3  C1  UNL     1     -34.098   5.377   2.674  1.00 20.00     0.007 A 
HETATM    4  C2  UNL     1     -33.772   6.619   3.457  1.00 20.00     0.007 A 
ENDBRANCH   1   2
BRANCH   1   5
HETATM    5  C4  UNL     1     -34.714   5.360   6.514  1.00 20.00     0.117 C 
HETATM    6 BR7  UNL     1     -33.672   7.007   6.622  1.00 20.00    -0.094 Br
ENDBRANCH   1   5
BRANCH   1   7
HETATM    7  O6  UNL     1     -35.405   3.648   4.987  1.00 20.00    -0.394 OA
HETATM    8  H16 UNL     1     -35.996   3.560   4.225  1.00 20.00     0.210 HD
ENDBRANCH   1   7
TORSDOF 3
ENDMDL
