MODEL 1
REMARK VINA RESULT:      -5.0      0.000      0.000
REMARK  0 active torsions:
REMARK  status: ('A' for Active; 'I' for Inactive)
ROOT
HETATM    1  C1  UNL     1     -34.482  14.464  -3.454  1.00 20.00     0.198 C 
HETATM    2  C2  UNL     1     -35.924  14.917  -3.484  1.00 20.00     0.085 C 
HETATM    3  C3  UNL     1     -36.567  14.670  -4.843  1.00 20.00     0.008 C 
HETATM    4  C4  UNL     1     -36.034  15.542  -5.986  1.00 20.00     0.000 C 
HETATM    5  C5  UNL     1     -34.591  15.235  -6.395  1.00 20.00     0.000 C 
HETATM    6  C6  UNL     1     -33.546  16.246  -5.913  1.00 20.00     0.006 C 
HETATM    7  C7  UNL     1     -33.586  16.652  -4.441  1.00 20.00     0.087 C 
HETATM    8  C8  UNL     1     -33.398  15.520  -3.439  1.00 20.00     0.302 C 
HETATM    9  O9  UNL     1     -34.195  13.265  -3.429  1.00 20.00    -0.291 OA
HETATM   10  F10 UNL     1     -32.177  14.955  -3.654  1.00 20.00    -0.198 F 
HETATM   11  F11 UNL     1     -33.331  16.075  -2.195  1.00 20.00    -0.198 F 
ENDROOT
TORSDOF 0
ENDMDL
MODEL 2
REMARK VINA RESULT:      -4.9      1.885      2.749
REMARK  0 active torsions:
REMARK  status: ('A' for Active; 'I' for Inactive)
ROOT
HETATM    1  C1  UNL     1     -33.270  15.747  -3.838  1.00 20.00     0.198 C 
HETATM    2  C2  UNL     1     -33.134  14.260  -3.599  1.00 20.00     0.085 C 
HETATM    3  C3  UNL     1     -34.025  13.452  -4.533  1.00 20.00     0.008 C 
HETATM    4  C4  UNL     1     -35.532  13.584  -4.276  1.00 20.00     0.000 C 
HETATM    5  C5  UNL     1     -36.109  14.964  -4.601  1.00 20.00     0.000 C 
HETATM    6  C6  UNL     1     -36.414  15.847  -3.386  1.00 20.00     0.006 C 
HETATM    7  C7  UNL     1     -35.324  15.985  -2.325  1.00 20.00     0.087 C 
HETATM    8  C8  UNL     1     -34.005  16.575  -2.807  1.00 20.00     0.302 C 
HETATM    9  O9  UNL     1     -32.783  16.274  -4.840  1.00 20.00    -0.291 OA
HETATM   10  F10 UNL     1     -34.245  17.829  -3.283  1.00 20.00    -0.198 F 
HETATM   11  F11 UNL     1     -33.204  16.745  -1.715  1.00 20.00    -0.198 F 
ENDROOT
TORSDOF 0
ENDMDL
MODEL 3
REMARK VINA RESULT:      -4.8      1.757      2.792
REMARK  0 active torsions:
REMARK  status: ('A' for Active; 'I' for Inactive)
ROOT
HETATM    1  C1  UNL     1     -34.522  16.685  -4.140  1.00 20.00     0.198 C 
HETATM    2  C2  UNL     1     -33.572  16.784  -5.311  1.00 20.00     0.085 C 
HETATM    3  C3  UNL     1     -34.203  16.266  -6.597  1.00 20.00     0.008 C 
HETATM    4  C4  UNL     1     -34.455  14.754  -6.639  1.00 20.00     0.000 C 
HETATM    5  C5  UNL     1     -35.544  14.269  -5.679  1.00 20.00     0.000 C 
HETATM    6  C6  UNL     1     -35.036  13.562  -4.418  1.00 20.00     0.006 C 
HETATM    7  C7  UNL     1     -33.924  14.248  -3.627  1.00 20.00     0.087 C 
HETATM    8  C8  UNL     1     -34.256  15.632  -3.086  1.00 20.00     0.302 C 
HETATM    9  O9  UNL     1     -35.481  17.452  -4.037  1.00 20.00    -0.291 OA
HETATM   10  F10 UNL     1     -35.320  15.519  -2.242  1.00 20.00    -0.198 F 
HETATM   11  F11 UNL     1     -33.211  16.033  -2.305  1.00 20.00    -0.198 F 
ENDROOT
TORSDOF 0
ENDMDL
MODEL 4
REMARK VINA RESULT:      -4.7      2.518      3.491
REMARK  0 active torsions:
REMARK  status: ('A' for Active; 'I' for Inactive)
ROOT
HETATM    1  C1  UNL     1     -35.580  14.193  -5.063  1.00 20.00     0.198 C 
HETATM    2  C2  UNL     1     -34.466  13.245  -4.682  1.00 20.00     0.085 C 
HETATM    3  C3  UNL     1     -33.640  13.780  -3.519  1.00 20.00     0.008 C 
HETATM    4  C4  UNL     1     -32.786  15.013  -3.837  1.00 20.00     0.000 C 
HETATM    5  C5  UNL     1     -33.592  16.287  -4.106  1.00 20.00     0.000 C 
HETATM    6  C6  UNL     1     -33.693  16.697  -5.578  1.00 20.00     0.006 C 
HETATM    7  C7  UNL     1     -34.090  15.618  -6.583  1.00 20.00     0.087 C 
HETATM    8  C8  UNL     1     -35.450  14.971  -6.354  1.00 20.00     0.302 C 
HETATM    9  O9  UNL     1     -36.576  14.320  -4.348  1.00 20.00    -0.291 OA
HETATM   10  F10 UNL     1     -36.404  15.941  -6.428  1.00 20.00    -0.198 F 
HETATM   11  F11 UNL     1     -35.694  14.138  -7.407  1.00 20.00    -0.198 F 
ENDROOT
TORSDOF 0
ENDMDL
MODEL 5
REMARK VINA RESULT:      -4.7      2.069      3.254
REMARK  0 active torsions:
REMARK  status: ('A' for Active; 'I' for Inactive)
ROOT
HETATM    1  C1  UNL     1     -33.989  14.284  -4.669  1.00 20.00     0.198 C 
HETATM    2  C2  UNL     1     -33.467  15.408  -3.804  1.00 20.00     0.085 C 
HETATM    3  C3  UNL     1     -34.297  15.581  -2.538  1.00 20.00     0.008 C 
HETATM    4  C4  UNL     1     -35.721  16.108  -2.757  1.00 20.00     0.000 C 
HETATM    5  C5  UNL     1     -36.655  15.127  -3.470  1.00 20.00     0.000 C 
HETATM    6  C6  UNL     1     -36.934  15.445  -4.943  1.00 20.00     0.006 C 
HETATM    7  C7  UNL     1     -35.734  15.752  -5.836  1.00 20.00     0.087 C 
HETATM    8  C8  UNL     1     -34.700  14.641  -5.957  1.00 20.00     0.302 C 
HETATM    9  O9  UNL     1     -33.828  13.106  -4.343  1.00 20.00    -0.291 OA
HETATM   10  F10 UNL     1     -35.309  13.543  -6.487  1.00 20.00    -0.198 F 
HETATM   11  F11 UNL     1     -33.778  15.031  -6.884  1.00 20.00    -0.198 F 
ENDROOT
TORSDOF 0
ENDMDL
MODEL 6
REMARK VINA RESULT:      -4.7      2.369      3.223
REMARK  0 active torsions:
REMARK  status: ('A' for Active; 'I' for Inactive)
ROOT
HETATM    1  C1  UNL     1     -35.773  15.075  -4.899  1.00 20.00     0.198 C 
HETATM    2  C2  UNL     1     -36.497  14.958  -3.577  1.00 20.00     0.085 C 
HETATM    3  C3  UNL     1     -36.120  16.084  -2.623  1.00 20.00     0.008 C 
HETATM    4  C4  UNL     1     -34.681  16.040  -2.096  1.00 20.00     0.000 C 
HETATM    5  C5  UNL     1     -33.611  16.316  -3.156  1.00 20.00     0.000 C 
HETATM    6  C6  UNL     1     -32.850  15.083  -3.653  1.00 20.00     0.006 C 
HETATM    7  C7  UNL     1     -33.676  13.865  -4.064  1.00 20.00     0.087 C 
HETATM    8  C8  UNL     1     -34.664  14.091  -5.200  1.00 20.00     0.302 C 
HETATM    9  O9  UNL     1     -36.087  15.942  -5.718  1.00 20.00    -0.291 OA
HETATM   10  F10 UNL     1     -33.967  14.478  -6.305  1.00 20.00    -0.198 F 
HETATM   11  F11 UNL     1     -35.212  12.882  -5.519  1.00 20.00    -0.198 F 
ENDROOT
TORSDOF 0
ENDMDL
MODEL 7
REMARK VINA RESULT:      -4.6      1.469      2.717
REMARK  0 active torsions:
REMARK  status: ('A' for Active; 'I' for Inactive)
ROOT
HETATM    1  C1  UNL     1     -33.645  16.235  -4.409  1.00 20.00     0.198 C 
HETATM    2  C2  UNL     1     -33.425  16.167  -5.904  1.00 20.00     0.085 C 
HETATM    3  C3  UNL     1     -34.741  16.202  -6.671  1.00 20.00     0.008 C 
HETATM    4  C4  UNL     1     -35.621  14.956  -6.516  1.00 20.00     0.000 C 
HETATM    5  C5  UNL     1     -36.217  14.773  -5.118  1.00 20.00     0.000 C 
HETATM    6  C6  UNL     1     -35.548  13.695  -4.259  1.00 20.00     0.006 C 
HETATM    7  C7  UNL     1     -34.023  13.714  -4.168  1.00 20.00     0.087 C 
HETATM    8  C8  UNL     1     -33.411  14.984  -3.592  1.00 20.00     0.302 C 
HETATM    9  O9  UNL     1     -33.991  17.287  -3.868  1.00 20.00    -0.291 OA
HETATM   10  F10 UNL     1     -33.878  15.147  -2.322  1.00 20.00    -0.198 F 
HETATM   11  F11 UNL     1     -32.069  14.776  -3.464  1.00 20.00    -0.198 F 
ENDROOT
TORSDOF 0
ENDMDL
MODEL 8
REMARK VINA RESULT:      -4.6      1.763      2.242
REMARK  0 active torsions:
REMARK  status: ('A' for Active; 'I' for Inactive)
ROOT
HETATM    1  C1  UNL     1     -34.260  14.542  -4.823  1.00 20.00     0.198 C 
HETATM    2  C2  UNL     1     -35.286  13.693  -4.107  1.00 20.00     0.085 C 
HETATM    3  C3  UNL     1     -36.666  14.338  -4.123  1.00 20.00     0.008 C 
HETATM    4  C4  UNL     1     -36.802  15.612  -3.282  1.00 20.00     0.000 C 
HETATM    5  C5  UNL     1     -36.020  16.813  -3.822  1.00 20.00     0.000 C 
HETATM    6  C6  UNL     1     -34.731  17.146  -3.064  1.00 20.00     0.006 C 
HETATM    7  C7  UNL     1     -33.768  15.997  -2.773  1.00 20.00     0.087 C 
HETATM    8  C8  UNL     1     -33.223  15.267  -3.993  1.00 20.00     0.302 C 
HETATM    9  O9  UNL     1     -34.259  14.631  -6.052  1.00 20.00    -0.291 OA
HETATM   10  F10 UNL     1     -32.538  16.163  -4.759  1.00 20.00    -0.198 F 
HETATM   11  F11 UNL     1     -32.291  14.371  -3.558  1.00 20.00    -0.198 F 
ENDROOT
TORSDOF 0
ENDMDL
MODEL 9
REMARK VINA RESULT:      -4.6      2.497      3.723
REMARK  0 active torsions:
REMARK  status: ('A' for Active; 'I' for Inactive)
ROOT
HETATM    1  C1  UNL     1     -35.178  14.010  -4.535  1.00 20.00     0.198 C 
HETATM    2  C2  UNL     1     -33.884  14.666  -4.958  1.00 20.00     0.085 C 
HETATM    3  C3  UNL     1     -33.024  15.047  -3.760  1.00 20.00     0.008 C 
HETATM    4  C4  UNL     1     -33.578  16.183  -2.892  1.00 20.00     0.000 C 
HETATM    5  C5  UNL     1     -34.847  15.823  -2.115  1.00 20.00     0.000 C 
HETATM    6  C6  UNL     1     -36.147  16.402  -2.681  1.00 20.00     0.006 C 
HETATM    7  C7  UNL     1     -36.399  16.234  -4.178  1.00 20.00     0.087 C 
HETATM    8  C8  UNL     1     -36.463  14.797  -4.679  1.00 20.00     0.302 C 
HETATM    9  O9  UNL     1     -35.190  12.858  -4.097  1.00 20.00    -0.291 OA
HETATM   10  F10 UNL     1     -37.486  14.164  -4.040  1.00 20.00    -0.198 F 
HETATM   11  F11 UNL     1     -36.821  14.833  -5.996  1.00 20.00    -0.198 F 
ENDROOT
TORSDOF 0
ENDMDL
