MODEL 1
REMARK VINA RESULT:      -4.9      0.000      0.000
REMARK  3 active torsions:
REMARK  status: ('A' for Active; 'I' for Inactive)
REMARK    1  A    between atoms: C3_3  and  C8_8 
REMARK    2  A    between atoms: C6_6  and  C7_7 
REMARK    3  A    between atoms: C7_7  and  C8_8 
ROOT
HETATM    1  C5  UNL     1     -34.329   5.119   2.529  1.00 20.00     0.010 C 
HETATM    2  C8  UNL     1     -33.776   5.562   3.885  1.00 20.00    -0.014 C 
ENDROOT
BRANCH   2   3
HETATM    3  C3  UNL     1     -34.861   5.423   4.956  1.00 20.00    -0.011 A 
HETATM    4  C1  UNL     1     -35.028   4.129   5.702  1.00 20.00     0.005 A 
HETATM    5  C2  UNL     1     -34.484   5.339   6.409  1.00 20.00     0.005 A 
ENDBRANCH   2   3
BRANCH   2   6
HETATM    6  C7  UNL     1     -33.248   7.009   3.860  1.00 20.00     0.004 C 
BRANCH   6   7
HETATM    7  C6  UNL     1     -31.946   7.170   3.073  1.00 20.00    -0.004 C 
HETATM    8  C4  UNL     1     -32.075   8.242   2.001  1.00 20.00     0.005 C 
ENDBRANCH   6   7
ENDBRANCH   2   6
TORSDOF 3
ENDMDL
MODEL 2
REMARK VINA RESULT:      -4.8      1.133      1.949
REMARK  3 active torsions:
REMARK  status: ('A' for Active; 'I' for Inactive)
REMARK    1  A    between atoms: C3_3  and  C8_8 
REMARK    2  A    between atoms: C6_6  and  C7_7 
REMARK    3  A    between atoms: C7_7  and  C8_8 
ROOT
HETATM    1  C5  UNL     1     -33.721   6.953   6.586  1.00 20.00     0.010 C 
HETATM    2  C8  UNL     1     -33.803   6.594   5.101  1.00 20.00    -0.014 C 
ENDROOT
BRANCH   2   3
HETATM    3  C3  UNL     1     -34.102   5.101   4.946  1.00 20.00    -0.011 A 
HETATM    4  C1  UNL     1     -35.081   4.425   5.866  1.00 20.00     0.005 A 
HETATM    5  C2  UNL     1     -35.437   4.647   4.422  1.00 20.00     0.005 A 
ENDBRANCH   2   3
BRANCH   2   6
HETATM    6  C7  UNL     1     -32.513   6.951   4.338  1.00 20.00     0.004 C 
BRANCH   6   7
HETATM    7  C6  UNL     1     -32.645   6.811   2.820  1.00 20.00    -0.004 C 
HETATM    8  C4  UNL     1     -32.089   8.030   2.101  1.00 20.00     0.005 C 
ENDBRANCH   6   7
ENDBRANCH   2   6
TORSDOF 3
ENDMDL
MODEL 3
REMARK VINA RESULT:      -4.7      0.940      4.013
REMARK  3 active torsions:
REMARK  status: ('A' for Active; 'I' for Inactive)
REMARK    1  A    between atoms: C3_3  and  C8_8 
REMARK    2  A    between atoms: C6_6  and  C7_7 
REMARK    3  A    between atoms: C7_7  and  C8_8 
ROOT
HETATM    1  C5  UNL     1     -34.851   5.538   3.267  1.00 20.00     0.010 C 
HETATM    2  C8  UNL     1     -33.957   6.521   4.024  1.00 20.00    -0.014 C 
ENDROOT
BRANCH   2   3
HETATM    3  C3  UNL     1     -32.545   6.495   3.434  1.00 20.00    -0.011 A 
HETATM    4  C1  UNL     1     -32.147   7.487   2.376  1.00 20.00     0.005 A 
HETATM    5  C2  UNL     1     -31.568   7.592   3.759  1.00 20.00     0.005 A 
ENDBRANCH   2   3
BRANCH   2   6
HETATM    6  C7  UNL     1     -33.898   6.220   5.534  1.00 20.00     0.004 C 
BRANCH   6   7
HETATM    7  C6  UNL     1     -34.954   5.213   5.996  1.00 20.00    -0.004 C 
HETATM    8  C4  UNL     1     -34.383   3.805   6.067  1.00 20.00     0.005 C 
ENDBRANCH   6   7
ENDBRANCH   2   6
TORSDOF 3
ENDMDL
MODEL 4
REMARK VINA RESULT:      -4.1      1.218      4.306
REMARK  3 active torsions:
REMARK  status: ('A' for Active; 'I' for Inactive)
REMARK    1  A    between atoms: C3_3  and  C8_8 
REMARK    2  A    between atoms: C6_6  and  C7_7 
REMARK    3  A    between atoms: C7_7  and  C8_8 
ROOT
HETATM    1  C5  UNL     1     -33.666   6.940   5.996  1.00 20.00     0.010 C 
HETATM    2  C8  UNL     1     -33.634   6.085   4.728  1.00 20.00    -0.014 C 
ENDROOT
BRANCH   2   3
HETATM    3  C3  UNL     1     -33.123   6.923   3.553  1.00 20.00    -0.011 A 
HETATM    4  C1  UNL     1     -31.720   7.462   3.562  1.00 20.00     0.005 A 
HETATM    5  C2  UNL     1     -32.094   6.358   2.613  1.00 20.00     0.005 A 
ENDBRANCH   2   3
BRANCH   2   6
HETATM    6  C7  UNL     1     -35.013   5.490   4.385  1.00 20.00     0.004 C 
BRANCH   6   7
HETATM    7  C6  UNL     1     -35.212   4.068   4.913  1.00 20.00    -0.004 C 
HETATM    8  C4  UNL     1     -35.200   4.034   6.434  1.00 20.00     0.005 C 
ENDBRANCH   6   7
ENDBRANCH   2   6
TORSDOF 3
ENDMDL
MODEL 5
REMARK VINA RESULT:      -4.1      1.460      4.744
REMARK  3 active torsions:
REMARK  status: ('A' for Active; 'I' for Inactive)
REMARK    1  A    between atoms: C3_3  and  C8_8 
REMARK    2  A    between atoms: C6_6  and  C7_7 
REMARK    3  A    between atoms: C7_7  and  C8_8 
ROOT
HETATM    1  C5  UNL     1     -31.467   7.991   4.065  1.00 20.00     0.010 C 
HETATM    2  C8  UNL     1     -31.898   7.252   2.796  1.00 20.00    -0.014 C 
ENDROOT
BRANCH   2   3
HETATM    3  C3  UNL     1     -32.666   8.207   1.879  1.00 20.00    -0.011 A 
HETATM    4  C1  UNL     1     -32.358   9.678   1.888  1.00 20.00     0.005 A 
HETATM    5  C2  UNL     1     -31.979   8.839   0.700  1.00 20.00     0.005 A 
ENDBRANCH   2   3
BRANCH   2   6
HETATM    6  C7  UNL     1     -32.760   6.013   3.101  1.00 20.00     0.004 C 
BRANCH   6   7
HETATM    7  C6  UNL     1     -33.866   6.276   4.125  1.00 20.00    -0.004 C 
HETATM    8  C4  UNL     1     -35.073   5.384   3.880  1.00 20.00     0.005 C 
ENDBRANCH   6   7
ENDBRANCH   2   6
TORSDOF 3
ENDMDL
MODEL 6
REMARK VINA RESULT:      -4.0     11.076     12.499
REMARK  3 active torsions:
REMARK  status: ('A' for Active; 'I' for Inactive)
REMARK    1  A    between atoms: C3_3  and  C8_8 
REMARK    2  A    between atoms: C6_6  and  C7_7 
REMARK    3  A    between atoms: C7_7  and  C8_8 
ROOT
HETATM    1  C5  UNL     1     -33.361  16.692  -5.107  1.00 20.00     0.010 C 
HETATM    2  C8  UNL     1     -33.337  15.992  -3.747  1.00 20.00    -0.014 C 
ENDROOT
BRANCH   2   3
HETATM    3  C3  UNL     1     -34.234  14.752  -3.789  1.00 20.00    -0.011 A 
HETATM    4  C1  UNL     1     -34.381  13.966  -5.062  1.00 20.00     0.005 A 
HETATM    5  C2  UNL     1     -33.625  13.381  -3.902  1.00 20.00     0.005 A 
ENDBRANCH   2   3
BRANCH   2   6
HETATM    6  C7  UNL     1     -33.779  16.919  -2.600  1.00 20.00     0.004 C 
BRANCH   6   7
HETATM    7  C6  UNL     1     -34.689  16.233  -1.578  1.00 20.00    -0.004 C 
HETATM    8  C4  UNL     1     -34.743  17.012  -0.273  1.00 20.00     0.005 C 
ENDBRANCH   6   7
ENDBRANCH   2   6
TORSDOF 3
ENDMDL
MODEL 7
REMARK VINA RESULT:      -3.9     11.151     12.506
REMARK  3 active torsions:
REMARK  status: ('A' for Active; 'I' for Inactive)
REMARK    1  A    between atoms: C3_3  and  C8_8 
REMARK    2  A    between atoms: C6_6  and  C7_7 
REMARK    3  A    between atoms: C7_7  and  C8_8 
ROOT
HETATM    1  C5  UNL     1     -33.702  17.416  -4.355  1.00 20.00     0.010 C 
HETATM    2  C8  UNL     1     -33.837  16.225  -3.404  1.00 20.00    -0.014 C 
ENDROOT
BRANCH   2   3
HETATM    3  C3  UNL     1     -33.636  16.693  -1.960  1.00 20.00    -0.011 A 
HETATM    4  C1  UNL     1     -34.378  17.894  -1.443  1.00 20.00     0.005 A 
HETATM    5  C2  UNL     1     -34.736  16.520  -0.949  1.00 20.00     0.005 A 
ENDBRANCH   2   3
BRANCH   2   6
HETATM    6  C7  UNL     1     -32.841  15.096  -3.731  1.00 20.00     0.004 C 
BRANCH   6   7
HETATM    7  C6  UNL     1     -33.469  13.701  -3.696  1.00 20.00    -0.004 C 
HETATM    8  C4  UNL     1     -34.956  13.754  -4.010  1.00 20.00     0.005 C 
ENDBRANCH   6   7
ENDBRANCH   2   6
TORSDOF 3
ENDMDL
MODEL 8
REMARK VINA RESULT:      -3.8      8.901      9.736
REMARK  3 active torsions:
REMARK  status: ('A' for Active; 'I' for Inactive)
REMARK    1  A    between atoms: C3_3  and  C8_8 
REMARK    2  A    between atoms: C6_6  and  C7_7 
REMARK    3  A    between atoms: C7_7  and  C8_8 
ROOT
HETATM    1  C5  UNL     1     -40.686   4.632  -0.989  1.00 20.00     0.010 C 
HETATM    2  C8  UNL     1     -41.315   5.769  -0.182  1.00 20.00    -0.014 C 
ENDROOT
BRANCH   2   3
HETATM    3  C3  UNL     1     -42.811   5.504   0.005  1.00 20.00    -0.011 A 
HETATM    4  C1  UNL     1     -43.292   4.147   0.438  1.00 20.00     0.005 A 
HETATM    5  C2  UNL     1     -43.379   5.312   1.384  1.00 20.00     0.005 A 
ENDBRANCH   2   3
BRANCH   2   6
HETATM    6  C7  UNL     1     -41.106   7.145  -0.843  1.00 20.00     0.004 C 
BRANCH   6   7
HETATM    7  C6  UNL     1     -42.357   7.681  -1.543  1.00 20.00    -0.004 C 
HETATM    8  C4  UNL     1     -42.267   7.503  -3.051  1.00 20.00     0.005 C 
ENDBRANCH   6   7
ENDBRANCH   2   6
TORSDOF 3
ENDMDL
MODEL 9
REMARK VINA RESULT:      -3.8     11.716     12.982
REMARK  3 active torsions:
REMARK  status: ('A' for Active; 'I' for Inactive)
REMARK    1  A    between atoms: C3_3  and  C8_8 
REMARK    2  A    between atoms: C6_6  and  C7_7 
REMARK    3  A    between atoms: C7_7  and  C8_8 
ROOT
HETATM    1  C5  UNL     1     -36.533  14.428  -4.129  1.00 20.00     0.010 C 
HETATM    2  C8  UNL     1     -35.171  15.058  -4.425  1.00 20.00    -0.014 C 
ENDROOT
BRANCH   2   3
HETATM    3  C3  UNL     1     -34.585  14.445  -5.700  1.00 20.00    -0.011 A 
HETATM    4  C1  UNL     1     -35.409  14.376  -6.955  1.00 20.00     0.005 A 
HETATM    5  C2  UNL     1     -34.244  15.322  -6.873  1.00 20.00     0.005 A 
ENDBRANCH   2   3
BRANCH   2   6
HETATM    6  C7  UNL     1     -34.178  14.889  -3.260  1.00 20.00     0.004 C 
BRANCH   6   7
HETATM    7  C6  UNL     1     -33.817  16.207  -2.570  1.00 20.00    -0.004 C 
HETATM    8  C4  UNL     1     -34.633  16.409  -1.302  1.00 20.00     0.005 C 
ENDBRANCH   6   7
ENDBRANCH   2   6
TORSDOF 3
ENDMDL
