MODEL 1
REMARK VINA RESULT:      -4.0      0.000      0.000
REMARK  3 active torsions:
REMARK  status: ('A' for Active; 'I' for Inactive)
REMARK    1  A    between atoms: C5_5  and  C8_8 
REMARK    2  A    between atoms: C6_6  and  C7_7 
REMARK    3  A    between atoms: C6_6  and  C8_8 
ROOT
HETATM    1  C4  UNL     1     -34.815  13.406  -4.137  1.00 20.00     0.032 C 
HETATM    2  C8  UNL     1     -34.164  14.799  -4.056  1.00 20.00     0.033 C 
HETATM    3 CL9  UNL     1     -32.444  14.508  -3.569  1.00 20.00    -0.120 Cl
ENDROOT
BRANCH   2   4
HETATM    4  C5  UNL     1     -34.147  15.475  -5.446  1.00 20.00     0.021 C 
HETATM    5  C1  UNL     1     -34.812  14.678  -6.563  1.00 20.00     0.007 C 
ENDBRANCH   2   4
BRANCH   2   6
HETATM    6  C6  UNL     1     -34.890  15.621  -2.957  1.00 20.00     0.029 C 
BRANCH   6   7
HETATM    7  C7  UNL     1     -34.055  16.493  -1.988  1.00 20.00    -0.021 C 
HETATM    8  C2  UNL     1     -33.788  17.855  -2.645  1.00 20.00     0.009 C 
HETATM    9  C3  UNL     1     -34.703  16.719  -0.624  1.00 20.00     0.009 C 
ENDBRANCH   6   7
ENDBRANCH   2   6
TORSDOF 3
ENDMDL
MODEL 2
REMARK VINA RESULT:      -3.9     10.785     11.925
REMARK  3 active torsions:
REMARK  status: ('A' for Active; 'I' for Inactive)
REMARK    1  A    between atoms: C5_5  and  C8_8 
REMARK    2  A    between atoms: C6_6  and  C7_7 
REMARK    3  A    between atoms: C6_6  and  C8_8 
ROOT
HETATM    1  C4  UNL     1     -32.068   5.603   3.014  1.00 20.00     0.032 C 
HETATM    2  C8  UNL     1     -32.514   6.989   3.515  1.00 20.00     0.033 C 
HETATM    3 CL9  UNL     1     -31.039   7.745   4.243  1.00 20.00    -0.120 Cl
ENDROOT
BRANCH   2   4
HETATM    4  C5  UNL     1     -32.958   7.880   2.333  1.00 20.00     0.021 C 
HETATM    5  C1  UNL     1     -31.824   8.441   1.482  1.00 20.00     0.007 C 
ENDBRANCH   2   4
BRANCH   2   6
HETATM    6  C6  UNL     1     -33.600   6.795   4.608  1.00 20.00     0.029 C 
BRANCH   6   7
HETATM    7  C7  UNL     1     -34.294   5.418   4.750  1.00 20.00    -0.021 C 
HETATM    8  C2  UNL     1     -34.589   5.159   6.235  1.00 20.00     0.009 C 
HETATM    9  C3  UNL     1     -35.590   5.278   3.955  1.00 20.00     0.009 C 
ENDBRANCH   6   7
ENDBRANCH   2   6
TORSDOF 3
ENDMDL
MODEL 3
REMARK VINA RESULT:      -3.7      1.156      1.767
REMARK  3 active torsions:
REMARK  status: ('A' for Active; 'I' for Inactive)
REMARK    1  A    between atoms: C5_5  and  C8_8 
REMARK    2  A    between atoms: C6_6  and  C7_7 
REMARK    3  A    between atoms: C6_6  and  C8_8 
ROOT
HETATM    1  C4  UNL     1     -35.766  14.603  -3.663  1.00 20.00     0.032 C 
HETATM    2  C8  UNL     1     -34.314  15.071  -3.869  1.00 20.00     0.033 C 
HETATM    3 CL9  UNL     1     -33.299  13.575  -3.776  1.00 20.00    -0.120 Cl
ENDROOT
BRANCH   2   4
HETATM    4  C5  UNL     1     -34.129  15.672  -5.281  1.00 20.00     0.021 C 
HETATM    5  C1  UNL     1     -33.360  16.988  -5.330  1.00 20.00     0.007 C 
ENDBRANCH   2   4
BRANCH   2   6
HETATM    6  C6  UNL     1     -33.936  16.036  -2.713  1.00 20.00     0.029 C 
BRANCH   6   7
HETATM    7  C7  UNL     1     -35.059  16.773  -1.943  1.00 20.00    -0.021 C 
HETATM    8  C2  UNL     1     -34.682  16.844  -0.457  1.00 20.00     0.009 C 
HETATM    9  C3  UNL     1     -35.352  18.184  -2.449  1.00 20.00     0.009 C 
ENDBRANCH   6   7
ENDBRANCH   2   6
TORSDOF 3
ENDMDL
MODEL 4
REMARK VINA RESULT:      -3.7      1.456      3.993
REMARK  3 active torsions:
REMARK  status: ('A' for Active; 'I' for Inactive)
REMARK    1  A    between atoms: C5_5  and  C8_8 
REMARK    2  A    between atoms: C6_6  and  C7_7 
REMARK    3  A    between atoms: C6_6  and  C8_8 
ROOT
HETATM    1  C4  UNL     1     -32.873  15.157  -3.795  1.00 20.00     0.032 C 
HETATM    2  C8  UNL     1     -34.411  15.149  -3.713  1.00 20.00     0.033 C 
HETATM    3 CL9  UNL     1     -34.901  13.414  -3.881  1.00 20.00    -0.120 Cl
ENDROOT
BRANCH   2   4
HETATM    4  C5  UNL     1     -34.886  15.636  -2.326  1.00 20.00     0.021 C 
HETATM    5  C1  UNL     1     -34.029  16.727  -1.693  1.00 20.00     0.007 C 
ENDBRANCH   2   4
BRANCH   2   6
HETATM    6  C6  UNL     1     -34.975  15.971  -4.904  1.00 20.00     0.029 C 
BRANCH   6   7
HETATM    7  C7  UNL     1     -34.106  16.161  -6.172  1.00 20.00    -0.021 C 
HETATM    8  C2  UNL     1     -34.437  15.045  -7.174  1.00 20.00     0.009 C 
HETATM    9  C3  UNL     1     -34.279  17.513  -6.860  1.00 20.00     0.009 C 
ENDBRANCH   6   7
ENDBRANCH   2   6
TORSDOF 3
ENDMDL
MODEL 5
REMARK VINA RESULT:      -3.6     10.971     12.166
REMARK  3 active torsions:
REMARK  status: ('A' for Active; 'I' for Inactive)
REMARK    1  A    between atoms: C5_5  and  C8_8 
REMARK    2  A    between atoms: C6_6  and  C7_7 
REMARK    3  A    between atoms: C6_6  and  C8_8 
ROOT
HETATM    1  C4  UNL     1     -33.831   4.829   2.741  1.00 20.00     0.032 C 
HETATM    2  C8  UNL     1     -34.421   5.761   3.816  1.00 20.00     0.033 C 
HETATM    3 CL9  UNL     1     -36.167   5.964   3.382  1.00 20.00    -0.120 Cl
ENDROOT
BRANCH   2   4
HETATM    4  C5  UNL     1     -34.362   5.095   5.209  1.00 20.00     0.021 C 
HETATM    5  C1  UNL     1     -34.249   6.060   6.384  1.00 20.00     0.007 C 
ENDBRANCH   2   4
BRANCH   2   6
HETATM    6  C6  UNL     1     -33.696   7.132   3.734  1.00 20.00     0.029 C 
BRANCH   6   7
HETATM    7  C7  UNL     1     -32.283   7.204   3.105  1.00 20.00    -0.021 C 
HETATM    8  C2  UNL     1     -32.301   8.220   1.954  1.00 20.00     0.009 C 
HETATM    9  C3  UNL     1     -31.174   7.584   4.084  1.00 20.00     0.009 C 
ENDBRANCH   6   7
ENDBRANCH   2   6
TORSDOF 3
ENDMDL
MODEL 6
REMARK VINA RESULT:      -3.6      1.687      2.397
REMARK  3 active torsions:
REMARK  status: ('A' for Active; 'I' for Inactive)
REMARK    1  A    between atoms: C5_5  and  C8_8 
REMARK    2  A    between atoms: C6_6  and  C7_7 
REMARK    3  A    between atoms: C6_6  and  C8_8 
ROOT
HETATM    1  C4  UNL     1     -33.252  16.374  -4.899  1.00 20.00     0.032 C 
HETATM    2  C8  UNL     1     -34.014  15.566  -3.832  1.00 20.00     0.033 C 
HETATM    3 CL9  UNL     1     -35.765  15.706  -4.271  1.00 20.00    -0.120 Cl
ENDROOT
BRANCH   2   4
HETATM    4  C5  UNL     1     -33.633  14.070  -3.904  1.00 20.00     0.021 C 
HETATM    5  C1  UNL     1     -34.566  13.204  -4.743  1.00 20.00     0.007 C 
ENDBRANCH   2   4
BRANCH   2   6
HETATM    6  C6  UNL     1     -33.766  16.220  -2.445  1.00 20.00     0.029 C 
BRANCH   6   7
HETATM    7  C7  UNL     1     -34.901  17.033  -1.777  1.00 20.00    -0.021 C 
HETATM    8  C2  UNL     1     -34.748  16.945  -0.252  1.00 20.00     0.009 C 
HETATM    9  C3  UNL     1     -34.951  18.503  -2.187  1.00 20.00     0.009 C 
ENDBRANCH   6   7
ENDBRANCH   2   6
TORSDOF 3
ENDMDL
MODEL 7
REMARK VINA RESULT:      -3.6      1.578      4.156
REMARK  3 active torsions:
REMARK  status: ('A' for Active; 'I' for Inactive)
REMARK    1  A    between atoms: C5_5  and  C8_8 
REMARK    2  A    between atoms: C6_6  and  C7_7 
REMARK    3  A    between atoms: C6_6  and  C8_8 
ROOT
HETATM    1  C4  UNL     1     -35.998  17.439  -2.778  1.00 20.00     0.032 C 
HETATM    2  C8  UNL     1     -34.646  16.706  -2.686  1.00 20.00     0.033 C 
HETATM    3 CL9  UNL     1     -33.665  17.312  -4.083  1.00 20.00    -0.120 Cl
ENDROOT
BRANCH   2   4
HETATM    4  C5  UNL     1     -33.901  17.095  -1.390  1.00 20.00     0.021 C 
HETATM    5  C1  UNL     1     -34.755  17.096  -0.126  1.00 20.00     0.007 C 
ENDBRANCH   2   4
BRANCH   2   6
HETATM    6  C6  UNL     1     -34.898  15.182  -2.842  1.00 20.00     0.029 C 
BRANCH   6   7
HETATM    7  C7  UNL     1     -34.227  14.419  -4.011  1.00 20.00    -0.021 C 
HETATM    8  C2  UNL     1     -32.902  13.818  -3.520  1.00 20.00     0.009 C 
HETATM    9  C3  UNL     1     -35.083  13.308  -4.614  1.00 20.00     0.009 C 
ENDBRANCH   6   7
ENDBRANCH   2   6
TORSDOF 3
ENDMDL
MODEL 8
REMARK VINA RESULT:      -3.6      0.940      4.273
REMARK  3 active torsions:
REMARK  status: ('A' for Active; 'I' for Inactive)
REMARK    1  A    between atoms: C5_5  and  C8_8 
REMARK    2  A    between atoms: C6_6  and  C7_7 
REMARK    3  A    between atoms: C6_6  and  C8_8 
ROOT
HETATM    1  C4  UNL     1     -33.799  17.573  -3.699  1.00 20.00     0.032 C 
HETATM    2  C8  UNL     1     -34.170  16.084  -3.569  1.00 20.00     0.033 C 
HETATM    3 CL9  UNL     1     -32.598  15.186  -3.572  1.00 20.00    -0.120 Cl
ENDROOT
BRANCH   2   4
HETATM    4  C5  UNL     1     -34.860  15.811  -2.214  1.00 20.00     0.021 C 
HETATM    5  C1  UNL     1     -34.425  16.719  -1.069  1.00 20.00     0.007 C 
ENDBRANCH   2   4
BRANCH   2   6
HETATM    6  C6  UNL     1     -35.013  15.674  -4.806  1.00 20.00     0.029 C 
BRANCH   6   7
HETATM    7  C7  UNL     1     -34.516  14.520  -5.712  1.00 20.00    -0.021 C 
HETATM    8  C2  UNL     1     -34.939  13.181  -5.091  1.00 20.00     0.009 C 
HETATM    9  C3  UNL     1     -35.024  14.582  -7.150  1.00 20.00     0.009 C 
ENDBRANCH   6   7
ENDBRANCH   2   6
TORSDOF 3
ENDMDL
MODEL 9
REMARK VINA RESULT:      -3.6      1.513      3.238
REMARK  3 active torsions:
REMARK  status: ('A' for Active; 'I' for Inactive)
REMARK    1  A    between atoms: C5_5  and  C8_8 
REMARK    2  A    between atoms: C6_6  and  C7_7 
REMARK    3  A    between atoms: C6_6  and  C8_8 
ROOT
HETATM    1  C4  UNL     1     -34.711  16.002  -2.034  1.00 20.00     0.032 C 
HETATM    2  C8  UNL     1     -34.515  15.537  -3.489  1.00 20.00     0.033 C 
HETATM    3 CL9  UNL     1     -32.785  15.016  -3.607  1.00 20.00    -0.120 Cl
ENDROOT
BRANCH   2   4
HETATM    4  C5  UNL     1     -35.395  14.304  -3.792  1.00 20.00     0.021 C 
HETATM    5  C1  UNL     1     -34.722  13.216  -4.623  1.00 20.00     0.007 C 
ENDBRANCH   2   4
BRANCH   2   6
HETATM    6  C6  UNL     1     -34.765  16.745  -4.432  1.00 20.00     0.029 C 
BRANCH   6   7
HETATM    7  C7  UNL     1     -33.785  17.010  -5.601  1.00 20.00    -0.021 C 
HETATM    8  C2  UNL     1     -34.247  16.214  -6.830  1.00 20.00     0.009 C 
HETATM    9  C3  UNL     1     -33.644  18.481  -5.986  1.00 20.00     0.009 C 
ENDBRANCH   6   7
ENDBRANCH   2   6
TORSDOF 3
ENDMDL
