MODEL 1
REMARK VINA RESULT:      -4.8      0.000      0.000
REMARK  0 active torsions:
REMARK  status: ('A' for Active; 'I' for Inactive)
ROOT
HETATM    1  C1  UNL     1     -33.942   6.357   4.560  1.00 20.00     0.078 C 
HETATM    2  C2  UNL     1     -34.686   5.235   6.548  1.00 20.00     0.152 C 
HETATM    3  C3  UNL     1     -33.893   6.280   5.889  1.00 20.00     0.134 C 
HETATM    4  C4  UNL     1     -34.881   4.030   4.549  1.00 20.00     0.213 C 
HETATM    5  C5  UNL     1     -34.718   5.345   3.777  1.00 20.00     0.217 C 
HETATM    6  N6  UNL     1     -35.203   4.205   5.976  1.00 20.00    -0.294 NA
HETATM    7  F7  UNL     1     -33.260   7.169   6.671  1.00 20.00    -0.205 F 
HETATM    8  F8  UNL     1     -34.070   5.062   2.611  1.00 20.00    -0.219 F 
HETATM    9 CL9  UNL     1     -36.314   6.036   3.369  1.00 20.00    -0.076 Cl
ENDROOT
TORSDOF 0
ENDMDL
MODEL 2
REMARK VINA RESULT:      -4.2     12.603     13.008
REMARK  0 active torsions:
REMARK  status: ('A' for Active; 'I' for Inactive)
ROOT
HETATM    1  C1  UNL     1     -35.252  15.418  -3.419  1.00 20.00     0.078 C 
HETATM    2  C2  UNL     1     -35.201  13.281  -4.514  1.00 20.00     0.152 C 
HETATM    3  C3  UNL     1     -35.942  14.369  -3.863  1.00 20.00     0.134 C 
HETATM    4  C4  UNL     1     -33.181  14.009  -3.575  1.00 20.00     0.213 C 
HETATM    5  C5  UNL     1     -33.758  15.428  -3.512  1.00 20.00     0.217 C 
HETATM    6  N6  UNL     1     -33.929  13.093  -4.454  1.00 20.00    -0.294 NA
HETATM    7  F7  UNL     1     -37.282  14.295  -3.860  1.00 20.00    -0.205 F 
HETATM    8  F8  UNL     1     -33.228  16.042  -2.416  1.00 20.00    -0.219 F 
HETATM    9 CL9  UNL     1     -33.279  16.366  -4.956  1.00 20.00    -0.076 Cl
ENDROOT
TORSDOF 0
ENDMDL
MODEL 3
REMARK VINA RESULT:      -4.1      8.825      9.939
REMARK  0 active torsions:
REMARK  status: ('A' for Active; 'I' for Inactive)
ROOT
HETATM    1  C1  UNL     1     -40.945   4.539  -0.858  1.00 20.00     0.078 C 
HETATM    2  C2  UNL     1     -42.376   5.062  -2.714  1.00 20.00     0.152 C 
HETATM    3  C3  UNL     1     -41.405   4.180  -2.055  1.00 20.00     0.134 C 
HETATM    4  C4  UNL     1     -41.780   6.858  -1.332  1.00 20.00     0.213 C 
HETATM    5  C5  UNL     1     -41.352   5.849  -0.259  1.00 20.00     0.217 C 
HETATM    6  N6  UNL     1     -42.622   6.284  -2.396  1.00 20.00    -0.294 NA
HETATM    7  F7  UNL     1     -41.127   3.007  -2.646  1.00 20.00    -0.205 F 
HETATM    8  F8  UNL     1     -40.306   6.393   0.426  1.00 20.00    -0.219 F 
HETATM    9 CL9  UNL     1     -42.682   5.561   0.900  1.00 20.00    -0.076 Cl
ENDROOT
TORSDOF 0
ENDMDL
MODEL 4
REMARK VINA RESULT:      -4.1      2.352      2.979
REMARK  0 active torsions:
REMARK  status: ('A' for Active; 'I' for Inactive)
ROOT
HETATM    1  C1  UNL     1     -33.386   6.238   5.378  1.00 20.00     0.078 C 
HETATM    2  C2  UNL     1     -33.672   5.817   3.031  1.00 20.00     0.152 C 
HETATM    3  C3  UNL     1     -32.990   6.505   4.135  1.00 20.00     0.134 C 
HETATM    4  C4  UNL     1     -35.490   5.274   4.406  1.00 20.00     0.213 C 
HETATM    5  C5  UNL     1     -34.549   5.327   5.616  1.00 20.00     0.217 C 
HETATM    6  N6  UNL     1     -34.797   5.197   3.108  1.00 20.00    -0.294 NA
HETATM    7  F7  UNL     1     -31.932   7.274   3.831  1.00 20.00    -0.205 F 
HETATM    8  F8  UNL     1     -35.274   5.766   6.684  1.00 20.00    -0.219 F 
HETATM    9 CL9  UNL     1     -33.930   3.695   6.003  1.00 20.00    -0.076 Cl
ENDROOT
TORSDOF 0
ENDMDL
MODEL 5
REMARK VINA RESULT:      -4.0     12.747     12.851
REMARK  0 active torsions:
REMARK  status: ('A' for Active; 'I' for Inactive)
ROOT
HETATM    1  C1  UNL     1     -33.582  14.806  -3.675  1.00 20.00     0.078 C 
HETATM    2  C2  UNL     1     -35.609  15.838  -2.905  1.00 20.00     0.152 C 
HETATM    3  C3  UNL     1     -34.158  15.634  -2.805  1.00 20.00     0.134 C 
HETATM    4  C4  UNL     1     -35.862  13.885  -4.174  1.00 20.00     0.213 C 
HETATM    5  C5  UNL     1     -34.417  14.051  -4.660  1.00 20.00     0.217 C 
HETATM    6  N6  UNL     1     -36.433  15.094  -3.556  1.00 20.00    -0.294 NA
HETATM    7  F7  UNL     1     -33.483  16.382  -1.918  1.00 20.00    -0.205 F 
HETATM    8  F8  UNL     1     -33.900  12.805  -4.852  1.00 20.00    -0.219 F 
HETATM    9 CL9  UNL     1     -34.377  14.913  -6.226  1.00 20.00    -0.076 Cl
ENDROOT
TORSDOF 0
ENDMDL
MODEL 6
REMARK VINA RESULT:      -4.0     12.793     13.376
REMARK  0 active torsions:
REMARK  status: ('A' for Active; 'I' for Inactive)
ROOT
HETATM    1  C1  UNL     1     -33.902  15.494  -5.080  1.00 20.00     0.078 C 
HETATM    2  C2  UNL     1     -34.427  13.816  -3.445  1.00 20.00     0.152 C 
HETATM    3  C3  UNL     1     -33.749  15.060  -3.830  1.00 20.00     0.134 C 
HETATM    4  C4  UNL     1     -34.700  13.193  -5.687  1.00 20.00     0.213 C 
HETATM    5  C5  UNL     1     -34.673  14.678  -6.069  1.00 20.00     0.217 C 
HETATM    6  N6  UNL     1     -34.923  12.945  -4.252  1.00 20.00    -0.294 NA
HETATM    7  F7  UNL     1     -33.112  15.747  -2.869  1.00 20.00    -0.205 F 
HETATM    8  F8  UNL     1     -34.100  14.777  -7.303  1.00 20.00    -0.219 F 
HETATM    9 CL9  UNL     1     -36.334  15.329  -6.179  1.00 20.00    -0.076 Cl
ENDROOT
TORSDOF 0
ENDMDL
MODEL 7
REMARK VINA RESULT:      -4.0     12.856     13.009
REMARK  0 active torsions:
REMARK  status: ('A' for Active; 'I' for Inactive)
ROOT
HETATM    1  C1  UNL     1     -33.641  16.036  -2.589  1.00 20.00     0.078 C 
HETATM    2  C2  UNL     1     -35.891  15.338  -3.053  1.00 20.00     0.152 C 
HETATM    3  C3  UNL     1     -34.919  16.053  -2.216  1.00 20.00     0.134 C 
HETATM    4  C4  UNL     1     -34.192  14.088  -4.073  1.00 20.00     0.213 C 
HETATM    5  C5  UNL     1     -33.217  15.235  -3.780  1.00 20.00     0.217 C 
HETATM    6  N6  UNL     1     -35.613  14.460  -3.952  1.00 20.00    -0.294 NA
HETATM    7  F7  UNL     1     -35.394  16.778  -1.191  1.00 20.00    -0.205 F 
HETATM    8  F8  UNL     1     -31.989  14.686  -3.558  1.00 20.00    -0.219 F 
HETATM    9 CL9  UNL     1     -33.088  16.326  -5.190  1.00 20.00    -0.076 Cl
ENDROOT
TORSDOF 0
ENDMDL
MODEL 8
REMARK VINA RESULT:      -4.0     12.339     13.114
REMARK  0 active torsions:
REMARK  status: ('A' for Active; 'I' for Inactive)
ROOT
HETATM    1  C1  UNL     1     -33.301  15.336  -3.267  1.00 20.00     0.078 C 
HETATM    2  C2  UNL     1     -35.149  13.910  -3.832  1.00 20.00     0.152 C 
HETATM    3  C3  UNL     1     -33.705  14.151  -3.722  1.00 20.00     0.134 C 
HETATM    4  C4  UNL     1     -35.604  16.207  -3.753  1.00 20.00     0.213 C 
HETATM    5  C5  UNL     1     -34.304  16.405  -2.965  1.00 20.00     0.217 C 
HETATM    6  N6  UNL     1     -36.068  14.810  -3.807  1.00 20.00    -0.294 NA
HETATM    7  F7  UNL     1     -32.880  13.123  -3.976  1.00 20.00    -0.205 F 
HETATM    8  F8  UNL     1     -33.798  17.626  -3.302  1.00 20.00    -0.219 F 
HETATM    9 CL9  UNL     1     -34.628  16.409  -1.207  1.00 20.00    -0.076 Cl
ENDROOT
TORSDOF 0
ENDMDL
MODEL 9
REMARK VINA RESULT:      -4.0      1.797      2.133
REMARK  0 active torsions:
REMARK  status: ('A' for Active; 'I' for Inactive)
ROOT
HETATM    1  C1  UNL     1     -33.733   5.366   3.600  1.00 20.00     0.078 C 
HETATM    2  C2  UNL     1     -33.310   6.940   5.363  1.00 20.00     0.152 C 
HETATM    3  C3  UNL     1     -32.934   6.312   4.091  1.00 20.00     0.134 C 
HETATM    4  C4  UNL     1     -34.758   5.173   5.883  1.00 20.00     0.213 C 
HETATM    5  C5  UNL     1     -34.925   4.911   4.381  1.00 20.00     0.217 C 
HETATM    6  N6  UNL     1     -34.173   6.487   6.203  1.00 20.00    -0.294 NA
HETATM    7  F7  UNL     1     -31.871   6.810   3.440  1.00 20.00    -0.205 F 
HETATM    8  F8  UNL     1     -35.108   3.571   4.213  1.00 20.00    -0.219 F 
HETATM    9 CL9  UNL     1     -36.375   5.749   3.754  1.00 20.00    -0.076 Cl
ENDROOT
TORSDOF 0
ENDMDL
