MODEL 1
REMARK VINA RESULT:      -5.4      0.000      0.000
REMARK  1 active torsions:
REMARK  status: ('A' for Active; 'I' for Inactive)
REMARK    1  A    between atoms: C6_6  and  C11_11 
ROOT
HETATM    1  C1  UNL     1     -34.622  13.295  -4.260  1.00 20.00    -0.004 C 
HETATM    2  C2  UNL     1     -33.340  13.741  -3.781  1.00 20.00    -0.003 C 
HETATM    3  C3  UNL     1     -35.708  14.073  -4.153  1.00 20.00    -0.025 C 
HETATM    4  C4  UNL     1     -33.131  15.018  -3.425  1.00 20.00    -0.013 C 
HETATM    5  C7  UNL     1     -35.648  15.444  -3.538  1.00 20.00     0.044 C 
HETATM    6  C11 UNL     1     -34.222  16.077  -3.487  1.00 20.00    -0.000 C 
HETATM    7  C12 UNL     1     -33.980  16.924  -4.751  1.00 20.00     0.025 C 
ENDROOT
BRANCH   6   8
HETATM    8  C6  UNL     1     -34.137  16.989  -2.289  1.00 20.00    -0.071 C 
HETATM    9  C5  UNL     1     -33.638  18.231  -2.254  1.00 20.00    -0.023 C 
HETATM   10  C8  UNL     1     -33.758  18.840  -0.899  1.00 20.00     0.027 C 
HETATM   11  C10 UNL     1     -34.112  17.644  -0.017  1.00 20.00     0.008 C 
HETATM   12  C9  UNL     1     -34.666  16.571  -0.954  1.00 20.00     0.035 C 
ENDBRANCH   6   8
TORSDOF 1
ENDMDL
MODEL 2
REMARK VINA RESULT:      -5.2      0.832      4.523
REMARK  1 active torsions:
REMARK  status: ('A' for Active; 'I' for Inactive)
REMARK    1  A    between atoms: C6_6  and  C11_11 
ROOT
HETATM    1  C1  UNL     1     -33.595  18.741  -0.466  1.00 20.00    -0.004 C 
HETATM    2  C2  UNL     1     -34.185  17.521   0.020  1.00 20.00    -0.003 C 
HETATM    3  C3  UNL     1     -33.396  18.937  -1.777  1.00 20.00    -0.025 C 
HETATM    4  C4  UNL     1     -34.763  16.642  -0.813  1.00 20.00    -0.013 C 
HETATM    5  C7  UNL     1     -33.779  17.906  -2.804  1.00 20.00     0.044 C 
HETATM    6  C11 UNL     1     -34.828  16.856  -2.318  1.00 20.00    -0.000 C 
HETATM    7  C12 UNL     1     -36.250  17.340  -2.661  1.00 20.00     0.025 C 
ENDROOT
BRANCH   6   8
HETATM    8  C6  UNL     1     -34.587  15.556  -3.044  1.00 20.00    -0.071 C 
HETATM    9  C5  UNL     1     -35.510  14.672  -3.442  1.00 20.00    -0.023 C 
HETATM   10  C8  UNL     1     -34.899  13.520  -4.165  1.00 20.00     0.027 C 
HETATM   11  C10 UNL     1     -33.411  13.672  -3.857  1.00 20.00     0.008 C 
HETATM   12  C9  UNL     1     -33.209  15.128  -3.436  1.00 20.00     0.035 C 
ENDBRANCH   6   8
TORSDOF 1
ENDMDL
MODEL 3
REMARK VINA RESULT:      -5.2      1.160      1.735
REMARK  1 active torsions:
REMARK  status: ('A' for Active; 'I' for Inactive)
REMARK    1  A    between atoms: C6_6  and  C11_11 
ROOT
HETATM    1  C1  UNL     1     -35.065  13.936  -5.930  1.00 20.00    -0.004 C 
HETATM    2  C2  UNL     1     -35.323  13.585  -4.557  1.00 20.00    -0.003 C 
HETATM    3  C3  UNL     1     -34.410  15.063  -6.243  1.00 20.00    -0.025 C 
HETATM    4  C4  UNL     1     -34.731  14.236  -3.545  1.00 20.00    -0.013 C 
HETATM    5  C7  UNL     1     -33.908  16.012  -5.188  1.00 20.00     0.044 C 
HETATM    6  C11 UNL     1     -33.763  15.390  -3.764  1.00 20.00    -0.000 C 
HETATM    7  C12 UNL     1     -32.334  14.843  -3.575  1.00 20.00     0.025 C 
ENDROOT
BRANCH   6   8
HETATM    8  C6  UNL     1     -33.991  16.469  -2.736  1.00 20.00    -0.071 C 
HETATM    9  C5  UNL     1     -33.702  17.771  -2.855  1.00 20.00    -0.023 C 
HETATM   10  C8  UNL     1     -34.107  18.543  -1.646  1.00 20.00     0.027 C 
HETATM   11  C10 UNL     1     -34.391  17.447  -0.620  1.00 20.00     0.008 C 
HETATM   12  C9  UNL     1     -34.633  16.166  -1.420  1.00 20.00     0.035 C 
ENDBRANCH   6   8
TORSDOF 1
ENDMDL
MODEL 4
REMARK VINA RESULT:      -5.2      1.152      2.081
REMARK  1 active torsions:
REMARK  status: ('A' for Active; 'I' for Inactive)
REMARK    1  A    between atoms: C6_6  and  C11_11 
ROOT
HETATM    1  C1  UNL     1     -35.104  14.026  -5.951  1.00 20.00    -0.004 C 
HETATM    2  C2  UNL     1     -35.364  13.602  -4.599  1.00 20.00    -0.003 C 
HETATM    3  C3  UNL     1     -34.462  15.176  -6.202  1.00 20.00    -0.025 C 
HETATM    4  C4  UNL     1     -34.784  14.208  -3.552  1.00 20.00    -0.013 C 
HETATM    5  C7  UNL     1     -33.977  16.076  -5.098  1.00 20.00     0.044 C 
HETATM    6  C11 UNL     1     -33.830  15.383  -3.706  1.00 20.00    -0.000 C 
HETATM    7  C12 UNL     1     -32.396  14.846  -3.538  1.00 20.00     0.025 C 
ENDROOT
BRANCH   6   8
HETATM    8  C6  UNL     1     -34.077  16.405  -2.625  1.00 20.00    -0.071 C 
HETATM    9  C5  UNL     1     -34.555  16.179  -1.395  1.00 20.00    -0.023 C 
HETATM   10  C8  UNL     1     -34.628  17.431  -0.589  1.00 20.00     0.027 C 
HETATM   11  C10 UNL     1     -34.429  18.525  -1.637  1.00 20.00     0.008 C 
HETATM   12  C9  UNL     1     -33.759  17.851  -2.836  1.00 20.00     0.035 C 
ENDBRANCH   6   8
TORSDOF 1
ENDMDL
MODEL 5
REMARK VINA RESULT:      -4.9     12.053     14.884
REMARK  1 active torsions:
REMARK  status: ('A' for Active; 'I' for Inactive)
REMARK    1  A    between atoms: C6_6  and  C11_11 
ROOT
HETATM    1  C1  UNL     1     -41.172   6.924  -0.949  1.00 20.00    -0.004 C 
HETATM    2  C2  UNL     1     -40.496   5.682  -0.674  1.00 20.00    -0.003 C 
HETATM    3  C3  UNL     1     -42.226   6.968  -1.775  1.00 20.00    -0.025 C 
HETATM    4  C4  UNL     1     -41.021   4.504  -1.042  1.00 20.00    -0.013 C 
HETATM    5  C7  UNL     1     -42.760   5.735  -2.452  1.00 20.00     0.044 C 
HETATM    6  C11 UNL     1     -42.347   4.388  -1.779  1.00 20.00    -0.000 C 
HETATM    7  C12 UNL     1     -43.416   3.966  -0.753  1.00 20.00     0.025 C 
ENDROOT
BRANCH   6   8
HETATM    8  C6  UNL     1     -42.267   3.319  -2.840  1.00 20.00    -0.071 C 
HETATM    9  C5  UNL     1     -41.237   2.497  -3.080  1.00 20.00    -0.023 C 
HETATM   10  C8  UNL     1     -41.536   1.543  -4.186  1.00 20.00     0.027 C 
HETATM   11  C10 UNL     1     -42.799   2.130  -4.813  1.00 20.00     0.008 C 
HETATM   12  C9  UNL     1     -43.417   3.043  -3.754  1.00 20.00     0.035 C 
ENDBRANCH   6   8
TORSDOF 1
ENDMDL
MODEL 6
REMARK VINA RESULT:      -4.9      1.328      4.558
REMARK  1 active torsions:
REMARK  status: ('A' for Active; 'I' for Inactive)
REMARK    1  A    between atoms: C6_6  and  C11_11 
ROOT
HETATM    1  C1  UNL     1     -36.245  18.289  -0.174  1.00 20.00    -0.004 C 
HETATM    2  C2  UNL     1     -36.829  18.183  -1.486  1.00 20.00    -0.003 C 
HETATM    3  C3  UNL     1     -35.155  17.583   0.156  1.00 20.00    -0.025 C 
HETATM    4  C4  UNL     1     -36.189  17.563  -2.489  1.00 20.00    -0.013 C 
HETATM    5  C7  UNL     1     -34.484  16.651  -0.817  1.00 20.00     0.044 C 
HETATM    6  C11 UNL     1     -34.820  16.921  -2.318  1.00 20.00    -0.000 C 
HETATM    7  C12 UNL     1     -33.776  17.879  -2.924  1.00 20.00     0.025 C 
ENDROOT
BRANCH   6   8
HETATM    8  C6  UNL     1     -34.753  15.617  -3.073  1.00 20.00    -0.071 C 
HETATM    9  C5  UNL     1     -35.783  14.844  -3.439  1.00 20.00    -0.023 C 
HETATM   10  C8  UNL     1     -35.333  13.647  -4.207  1.00 20.00     0.027 C 
HETATM   11  C10 UNL     1     -33.824  13.635  -3.968  1.00 20.00     0.008 C 
HETATM   12  C9  UNL     1     -33.448  15.054  -3.538  1.00 20.00     0.035 C 
ENDBRANCH   6   8
TORSDOF 1
ENDMDL
MODEL 7
REMARK VINA RESULT:      -4.9      1.648      4.533
REMARK  1 active torsions:
REMARK  status: ('A' for Active; 'I' for Inactive)
REMARK    1  A    between atoms: C6_6  and  C11_11 
ROOT
HETATM    1  C1  UNL     1     -34.127  17.579  -1.503  1.00 20.00    -0.004 C 
HETATM    2  C2  UNL     1     -33.734  18.045  -2.808  1.00 20.00    -0.003 C 
HETATM    3  C3  UNL     1     -34.682  16.371  -1.340  1.00 20.00    -0.025 C 
HETATM    4  C4  UNL     1     -33.694  17.218  -3.864  1.00 20.00    -0.013 C 
HETATM    5  C7  UNL     1     -34.920  15.440  -2.498  1.00 20.00     0.044 C 
HETATM    6  C11 UNL     1     -34.066  15.746  -3.769  1.00 20.00    -0.000 C 
HETATM    7  C12 UNL     1     -32.757  14.934  -3.729  1.00 20.00     0.025 C 
ENDROOT
BRANCH   6   8
HETATM    8  C6  UNL     1     -34.844  15.322  -4.990  1.00 20.00    -0.071 C 
HETATM    9  C5  UNL     1     -34.343  14.901  -6.159  1.00 20.00    -0.023 C 
HETATM   10  C8  UNL     1     -35.420  14.530  -7.122  1.00 20.00     0.027 C 
HETATM   11  C10 UNL     1     -36.675  15.107  -6.471  1.00 20.00     0.008 C 
HETATM   12  C9  UNL     1     -36.339  15.301  -4.992  1.00 20.00     0.035 C 
ENDBRANCH   6   8
TORSDOF 1
ENDMDL
MODEL 8
REMARK VINA RESULT:      -4.8      1.516      2.714
REMARK  1 active torsions:
REMARK  status: ('A' for Active; 'I' for Inactive)
REMARK    1  A    between atoms: C6_6  and  C11_11 
ROOT
HETATM    1  C1  UNL     1     -35.425  15.210  -7.000  1.00 20.00    -0.004 C 
HETATM    2  C2  UNL     1     -36.331  15.060  -5.890  1.00 20.00    -0.003 C 
HETATM    3  C3  UNL     1     -34.164  15.621  -6.811  1.00 20.00    -0.025 C 
HETATM    4  C4  UNL     1     -35.895  15.100  -4.622  1.00 20.00    -0.013 C 
HETATM    5  C7  UNL     1     -33.627  15.941  -5.443  1.00 20.00     0.044 C 
HETATM    6  C11 UNL     1     -34.434  15.317  -4.261  1.00 20.00    -0.000 C 
HETATM    7  C12 UNL     1     -33.836  13.948  -3.885  1.00 20.00     0.025 C 
ENDROOT
BRANCH   6   8
HETATM    8  C6  UNL     1     -34.318  16.224  -3.061  1.00 20.00    -0.071 C 
HETATM    9  C5  UNL     1     -34.636  15.930  -1.794  1.00 20.00    -0.023 C 
HETATM   10  C8  UNL     1     -34.351  17.066  -0.872  1.00 20.00     0.027 C 
HETATM   11  C10 UNL     1     -34.115  18.233  -1.830  1.00 20.00     0.008 C 
HETATM   12  C9  UNL     1     -33.773  17.611  -3.184  1.00 20.00     0.035 C 
ENDBRANCH   6   8
TORSDOF 1
ENDMDL
MODEL 9
REMARK VINA RESULT:      -4.8     13.143     15.861
REMARK  1 active torsions:
REMARK  status: ('A' for Active; 'I' for Inactive)
REMARK    1  A    between atoms: C6_6  and  C11_11 
ROOT
HETATM    1  C1  UNL     1     -41.730   5.253   0.331  1.00 20.00    -0.004 C 
HETATM    2  C2  UNL     1     -42.944   4.481   0.276  1.00 20.00    -0.003 C 
HETATM    3  C3  UNL     1     -40.800   5.146  -0.627  1.00 20.00    -0.025 C 
HETATM    4  C4  UNL     1     -43.297   3.809  -0.831  1.00 20.00    -0.013 C 
HETATM    5  C7  UNL     1     -40.972   4.227  -1.807  1.00 20.00     0.044 C 
HETATM    6  C11 UNL     1     -42.447   3.800  -2.092  1.00 20.00    -0.000 C 
HETATM    7  C12 UNL     1     -43.089   4.776  -3.096  1.00 20.00     0.025 C 
ENDROOT
BRANCH   6   8
HETATM    8  C6  UNL     1     -42.443   2.425  -2.713  1.00 20.00    -0.071 C 
HETATM    9  C5  UNL     1     -43.286   1.419  -2.449  1.00 20.00    -0.023 C 
HETATM   10  C8  UNL     1     -42.997   0.219  -3.286  1.00 20.00     0.027 C 
HETATM   11  C10 UNL     1     -41.625   0.536  -3.876  1.00 20.00     0.008 C 
HETATM   12  C9  UNL     1     -41.453   2.052  -3.770  1.00 20.00     0.035 C 
ENDBRANCH   6   8
TORSDOF 1
ENDMDL
