MODEL 1
REMARK VINA RESULT:      -5.7      0.000      0.000
REMARK  0 active torsions:
REMARK  status: ('A' for Active; 'I' for Inactive)
ROOT
HETATM    1  C1  UNL     1     -34.137   6.023   6.256  1.00 20.00     0.047 C 
HETATM    2  C2  UNL     1     -33.473   6.672   5.292  1.00 20.00    -0.014 C 
HETATM    3  C3  UNL     1     -34.956   4.836   5.893  1.00 20.00     0.149 C 
HETATM    4  C4  UNL     1     -34.944   4.352   4.454  1.00 20.00     0.084 C 
HETATM    5  C5  UNL     1     -34.719   5.492   3.463  1.00 20.00     0.021 C 
HETATM    6  C6  UNL     1     -32.913   7.251   2.856  1.00 20.00     0.014 A 
HETATM    7  C7  UNL     1     -32.179   5.988   3.200  1.00 20.00     0.014 A 
HETATM    8  C8  UNL     1     -33.504   6.294   3.866  1.00 20.00    -0.022 A 
HETATM    9  O9  UNL     1     -35.576   4.235   6.769  1.00 20.00    -0.293 OA
ENDROOT
TORSDOF 0
ENDMDL
MODEL 2
REMARK VINA RESULT:      -4.9     11.893     12.626
REMARK  0 active torsions:
REMARK  status: ('A' for Active; 'I' for Inactive)
ROOT
HETATM    1  C1  UNL     1     -36.015  14.365  -3.959  1.00 20.00     0.047 C 
HETATM    2  C2  UNL     1     -35.914  15.518  -3.287  1.00 20.00    -0.014 C 
HETATM    3  C3  UNL     1     -34.788  13.558  -4.192  1.00 20.00     0.149 C 
HETATM    4  C4  UNL     1     -33.476  14.030  -3.590  1.00 20.00     0.084 C 
HETATM    5  C5  UNL     1     -33.413  15.551  -3.465  1.00 20.00     0.021 C 
HETATM    6  C6  UNL     1     -34.637  17.484  -2.243  1.00 20.00     0.014 A 
HETATM    7  C7  UNL     1     -34.574  16.338  -1.274  1.00 20.00     0.014 A 
HETATM    8  C8  UNL     1     -34.648  16.063  -2.761  1.00 20.00    -0.022 A 
HETATM    9  O9  UNL     1     -34.866  12.499  -4.813  1.00 20.00    -0.293 OA
ENDROOT
TORSDOF 0
ENDMDL
MODEL 3
REMARK VINA RESULT:      -4.7      2.209      3.850
REMARK  0 active torsions:
REMARK  status: ('A' for Active; 'I' for Inactive)
ROOT
HETATM    1  C1  UNL     1     -34.116   5.719   2.903  1.00 20.00     0.047 C 
HETATM    2  C2  UNL     1     -34.750   5.049   3.874  1.00 20.00    -0.014 C 
HETATM    3  C3  UNL     1     -33.055   6.692   3.274  1.00 20.00     0.149 C 
HETATM    4  C4  UNL     1     -32.670   6.832   4.737  1.00 20.00     0.084 C 
HETATM    5  C5  UNL     1     -33.842   6.542   5.672  1.00 20.00     0.021 C 
HETATM    6  C6  UNL     1     -35.425   4.589   6.306  1.00 20.00     0.014 A 
HETATM    7  C7  UNL     1     -34.068   3.985   6.092  1.00 20.00     0.014 A 
HETATM    8  C8  UNL     1     -34.474   5.218   5.313  1.00 20.00    -0.022 A 
HETATM    9  O9  UNL     1     -32.469   7.318   2.393  1.00 20.00    -0.293 OA
ENDROOT
TORSDOF 0
ENDMDL
MODEL 4
REMARK VINA RESULT:      -4.6     11.932     12.685
REMARK  0 active torsions:
REMARK  status: ('A' for Active; 'I' for Inactive)
ROOT
HETATM    1  C1  UNL     1     -33.354  13.956  -3.833  1.00 20.00     0.047 C 
HETATM    2  C2  UNL     1     -33.083  15.138  -3.265  1.00 20.00    -0.014 C 
HETATM    3  C3  UNL     1     -34.770  13.599  -4.111  1.00 20.00     0.149 C 
HETATM    4  C4  UNL     1     -35.854  14.622  -3.817  1.00 20.00     0.084 C 
HETATM    5  C5  UNL     1     -35.481  15.538  -2.654  1.00 20.00     0.021 C 
HETATM    6  C6  UNL     1     -33.688  17.302  -2.026  1.00 20.00     0.014 A 
HETATM    7  C7  UNL     1     -34.001  17.511  -3.479  1.00 20.00     0.014 A 
HETATM    8  C8  UNL     1     -34.108  16.126  -2.877  1.00 20.00    -0.022 A 
HETATM    9  O9  UNL     1     -35.033  12.514  -4.627  1.00 20.00    -0.293 OA
ENDROOT
TORSDOF 0
ENDMDL
MODEL 5
REMARK VINA RESULT:      -4.3     12.281     12.691
REMARK  0 active torsions:
REMARK  status: ('A' for Active; 'I' for Inactive)
ROOT
HETATM    1  C1  UNL     1     -35.744  13.556  -4.464  1.00 20.00     0.047 C 
HETATM    2  C2  UNL     1     -34.434  13.829  -4.428  1.00 20.00    -0.014 C 
HETATM    3  C3  UNL     1     -36.690  14.473  -3.776  1.00 20.00     0.149 C 
HETATM    4  C4  UNL     1     -36.145  15.733  -3.125  1.00 20.00     0.084 C 
HETATM    5  C5  UNL     1     -34.713  15.551  -2.626  1.00 20.00     0.021 C 
HETATM    6  C6  UNL     1     -32.347  15.044  -3.559  1.00 20.00     0.014 A 
HETATM    7  C7  UNL     1     -33.014  15.947  -4.556  1.00 20.00     0.014 A 
HETATM    8  C8  UNL     1     -33.848  14.990  -3.731  1.00 20.00    -0.022 A 
HETATM    9  O9  UNL     1     -37.895  14.231  -3.797  1.00 20.00    -0.293 OA
ENDROOT
TORSDOF 0
ENDMDL
MODEL 6
REMARK VINA RESULT:      -4.3     12.146     13.828
REMARK  0 active torsions:
REMARK  status: ('A' for Active; 'I' for Inactive)
ROOT
HETATM    1  C1  UNL     1     -34.788  14.333  -6.031  1.00 20.00     0.047 C 
HETATM    2  C2  UNL     1     -34.477  15.629  -6.162  1.00 20.00    -0.014 C 
HETATM    3  C3  UNL     1     -34.625  13.684  -4.704  1.00 20.00     0.149 C 
HETATM    4  C4  UNL     1     -34.188  14.534  -3.522  1.00 20.00     0.084 C 
HETATM    5  C5  UNL     1     -33.301  15.701  -3.949  1.00 20.00     0.021 C 
HETATM    6  C6  UNL     1     -33.421  17.842  -5.407  1.00 20.00     0.014 A 
HETATM    7  C7  UNL     1     -34.750  17.718  -4.721  1.00 20.00     0.014 A 
HETATM    8  C8  UNL     1     -33.963  16.472  -5.066  1.00 20.00    -0.022 A 
HETATM    9  O9  UNL     1     -34.901  12.493  -4.571  1.00 20.00    -0.293 OA
ENDROOT
TORSDOF 0
ENDMDL
MODEL 7
REMARK VINA RESULT:      -4.2     12.260     13.561
REMARK  0 active torsions:
REMARK  status: ('A' for Active; 'I' for Inactive)
ROOT
HETATM    1  C1  UNL     1     -33.633  17.166  -4.604  1.00 20.00     0.047 C 
HETATM    2  C2  UNL     1     -33.849  15.870  -4.858  1.00 20.00    -0.014 C 
HETATM    3  C3  UNL     1     -33.724  17.650  -3.201  1.00 20.00     0.149 C 
HETATM    4  C4  UNL     1     -33.980  16.641  -2.094  1.00 20.00     0.084 C 
HETATM    5  C5  UNL     1     -34.806  15.451  -2.578  1.00 20.00     0.021 C 
HETATM    6  C6  UNL     1     -34.649  13.501  -4.280  1.00 20.00     0.014 A 
HETATM    7  C7  UNL     1     -33.276  13.669  -3.697  1.00 20.00     0.014 A 
HETATM    8  C8  UNL     1     -34.190  14.869  -3.829  1.00 20.00    -0.022 A 
HETATM    9  O9  UNL     1     -33.534  18.840  -2.955  1.00 20.00    -0.293 OA
ENDROOT
TORSDOF 0
ENDMDL
MODEL 8
REMARK VINA RESULT:      -4.1     12.217     12.848
REMARK  0 active torsions:
REMARK  status: ('A' for Active; 'I' for Inactive)
ROOT
HETATM    1  C1  UNL     1     -34.201  15.611  -2.830  1.00 20.00     0.047 C 
HETATM    2  C2  UNL     1     -35.531  15.646  -2.978  1.00 20.00    -0.014 C 
HETATM    3  C3  UNL     1     -33.410  14.655  -3.649  1.00 20.00     0.149 C 
HETATM    4  C4  UNL     1     -34.131  13.807  -4.683  1.00 20.00     0.084 C 
HETATM    5  C5  UNL     1     -35.571  13.501  -4.276  1.00 20.00     0.021 C 
HETATM    6  C6  UNL     1     -37.793  14.747  -3.791  1.00 20.00     0.014 A 
HETATM    7  C7  UNL     1     -37.147  15.458  -4.945  1.00 20.00     0.014 A 
HETATM    8  C8  UNL     1     -36.285  14.778  -3.903  1.00 20.00    -0.022 A 
HETATM    9  O9  UNL     1     -32.188  14.609  -3.519  1.00 20.00    -0.293 OA
ENDROOT
TORSDOF 0
ENDMDL
MODEL 9
REMARK VINA RESULT:      -4.0     12.357     13.308
REMARK  0 active torsions:
REMARK  status: ('A' for Active; 'I' for Inactive)
ROOT
HETATM    1  C1  UNL     1     -35.443  15.782  -5.005  1.00 20.00     0.047 C 
HETATM    2  C2  UNL     1     -35.144  16.581  -3.973  1.00 20.00    -0.014 C 
HETATM    3  C3  UNL     1     -34.764  14.464  -5.115  1.00 20.00     0.149 C 
HETATM    4  C4  UNL     1     -33.815  14.035  -4.010  1.00 20.00     0.084 C 
HETATM    5  C5  UNL     1     -33.130  15.226  -3.343  1.00 20.00     0.021 C 
HETATM    6  C6  UNL     1     -33.739  17.334  -1.962  1.00 20.00     0.014 A 
HETATM    7  C7  UNL     1     -34.651  16.238  -1.492  1.00 20.00     0.014 A 
HETATM    8  C8  UNL     1     -34.161  16.247  -2.924  1.00 20.00    -0.022 A 
HETATM    9  O9  UNL     1     -35.026  13.723  -6.061  1.00 20.00    -0.293 OA
ENDROOT
TORSDOF 0
ENDMDL
