MODEL 1
REMARK VINA RESULT:      -5.0      0.000      0.000
REMARK  0 active torsions:
REMARK  status: ('A' for Active; 'I' for Inactive)
ROOT
HETATM    1  C1  UNL     1     -34.030   6.390   4.677  1.00 20.00     0.078 C 
HETATM    2  C2  UNL     1     -34.789   5.195   6.617  1.00 20.00     0.152 C 
HETATM    3  C3  UNL     1     -34.016   6.282   6.004  1.00 20.00     0.134 C 
HETATM    4  C4  UNL     1     -34.878   4.025   4.585  1.00 20.00     0.213 C 
HETATM    5  C5  UNL     1     -34.761   5.371   3.860  1.00 20.00     0.217 C 
HETATM    6  N6  UNL     1     -35.249   4.158   6.008  1.00 20.00    -0.294 NA
HETATM    7  F7  UNL     1     -33.442   7.177   6.824  1.00 20.00    -0.205 F 
HETATM    8  F8  UNL     1     -36.022   5.819   3.594  1.00 20.00    -0.219 F 
HETATM    9 CL9  UNL     1     -33.927   5.131   2.299  1.00 20.00    -0.076 Cl
ENDROOT
TORSDOF 0
ENDMDL
MODEL 2
REMARK VINA RESULT:      -4.3     12.781     13.609
REMARK  0 active torsions:
REMARK  status: ('A' for Active; 'I' for Inactive)
ROOT
HETATM    1  C1  UNL     1     -33.802  15.612  -5.014  1.00 20.00     0.078 C 
HETATM    2  C2  UNL     1     -34.721  13.490  -5.660  1.00 20.00     0.152 C 
HETATM    3  C3  UNL     1     -34.399  14.889  -5.960  1.00 20.00     0.134 C 
HETATM    4  C4  UNL     1     -34.535  13.872  -3.353  1.00 20.00     0.213 C 
HETATM    5  C5  UNL     1     -33.550  15.005  -3.669  1.00 20.00     0.217 C 
HETATM    6  N6  UNL     1     -34.755  12.956  -4.489  1.00 20.00    -0.294 NA
HETATM    7  F7  UNL     1     -34.611  15.323  -7.213  1.00 20.00    -0.205 F 
HETATM    8  F8  UNL     1     -32.288  14.491  -3.629  1.00 20.00    -0.219 F 
HETATM    9 CL9  UNL     1     -33.668  16.260  -2.404  1.00 20.00    -0.076 Cl
ENDROOT
TORSDOF 0
ENDMDL
MODEL 3
REMARK VINA RESULT:      -4.1      1.989      2.249
REMARK  0 active torsions:
REMARK  status: ('A' for Active; 'I' for Inactive)
ROOT
HETATM    1  C1  UNL     1     -33.630   6.480   5.325  1.00 20.00     0.078 C 
HETATM    2  C2  UNL     1     -35.303   4.881   4.684  1.00 20.00     0.152 C 
HETATM    3  C3  UNL     1     -34.508   5.558   5.716  1.00 20.00     0.134 C 
HETATM    4  C4  UNL     1     -33.793   5.522   3.007  1.00 20.00     0.213 C 
HETATM    5  C5  UNL     1     -33.431   6.741   3.865  1.00 20.00     0.217 C 
HETATM    6  N6  UNL     1     -35.049   4.868   3.422  1.00 20.00    -0.294 NA
HETATM    7  F7  UNL     1     -34.802   5.296   7.000  1.00 20.00    -0.205 F 
HETATM    8  F8  UNL     1     -34.220   7.782   3.475  1.00 20.00    -0.219 F 
HETATM    9 CL9  UNL     1     -31.732   7.198   3.555  1.00 20.00    -0.076 Cl
ENDROOT
TORSDOF 0
ENDMDL
MODEL 4
REMARK VINA RESULT:      -4.0     12.836     13.416
REMARK  0 active torsions:
REMARK  status: ('A' for Active; 'I' for Inactive)
ROOT
HETATM    1  C1  UNL     1     -34.061  15.539  -5.037  1.00 20.00     0.078 C 
HETATM    2  C2  UNL     1     -34.287  13.775  -3.424  1.00 20.00     0.152 C 
HETATM    3  C3  UNL     1     -33.720  15.063  -3.841  1.00 20.00     0.134 C 
HETATM    4  C4  UNL     1     -34.832  13.223  -5.638  1.00 20.00     0.213 C 
HETATM    5  C5  UNL     1     -34.937  14.724  -5.935  1.00 20.00     0.217 C 
HETATM    6  N6  UNL     1     -34.849  12.911  -4.195  1.00 20.00    -0.294 NA
HETATM    7  F7  UNL     1     -32.992  15.744  -2.941  1.00 20.00    -0.205 F 
HETATM    8  F8  UNL     1     -36.238  15.098  -5.767  1.00 20.00    -0.219 F 
HETATM    9 CL9  UNL     1     -34.501  15.020  -7.642  1.00 20.00    -0.076 Cl
ENDROOT
TORSDOF 0
ENDMDL
MODEL 5
REMARK VINA RESULT:      -3.9      2.130      3.043
REMARK  0 active torsions:
REMARK  status: ('A' for Active; 'I' for Inactive)
ROOT
HETATM    1  C1  UNL     1     -34.099   5.833   3.225  1.00 20.00     0.078 C 
HETATM    2  C2  UNL     1     -34.456   5.615   5.590  1.00 20.00     0.152 C 
HETATM    3  C3  UNL     1     -34.910   5.440   4.205  1.00 20.00     0.134 C 
HETATM    4  C4  UNL     1     -32.844   7.188   4.931  1.00 20.00     0.213 C 
HETATM    5  C5  UNL     1     -32.802   6.499   3.561  1.00 20.00     0.217 C 
HETATM    6  N6  UNL     1     -33.486   6.368   5.977  1.00 20.00    -0.294 NA
HETATM    7  F7  UNL     1     -36.062   4.779   4.007  1.00 20.00    -0.205 F 
HETATM    8  F8  UNL     1     -31.804   5.570   3.586  1.00 20.00    -0.219 F 
HETATM    9 CL9  UNL     1     -32.394   7.703   2.307  1.00 20.00    -0.076 Cl
ENDROOT
TORSDOF 0
ENDMDL
MODEL 6
REMARK VINA RESULT:      -3.9     13.097     13.742
REMARK  0 active torsions:
REMARK  status: ('A' for Active; 'I' for Inactive)
ROOT
HETATM    1  C1  UNL     1     -34.200  15.389  -2.736  1.00 20.00     0.078 C 
HETATM    2  C2  UNL     1     -33.890  17.710  -2.206  1.00 20.00     0.152 C 
HETATM    3  C3  UNL     1     -34.360  16.367  -1.847  1.00 20.00     0.134 C 
HETATM    4  C4  UNL     1     -33.856  17.160  -4.486  1.00 20.00     0.213 C 
HETATM    5  C5  UNL     1     -33.623  15.699  -4.081  1.00 20.00     0.217 C 
HETATM    6  N6  UNL     1     -33.600  18.117  -3.393  1.00 20.00    -0.294 NA
HETATM    7  F7  UNL     1     -34.810  16.179  -0.595  1.00 20.00    -0.205 F 
HETATM    8  F8  UNL     1     -32.278  15.475  -4.064  1.00 20.00    -0.219 F 
HETATM    9 CL9  UNL     1     -34.340  14.622  -5.313  1.00 20.00    -0.076 Cl
ENDROOT
TORSDOF 0
ENDMDL
MODEL 7
REMARK VINA RESULT:      -3.9     12.575     13.108
REMARK  0 active torsions:
REMARK  status: ('A' for Active; 'I' for Inactive)
ROOT
HETATM    1  C1  UNL     1     -35.597  15.454  -3.491  1.00 20.00     0.078 C 
HETATM    2  C2  UNL     1     -35.273  13.305  -4.513  1.00 20.00     0.152 C 
HETATM    3  C3  UNL     1     -36.154  14.334  -3.948  1.00 20.00     0.134 C 
HETATM    4  C4  UNL     1     -33.398  14.237  -3.455  1.00 20.00     0.213 C 
HETATM    5  C5  UNL     1     -34.108  15.596  -3.500  1.00 20.00     0.217 C 
HETATM    6  N6  UNL     1     -33.997  13.235  -4.358  1.00 20.00    -0.294 NA
HETATM    7  F7  UNL     1     -37.480  14.137  -4.039  1.00 20.00    -0.205 F 
HETATM    8  F8  UNL     1     -33.717  16.240  -4.637  1.00 20.00    -0.219 F 
HETATM    9 CL9  UNL     1     -33.583  16.583  -2.107  1.00 20.00    -0.076 Cl
ENDROOT
TORSDOF 0
ENDMDL
MODEL 8
REMARK VINA RESULT:      -3.9     12.738     13.114
REMARK  0 active torsions:
REMARK  status: ('A' for Active; 'I' for Inactive)
ROOT
HETATM    1  C1  UNL     1     -33.734  15.116  -3.278  1.00 20.00     0.078 C 
HETATM    2  C2  UNL     1     -35.794  14.072  -3.935  1.00 20.00     0.152 C 
HETATM    3  C3  UNL     1     -34.328  14.132  -3.951  1.00 20.00     0.134 C 
HETATM    4  C4  UNL     1     -35.945  16.313  -3.258  1.00 20.00     0.213 C 
HETATM    5  C5  UNL     1     -34.569  16.156  -2.599  1.00 20.00     0.217 C 
HETATM    6  N6  UNL     1     -36.586  15.025  -3.585  1.00 20.00    -0.294 NA
HETATM    7  F7  UNL     1     -33.669  13.120  -4.539  1.00 20.00    -0.205 F 
HETATM    8  F8  UNL     1     -34.762  15.808  -1.295  1.00 20.00    -0.219 F 
HETATM    9 CL9  UNL     1     -33.719  17.727  -2.623  1.00 20.00    -0.076 Cl
ENDROOT
TORSDOF 0
ENDMDL
MODEL 9
REMARK VINA RESULT:      -3.9      8.591      9.448
REMARK  0 active torsions:
REMARK  status: ('A' for Active; 'I' for Inactive)
ROOT
HETATM    1  C1  UNL     1     -40.793   5.075  -1.182  1.00 20.00     0.078 C 
HETATM    2  C2  UNL     1     -42.455   5.765   0.408  1.00 20.00     0.152 C 
HETATM    3  C3  UNL     1     -41.059   5.710  -0.042  1.00 20.00     0.134 C 
HETATM    4  C4  UNL     1     -43.044   3.974  -0.988  1.00 20.00     0.213 C 
HETATM    5  C5  UNL     1     -41.897   4.385  -1.919  1.00 20.00     0.217 C 
HETATM    6  N6  UNL     1     -43.417   5.026  -0.021  1.00 20.00    -0.294 NA
HETATM    7  F7  UNL     1     -40.151   6.409   0.658  1.00 20.00    -0.205 F 
HETATM    8  F8  UNL     1     -42.403   5.221  -2.870  1.00 20.00    -0.219 F 
HETATM    9 CL9  UNL     1     -41.262   2.936  -2.748  1.00 20.00    -0.076 Cl
ENDROOT
TORSDOF 0
ENDMDL
