MODEL 1
REMARK VINA RESULT:      -4.6      0.000      0.000
REMARK  0 active torsions:
REMARK  status: ('A' for Active; 'I' for Inactive)
ROOT
HETATM    1  C1  UNL     1     -35.311   4.660   5.887  1.00 20.00     0.008 C 
HETATM    2  C2  UNL     1     -34.105   5.155   6.686  1.00 20.00     0.030 C 
HETATM    3  C3  UNL     1     -34.937   4.273   4.459  1.00 20.00     0.081 C 
HETATM    4  C4  UNL     1     -33.559   6.520   6.267  1.00 20.00     0.270 C 
HETATM    5  C5  UNL     1     -34.301   6.757   3.972  1.00 20.00     0.348 C 
HETATM    6  C6  UNL     1     -34.885   5.439   3.482  1.00 20.00     0.269 C 
HETATM    7  N7  UNL     1     -33.158   6.621   4.866  1.00 20.00     0.089 N 
HETATM    8  F8  UNL     1     -36.156   5.690   3.054  1.00 20.00    -0.204 F 
HETATM    9  F9  UNL     1     -34.199   5.034   2.376  1.00 20.00    -0.204 F 
HETATM   10  H20 UNL     1     -32.503   7.397   4.735  1.00 20.00     0.316 HD
ENDROOT
TORSDOF 0
ENDMDL
MODEL 2
REMARK VINA RESULT:      -4.5      1.150      2.282
REMARK  0 active torsions:
REMARK  status: ('A' for Active; 'I' for Inactive)
ROOT
HETATM    1  C1  UNL     1     -33.237   6.666   4.956  1.00 20.00     0.008 C 
HETATM    2  C2  UNL     1     -33.740   6.425   6.380  1.00 20.00     0.030 C 
HETATM    3  C3  UNL     1     -34.381   6.789   3.953  1.00 20.00     0.081 C 
HETATM    4  C4  UNL     1     -34.351   5.048   6.633  1.00 20.00     0.270 C 
HETATM    5  C5  UNL     1     -35.043   4.311   4.430  1.00 20.00     0.348 C 
HETATM    6  C6  UNL     1     -34.918   5.461   3.440  1.00 20.00     0.269 C 
HETATM    7  N7  UNL     1     -35.475   4.701   5.766  1.00 20.00     0.089 N 
HETATM    8  F8  UNL     1     -34.108   5.040   2.426  1.00 20.00    -0.204 F 
HETATM    9  F9  UNL     1     -36.134   5.688   2.868  1.00 20.00    -0.204 F 
HETATM   10  H20 UNL     1     -36.043   3.964   6.193  1.00 20.00     0.316 HD
ENDROOT
TORSDOF 0
ENDMDL
MODEL 3
REMARK VINA RESULT:      -4.3     12.418     13.477
REMARK  0 active torsions:
REMARK  status: ('A' for Active; 'I' for Inactive)
ROOT
HETATM    1  C1  UNL     1     -34.414  13.415  -4.906  1.00 20.00     0.008 C 
HETATM    2  C2  UNL     1     -35.378  14.193  -5.803  1.00 20.00     0.030 C 
HETATM    3  C3  UNL     1     -34.208  14.093  -3.555  1.00 20.00     0.081 C 
HETATM    4  C4  UNL     1     -34.840  15.517  -6.346  1.00 20.00     0.270 C 
HETATM    5  C5  UNL     1     -33.109  16.128  -4.764  1.00 20.00     0.348 C 
HETATM    6  C6  UNL     1     -33.165  15.201  -3.557  1.00 20.00     0.269 C 
HETATM    7  N7  UNL     1     -34.408  16.472  -5.329  1.00 20.00     0.089 N 
HETATM    8  F8  UNL     1     -31.935  14.626  -3.426  1.00 20.00    -0.204 F 
HETATM    9  F9  UNL     1     -33.341  15.949  -2.431  1.00 20.00    -0.204 F 
HETATM   10  H20 UNL     1     -34.396  17.422  -5.710  1.00 20.00     0.316 HD
ENDROOT
TORSDOF 0
ENDMDL
MODEL 4
REMARK VINA RESULT:      -4.3      1.924      2.747
REMARK  0 active torsions:
REMARK  status: ('A' for Active; 'I' for Inactive)
ROOT
HETATM    1  C1  UNL     1     -33.570   5.621   6.089  1.00 20.00     0.008 C 
HETATM    2  C2  UNL     1     -35.019   5.135   6.051  1.00 20.00     0.030 C 
HETATM    3  C3  UNL     1     -33.348   6.843   5.203  1.00 20.00     0.081 C 
HETATM    4  C4  UNL     1     -35.458   4.488   4.738  1.00 20.00     0.270 C 
HETATM    5  C5  UNL     1     -33.920   5.403   3.103  1.00 20.00     0.348 C 
HETATM    6  C6  UNL     1     -33.105   6.524   3.735  1.00 20.00     0.269 C 
HETATM    7  N7  UNL     1     -35.305   5.328   3.553  1.00 20.00     0.089 N 
HETATM    8  F8  UNL     1     -31.787   6.206   3.582  1.00 20.00    -0.204 F 
HETATM    9  F9  UNL     1     -33.292   7.667   3.016  1.00 20.00    -0.204 F 
HETATM   10  H20 UNL     1     -35.913   4.999   2.798  1.00 20.00     0.316 HD
ENDROOT
TORSDOF 0
ENDMDL
MODEL 5
REMARK VINA RESULT:      -4.2      1.763      2.327
REMARK  0 active torsions:
REMARK  status: ('A' for Active; 'I' for Inactive)
ROOT
HETATM    1  C1  UNL     1     -35.280   5.320   3.589  1.00 20.00     0.008 C 
HETATM    2  C2  UNL     1     -35.407   4.598   4.931  1.00 20.00     0.030 C 
HETATM    3  C3  UNL     1     -33.834   5.391   3.106  1.00 20.00     0.081 C 
HETATM    4  C4  UNL     1     -34.851   5.357   6.136  1.00 20.00     0.270 C 
HETATM    5  C5  UNL     1     -33.239   6.883   5.162  1.00 20.00     0.348 C 
HETATM    6  C6  UNL     1     -33.027   6.539   3.695  1.00 20.00     0.269 C 
HETATM    7  N7  UNL     1     -33.443   5.733   6.034  1.00 20.00     0.089 N 
HETATM    8  F8  UNL     1     -33.297   7.663   2.969  1.00 20.00    -0.204 F 
HETATM    9  F9  UNL     1     -31.706   6.278   3.487  1.00 20.00    -0.204 F 
HETATM   10  H20 UNL     1     -33.051   5.909   6.963  1.00 20.00     0.316 HD
ENDROOT
TORSDOF 0
ENDMDL
MODEL 6
REMARK VINA RESULT:      -4.2     12.163     13.154
REMARK  0 active torsions:
REMARK  status: ('A' for Active; 'I' for Inactive)
ROOT
HETATM    1  C1  UNL     1     -34.215  15.591  -3.109  1.00 20.00     0.008 C 
HETATM    2  C2  UNL     1     -33.367  16.545  -3.951  1.00 20.00     0.030 C 
HETATM    3  C3  UNL     1     -33.967  14.129  -3.467  1.00 20.00     0.081 C 
HETATM    4  C4  UNL     1     -33.768  16.649  -5.422  1.00 20.00     0.270 C 
HETATM    5  C5  UNL     1     -34.932  14.568  -5.851  1.00 20.00     0.348 C 
HETATM    6  C6  UNL     1     -34.760  13.628  -4.665  1.00 20.00     0.269 C 
HETATM    7  N7  UNL     1     -33.765  15.386  -6.155  1.00 20.00     0.089 N 
HETATM    8  F8  UNL     1     -36.008  13.284  -4.234  1.00 20.00    -0.204 F 
HETATM    9  F9  UNL     1     -34.189  12.469  -5.097  1.00 20.00    -0.204 F 
HETATM   10  H20 UNL     1     -33.694  15.555  -7.162  1.00 20.00     0.316 HD
ENDROOT
TORSDOF 0
ENDMDL
MODEL 7
REMARK VINA RESULT:      -4.2     12.675     13.580
REMARK  0 active torsions:
REMARK  status: ('A' for Active; 'I' for Inactive)
ROOT
HETATM    1  C1  UNL     1     -35.122  13.725  -4.208  1.00 20.00     0.008 C 
HETATM    2  C2  UNL     1     -33.842  13.938  -3.399  1.00 20.00     0.030 C 
HETATM    3  C3  UNL     1     -34.850  13.628  -5.706  1.00 20.00     0.081 C 
HETATM    4  C4  UNL     1     -33.193  15.314  -3.554  1.00 20.00     0.270 C 
HETATM    5  C5  UNL     1     -34.013  16.099  -5.696  1.00 20.00     0.348 C 
HETATM    6  C6  UNL     1     -34.736  14.969  -6.415  1.00 20.00     0.269 C 
HETATM    7  N7  UNL     1     -32.848  15.684  -4.924  1.00 20.00     0.089 N 
HETATM    8  F8  UNL     1     -35.996  15.407  -6.699  1.00 20.00    -0.204 F 
HETATM    9  F9  UNL     1     -34.140  14.760  -7.623  1.00 20.00    -0.204 F 
HETATM   10  H20 UNL     1     -32.131  16.415  -4.929  1.00 20.00     0.316 HD
ENDROOT
TORSDOF 0
ENDMDL
MODEL 8
REMARK VINA RESULT:      -4.2     12.235     13.605
REMARK  0 active torsions:
REMARK  status: ('A' for Active; 'I' for Inactive)
ROOT
HETATM    1  C1  UNL     1     -34.330  16.460  -5.471  1.00 20.00     0.008 C 
HETATM    2  C2  UNL     1     -34.730  15.413  -6.511  1.00 20.00     0.030 C 
HETATM    3  C3  UNL     1     -33.007  16.122  -4.792  1.00 20.00     0.081 C 
HETATM    4  C4  UNL     1     -35.159  14.060  -5.944  1.00 20.00     0.270 C 
HETATM    5  C5  UNL     1     -34.100  13.987  -3.765  1.00 20.00     0.348 C 
HETATM    6  C6  UNL     1     -33.125  15.148  -3.628  1.00 20.00     0.269 C 
HETATM    7  N7  UNL     1     -34.167  13.401  -5.098  1.00 20.00     0.089 N 
HETATM    8  F8  UNL     1     -33.485  15.855  -2.518  1.00 20.00    -0.204 F 
HETATM    9  F9  UNL     1     -31.882  14.655  -3.362  1.00 20.00    -0.204 F 
HETATM   10  H20 UNL     1     -34.353  12.396  -5.043  1.00 20.00     0.316 HD
ENDROOT
TORSDOF 0
ENDMDL
MODEL 9
REMARK VINA RESULT:      -4.0      9.039      9.861
REMARK  0 active torsions:
REMARK  status: ('A' for Active; 'I' for Inactive)
ROOT
HETATM    1  C1  UNL     1     -41.115   5.819  -0.119  1.00 20.00     0.008 C 
HETATM    2  C2  UNL     1     -41.035   7.175  -0.821  1.00 20.00     0.030 C 
HETATM    3  C3  UNL     1     -40.779   4.663  -1.056  1.00 20.00     0.081 C 
HETATM    4  C4  UNL     1     -42.136   7.447  -1.845  1.00 20.00     0.270 C 
HETATM    5  C5  UNL     1     -42.886   5.233  -2.486  1.00 20.00     0.348 C 
HETATM    6  C6  UNL     1     -41.943   4.184  -1.912  1.00 20.00     0.269 C 
HETATM    7  N7  UNL     1     -42.237   6.463  -2.921  1.00 20.00     0.089 N 
HETATM    8  F8  UNL     1     -42.695   3.326  -1.164  1.00 20.00    -0.204 F 
HETATM    9  F9  UNL     1     -41.438   3.435  -2.933  1.00 20.00    -0.204 F 
HETATM   10  H20 UNL     1     -42.723   6.863  -3.728  1.00 20.00     0.316 HD
ENDROOT
TORSDOF 0
ENDMDL
