MODEL 1
REMARK VINA RESULT:      -5.0      0.000      0.000
REMARK  1 active torsions:
REMARK  status: ('A' for Active; 'I' for Inactive)
REMARK    1  A    between atoms: C2_2  and  C4_4 
ROOT
HETATM    1  C1  UNL     1     -33.063   6.464   3.792  1.00 20.00    -0.102 C 
HETATM    2  C2  UNL     1     -33.775   5.878   4.561  1.00 20.00     0.008 C 
HETATM    3  C3  UNL     1     -32.196   7.179   2.856  1.00 20.00     0.112 C 
ENDROOT
BRANCH   2   4
HETATM    4  C4  UNL     1     -34.634   5.169   5.492  1.00 20.00     0.459 C 
HETATM    5  F5  UNL     1     -34.066   4.006   5.881  1.00 20.00    -0.159 F 
HETATM    6  F6  UNL     1     -35.826   4.883   4.924  1.00 20.00    -0.159 F 
HETATM    7  F7  UNL     1     -34.863   5.913   6.597  1.00 20.00    -0.159 F 
ENDBRANCH   2   4
TORSDOF 1
ENDMDL
MODEL 2
REMARK VINA RESULT:      -5.0      0.010      1.432
REMARK  1 active torsions:
REMARK  status: ('A' for Active; 'I' for Inactive)
REMARK    1  A    between atoms: C2_2  and  C4_4 
ROOT
HETATM    1  C1  UNL     1     -33.056   6.462   3.789  1.00 20.00    -0.102 C 
HETATM    2  C2  UNL     1     -33.769   5.879   4.561  1.00 20.00     0.008 C 
HETATM    3  C3  UNL     1     -32.189   7.171   2.850  1.00 20.00     0.112 C 
ENDROOT
BRANCH   2   4
HETATM    4  C4  UNL     1     -34.630   5.177   5.494  1.00 20.00     0.459 C 
HETATM    5  F5  UNL     1     -34.857   5.924   6.596  1.00 20.00    -0.159 F 
HETATM    6  F6  UNL     1     -34.068   4.013   5.887  1.00 20.00    -0.159 F 
HETATM    7  F7  UNL     1     -35.825   4.894   4.927  1.00 20.00    -0.159 F 
ENDBRANCH   2   4
TORSDOF 1
ENDMDL
MODEL 3
REMARK VINA RESULT:      -5.0      0.014      1.432
REMARK  1 active torsions:
REMARK  status: ('A' for Active; 'I' for Inactive)
REMARK    1  A    between atoms: C2_2  and  C4_4 
ROOT
HETATM    1  C1  UNL     1     -33.054   6.463   3.783  1.00 20.00    -0.102 C 
HETATM    2  C2  UNL     1     -33.767   5.882   4.556  1.00 20.00     0.008 C 
HETATM    3  C3  UNL     1     -32.187   7.171   2.843  1.00 20.00     0.112 C 
ENDROOT
BRANCH   2   4
HETATM    4  C4  UNL     1     -34.627   5.180   5.490  1.00 20.00     0.459 C 
HETATM    5  F5  UNL     1     -35.821   4.896   4.925  1.00 20.00    -0.159 F 
HETATM    6  F6  UNL     1     -34.854   5.928   6.593  1.00 20.00    -0.159 F 
HETATM    7  F7  UNL     1     -34.063   4.015   5.883  1.00 20.00    -0.159 F 
ENDBRANCH   2   4
TORSDOF 1
ENDMDL
MODEL 4
REMARK VINA RESULT:      -4.6      2.126      2.596
REMARK  1 active torsions:
REMARK  status: ('A' for Active; 'I' for Inactive)
REMARK    1  A    between atoms: C2_2  and  C4_4 
ROOT
HETATM    1  C1  UNL     1     -33.964   6.524   6.009  1.00 20.00    -0.102 C 
HETATM    2  C2  UNL     1     -34.460   5.823   5.169  1.00 20.00     0.008 C 
HETATM    3  C3  UNL     1     -33.361   7.378   7.032  1.00 20.00     0.112 C 
ENDROOT
BRANCH   2   4
HETATM    4  C4  UNL     1     -35.059   4.975   4.156  1.00 20.00     0.459 C 
HETATM    5  F5  UNL     1     -34.306   4.960   3.034  1.00 20.00    -0.159 F 
HETATM    6  F6  UNL     1     -36.293   5.416   3.826  1.00 20.00    -0.159 F 
HETATM    7  F7  UNL     1     -35.174   3.702   4.599  1.00 20.00    -0.159 F 
ENDBRANCH   2   4
TORSDOF 1
ENDMDL
MODEL 5
REMARK VINA RESULT:      -4.5      2.925      3.865
REMARK  1 active torsions:
REMARK  status: ('A' for Active; 'I' for Inactive)
REMARK    1  A    between atoms: C2_2  and  C4_4 
ROOT
HETATM    1  C1  UNL     1     -34.183   5.558   5.100  1.00 20.00    -0.102 C 
HETATM    2  C2  UNL     1     -33.422   6.083   4.333  1.00 20.00     0.008 C 
HETATM    3  C3  UNL     1     -35.109   4.918   6.033  1.00 20.00     0.112 C 
ENDROOT
BRANCH   2   4
HETATM    4  C4  UNL     1     -32.502   6.717   3.408  1.00 20.00     0.459 C 
HETATM    5  F5  UNL     1     -33.149   7.597   2.612  1.00 20.00    -0.159 F 
HETATM    6  F6  UNL     1     -31.905   5.799   2.616  1.00 20.00    -0.159 F 
HETATM    7  F7  UNL     1     -31.535   7.389   4.073  1.00 20.00    -0.159 F 
ENDBRANCH   2   4
TORSDOF 1
ENDMDL
MODEL 6
REMARK VINA RESULT:      -4.5      2.967      3.888
REMARK  1 active torsions:
REMARK  status: ('A' for Active; 'I' for Inactive)
REMARK    1  A    between atoms: C2_2  and  C4_4 
ROOT
HETATM    1  C1  UNL     1     -34.153   5.609   5.073  1.00 20.00    -0.102 C 
HETATM    2  C2  UNL     1     -33.393   6.141   4.311  1.00 20.00     0.008 C 
HETATM    3  C3  UNL     1     -35.078   4.960   6.001  1.00 20.00     0.112 C 
ENDROOT
BRANCH   2   4
HETATM    4  C4  UNL     1     -32.473   6.784   3.391  1.00 20.00     0.459 C 
HETATM    5  F5  UNL     1     -31.486   7.418   4.061  1.00 20.00    -0.159 F 
HETATM    6  F6  UNL     1     -33.114   7.698   2.628  1.00 20.00    -0.159 F 
HETATM    7  F7  UNL     1     -31.903   5.876   2.566  1.00 20.00    -0.159 F 
ENDBRANCH   2   4
TORSDOF 1
ENDMDL
MODEL 7
REMARK VINA RESULT:      -4.2      2.524      3.104
REMARK  1 active torsions:
REMARK  status: ('A' for Active; 'I' for Inactive)
REMARK    1  A    between atoms: C2_2  and  C4_4 
ROOT
HETATM    1  C1  UNL     1     -32.329   8.475   1.886  1.00 20.00    -0.102 C 
HETATM    2  C2  UNL     1     -32.497   7.484   2.544  1.00 20.00     0.008 C 
HETATM    3  C3  UNL     1     -32.124   9.680   1.084  1.00 20.00     0.112 C 
ENDROOT
BRANCH   2   4
HETATM    4  C4  UNL     1     -32.702   6.288   3.340  1.00 20.00     0.459 C 
HETATM    5  F5  UNL     1     -31.587   5.526   3.358  1.00 20.00    -0.159 F 
HETATM    6  F6  UNL     1     -33.710   5.542   2.838  1.00 20.00    -0.159 F 
HETATM    7  F7  UNL     1     -33.012   6.607   4.617  1.00 20.00    -0.159 F 
ENDBRANCH   2   4
TORSDOF 1
ENDMDL
MODEL 8
REMARK VINA RESULT:      -4.0      4.935      5.759
REMARK  1 active torsions:
REMARK  status: ('A' for Active; 'I' for Inactive)
REMARK    1  A    between atoms: C2_2  and  C4_4 
ROOT
HETATM    1  C1  UNL     1     -32.594   7.201   2.880  1.00 20.00    -0.102 C 
HETATM    2  C2  UNL     1     -32.337   8.025   2.044  1.00 20.00     0.008 C 
HETATM    3  C3  UNL     1     -32.906   6.199   3.896  1.00 20.00     0.112 C 
ENDROOT
BRANCH   2   4
HETATM    4  C4  UNL     1     -32.028   9.021   1.035  1.00 20.00     0.459 C 
HETATM    5  F5  UNL     1     -30.737   8.928   0.646  1.00 20.00    -0.159 F 
HETATM    6  F6  UNL     1     -32.233  10.269   1.510  1.00 20.00    -0.159 F 
HETATM    7  F7  UNL     1     -32.807   8.855  -0.059  1.00 20.00    -0.159 F 
ENDBRANCH   2   4
TORSDOF 1
ENDMDL
MODEL 9
REMARK VINA RESULT:      -3.8     11.980     12.506
REMARK  1 active torsions:
REMARK  status: ('A' for Active; 'I' for Inactive)
REMARK    1  A    between atoms: C2_2  and  C4_4 
ROOT
HETATM    1  C1  UNL     1     -34.491  15.787  -2.188  1.00 20.00    -0.102 C 
HETATM    2  C2  UNL     1     -34.297  14.937  -3.013  1.00 20.00     0.008 C 
HETATM    3  C3  UNL     1     -34.728  16.823  -1.184  1.00 20.00     0.112 C 
ENDROOT
BRANCH   2   4
HETATM    4  C4  UNL     1     -34.063  13.908  -4.010  1.00 20.00     0.459 C 
HETATM    5  F5  UNL     1     -35.045  12.981  -3.985  1.00 20.00    -0.159 F 
HETATM    6  F6  UNL     1     -32.888  13.278  -3.787  1.00 20.00    -0.159 F 
HETATM    7  F7  UNL     1     -34.023  14.442  -5.252  1.00 20.00    -0.159 F 
ENDBRANCH   2   4
TORSDOF 1
ENDMDL
