MODEL 1
REMARK VINA RESULT:      -4.3      0.000      0.000
REMARK  1 active torsions:
REMARK  status: ('A' for Active; 'I' for Inactive)
REMARK    1  A    between atoms: C5_5  and  C7_7 
ROOT
HETATM    1  C1  UNL     1     -36.314  16.638  -3.163  1.00 20.00     0.019 C 
HETATM    2  C2  UNL     1     -33.286  15.886  -4.543  1.00 20.00     0.292 C 
HETATM    3  C3  UNL     1     -33.584  13.964  -3.787  1.00 20.00     0.292 C 
HETATM    4  C4  UNL     1     -37.091  15.837  -4.194  1.00 20.00     0.075 C 
HETATM    5  C5  UNL     1     -35.209  15.720  -2.639  1.00 20.00     0.037 C 
HETATM    6  C6  UNL     1     -34.518  15.194  -3.896  1.00 20.00     0.066 C 
HETATM    7  N8  UNL     1     -32.431  14.888  -3.866  1.00 20.00     0.086 N 
HETATM    8  S10 UNL     1     -35.847  14.943  -5.175  1.00 20.00    -0.155 SA
HETATM    9  H22 UNL     1     -31.646  14.548  -4.418  1.00 20.00     0.316 HD
ENDROOT
BRANCH   5  10
HETATM   10  C7  UNL     1     -34.286  16.440  -1.667  1.00 20.00     0.228 C 
HETATM   11  F9  UNL     1     -34.769  16.265  -0.411  1.00 20.00    -0.255 F 
ENDBRANCH   5  10
TORSDOF 1
ENDMDL
MODEL 2
REMARK VINA RESULT:      -4.1      2.266      2.696
REMARK  1 active torsions:
REMARK  status: ('A' for Active; 'I' for Inactive)
REMARK    1  A    between atoms: C5_5  and  C7_7 
ROOT
HETATM    1  C1  UNL     1     -34.060  16.301  -2.333  1.00 20.00     0.019 C 
HETATM    2  C2  UNL     1     -33.795  16.457  -5.731  1.00 20.00     0.292 C 
HETATM    3  C3  UNL     1     -35.106  14.833  -5.760  1.00 20.00     0.292 C 
HETATM    4  C4  UNL     1     -35.481  16.838  -2.323  1.00 20.00     0.075 C 
HETATM    5  C5  UNL     1     -34.028  15.167  -3.358  1.00 20.00     0.037 C 
HETATM    6  C6  UNL     1     -34.640  15.772  -4.621  1.00 20.00     0.066 C 
HETATM    7  N8  UNL     1     -33.879  15.199  -6.503  1.00 20.00     0.086 N 
HETATM    8  S10 UNL     1     -36.000  16.915  -4.065  1.00 20.00    -0.155 SA
HETATM    9  H22 UNL     1     -34.005  15.317  -7.506  1.00 20.00     0.316 HD
ENDROOT
BRANCH   5  10
HETATM   10  C7  UNL     1     -32.626  14.607  -3.542  1.00 20.00     0.228 C 
HETATM   11  F9  UNL     1     -32.715  13.257  -3.647  1.00 20.00    -0.255 F 
ENDBRANCH   5  10
TORSDOF 1
ENDMDL
MODEL 3
REMARK VINA RESULT:      -4.1      3.224      3.891
REMARK  1 active torsions:
REMARK  status: ('A' for Active; 'I' for Inactive)
REMARK    1  A    between atoms: C5_5  and  C7_7 
ROOT
HETATM    1  C1  UNL     1     -34.479  17.014  -5.621  1.00 20.00     0.019 C 
HETATM    2  C2  UNL     1     -35.591  14.363  -3.782  1.00 20.00     0.292 C 
HETATM    3  C3  UNL     1     -33.624  13.669  -3.867  1.00 20.00     0.292 C 
HETATM    4  C4  UNL     1     -33.711  17.621  -4.459  1.00 20.00     0.075 C 
HETATM    5  C5  UNL     1     -34.071  15.543  -5.694  1.00 20.00     0.037 C 
HETATM    6  C6  UNL     1     -34.268  15.017  -4.272  1.00 20.00     0.066 C 
HETATM    7  N8  UNL     1     -34.959  13.044  -3.996  1.00 20.00     0.086 N 
HETATM    8  S10 UNL     1     -33.778  16.393  -3.118  1.00 20.00    -0.155 SA
HETATM    9  H22 UNL     1     -35.174  12.344  -3.288  1.00 20.00     0.316 HD
ENDROOT
BRANCH   5  10
HETATM   10  C7  UNL     1     -34.853  14.788  -6.758  1.00 20.00     0.228 C 
HETATM   11  F9  UNL     1     -34.088  14.713  -7.876  1.00 20.00    -0.255 F 
ENDBRANCH   5  10
TORSDOF 1
ENDMDL
MODEL 4
REMARK VINA RESULT:      -4.0      1.701      2.251
REMARK  1 active torsions:
REMARK  status: ('A' for Active; 'I' for Inactive)
REMARK    1  A    between atoms: C5_5  and  C7_7 
ROOT
HETATM    1  C1  UNL     1     -33.712  17.256  -3.972  1.00 20.00     0.019 C 
HETATM    2  C2  UNL     1     -33.616  13.848  -4.099  1.00 20.00     0.292 C 
HETATM    3  C3  UNL     1     -35.641  13.957  -4.595  1.00 20.00     0.292 C 
HETATM    4  C4  UNL     1     -33.824  17.405  -5.480  1.00 20.00     0.075 C 
HETATM    5  C5  UNL     1     -34.773  16.239  -3.553  1.00 20.00     0.037 C 
HETATM    6  C6  UNL     1     -34.542  15.040  -4.472  1.00 20.00     0.066 C 
HETATM    7  N8  UNL     1     -34.827  13.094  -3.710  1.00 20.00     0.086 N 
HETATM    8  S10 UNL     1     -34.054  15.723  -6.134  1.00 20.00    -0.155 SA
HETATM    9  H22 UNL     1     -34.820  12.108  -3.962  1.00 20.00     0.316 HD
ENDROOT
BRANCH   5  10
HETATM   10  C7  UNL     1     -34.698  15.918  -2.068  1.00 20.00     0.228 C 
HETATM   11  F9  UNL     1     -33.604  16.533  -1.553  1.00 20.00    -0.255 F 
ENDBRANCH   5  10
TORSDOF 1
ENDMDL
MODEL 5
REMARK VINA RESULT:      -4.0      1.833      2.655
REMARK  1 active torsions:
REMARK  status: ('A' for Active; 'I' for Inactive)
REMARK    1  A    between atoms: C5_5  and  C7_7 
ROOT
HETATM    1  C1  UNL     1     -34.417  14.062  -3.454  1.00 20.00     0.019 C 
HETATM    2  C2  UNL     1     -35.560  16.976  -4.811  1.00 20.00     0.292 C 
HETATM    3  C3  UNL     1     -33.637  17.194  -5.593  1.00 20.00     0.292 C 
HETATM    4  C4  UNL     1     -34.364  13.346  -4.793  1.00 20.00     0.075 C 
HETATM    5  C5  UNL     1     -33.693  15.395  -3.642  1.00 20.00     0.037 C 
HETATM    6  C6  UNL     1     -34.341  16.014  -4.880  1.00 20.00     0.066 C 
HETATM    7  N8  UNL     1     -34.615  18.104  -4.956  1.00 20.00     0.086 N 
HETATM    8  S10 UNL     1     -34.704  14.614  -6.052  1.00 20.00    -0.155 SA
HETATM    9  H22 UNL     1     -34.941  18.864  -5.549  1.00 20.00     0.316 HD
ENDROOT
BRANCH   5  10
HETATM   10  C7  UNL     1     -33.764  16.261  -2.394  1.00 20.00     0.228 C 
HETATM   11  F9  UNL     1     -34.708  15.744  -1.569  1.00 20.00    -0.255 F 
ENDBRANCH   5  10
TORSDOF 1
ENDMDL
MODEL 6
REMARK VINA RESULT:      -4.0      2.512      3.539
REMARK  1 active torsions:
REMARK  status: ('A' for Active; 'I' for Inactive)
REMARK    1  A    between atoms: C5_5  and  C7_7 
ROOT
HETATM    1  C1  UNL     1     -33.659  16.379  -5.414  1.00 20.00     0.019 C 
HETATM    2  C2  UNL     1     -35.548  16.524  -2.576  1.00 20.00     0.292 C 
HETATM    3  C3  UNL     1     -33.779  17.049  -1.602  1.00 20.00     0.292 C 
HETATM    4  C4  UNL     1     -33.499  17.887  -5.500  1.00 20.00     0.075 C 
HETATM    5  C5  UNL     1     -33.294  15.981  -3.983  1.00 20.00     0.037 C 
HETATM    6  C6  UNL     1     -34.135  16.904  -3.102  1.00 20.00     0.066 C 
HETATM    7  N8  UNL     1     -34.917  16.157  -1.291  1.00 20.00     0.086 N 
HETATM    8  S10 UNL     1     -34.202  18.554  -3.960  1.00 20.00    -0.155 SA
HETATM    9  H22 UNL     1     -35.449  16.414  -0.462  1.00 20.00     0.316 HD
ENDROOT
BRANCH   5  10
HETATM   10  C7  UNL     1     -33.514  14.497  -3.733  1.00 20.00     0.228 C 
HETATM   11  F9  UNL     1     -32.309  13.923  -3.491  1.00 20.00    -0.255 F 
ENDBRANCH   5  10
TORSDOF 1
ENDMDL
MODEL 7
REMARK VINA RESULT:      -3.9      2.300      2.582
REMARK  1 active torsions:
REMARK  status: ('A' for Active; 'I' for Inactive)
REMARK    1  A    between atoms: C5_5  and  C7_7 
ROOT
HETATM    1  C1  UNL     1     -35.471  15.613  -2.911  1.00 20.00     0.019 C 
HETATM    2  C2  UNL     1     -34.407  16.204  -6.099  1.00 20.00     0.292 C 
HETATM    3  C3  UNL     1     -35.033  14.256  -6.512  1.00 20.00     0.292 C 
HETATM    4  C4  UNL     1     -36.942  15.656  -3.291  1.00 20.00     0.075 C 
HETATM    5  C5  UNL     1     -34.792  14.664  -3.900  1.00 20.00     0.037 C 
HETATM    6  C6  UNL     1     -35.225  15.169  -5.276  1.00 20.00     0.066 C 
HETATM    7  N8  UNL     1     -33.856  15.075  -6.879  1.00 20.00     0.086 N 
HETATM    8  S10 UNL     1     -36.987  15.745  -5.108  1.00 20.00    -0.155 SA
HETATM    9  H22 UNL     1     -33.751  15.251  -7.876  1.00 20.00     0.316 HD
ENDROOT
BRANCH   5  10
HETATM   10  C7  UNL     1     -33.286  14.611  -3.693  1.00 20.00     0.228 C 
HETATM   11  F9  UNL     1     -32.885  13.321  -3.807  1.00 20.00    -0.255 F 
ENDBRANCH   5  10
TORSDOF 1
ENDMDL
MODEL 8
REMARK VINA RESULT:      -3.9      2.879      3.495
REMARK  1 active torsions:
REMARK  status: ('A' for Active; 'I' for Inactive)
REMARK    1  A    between atoms: C5_5  and  C7_7 
ROOT
HETATM    1  C1  UNL     1     -36.324  16.070  -5.805  1.00 20.00     0.019 C 
HETATM    2  C2  UNL     1     -34.992  13.320  -4.287  1.00 20.00     0.292 C 
HETATM    3  C3  UNL     1     -33.377  14.551  -3.805  1.00 20.00     0.292 C 
HETATM    4  C4  UNL     1     -36.633  16.765  -4.490  1.00 20.00     0.075 C 
HETATM    5  C5  UNL     1     -34.867  15.615  -5.727  1.00 20.00     0.037 C 
HETATM    6  C6  UNL     1     -34.771  14.855  -4.405  1.00 20.00     0.066 C 
HETATM    7  N8  UNL     1     -33.522  13.159  -4.285  1.00 20.00     0.086 N 
HETATM    8  S10 UNL     1     -35.868  15.745  -3.192  1.00 20.00    -0.155 SA
HETATM    9  H22 UNL     1     -33.168  12.448  -3.650  1.00 20.00     0.316 HD
ENDROOT
BRANCH   5  10
HETATM   10  C7  UNL     1     -34.458  14.807  -6.949  1.00 20.00     0.228 C 
HETATM   11  F9  UNL     1     -35.552  14.153  -7.414  1.00 20.00    -0.255 F 
ENDBRANCH   5  10
TORSDOF 1
ENDMDL
MODEL 9
REMARK VINA RESULT:      -3.9     12.170     12.859
REMARK  1 active torsions:
REMARK  status: ('A' for Active; 'I' for Inactive)
REMARK    1  A    between atoms: C5_5  and  C7_7 
ROOT
HETATM    1  C1  UNL     1     -43.121   6.197  -3.104  1.00 20.00     0.019 C 
HETATM    2  C2  UNL     1     -42.918   5.469   0.224  1.00 20.00     0.292 C 
HETATM    3  C3  UNL     1     -40.886   5.914   0.045  1.00 20.00     0.292 C 
HETATM    4  C4  UNL     1     -42.941   7.690  -2.886  1.00 20.00     0.075 C 
HETATM    5  C5  UNL     1     -42.001   5.504  -2.328  1.00 20.00     0.037 C 
HETATM    6  C6  UNL     1     -42.079   6.100  -0.923  1.00 20.00     0.066 C 
HETATM    7  N8  UNL     1     -41.669   4.866   0.737  1.00 20.00     0.086 N 
HETATM    8  S10 UNL     1     -42.533   7.894  -1.125  1.00 20.00    -0.155 SA
HETATM    9  H22 UNL     1     -41.579   4.863   1.751  1.00 20.00     0.316 HD
ENDROOT
BRANCH   5  10
HETATM   10  C7  UNL     1     -42.128   3.989  -2.378  1.00 20.00     0.228 C 
HETATM   11  F9  UNL     1     -40.888   3.452  -2.261  1.00 20.00    -0.255 F 
ENDBRANCH   5  10
TORSDOF 1
ENDMDL
