MODEL 1
REMARK VINA RESULT:      -4.2      0.000      0.000
REMARK  3 active torsions:
REMARK  status: ('A' for Active; 'I' for Inactive)
REMARK    1  A    between atoms: C1_1  and  C3_3 
REMARK    2  A    between atoms: C2_2  and  C9_9 
REMARK    3  A    between atoms: C3_3  and  O11_11 
ROOT
HETATM    1  C1  UNL     1     -36.280  15.830  -3.043  1.00 20.00     0.085 C 
HETATM    2  C2  UNL     1     -34.943  15.639  -3.056  1.00 20.00    -0.070 C 
HETATM    3  C4  UNL     1     -34.029  16.336  -2.068  1.00 20.00     0.044 C 
ENDROOT
BRANCH   2   4
HETATM    4  C9  UNL     1     -34.249  14.686  -4.065  1.00 20.00    -0.028 C 
HETATM    5  C5  UNL     1     -34.245  15.316  -5.475  1.00 20.00     0.019 C 
HETATM    6  C6  UNL     1     -34.935  13.305  -4.201  1.00 20.00     0.019 C 
HETATM    7  C7  UNL     1     -32.794  14.427  -3.621  1.00 20.00     0.019 C 
ENDBRANCH   2   4
BRANCH   1   8
HETATM    8  C3  UNL     1     -37.244  15.189  -3.973  1.00 20.00     0.282 C 
HETATM    9  O10 UNL     1     -37.854  14.153  -3.767  1.00 20.00    -0.260 OA
BRANCH   8  10
HETATM   10  O11 UNL     1     -37.333  15.983  -5.075  1.00 20.00    -0.323 OA
HETATM   11  C8  UNL     1     -37.964  15.387  -6.213  1.00 20.00     0.213 C 
ENDBRANCH   8  10
ENDBRANCH   1   8
TORSDOF 3
ENDMDL
MODEL 2
REMARK VINA RESULT:      -4.1      1.527      2.643
REMARK  3 active torsions:
REMARK  status: ('A' for Active; 'I' for Inactive)
REMARK    1  A    between atoms: C1_1  and  C3_3 
REMARK    2  A    between atoms: C2_2  and  C9_9 
REMARK    3  A    between atoms: C3_3  and  O11_11 
ROOT
HETATM    1  C1  UNL     1     -35.677  14.965  -5.260  1.00 20.00     0.085 C 
HETATM    2  C2  UNL     1     -34.898  16.029  -4.970  1.00 20.00    -0.070 C 
HETATM    3  C4  UNL     1     -34.745  17.191  -5.930  1.00 20.00     0.044 C 
ENDROOT
BRANCH   2   4
HETATM    4  C9  UNL     1     -34.118  16.149  -3.633  1.00 20.00    -0.028 C 
HETATM    5  C5  UNL     1     -32.904  15.194  -3.638  1.00 20.00     0.019 C 
HETATM    6  C6  UNL     1     -34.956  15.790  -2.381  1.00 20.00     0.019 C 
HETATM    7  C7  UNL     1     -33.622  17.598  -3.446  1.00 20.00     0.019 C 
ENDBRANCH   2   4
BRANCH   1   8
HETATM    8  C3  UNL     1     -35.881  13.788  -4.377  1.00 20.00     0.282 C 
HETATM    9  O10 UNL     1     -35.121  12.842  -4.263  1.00 20.00    -0.260 OA
BRANCH   8  10
HETATM   10  O11 UNL     1     -37.053  13.980  -3.711  1.00 20.00    -0.323 OA
HETATM   11  C8  UNL     1     -38.035  14.756  -4.405  1.00 20.00     0.213 C 
ENDBRANCH   8  10
ENDBRANCH   1   8
TORSDOF 3
ENDMDL
MODEL 3
REMARK VINA RESULT:      -4.1      2.015      2.595
REMARK  3 active torsions:
REMARK  status: ('A' for Active; 'I' for Inactive)
REMARK    1  A    between atoms: C1_1  and  C3_3 
REMARK    2  A    between atoms: C2_2  and  C9_9 
REMARK    3  A    between atoms: C3_3  and  O11_11 
ROOT
HETATM    1  C1  UNL     1     -35.860  14.607  -4.565  1.00 20.00     0.085 C 
HETATM    2  C2  UNL     1     -35.440  15.609  -3.764  1.00 20.00    -0.070 C 
HETATM    3  C4  UNL     1     -36.415  16.509  -3.032  1.00 20.00     0.044 C 
ENDROOT
BRANCH   2   4
HETATM    4  C9  UNL     1     -33.935  15.904  -3.521  1.00 20.00    -0.028 C 
HETATM    5  C5  UNL     1     -33.371  16.771  -4.667  1.00 20.00     0.019 C 
HETATM    6  C6  UNL     1     -33.049  14.635  -3.450  1.00 20.00     0.019 C 
HETATM    7  C7  UNL     1     -33.759  16.654  -2.184  1.00 20.00     0.019 C 
ENDBRANCH   2   4
BRANCH   1   8
HETATM    8  C3  UNL     1     -34.974  13.683  -5.316  1.00 20.00     0.282 C 
HETATM    9  O10 UNL     1     -34.659  12.557  -4.971  1.00 20.00    -0.260 OA
BRANCH   8  10
HETATM   10  O11 UNL     1     -34.604  14.319  -6.462  1.00 20.00    -0.323 OA
HETATM   11  C8  UNL     1     -35.632  14.453  -7.450  1.00 20.00     0.213 C 
ENDBRANCH   8  10
ENDBRANCH   1   8
TORSDOF 3
ENDMDL
MODEL 4
REMARK VINA RESULT:      -4.0      1.816      2.999
REMARK  3 active torsions:
REMARK  status: ('A' for Active; 'I' for Inactive)
REMARK    1  A    between atoms: C1_1  and  C3_3 
REMARK    2  A    between atoms: C2_2  and  C9_9 
REMARK    3  A    between atoms: C3_3  and  O11_11 
ROOT
HETATM    1  C1  UNL     1     -34.172  14.616  -3.252  1.00 20.00     0.085 C 
HETATM    2  C2  UNL     1     -34.847  15.684  -2.776  1.00 20.00    -0.070 C 
HETATM    3  C4  UNL     1     -34.340  16.487  -1.596  1.00 20.00     0.044 C 
ENDROOT
BRANCH   2   4
HETATM    4  C9  UNL     1     -36.177  16.176  -3.409  1.00 20.00    -0.028 C 
HETATM    5  C5  UNL     1     -36.874  17.182  -2.466  1.00 20.00     0.019 C 
HETATM    6  C6  UNL     1     -37.200  15.047  -3.683  1.00 20.00     0.019 C 
HETATM    7  C7  UNL     1     -35.888  16.864  -4.759  1.00 20.00     0.019 C 
ENDBRANCH   2   4
BRANCH   1   8
HETATM    8  C3  UNL     1     -34.599  13.776  -4.400  1.00 20.00     0.282 C 
HETATM    9  O10 UNL     1     -35.195  12.715  -4.326  1.00 20.00    -0.260 OA
BRANCH   8  10
HETATM   10  O11 UNL     1     -34.222  14.424  -5.536  1.00 20.00    -0.323 OA
HETATM   11  C8  UNL     1     -35.010  14.138  -6.697  1.00 20.00     0.213 C 
ENDBRANCH   8  10
ENDBRANCH   1   8
TORSDOF 3
ENDMDL
MODEL 5
REMARK VINA RESULT:      -4.0     11.503     12.833
REMARK  3 active torsions:
REMARK  status: ('A' for Active; 'I' for Inactive)
REMARK    1  A    between atoms: C1_1  and  C3_3 
REMARK    2  A    between atoms: C2_2  and  C9_9 
REMARK    3  A    between atoms: C3_3  and  O11_11 
ROOT
HETATM    1  C1  UNL     1     -42.756   4.602  -3.063  1.00 20.00     0.085 C 
HETATM    2  C2  UNL     1     -42.395   5.771  -2.491  1.00 20.00    -0.070 C 
HETATM    3  C4  UNL     1     -42.612   7.100  -3.186  1.00 20.00     0.044 C 
ENDROOT
BRANCH   2   4
HETATM    4  C9  UNL     1     -41.748   5.842  -1.081  1.00 20.00    -0.028 C 
HETATM    5  C5  UNL     1     -41.132   7.239  -0.849  1.00 20.00     0.019 C 
HETATM    6  C6  UNL     1     -40.609   4.816  -0.859  1.00 20.00     0.019 C 
HETATM    7  C7  UNL     1     -42.817   5.572  -0.003  1.00 20.00     0.019 C 
ENDBRANCH   2   4
BRANCH   1   8
HETATM    8  C3  UNL     1     -42.579   3.260  -2.452  1.00 20.00     0.282 C 
HETATM    9  O10 UNL     1     -43.331   2.736  -1.649  1.00 20.00    -0.260 OA
BRANCH   8  10
HETATM   10  O11 UNL     1     -41.441   2.726  -2.974  1.00 20.00    -0.323 OA
HETATM   11  C8  UNL     1     -41.626   1.568  -3.797  1.00 20.00     0.213 C 
ENDBRANCH   8  10
ENDBRANCH   1   8
TORSDOF 3
ENDMDL
MODEL 6
REMARK VINA RESULT:      -4.0      2.360      3.743
REMARK  3 active torsions:
REMARK  status: ('A' for Active; 'I' for Inactive)
REMARK    1  A    between atoms: C1_1  and  C3_3 
REMARK    2  A    between atoms: C2_2  and  C9_9 
REMARK    3  A    between atoms: C3_3  and  O11_11 
ROOT
HETATM    1  C1  UNL     1     -35.434  16.415  -2.937  1.00 20.00     0.085 C 
HETATM    2  C2  UNL     1     -35.568  15.307  -3.698  1.00 20.00    -0.070 C 
HETATM    3  C4  UNL     1     -36.899  14.600  -3.851  1.00 20.00     0.044 C 
ENDROOT
BRANCH   2   4
HETATM    4  C9  UNL     1     -34.378  14.689  -4.482  1.00 20.00    -0.028 C 
HETATM    5  C5  UNL     1     -34.735  13.261  -4.949  1.00 20.00     0.019 C 
HETATM    6  C6  UNL     1     -33.074  14.570  -3.655  1.00 20.00     0.019 C 
HETATM    7  C7  UNL     1     -34.056  15.560  -5.713  1.00 20.00     0.019 C 
ENDBRANCH   2   4
BRANCH   1   8
HETATM    8  C3  UNL     1     -34.170  17.166  -2.734  1.00 20.00     0.282 C 
HETATM    9  O10 UNL     1     -33.667  17.945  -3.526  1.00 20.00    -0.260 OA
BRANCH   8  10
HETATM   10  O11 UNL     1     -33.699  16.841  -1.499  1.00 20.00    -0.323 OA
HETATM   11  C8  UNL     1     -34.658  16.909  -0.438  1.00 20.00     0.213 C 
ENDBRANCH   8  10
ENDBRANCH   1   8
TORSDOF 3
ENDMDL
MODEL 7
REMARK VINA RESULT:      -3.9      2.402      3.911
REMARK  3 active torsions:
REMARK  status: ('A' for Active; 'I' for Inactive)
REMARK    1  A    between atoms: C1_1  and  C3_3 
REMARK    2  A    between atoms: C2_2  and  C9_9 
REMARK    3  A    between atoms: C3_3  and  O11_11 
ROOT
HETATM    1  C1  UNL     1     -33.817  15.754  -2.810  1.00 20.00     0.085 C 
HETATM    2  C2  UNL     1     -34.431  16.755  -2.143  1.00 20.00    -0.070 C 
HETATM    3  C4  UNL     1     -34.613  16.717  -0.639  1.00 20.00     0.044 C 
ENDROOT
BRANCH   2   4
HETATM    4  C9  UNL     1     -34.978  18.019  -2.860  1.00 20.00    -0.028 C 
HETATM    5  C5  UNL     1     -35.848  18.846  -1.888  1.00 20.00     0.019 C 
HETATM    6  C6  UNL     1     -35.865  17.710  -4.091  1.00 20.00     0.019 C 
HETATM    7  C7  UNL     1     -33.803  18.888  -3.354  1.00 20.00     0.019 C 
ENDBRANCH   2   4
BRANCH   1   8
HETATM    8  C3  UNL     1     -33.599  15.713  -4.279  1.00 20.00     0.282 C 
HETATM    9  O10 UNL     1     -32.733  16.317  -4.889  1.00 20.00    -0.260 OA
BRANCH   8  10
HETATM   10  O11 UNL     1     -34.524  14.863  -4.801  1.00 20.00    -0.323 OA
HETATM   11  C8  UNL     1     -34.273  13.470  -4.584  1.00 20.00     0.213 C 
ENDBRANCH   8  10
ENDBRANCH   1   8
TORSDOF 3
ENDMDL
MODEL 8
REMARK VINA RESULT:      -3.9      2.083      3.735
REMARK  3 active torsions:
REMARK  status: ('A' for Active; 'I' for Inactive)
REMARK    1  A    between atoms: C1_1  and  C3_3 
REMARK    2  A    between atoms: C2_2  and  C9_9 
REMARK    3  A    between atoms: C3_3  and  O11_11 
ROOT
HETATM    1  C1  UNL     1     -34.762  14.864  -3.043  1.00 20.00     0.085 C 
HETATM    2  C2  UNL     1     -34.599  14.596  -4.356  1.00 20.00    -0.070 C 
HETATM    3  C4  UNL     1     -34.498  13.176  -4.874  1.00 20.00     0.044 C 
ENDROOT
BRANCH   2   4
HETATM    4  C9  UNL     1     -34.520  15.715  -5.429  1.00 20.00    -0.028 C 
HETATM    5  C5  UNL     1     -33.304  16.628  -5.157  1.00 20.00     0.019 C 
HETATM    6  C6  UNL     1     -35.763  16.637  -5.470  1.00 20.00     0.019 C 
HETATM    7  C7  UNL     1     -34.377  15.085  -6.830  1.00 20.00     0.019 C 
ENDBRANCH   2   4
BRANCH   1   8
HETATM    8  C3  UNL     1     -34.869  16.223  -2.454  1.00 20.00     0.282 C 
HETATM    9  O10 UNL     1     -35.882  16.900  -2.400  1.00 20.00    -0.260 OA
BRANCH   8  10
HETATM   10  O11 UNL     1     -33.641  16.552  -1.970  1.00 20.00    -0.323 OA
HETATM   11  C8  UNL     1     -33.625  17.597  -0.990  1.00 20.00     0.213 C 
ENDBRANCH   8  10
ENDBRANCH   1   8
TORSDOF 3
ENDMDL
MODEL 9
REMARK VINA RESULT:      -3.8      2.302      3.755
REMARK  3 active torsions:
REMARK  status: ('A' for Active; 'I' for Inactive)
REMARK    1  A    between atoms: C1_1  and  C3_3 
REMARK    2  A    between atoms: C2_2  and  C9_9 
REMARK    3  A    between atoms: C3_3  and  O11_11 
ROOT
HETATM    1  C1  UNL     1     -33.605  15.862  -2.872  1.00 20.00     0.085 C 
HETATM    2  C2  UNL     1     -33.885  14.987  -3.861  1.00 20.00    -0.070 C 
HETATM    3  C4  UNL     1     -33.394  13.553  -3.821  1.00 20.00     0.044 C 
ENDROOT
BRANCH   2   4
HETATM    4  C9  UNL     1     -34.738  15.375  -5.099  1.00 20.00    -0.028 C 
HETATM    5  C5  UNL     1     -33.949  16.346  -6.005  1.00 20.00     0.019 C 
HETATM    6  C6  UNL     1     -36.069  16.084  -4.748  1.00 20.00     0.019 C 
HETATM    7  C7  UNL     1     -35.096  14.109  -5.904  1.00 20.00     0.019 C 
ENDBRANCH   2   4
BRANCH   1   8
HETATM    8  C3  UNL     1     -34.045  17.279  -2.834  1.00 20.00     0.282 C 
HETATM    9  O10 UNL     1     -33.606  18.182  -3.526  1.00 20.00    -0.260 OA
BRANCH   8  10
HETATM   10  O11 UNL     1     -35.038  17.370  -1.907  1.00 20.00    -0.323 OA
HETATM   11  C8  UNL     1     -34.725  16.837  -0.616  1.00 20.00     0.213 C 
ENDBRANCH   8  10
ENDBRANCH   1   8
TORSDOF 3
ENDMDL
