MODEL 1
REMARK VINA RESULT:      -4.6      0.000      0.000
REMARK  1 active torsions:
REMARK  status: ('A' for Active; 'I' for Inactive)
REMARK    1  A    between atoms: C1_1  and  C4_4 
ROOT
HETATM    1  C2  UNL     1     -34.382   5.659   6.364  1.00 20.00     0.173 C 
HETATM    2  C3  UNL     1     -35.226   4.360   4.623  1.00 20.00     0.173 C 
HETATM    3  C4  UNL     1     -33.221   5.931   4.039  1.00 20.00     0.060 A 
HETATM    4  C5  UNL     1     -34.159   6.430   5.110  1.00 20.00     0.027 A 
HETATM    5  C6  UNL     1     -34.693   5.607   4.006  1.00 20.00     0.027 A 
HETATM    6  O8  UNL     1     -34.719   4.315   5.972  1.00 20.00    -0.390 OA
ENDROOT
BRANCH   3   7
HETATM    7  C1  UNL     1     -32.679   6.884   3.064  1.00 20.00     0.236 C 
HETATM    8  O7  UNL     1     -31.652   7.529   3.248  1.00 20.00    -0.306 OA
ENDBRANCH   3   7
TORSDOF 1
ENDMDL
MODEL 2
REMARK VINA RESULT:      -3.8     11.633     12.154
REMARK  1 active torsions:
REMARK  status: ('A' for Active; 'I' for Inactive)
REMARK    1  A    between atoms: C1_1  and  C4_4 
ROOT
HETATM    1  C2  UNL     1     -35.952  13.988  -4.295  1.00 20.00     0.173 C 
HETATM    2  C3  UNL     1     -33.680  13.546  -4.029  1.00 20.00     0.173 C 
HETATM    3  C4  UNL     1     -34.739  15.249  -2.354  1.00 20.00     0.060 A 
HETATM    4  C5  UNL     1     -35.338  15.226  -3.738  1.00 20.00     0.027 A 
HETATM    5  C6  UNL     1     -33.899  14.945  -3.569  1.00 20.00     0.027 A 
HETATM    6  O8  UNL     1     -34.981  12.936  -4.139  1.00 20.00    -0.390 OA
ENDROOT
BRANCH   3   7
HETATM    7  C1  UNL     1     -34.567  16.537  -1.673  1.00 20.00     0.236 C 
HETATM    8  O7  UNL     1     -34.672  16.680  -0.459  1.00 20.00    -0.306 OA
ENDBRANCH   3   7
TORSDOF 1
ENDMDL
MODEL 3
REMARK VINA RESULT:      -3.8     11.867     12.687
REMARK  1 active torsions:
REMARK  status: ('A' for Active; 'I' for Inactive)
REMARK    1  A    between atoms: C1_1  and  C4_4 
ROOT
HETATM    1  C2  UNL     1     -33.689  17.029  -3.514  1.00 20.00     0.173 C 
HETATM    2  C3  UNL     1     -34.702  16.307  -1.544  1.00 20.00     0.173 C 
HETATM    3  C4  UNL     1     -34.561  14.566  -3.487  1.00 20.00     0.060 A 
HETATM    4  C5  UNL     1     -34.701  16.009  -3.904  1.00 20.00     0.027 A 
HETATM    5  C6  UNL     1     -35.343  15.551  -2.655  1.00 20.00     0.027 A 
HETATM    6  O8  UNL     1     -33.517  16.921  -2.088  1.00 20.00    -0.390 OA
ENDROOT
BRANCH   3   7
HETATM    7  C1  UNL     1     -35.285  13.534  -4.237  1.00 20.00     0.236 C 
HETATM    8  O7  UNL     1     -34.735  12.585  -4.786  1.00 20.00    -0.306 OA
ENDBRANCH   3   7
TORSDOF 1
ENDMDL
MODEL 4
REMARK VINA RESULT:      -3.7     11.803     13.250
REMARK  1 active torsions:
REMARK  status: ('A' for Active; 'I' for Inactive)
REMARK    1  A    between atoms: C1_1  and  C4_4 
ROOT
HETATM    1  C2  UNL     1     -33.980  16.871  -2.392  1.00 20.00     0.173 C 
HETATM    2  C3  UNL     1     -33.551  17.340  -4.633  1.00 20.00     0.173 C 
HETATM    3  C4  UNL     1     -34.344  14.912  -4.083  1.00 20.00     0.060 A 
HETATM    4  C5  UNL     1     -33.527  15.597  -3.015  1.00 20.00     0.027 A 
HETATM    5  C6  UNL     1     -33.255  15.894  -4.436  1.00 20.00     0.027 A 
HETATM    6  O8  UNL     1     -34.280  17.778  -3.470  1.00 20.00    -0.390 OA
ENDROOT
BRANCH   3   7
HETATM    7  C1  UNL     1     -34.126  13.484  -4.341  1.00 20.00     0.236 C 
HETATM    8  O7  UNL     1     -35.035  12.664  -4.412  1.00 20.00    -0.306 OA
ENDBRANCH   3   7
TORSDOF 1
ENDMDL
MODEL 5
REMARK VINA RESULT:      -3.6     11.741     12.876
REMARK  1 active torsions:
REMARK  status: ('A' for Active; 'I' for Inactive)
REMARK    1  A    between atoms: C1_1  and  C4_4 
ROOT
HETATM    1  C2  UNL     1     -33.419  13.619  -3.806  1.00 20.00     0.173 C 
HETATM    2  C3  UNL     1     -33.448  15.846  -4.492  1.00 20.00     0.173 C 
HETATM    3  C4  UNL     1     -35.757  14.785  -3.880  1.00 20.00     0.060 A 
HETATM    4  C5  UNL     1     -34.734  13.845  -4.468  1.00 20.00     0.027 A 
HETATM    5  C6  UNL     1     -34.753  15.256  -4.902  1.00 20.00     0.027 A 
HETATM    6  O8  UNL     1     -32.845  14.919  -3.568  1.00 20.00    -0.390 OA
ENDROOT
BRANCH   3   7
HETATM    7  C1  UNL     1     -37.163  14.646  -4.274  1.00 20.00     0.236 C 
HETATM    8  O7  UNL     1     -38.048  14.283  -3.506  1.00 20.00    -0.306 OA
ENDBRANCH   3   7
TORSDOF 1
ENDMDL
MODEL 6
REMARK VINA RESULT:      -3.6     12.266     13.209
REMARK  1 active torsions:
REMARK  status: ('A' for Active; 'I' for Inactive)
REMARK    1  A    between atoms: C1_1  and  C4_4 
ROOT
HETATM    1  C2  UNL     1     -33.030  14.991  -3.784  1.00 20.00     0.173 C 
HETATM    2  C3  UNL     1     -33.853  17.035  -4.541  1.00 20.00     0.173 C 
HETATM    3  C4  UNL     1     -33.906  16.641  -1.958  1.00 20.00     0.060 A 
HETATM    4  C5  UNL     1     -34.080  15.413  -2.816  1.00 20.00     0.027 A 
HETATM    5  C6  UNL     1     -34.601  16.709  -3.295  1.00 20.00     0.027 A 
HETATM    6  O8  UNL     1     -32.722  16.142  -4.592  1.00 20.00    -0.390 OA
ENDROOT
BRANCH   3   7
HETATM    7  C1  UNL     1     -34.704  16.774  -0.733  1.00 20.00     0.236 C 
HETATM    8  O7  UNL     1     -34.347  17.431   0.238  1.00 20.00    -0.306 OA
ENDBRANCH   3   7
TORSDOF 1
ENDMDL
MODEL 7
REMARK VINA RESULT:      -3.5     11.794     12.685
REMARK  1 active torsions:
REMARK  status: ('A' for Active; 'I' for Inactive)
REMARK    1  A    between atoms: C1_1  and  C4_4 
ROOT
HETATM    1  C2  UNL     1     -34.380  15.117  -5.654  1.00 20.00     0.173 C 
HETATM    2  C3  UNL     1     -34.942  13.308  -4.298  1.00 20.00     0.173 C 
HETATM    3  C4  UNL     1     -34.701  15.623  -3.111  1.00 20.00     0.060 A 
HETATM    4  C5  UNL     1     -33.811  15.400  -4.308  1.00 20.00     0.027 A 
HETATM    5  C6  UNL     1     -34.167  14.254  -3.448  1.00 20.00     0.027 A 
HETATM    6  O8  UNL     1     -35.307  14.026  -5.493  1.00 20.00    -0.390 OA
ENDROOT
BRANCH   3   7
HETATM    7  C1  UNL     1     -34.163  16.330  -1.944  1.00 20.00     0.236 C 
HETATM    8  O7  UNL     1     -34.711  16.341  -0.847  1.00 20.00    -0.306 OA
ENDBRANCH   3   7
TORSDOF 1
ENDMDL
MODEL 8
REMARK VINA RESULT:      -3.5     12.359     13.339
REMARK  1 active torsions:
REMARK  status: ('A' for Active; 'I' for Inactive)
REMARK    1  A    between atoms: C1_1  and  C4_4 
ROOT
HETATM    1  C2  UNL     1     -33.638  17.200  -4.202  1.00 20.00     0.173 C 
HETATM    2  C3  UNL     1     -32.964  15.028  -3.691  1.00 20.00     0.173 C 
HETATM    3  C4  UNL     1     -35.529  15.407  -4.014  1.00 20.00     0.060 A 
HETATM    4  C5  UNL     1     -34.757  16.572  -3.447  1.00 20.00     0.027 A 
HETATM    5  C6  UNL     1     -34.331  15.196  -3.124  1.00 20.00     0.027 A 
HETATM    6  O8  UNL     1     -32.749  16.135  -4.590  1.00 20.00    -0.390 OA
ENDROOT
BRANCH   3   7
HETATM    7  C1  UNL     1     -36.867  15.115  -3.487  1.00 20.00     0.236 C 
HETATM    8  O7  UNL     1     -37.513  14.119  -3.795  1.00 20.00    -0.306 OA
ENDBRANCH   3   7
TORSDOF 1
ENDMDL
MODEL 9
REMARK VINA RESULT:      -3.5      1.182      3.717
REMARK  1 active torsions:
REMARK  status: ('A' for Active; 'I' for Inactive)
REMARK    1  A    between atoms: C1_1  and  C4_4 
ROOT
HETATM    1  C2  UNL     1     -34.013   5.393   2.515  1.00 20.00     0.173 C 
HETATM    2  C3  UNL     1     -32.558   6.794   3.677  1.00 20.00     0.173 C 
HETATM    3  C4  UNL     1     -34.048   5.205   5.121  1.00 20.00     0.060 A 
HETATM    4  C5  UNL     1     -34.657   5.684   3.826  1.00 20.00     0.027 A 
HETATM    5  C6  UNL     1     -33.735   6.571   4.563  1.00 20.00     0.027 A 
HETATM    6  O8  UNL     1     -32.640   5.814   2.623  1.00 20.00    -0.390 OA
ENDROOT
BRANCH   3   7
HETATM    7  C1  UNL     1     -34.899   5.101   6.312  1.00 20.00     0.236 C 
HETATM    8  O7  UNL     1     -35.521   4.088   6.612  1.00 20.00    -0.306 OA
ENDBRANCH   3   7
TORSDOF 1
ENDMDL
