MODEL 1
REMARK VINA RESULT:      -3.7      0.000      0.000
REMARK  1 active torsions:
REMARK  status: ('A' for Active; 'I' for Inactive)
REMARK    1  A    between atoms: C5_5  and  C6_6 
ROOT
HETATM    1  C1  UNL     1     -35.220  14.072  -5.993  1.00 20.00     0.011 C 
HETATM    2  C2  UNL     1     -34.489  14.961  -7.005  1.00 20.00     0.011 C 
HETATM    3  C3  UNL     1     -34.349  13.621  -4.822  1.00 20.00     0.075 C 
HETATM    4  C4  UNL     1     -34.347  16.434  -6.640  1.00 20.00     0.075 C 
HETATM    5  C5  UNL     1     -34.647  16.299  -3.896  1.00 20.00     0.122 C 
HETATM    6  S7  UNL     1     -34.469  14.594  -3.284  1.00 20.00    -0.152 SA
HETATM    7  S8  UNL     1     -33.389  16.749  -5.130  1.00 20.00    -0.152 SA
ENDROOT
BRANCH   5   8
HETATM    8  C6  UNL     1     -34.516  17.250  -2.708  1.00 20.00     0.140 C 
HETATM    9 CL9  UNL     1     -34.653  16.349  -1.188  1.00 20.00    -0.128 Cl
ENDBRANCH   5   8
TORSDOF 1
ENDMDL
MODEL 2
REMARK VINA RESULT:      -3.5      0.782      2.371
REMARK  1 active torsions:
REMARK  status: ('A' for Active; 'I' for Inactive)
REMARK    1  A    between atoms: C5_5  and  C6_6 
ROOT
HETATM    1  C1  UNL     1     -34.225  15.216  -6.550  1.00 20.00     0.011 C 
HETATM    2  C2  UNL     1     -35.103  14.105  -5.962  1.00 20.00     0.011 C 
HETATM    3  C3  UNL     1     -34.789  16.621  -6.353  1.00 20.00     0.075 C 
HETATM    4  C4  UNL     1     -34.981  13.863  -4.462  1.00 20.00     0.075 C 
HETATM    5  C5  UNL     1     -33.965  16.300  -3.645  1.00 20.00     0.122 C 
HETATM    6  S7  UNL     1     -34.153  17.572  -4.933  1.00 20.00    -0.152 SA
HETATM    7  S8  UNL     1     -35.454  15.279  -3.428  1.00 20.00    -0.152 SA
ENDROOT
BRANCH   5   8
HETATM    8  C6  UNL     1     -33.666  17.000  -2.320  1.00 20.00     0.140 C 
HETATM    9 CL9  UNL     1     -34.720  16.366  -1.044  1.00 20.00    -0.128 Cl
ENDBRANCH   5   8
TORSDOF 1
ENDMDL
MODEL 3
REMARK VINA RESULT:      -3.5     11.613     12.627
REMARK  1 active torsions:
REMARK  status: ('A' for Active; 'I' for Inactive)
REMARK    1  A    between atoms: C5_5  and  C6_6 
ROOT
HETATM    1  C1  UNL     1     -40.925   4.701  -1.187  1.00 20.00     0.011 C 
HETATM    2  C2  UNL     1     -40.753   5.833  -0.169  1.00 20.00     0.011 C 
HETATM    3  C3  UNL     1     -42.381   4.336  -1.469  1.00 20.00     0.075 C 
HETATM    4  C4  UNL     1     -40.929   7.253  -0.695  1.00 20.00     0.075 C 
HETATM    5  C5  UNL     1     -42.437   6.765  -2.958  1.00 20.00     0.122 C 
HETATM    6  S7  UNL     1     -43.148   5.088  -2.943  1.00 20.00    -0.152 SA
HETATM    7  S8  UNL     1     -42.581   7.614  -1.357  1.00 20.00    -0.152 SA
ENDROOT
BRANCH   5   8
HETATM    8  C6  UNL     1     -43.180   7.590  -4.008  1.00 20.00     0.140 C 
HETATM    9 CL9  UNL     1     -42.053   8.680  -4.834  1.00 20.00    -0.128 Cl
ENDBRANCH   5   8
TORSDOF 1
ENDMDL
MODEL 4
REMARK VINA RESULT:      -3.5      3.044      4.157
REMARK  1 active torsions:
REMARK  status: ('A' for Active; 'I' for Inactive)
REMARK    1  A    between atoms: C5_5  and  C6_6 
ROOT
HETATM    1  C1  UNL     1     -33.684  15.379  -3.066  1.00 20.00     0.011 C 
HETATM    2  C2  UNL     1     -34.797  15.947  -2.180  1.00 20.00     0.011 C 
HETATM    3  C3  UNL     1     -33.949  13.959  -3.562  1.00 20.00     0.075 C 
HETATM    4  C4  UNL     1     -36.021  16.506  -2.898  1.00 20.00     0.075 C 
HETATM    5  C5  UNL     1     -35.820  15.193  -5.321  1.00 20.00     0.122 C 
HETATM    6  S7  UNL     1     -34.664  13.790  -5.231  1.00 20.00    -0.152 SA
HETATM    7  S8  UNL     1     -36.936  15.290  -3.888  1.00 20.00    -0.152 SA
ENDROOT
BRANCH   5   8
HETATM    8  C6  UNL     1     -36.669  15.033  -6.581  1.00 20.00     0.140 C 
HETATM    9 CL9  UNL     1     -35.672  14.428  -7.915  1.00 20.00    -0.128 Cl
ENDBRANCH   5   8
TORSDOF 1
ENDMDL
MODEL 5
REMARK VINA RESULT:      -3.4      2.121      2.549
REMARK  1 active torsions:
REMARK  status: ('A' for Active; 'I' for Inactive)
REMARK    1  A    between atoms: C5_5  and  C6_6 
ROOT
HETATM    1  C1  UNL     1     -34.101  13.691  -3.713  1.00 20.00     0.011 C 
HETATM    2  C2  UNL     1     -35.395  13.633  -4.531  1.00 20.00     0.011 C 
HETATM    3  C3  UNL     1     -33.287  14.964  -3.930  1.00 20.00     0.075 C 
HETATM    4  C4  UNL     1     -36.588  14.402  -3.974  1.00 20.00     0.075 C 
HETATM    5  C5  UNL     1     -35.293  16.217  -2.342  1.00 20.00     0.122 C 
HETATM    6  S7  UNL     1     -33.513  16.304  -2.713  1.00 20.00    -0.152 SA
HETATM    7  S8  UNL     1     -36.333  16.194  -3.834  1.00 20.00    -0.152 SA
ENDROOT
BRANCH   5   8
HETATM    8  C6  UNL     1     -35.670  17.445  -1.513  1.00 20.00     0.140 C 
HETATM    9 CL9  UNL     1     -34.986  17.313   0.116  1.00 20.00    -0.128 Cl
ENDBRANCH   5   8
TORSDOF 1
ENDMDL
MODEL 6
REMARK VINA RESULT:      -3.4      2.980      3.976
REMARK  1 active torsions:
REMARK  status: ('A' for Active; 'I' for Inactive)
REMARK    1  A    between atoms: C5_5  and  C6_6 
ROOT
HETATM    1  C1  UNL     1     -33.499  15.286  -3.434  1.00 20.00     0.011 C 
HETATM    2  C2  UNL     1     -33.544  13.811  -3.846  1.00 20.00     0.011 C 
HETATM    3  C3  UNL     1     -33.127  16.236  -4.570  1.00 20.00     0.075 C 
HETATM    4  C4  UNL     1     -34.809  13.340  -4.554  1.00 20.00     0.075 C 
HETATM    5  C5  UNL     1     -35.772  15.748  -5.508  1.00 20.00     0.122 C 
HETATM    6  S7  UNL     1     -34.502  17.051  -5.447  1.00 20.00    -0.152 SA
HETATM    7  S8  UNL     1     -35.139  14.164  -6.138  1.00 20.00    -0.152 SA
ENDROOT
BRANCH   5   8
HETATM    8  C6  UNL     1     -36.895  16.218  -6.432  1.00 20.00     0.140 C 
HETATM    9 CL9  UNL     1     -37.244  14.975  -7.646  1.00 20.00    -0.128 Cl
ENDBRANCH   5   8
TORSDOF 1
ENDMDL
MODEL 7
REMARK VINA RESULT:      -3.4      1.752      2.816
REMARK  1 active torsions:
REMARK  status: ('A' for Active; 'I' for Inactive)
REMARK    1  A    between atoms: C5_5  and  C6_6 
ROOT
HETATM    1  C1  UNL     1     -33.283  16.286  -5.286  1.00 20.00     0.011 C 
HETATM    2  C2  UNL     1     -34.309  15.168  -5.502  1.00 20.00     0.011 C 
HETATM    3  C3  UNL     1     -33.901  17.627  -4.899  1.00 20.00     0.075 C 
HETATM    4  C4  UNL     1     -34.839  14.479  -4.250  1.00 20.00     0.075 C 
HETATM    5  C5  UNL     1     -34.313  16.418  -2.353  1.00 20.00     0.122 C 
HETATM    6  S7  UNL     1     -33.951  18.029  -3.121  1.00 20.00    -0.152 SA
HETATM    7  S8  UNL     1     -35.734  15.571  -3.108  1.00 20.00    -0.152 SA
ENDROOT
BRANCH   5   8
HETATM    8  C6  UNL     1     -34.624  16.652  -0.875  1.00 20.00     0.140 C 
HETATM    9 CL9  UNL     1     -33.558  17.907  -0.220  1.00 20.00    -0.128 Cl
ENDBRANCH   5   8
TORSDOF 1
ENDMDL
MODEL 8
REMARK VINA RESULT:      -3.4      2.487      2.969
REMARK  1 active torsions:
REMARK  status: ('A' for Active; 'I' for Inactive)
REMARK    1  A    between atoms: C5_5  and  C6_6 
ROOT
HETATM    1  C1  UNL     1     -34.630  13.454  -4.695  1.00 20.00     0.011 C 
HETATM    2  C2  UNL     1     -33.467  13.664  -3.719  1.00 20.00     0.011 C 
HETATM    3  C3  UNL     1     -35.953  14.050  -4.221  1.00 20.00     0.075 C 
HETATM    4  C4  UNL     1     -32.782  15.026  -3.760  1.00 20.00     0.075 C 
HETATM    5  C5  UNL     1     -34.779  16.555  -4.905  1.00 20.00     0.122 C 
HETATM    6  S7  UNL     1     -36.388  15.702  -4.860  1.00 20.00    -0.152 SA
HETATM    7  S8  UNL     1     -33.860  16.426  -3.341  1.00 20.00    -0.152 SA
ENDROOT
BRANCH   5   8
HETATM    8  C6  UNL     1     -35.030  18.034  -5.195  1.00 20.00     0.140 C 
HETATM    9 CL9  UNL     1     -33.548  18.796  -5.798  1.00 20.00    -0.128 Cl
ENDBRANCH   5   8
TORSDOF 1
ENDMDL
MODEL 9
REMARK VINA RESULT:      -3.3      1.524      1.800
REMARK  1 active torsions:
REMARK  status: ('A' for Active; 'I' for Inactive)
REMARK    1  A    between atoms: C5_5  and  C6_6 
ROOT
HETATM    1  C1  UNL     1     -35.740  16.257  -6.039  1.00 20.00     0.011 C 
HETATM    2  C2  UNL     1     -34.246  16.181  -6.366  1.00 20.00     0.011 C 
HETATM    3  C3  UNL     1     -36.264  15.058  -5.251  1.00 20.00     0.075 C 
HETATM    4  C4  UNL     1     -33.283  16.585  -5.254  1.00 20.00     0.075 C 
HETATM    5  C5  UNL     1     -34.901  16.233  -3.042  1.00 20.00     0.122 C 
HETATM    6  S7  UNL     1     -36.380  15.248  -3.441  1.00 20.00    -0.152 SA
HETATM    7  S8  UNL     1     -33.376  15.553  -3.763  1.00 20.00    -0.152 SA
ENDROOT
BRANCH   5   8
HETATM    8  C6  UNL     1     -34.742  16.263  -1.523  1.00 20.00     0.140 C 
HETATM    9 CL9  UNL     1     -33.515  17.456  -1.063  1.00 20.00    -0.128 Cl
ENDBRANCH   5   8
TORSDOF 1
ENDMDL
