MODEL 1
REMARK VINA RESULT:      -4.4      0.000      0.000
REMARK  1 active torsions:
REMARK  status: ('A' for Active; 'I' for Inactive)
REMARK    1  A    between atoms: C1_1  and  C3_3 
ROOT
HETATM    1  C1  UNL     1     -35.005   4.623   4.970  1.00 20.00     0.072 C 
HETATM    2  C2  UNL     1     -34.740   4.989   6.223  1.00 20.00     0.189 C 
HETATM    3  F4  UNL     1     -34.437   6.262   6.537  1.00 20.00    -0.220 F 
ENDROOT
BRANCH   1   4
HETATM    4  C3  UNL     1     -34.999   5.551   3.804  1.00 20.00     0.378 C 
HETATM    5  F5  UNL     1     -34.295   5.061   2.749  1.00 20.00    -0.210 F 
HETATM    6  F6  UNL     1     -36.264   5.761   3.353  1.00 20.00    -0.210 F 
ENDBRANCH   1   4
TORSDOF 1
ENDMDL
MODEL 2
REMARK VINA RESULT:      -4.3      1.663      2.743
REMARK  1 active torsions:
REMARK  status: ('A' for Active; 'I' for Inactive)
REMARK    1  A    between atoms: C1_1  and  C3_3 
ROOT
HETATM    1  C1  UNL     1     -35.238   5.005   4.496  1.00 20.00     0.072 C 
HETATM    2  C2  UNL     1     -34.361   5.684   3.757  1.00 20.00     0.189 C 
HETATM    3  F4  UNL     1     -33.195   6.118   4.268  1.00 20.00    -0.220 F 
ENDROOT
BRANCH   1   4
HETATM    4  C3  UNL     1     -35.037   4.658   5.930  1.00 20.00     0.378 C 
HETATM    5  F5  UNL     1     -33.935   3.886   6.133  1.00 20.00    -0.210 F 
HETATM    6  F6  UNL     1     -34.856   5.781   6.675  1.00 20.00    -0.210 F 
ENDBRANCH   1   4
TORSDOF 1
ENDMDL
MODEL 3
REMARK VINA RESULT:      -4.2      1.219      3.192
REMARK  1 active torsions:
REMARK  status: ('A' for Active; 'I' for Inactive)
REMARK    1  A    between atoms: C1_1  and  C3_3 
ROOT
HETATM    1  C1  UNL     1     -34.007   5.754   4.688  1.00 20.00     0.072 C 
HETATM    2  C2  UNL     1     -34.820   5.541   3.654  1.00 20.00     0.189 C 
HETATM    3  F4  UNL     1     -36.140   5.345   3.825  1.00 20.00    -0.220 F 
ENDROOT
BRANCH   1   4
HETATM    4  C3  UNL     1     -34.449   5.799   6.110  1.00 20.00     0.378 C 
HETATM    5  F5  UNL     1     -34.082   4.691   6.808  1.00 20.00    -0.210 F 
HETATM    6  F6  UNL     1     -33.886   6.857   6.753  1.00 20.00    -0.210 F 
ENDBRANCH   1   4
TORSDOF 1
ENDMDL
MODEL 4
REMARK VINA RESULT:      -4.2      1.726      2.950
REMARK  1 active torsions:
REMARK  status: ('A' for Active; 'I' for Inactive)
REMARK    1  A    between atoms: C1_1  and  C3_3 
ROOT
HETATM    1  C1  UNL     1     -34.970   5.162   4.489  1.00 20.00     0.072 C 
HETATM    2  C2  UNL     1     -34.158   5.774   3.628  1.00 20.00     0.189 C 
HETATM    3  F4  UNL     1     -32.937   6.204   3.993  1.00 20.00    -0.220 F 
ENDROOT
BRANCH   1   4
HETATM    4  C3  UNL     1     -34.631   4.889   5.914  1.00 20.00     0.378 C 
HETATM    5  F5  UNL     1     -34.790   5.981   6.708  1.00 20.00    -0.210 F 
HETATM    6  F6  UNL     1     -35.445   3.927   6.424  1.00 20.00    -0.210 F 
ENDBRANCH   1   4
TORSDOF 1
ENDMDL
MODEL 5
REMARK VINA RESULT:      -4.2      0.683      1.336
REMARK  1 active torsions:
REMARK  status: ('A' for Active; 'I' for Inactive)
REMARK    1  A    between atoms: C1_1  and  C3_3 
ROOT
HETATM    1  C1  UNL     1     -34.925   4.599   5.315  1.00 20.00     0.072 C 
HETATM    2  C2  UNL     1     -34.625   5.347   6.376  1.00 20.00     0.189 C 
HETATM    3  F4  UNL     1     -34.313   6.650   6.255  1.00 20.00    -0.220 F 
ENDROOT
BRANCH   1   4
HETATM    4  C3  UNL     1     -34.952   5.102   3.913  1.00 20.00     0.378 C 
HETATM    5  F5  UNL     1     -36.123   5.720   3.601  1.00 20.00    -0.210 F 
HETATM    6  F6  UNL     1     -33.972   6.023   3.716  1.00 20.00    -0.210 F 
ENDBRANCH   1   4
TORSDOF 1
ENDMDL
MODEL 6
REMARK VINA RESULT:      -4.2      1.577      2.963
REMARK  1 active torsions:
REMARK  status: ('A' for Active; 'I' for Inactive)
REMARK    1  A    between atoms: C1_1  and  C3_3 
ROOT
HETATM    1  C1  UNL     1     -34.381   5.096   6.348  1.00 20.00     0.072 C 
HETATM    2  C2  UNL     1     -35.085   4.264   5.581  1.00 20.00     0.189 C 
HETATM    3  F4  UNL     1     -35.557   4.642   4.380  1.00 20.00    -0.220 F 
ENDROOT
BRANCH   1   4
HETATM    4  C3  UNL     1     -34.044   6.499   5.978  1.00 20.00     0.378 C 
HETATM    5  F5  UNL     1     -33.282   7.120   6.918  1.00 20.00    -0.210 F 
HETATM    6  F6  UNL     1     -33.327   6.531   4.824  1.00 20.00    -0.210 F 
ENDBRANCH   1   4
TORSDOF 1
ENDMDL
MODEL 7
REMARK VINA RESULT:      -4.1      1.384      2.832
REMARK  1 active torsions:
REMARK  status: ('A' for Active; 'I' for Inactive)
REMARK    1  A    between atoms: C1_1  and  C3_3 
ROOT
HETATM    1  C1  UNL     1     -33.921   6.149   4.892  1.00 20.00     0.072 C 
HETATM    2  C2  UNL     1     -33.298   6.389   3.739  1.00 20.00     0.189 C 
HETATM    3  F4  UNL     1     -33.452   5.582   2.674  1.00 20.00    -0.220 F 
ENDROOT
BRANCH   1   4
HETATM    4  C3  UNL     1     -34.833   4.996   5.131  1.00 20.00     0.378 C 
HETATM    5  F5  UNL     1     -35.301   4.955   6.408  1.00 20.00    -0.210 F 
HETATM    6  F6  UNL     1     -35.927   5.076   4.328  1.00 20.00    -0.210 F 
ENDBRANCH   1   4
TORSDOF 1
ENDMDL
MODEL 8
REMARK VINA RESULT:      -4.1      1.553      1.587
REMARK  1 active torsions:
REMARK  status: ('A' for Active; 'I' for Inactive)
REMARK    1  A    between atoms: C1_1  and  C3_3 
ROOT
HETATM    1  C1  UNL     1     -34.399   5.654   5.523  1.00 20.00     0.072 C 
HETATM    2  C2  UNL     1     -34.696   4.427   5.949  1.00 20.00     0.189 C 
HETATM    3  F4  UNL     1     -35.044   3.449   5.093  1.00 20.00    -0.220 F 
ENDROOT
BRANCH   1   4
HETATM    4  C3  UNL     1     -34.417   6.076   4.095  1.00 20.00     0.378 C 
HETATM    5  F5  UNL     1     -33.403   5.526   3.374  1.00 20.00    -0.210 F 
HETATM    6  F6  UNL     1     -35.569   5.680   3.492  1.00 20.00    -0.210 F 
ENDBRANCH   1   4
TORSDOF 1
ENDMDL
MODEL 9
REMARK VINA RESULT:      -3.9      1.899      2.506
REMARK  1 active torsions:
REMARK  status: ('A' for Active; 'I' for Inactive)
REMARK    1  A    between atoms: C1_1  and  C3_3 
ROOT
HETATM    1  C1  UNL     1     -34.225   5.493   4.890  1.00 20.00     0.072 C 
HETATM    2  C2  UNL     1     -33.794   6.632   5.430  1.00 20.00     0.189 C 
HETATM    3  F4  UNL     1     -33.701   6.790   6.762  1.00 20.00    -0.220 F 
ENDROOT
BRANCH   1   4
HETATM    4  C3  UNL     1     -34.641   4.296   5.674  1.00 20.00     0.378 C 
HETATM    5  F5  UNL     1     -35.608   4.579   6.587  1.00 20.00    -0.210 F 
HETATM    6  F6  UNL     1     -35.158   3.342   4.855  1.00 20.00    -0.210 F 
ENDBRANCH   1   4
TORSDOF 1
ENDMDL
