MODEL 1
REMARK VINA RESULT:      -6.1      0.000      0.000
REMARK  2 active torsions:
REMARK  status: ('A' for Active; 'I' for Inactive)
REMARK    1  A    between atoms: C1_1  and  C3_3 
REMARK    2  A    between atoms: C3_3  and  C4_4 
ROOT
HETATM    1  C3  UNL     1     -33.884   6.366   3.782  1.00 20.00     0.319 C 
HETATM    2  F7  UNL     1     -34.511   7.570   3.612  1.00 20.00    -0.209 F 
HETATM    3 CL12 UNL     1     -34.552   5.264   2.535  1.00 20.00    -0.067 Cl
ENDROOT
BRANCH   1   4
HETATM    4  C1  UNL     1     -34.167   5.816   5.162  1.00 20.00     0.143 C 
HETATM    5  C2  UNL     1     -34.697   4.609   5.405  1.00 20.00     0.289 C 
HETATM    6  F5  UNL     1     -34.918   4.198   6.671  1.00 20.00    -0.171 F 
HETATM    7  F6  UNL     1     -35.020   3.783   4.386  1.00 20.00    -0.171 F 
HETATM    8 CL11 UNL     1     -33.773   6.837   6.515  1.00 20.00    -0.078 Cl
ENDBRANCH   1   4
BRANCH   1   9
HETATM    9  C4  UNL     1     -32.409   6.621   3.512  1.00 20.00     0.443 C 
HETATM   10  F8  UNL     1     -31.725   5.455   3.440  1.00 20.00    -0.166 F 
HETATM   11  F9  UNL     1     -31.824   7.370   4.470  1.00 20.00    -0.166 F 
HETATM   12  F10 UNL     1     -32.238   7.257   2.331  1.00 20.00    -0.166 F 
ENDBRANCH   1   9
TORSDOF 2
ENDMDL
MODEL 2
REMARK VINA RESULT:      -5.8      1.269      3.656
REMARK  2 active torsions:
REMARK  status: ('A' for Active; 'I' for Inactive)
REMARK    1  A    between atoms: C1_1  and  C3_3 
REMARK    2  A    between atoms: C3_3  and  C4_4 
ROOT
HETATM    1  C3  UNL     1     -34.495   5.301   4.207  1.00 20.00     0.319 C 
HETATM    2  F7  UNL     1     -34.069   4.526   3.162  1.00 20.00    -0.209 F 
HETATM    3 CL12 UNL     1     -36.011   6.093   3.668  1.00 20.00    -0.067 Cl
ENDROOT
BRANCH   1   4
HETATM    4  C1  UNL     1     -33.456   6.347   4.541  1.00 20.00     0.143 C 
HETATM    5  C2  UNL     1     -32.487   6.749   3.707  1.00 20.00     0.289 C 
HETATM    6  F5  UNL     1     -31.598   7.690   4.089  1.00 20.00    -0.171 F 
HETATM    7  F6  UNL     1     -32.382   6.218   2.469  1.00 20.00    -0.171 F 
HETATM    8 CL11 UNL     1     -33.540   7.066   6.124  1.00 20.00    -0.078 Cl
ENDBRANCH   1   4
BRANCH   1   9
HETATM    9  C4  UNL     1     -34.790   4.340   5.348  1.00 20.00     0.443 C 
HETATM   10  F8  UNL     1     -35.313   3.183   4.879  1.00 20.00    -0.166 F 
HETATM   11  F9  UNL     1     -35.667   4.843   6.241  1.00 20.00    -0.166 F 
HETATM   12  F10 UNL     1     -33.658   4.023   6.017  1.00 20.00    -0.166 F 
ENDBRANCH   1   9
TORSDOF 2
ENDMDL
MODEL 3
REMARK VINA RESULT:      -5.8      1.489      1.702
REMARK  2 active torsions:
REMARK  status: ('A' for Active; 'I' for Inactive)
REMARK    1  A    between atoms: C1_1  and  C3_3 
REMARK    2  A    between atoms: C3_3  and  C4_4 
ROOT
HETATM    1  C3  UNL     1     -33.990   6.208   3.667  1.00 20.00     0.319 C 
HETATM    2  F7  UNL     1     -34.628   7.418   3.706  1.00 20.00    -0.209 F 
HETATM    3 CL12 UNL     1     -34.591   5.363   2.204  1.00 20.00    -0.067 Cl
ENDROOT
BRANCH   1   4
HETATM    4  C1  UNL     1     -34.321   5.401   4.902  1.00 20.00     0.143 C 
HETATM    5  C2  UNL     1     -34.288   5.880   6.154  1.00 20.00     0.289 C 
HETATM    6  F5  UNL     1     -34.598   5.087   7.201  1.00 20.00    -0.171 F 
HETATM    7  F6  UNL     1     -33.944   7.165   6.389  1.00 20.00    -0.171 F 
HETATM    8 CL11 UNL     1     -34.771   3.737   4.661  1.00 20.00    -0.078 Cl
ENDBRANCH   1   4
BRANCH   1   9
HETATM    9  C4  UNL     1     -32.510   6.520   3.515  1.00 20.00     0.443 C 
HETATM   10  F8  UNL     1     -31.782   5.380   3.451  1.00 20.00    -0.166 F 
HETATM   11  F9  UNL     1     -32.021   7.251   4.539  1.00 20.00    -0.166 F 
HETATM   12  F10 UNL     1     -32.276   7.206   2.372  1.00 20.00    -0.166 F 
ENDBRANCH   1   9
TORSDOF 2
ENDMDL
MODEL 4
REMARK VINA RESULT:      -5.4      0.980      4.053
REMARK  2 active torsions:
REMARK  status: ('A' for Active; 'I' for Inactive)
REMARK    1  A    between atoms: C1_1  and  C3_3 
REMARK    2  A    between atoms: C3_3  and  C4_4 
ROOT
HETATM    1  C3  UNL     1     -34.669   5.573   4.960  1.00 20.00     0.319 C 
HETATM    2  F7  UNL     1     -35.970   5.847   4.636  1.00 20.00    -0.209 F 
HETATM    3 CL12 UNL     1     -34.215   6.726   6.256  1.00 20.00    -0.067 Cl
ENDROOT
BRANCH   1   4
HETATM    4  C1  UNL     1     -33.776   5.772   3.756  1.00 20.00     0.143 C 
HETATM    5  C2  UNL     1     -32.654   6.506   3.756  1.00 20.00     0.289 C 
HETATM    6  F5  UNL     1     -31.915   6.631   2.633  1.00 20.00    -0.171 F 
HETATM    7  F6  UNL     1     -32.243   7.135   4.879  1.00 20.00    -0.171 F 
HETATM    8 CL11 UNL     1     -34.255   4.987   2.278  1.00 20.00    -0.078 Cl
ENDBRANCH   1   4
BRANCH   1   9
HETATM    9  C4  UNL     1     -34.663   4.153   5.503  1.00 20.00     0.443 C 
HETATM   10  F8  UNL     1     -35.558   4.019   6.510  1.00 20.00    -0.166 F 
HETATM   11  F9  UNL     1     -33.458   3.784   5.986  1.00 20.00    -0.166 F 
HETATM   12  F10 UNL     1     -35.009   3.267   4.541  1.00 20.00    -0.166 F 
ENDBRANCH   1   9
TORSDOF 2
ENDMDL
MODEL 5
REMARK VINA RESULT:      -5.3      9.019     10.349
REMARK  2 active torsions:
REMARK  status: ('A' for Active; 'I' for Inactive)
REMARK    1  A    between atoms: C1_1  and  C3_3 
REMARK    2  A    between atoms: C3_3  and  C4_4 
ROOT
HETATM    1  C3  UNL     1     -41.686   4.735  -1.414  1.00 20.00     0.319 C 
HETATM    2  F7  UNL     1     -40.464   4.133  -1.272  1.00 20.00    -0.209 F 
HETATM    3 CL12 UNL     1     -42.396   4.091  -2.930  1.00 20.00    -0.067 Cl
ENDROOT
BRANCH   1   4
HETATM    4  C1  UNL     1     -41.524   6.234  -1.516  1.00 20.00     0.143 C 
HETATM    5  C2  UNL     1     -40.858   6.988  -0.629  1.00 20.00     0.289 C 
HETATM    6  F5  UNL     1     -40.764   8.324  -0.797  1.00 20.00    -0.171 F 
HETATM    7  F6  UNL     1     -40.269   6.423   0.448  1.00 20.00    -0.171 F 
HETATM    8 CL11 UNL     1     -42.264   7.018  -2.882  1.00 20.00    -0.078 Cl
ENDBRANCH   1   4
BRANCH   1   9
HETATM    9  C4  UNL     1     -42.515   4.284  -0.222  1.00 20.00     0.443 C 
HETATM   10  F8  UNL     1     -43.199   3.153  -0.512  1.00 20.00    -0.166 F 
HETATM   11  F9  UNL     1     -43.417   5.210   0.167  1.00 20.00    -0.166 F 
HETATM   12  F10 UNL     1     -41.723   4.010   0.841  1.00 20.00    -0.166 F 
ENDBRANCH   1   9
TORSDOF 2
ENDMDL
MODEL 6
REMARK VINA RESULT:      -5.3     11.431     12.602
REMARK  2 active torsions:
REMARK  status: ('A' for Active; 'I' for Inactive)
REMARK    1  A    between atoms: C1_1  and  C3_3 
REMARK    2  A    between atoms: C3_3  and  C4_4 
ROOT
HETATM    1  C3  UNL     1     -33.734  15.351  -3.750  1.00 20.00     0.319 C 
HETATM    2  F7  UNL     1     -32.610  15.384  -2.969  1.00 20.00    -0.209 F 
HETATM    3 CL12 UNL     1     -33.375  16.341  -5.201  1.00 20.00    -0.067 Cl
ENDROOT
BRANCH   1   4
HETATM    4  C1  UNL     1     -34.910  15.939  -3.002  1.00 20.00     0.143 C 
HETATM    5  C2  UNL     1     -36.103  16.205  -3.552  1.00 20.00     0.289 C 
HETATM    6  F5  UNL     1     -37.099  16.732  -2.809  1.00 20.00    -0.171 F 
HETATM    7  F6  UNL     1     -36.330  15.951  -4.860  1.00 20.00    -0.171 F 
HETATM    8 CL11 UNL     1     -34.677  16.289  -1.313  1.00 20.00    -0.078 Cl
ENDBRANCH   1   4
BRANCH   1   9
HETATM    9  C4  UNL     1     -33.924  13.896  -4.149  1.00 20.00     0.443 C 
HETATM   10  F8  UNL     1     -34.127  13.786  -5.482  1.00 20.00    -0.166 F 
HETATM   11  F9  UNL     1     -34.977  13.319  -3.533  1.00 20.00    -0.166 F 
HETATM   12  F10 UNL     1     -32.824  13.167  -3.851  1.00 20.00    -0.166 F 
ENDBRANCH   1   9
TORSDOF 2
ENDMDL
MODEL 7
REMARK VINA RESULT:      -5.2      2.062      3.536
REMARK  2 active torsions:
REMARK  status: ('A' for Active; 'I' for Inactive)
REMARK    1  A    between atoms: C1_1  and  C3_3 
REMARK    2  A    between atoms: C3_3  and  C4_4 
ROOT
HETATM    1  C3  UNL     1     -34.523   5.272   4.281  1.00 20.00     0.319 C 
HETATM    2  F7  UNL     1     -34.020   4.748   3.121  1.00 20.00    -0.209 F 
HETATM    3 CL12 UNL     1     -36.081   6.052   3.852  1.00 20.00    -0.067 Cl
ENDROOT
BRANCH   1   4
HETATM    4  C1  UNL     1     -33.571   6.299   4.850  1.00 20.00     0.143 C 
HETATM    5  C2  UNL     1     -33.650   6.803   6.090  1.00 20.00     0.289 C 
HETATM    6  F5  UNL     1     -32.755   7.719   6.517  1.00 20.00    -0.171 F 
HETATM    7  F6  UNL     1     -34.625   6.401   6.935  1.00 20.00    -0.171 F 
HETATM    8 CL11 UNL     1     -32.294   6.856   3.807  1.00 20.00    -0.078 Cl
ENDBRANCH   1   4
BRANCH   1   9
HETATM    9  C4  UNL     1     -34.773   4.088   5.201  1.00 20.00     0.443 C 
HETATM   10  F8  UNL     1     -35.106   2.986   4.488  1.00 20.00    -0.166 F 
HETATM   11  F9  UNL     1     -35.771   4.312   6.082  1.00 20.00    -0.166 F 
HETATM   12  F10 UNL     1     -33.661   3.784   5.909  1.00 20.00    -0.166 F 
ENDBRANCH   1   9
TORSDOF 2
ENDMDL
MODEL 8
REMARK VINA RESULT:      -5.2     11.363     12.733
REMARK  2 active torsions:
REMARK  status: ('A' for Active; 'I' for Inactive)
REMARK    1  A    between atoms: C1_1  and  C3_3 
REMARK    2  A    between atoms: C3_3  and  C4_4 
ROOT
HETATM    1  C3  UNL     1     -34.712  15.326  -4.168  1.00 20.00     0.319 C 
HETATM    2  F7  UNL     1     -34.887  15.501  -5.514  1.00 20.00    -0.209 F 
HETATM    3 CL12 UNL     1     -36.345  15.073  -3.471  1.00 20.00    -0.067 Cl
ENDROOT
BRANCH   1   4
HETATM    4  C1  UNL     1     -34.074  16.553  -3.557  1.00 20.00     0.143 C 
HETATM    5  C2  UNL     1     -33.971  16.780  -2.240  1.00 20.00     0.289 C 
HETATM    6  F5  UNL     1     -33.386  17.906  -1.781  1.00 20.00    -0.171 F 
HETATM    7  F6  UNL     1     -34.452  15.885  -1.349  1.00 20.00    -0.171 F 
HETATM    8 CL11 UNL     1     -33.438  17.743  -4.656  1.00 20.00    -0.078 Cl
ENDBRANCH   1   4
BRANCH   1   9
HETATM    9  C4  UNL     1     -33.881  14.061  -4.016  1.00 20.00     0.443 C 
HETATM   10  F8  UNL     1     -34.325  13.317  -2.975  1.00 20.00    -0.166 F 
HETATM   11  F9  UNL     1     -32.575  14.317  -3.797  1.00 20.00    -0.166 F 
HETATM   12  F10 UNL     1     -33.969  13.290  -5.124  1.00 20.00    -0.166 F 
ENDBRANCH   1   9
TORSDOF 2
ENDMDL
MODEL 9
REMARK VINA RESULT:      -5.2     11.960     13.366
REMARK  2 active torsions:
REMARK  status: ('A' for Active; 'I' for Inactive)
REMARK    1  A    between atoms: C1_1  and  C3_3 
REMARK    2  A    between atoms: C3_3  and  C4_4 
ROOT
HETATM    1  C3  UNL     1     -35.171  15.776  -4.103  1.00 20.00     0.319 C 
HETATM    2  F7  UNL     1     -36.326  15.043  -4.045  1.00 20.00    -0.209 F 
HETATM    3 CL12 UNL     1     -35.610  17.452  -3.641  1.00 20.00    -0.067 Cl
ENDROOT
BRANCH   1   4
HETATM    4  C1  UNL     1     -34.607  15.758  -5.505  1.00 20.00     0.143 C 
HETATM    5  C2  UNL     1     -34.571  14.675  -6.295  1.00 20.00     0.289 C 
HETATM    6  F5  UNL     1     -34.047  14.748  -7.537  1.00 20.00    -0.171 F 
HETATM    7  F6  UNL     1     -35.058  13.491  -5.862  1.00 20.00    -0.171 F 
HETATM    8 CL11 UNL     1     -33.963  17.254  -6.118  1.00 20.00    -0.078 Cl
ENDBRANCH   1   4
BRANCH   1   9
HETATM    9  C4  UNL     1     -34.243  15.176  -3.058  1.00 20.00     0.443 C 
HETATM   10  F8  UNL     1     -34.356  13.828  -3.032  1.00 20.00    -0.166 F 
HETATM   11  F9  UNL     1     -34.500  15.625  -1.812  1.00 20.00    -0.166 F 
HETATM   12  F10 UNL     1     -32.951  15.463  -3.339  1.00 20.00    -0.166 F 
ENDBRANCH   1   9
TORSDOF 2
ENDMDL
