MODEL 1
REMARK VINA RESULT:      -4.0      0.000      0.000
REMARK  0 active torsions:
REMARK  status: ('A' for Active; 'I' for Inactive)
ROOT
HETATM    1  C1  UNL     1     -34.419  14.841  -6.189  1.00 20.00     0.017 C 
HETATM    2  C2  UNL     1     -34.783  14.699  -4.715  1.00 20.00     0.027 C 
HETATM    3  C3  UNL     1     -33.819  16.248  -6.234  1.00 20.00     0.123 C 
HETATM    4  C4  UNL     1     -33.615  15.419  -4.055  1.00 20.00     0.197 C 
HETATM    5  C5  UNL     1     -35.568  14.580  -7.151  1.00 20.00     0.013 C 
HETATM    6  C6  UNL     1     -34.940  13.256  -4.253  1.00 20.00     0.014 C 
HETATM    7  C7  UNL     1     -34.810  17.392  -6.414  1.00 20.00     0.040 C 
HETATM    8  O8  UNL     1     -33.162  16.430  -4.965  1.00 20.00    -0.369 OA
HETATM    9 BR9  UNL     1     -34.148  16.238  -2.377  1.00 20.00    -0.061 Br
ENDROOT
TORSDOF 0
ENDMDL
MODEL 2
REMARK VINA RESULT:      -4.0      1.975      2.841
REMARK  0 active torsions:
REMARK  status: ('A' for Active; 'I' for Inactive)
ROOT
HETATM    1  C1  UNL     1     -33.370  15.591  -3.586  1.00 20.00     0.017 C 
HETATM    2  C2  UNL     1     -34.468  16.442  -2.954  1.00 20.00     0.027 C 
HETATM    3  C3  UNL     1     -33.161  16.289  -4.931  1.00 20.00     0.123 C 
HETATM    4  C4  UNL     1     -34.062  17.833  -3.421  1.00 20.00     0.197 C 
HETATM    5  C5  UNL     1     -33.684  14.104  -3.653  1.00 20.00     0.013 C 
HETATM    6  C6  UNL     1     -34.552  16.315  -1.439  1.00 20.00     0.014 C 
HETATM    7  C7  UNL     1     -34.087  15.855  -6.061  1.00 20.00     0.040 C 
HETATM    8  O8  UNL     1     -33.397  17.688  -4.682  1.00 20.00    -0.369 OA
HETATM    9 BR9  UNL     1     -35.611  18.987  -3.625  1.00 20.00    -0.061 Br
ENDROOT
TORSDOF 0
ENDMDL
MODEL 3
REMARK VINA RESULT:      -3.9      1.927      2.558
REMARK  0 active torsions:
REMARK  status: ('A' for Active; 'I' for Inactive)
ROOT
HETATM    1  C1  UNL     1     -34.698  14.719  -4.784  1.00 20.00     0.017 C 
HETATM    2  C2  UNL     1     -33.998  14.942  -3.447  1.00 20.00     0.027 C 
HETATM    3  C3  UNL     1     -36.022  15.457  -4.576  1.00 20.00     0.123 C 
HETATM    4  C4  UNL     1     -34.425  16.368  -3.128  1.00 20.00     0.197 C 
HETATM    5  C5  UNL     1     -34.810  13.262  -5.203  1.00 20.00     0.013 C 
HETATM    6  C6  UNL     1     -32.486  14.764  -3.503  1.00 20.00     0.014 C 
HETATM    7  C7  UNL     1     -37.136  14.657  -3.911  1.00 20.00     0.040 C 
HETATM    8  O8  UNL     1     -35.713  16.575  -3.723  1.00 20.00    -0.369 OA
HETATM    9 BR9  UNL     1     -34.535  16.659  -1.211  1.00 20.00    -0.061 Br
ENDROOT
TORSDOF 0
ENDMDL
MODEL 4
REMARK VINA RESULT:      -3.9      2.585      3.667
REMARK  0 active torsions:
REMARK  status: ('A' for Active; 'I' for Inactive)
ROOT
HETATM    1  C1  UNL     1     -34.906  15.231  -2.708  1.00 20.00     0.017 C 
HETATM    2  C2  UNL     1     -34.004  15.312  -3.936  1.00 20.00     0.027 C 
HETATM    3  C3  UNL     1     -36.302  15.256  -3.337  1.00 20.00     0.123 C 
HETATM    4  C4  UNL     1     -34.781  14.454  -4.925  1.00 20.00     0.197 C 
HETATM    5  C5  UNL     1     -34.635  16.294  -1.655  1.00 20.00     0.013 C 
HETATM    6  C6  UNL     1     -32.585  14.816  -3.693  1.00 20.00     0.014 C 
HETATM    7  C7  UNL     1     -36.883  16.636  -3.619  1.00 20.00     0.040 C 
HETATM    8  O8  UNL     1     -36.172  14.567  -4.595  1.00 20.00    -0.369 OA
HETATM    9 BR9  UNL     1     -34.491  15.046  -6.752  1.00 20.00    -0.061 Br
ENDROOT
TORSDOF 0
ENDMDL
MODEL 5
REMARK VINA RESULT:      -3.9      2.432      3.982
REMARK  0 active torsions:
REMARK  status: ('A' for Active; 'I' for Inactive)
ROOT
HETATM    1  C1  UNL     1     -33.787  16.698  -2.689  1.00 20.00     0.017 C 
HETATM    2  C2  UNL     1     -34.531  17.436  -3.798  1.00 20.00     0.027 C 
HETATM    3  C3  UNL     1     -33.101  15.570  -3.462  1.00 20.00     0.123 C 
HETATM    4  C4  UNL     1     -33.528  17.335  -4.939  1.00 20.00     0.197 C 
HETATM    5  C5  UNL     1     -34.662  16.265  -1.522  1.00 20.00     0.013 C 
HETATM    6  C6  UNL     1     -34.901  18.870  -3.445  1.00 20.00     0.014 C 
HETATM    7  C7  UNL     1     -33.930  14.310  -3.684  1.00 20.00     0.040 C 
HETATM    8  O8  UNL     1     -32.786  16.122  -4.755  1.00 20.00    -0.369 OA
HETATM    9 BR9  UNL     1     -34.421  17.302  -6.663  1.00 20.00    -0.061 Br
ENDROOT
TORSDOF 0
ENDMDL
MODEL 6
REMARK VINA RESULT:      -3.8      1.660      2.913
REMARK  0 active torsions:
REMARK  status: ('A' for Active; 'I' for Inactive)
ROOT
HETATM    1  C1  UNL     1     -35.164  15.578  -5.561  1.00 20.00     0.017 C 
HETATM    2  C2  UNL     1     -34.332  16.383  -4.568  1.00 20.00     0.027 C 
HETATM    3  C3  UNL     1     -35.880  14.584  -4.644  1.00 20.00     0.123 C 
HETATM    4  C4  UNL     1     -35.289  16.468  -3.387  1.00 20.00     0.197 C 
HETATM    5  C5  UNL     1     -34.367  14.968  -6.704  1.00 20.00     0.013 C 
HETATM    6  C6  UNL     1     -33.896  17.746  -5.089  1.00 20.00     0.014 C 
HETATM    7  C7  UNL     1     -35.116  13.306  -4.316  1.00 20.00     0.040 C 
HETATM    8  O8  UNL     1     -36.107  15.290  -3.409  1.00 20.00    -0.369 OA
HETATM    9 BR9  UNL     1     -34.326  16.565  -1.703  1.00 20.00    -0.061 Br
ENDROOT
TORSDOF 0
ENDMDL
MODEL 7
REMARK VINA RESULT:      -3.8      1.632      2.476
REMARK  0 active torsions:
REMARK  status: ('A' for Active; 'I' for Inactive)
ROOT
HETATM    1  C1  UNL     1     -34.337  14.331  -4.939  1.00 20.00     0.017 C 
HETATM    2  C2  UNL     1     -34.223  15.728  -4.339  1.00 20.00     0.027 C 
HETATM    3  C3  UNL     1     -34.589  14.640  -6.417  1.00 20.00     0.123 C 
HETATM    4  C4  UNL     1     -33.487  16.464  -5.450  1.00 20.00     0.197 C 
HETATM    5  C5  UNL     1     -35.366  13.437  -4.265  1.00 20.00     0.013 C 
HETATM    6  C6  UNL     1     -33.492  15.768  -3.003  1.00 20.00     0.014 C 
HETATM    7  C7  UNL     1     -36.041  14.881  -6.812  1.00 20.00     0.040 C 
HETATM    8  O8  UNL     1     -33.852  15.846  -6.692  1.00 20.00    -0.369 OA
HETATM    9 BR9  UNL     1     -33.965  18.346  -5.488  1.00 20.00    -0.061 Br
ENDROOT
TORSDOF 0
ENDMDL
MODEL 8
REMARK VINA RESULT:      -3.7      1.880      3.051
REMARK  0 active torsions:
REMARK  status: ('A' for Active; 'I' for Inactive)
ROOT
HETATM    1  C1  UNL     1     -35.380  14.636  -4.803  1.00 20.00     0.017 C 
HETATM    2  C2  UNL     1     -34.474  15.460  -5.713  1.00 20.00     0.027 C 
HETATM    3  C3  UNL     1     -35.644  15.610  -3.651  1.00 20.00     0.123 C 
HETATM    4  C4  UNL     1     -35.089  16.845  -5.560  1.00 20.00     0.197 C 
HETATM    5  C5  UNL     1     -34.814  13.281  -4.408  1.00 20.00     0.013 C 
HETATM    6  C6  UNL     1     -34.438  14.972  -7.155  1.00 20.00     0.014 C 
HETATM    7  C7  UNL     1     -34.606  15.620  -2.535  1.00 20.00     0.040 C 
HETATM    8  O8  UNL     1     -35.662  16.920  -4.248  1.00 20.00    -0.369 OA
HETATM    9 BR9  UNL     1     -33.752  18.238  -5.773  1.00 20.00    -0.061 Br
ENDROOT
TORSDOF 0
ENDMDL
MODEL 9
REMARK VINA RESULT:      -3.7      2.054      3.012
REMARK  0 active torsions:
REMARK  status: ('A' for Active; 'I' for Inactive)
ROOT
HETATM    1  C1  UNL     1     -33.686  15.402  -3.910  1.00 20.00     0.017 C 
HETATM    2  C2  UNL     1     -34.895  15.702  -3.029  1.00 20.00     0.027 C 
HETATM    3  C3  UNL     1     -34.293  15.463  -5.314  1.00 20.00     0.123 C 
HETATM    4  C4  UNL     1     -35.619  16.743  -3.872  1.00 20.00     0.197 C 
HETATM    5  C5  UNL     1     -32.953  14.117  -3.559  1.00 20.00     0.013 C 
HETATM    6  C6  UNL     1     -34.536  16.199  -1.635  1.00 20.00     0.014 C 
HETATM    7  C7  UNL     1     -34.928  14.174  -5.823  1.00 20.00     0.040 C 
HETATM    8  O8  UNL     1     -35.324  16.465  -5.248  1.00 20.00    -0.369 OA
HETATM    9 BR9  UNL     1     -37.538  16.673  -3.586  1.00 20.00    -0.061 Br
ENDROOT
TORSDOF 0
ENDMDL
