MODEL 1
REMARK VINA RESULT:      -4.5      0.000      0.000
REMARK  2 active torsions:
REMARK  status: ('A' for Active; 'I' for Inactive)
REMARK    1  A    between atoms: C2_2  and  C9_9 
REMARK    2  A    between atoms: C3_3  and  C10_10 
ROOT
HETATM    1  C1  UNL     1     -33.956  18.551  -2.718  1.00 20.00     0.079 A 
HETATM    2  C2  UNL     1     -33.826  17.528  -1.802  1.00 20.00     0.046 A 
HETATM    3  C3  UNL     1     -33.740  16.337  -3.642  1.00 20.00     0.079 A 
HETATM    4  N11 UNL     1     -33.702  16.257  -2.330  1.00 20.00    -0.249 NA
HETATM    5  S12 UNL     1     -33.922  17.908  -4.307  1.00 20.00    -0.084 SA
ENDROOT
BRANCH   3   6
HETATM    6  C10 UNL     1     -33.622  15.042  -4.567  1.00 20.00     0.045 C 
HETATM    7  C7  UNL     1     -33.571  13.659  -3.857  1.00 20.00     0.011 C 
HETATM    8  C4  UNL     1     -35.061  13.482  -4.199  1.00 20.00     0.002 C 
HETATM    9  C8  UNL     1     -34.860  14.501  -5.335  1.00 20.00     0.011 C 
ENDBRANCH   3   6
BRANCH   2  10
HETATM   10  C9  UNL     1     -33.820  17.775  -0.290  1.00 20.00     0.038 A 
HETATM   11  C5  UNL     1     -35.062  17.441   0.508  1.00 20.00     0.011 A 
HETATM   12  C6  UNL     1     -34.697  18.874   0.272  1.00 20.00     0.011 A 
ENDBRANCH   2  10
TORSDOF 2
ENDMDL
MODEL 2
REMARK VINA RESULT:      -4.5      2.345      3.431
REMARK  2 active torsions:
REMARK  status: ('A' for Active; 'I' for Inactive)
REMARK    1  A    between atoms: C2_2  and  C9_9 
REMARK    2  A    between atoms: C3_3  and  C10_10 
ROOT
HETATM    1  C1  UNL     1     -34.242  14.006  -3.391  1.00 20.00     0.079 A 
HETATM    2  C2  UNL     1     -33.984  15.357  -3.498  1.00 20.00     0.046 A 
HETATM    3  C3  UNL     1     -34.348  14.921  -5.617  1.00 20.00     0.079 A 
HETATM    4  N11 UNL     1     -34.045  15.884  -4.774  1.00 20.00    -0.249 NA
HETATM    5  S12 UNL     1     -34.575  13.359  -4.943  1.00 20.00    -0.084 SA
ENDROOT
BRANCH   3   6
HETATM    6  C10 UNL     1     -34.498  15.190  -7.183  1.00 20.00     0.045 C 
HETATM    7  C7  UNL     1     -35.679  14.493  -7.917  1.00 20.00     0.011 C 
HETATM    8  C4  UNL     1     -36.443  15.827  -7.851  1.00 20.00     0.002 C 
HETATM    9  C8  UNL     1     -35.083  16.531  -7.704  1.00 20.00     0.011 C 
ENDBRANCH   3   6
BRANCH   2  10
HETATM   10  C9  UNL     1     -33.650  16.227  -2.283  1.00 20.00     0.038 A 
HETATM   11  C5  UNL     1     -34.765  16.610  -1.333  1.00 20.00     0.011 A 
HETATM   12  C6  UNL     1     -34.174  17.647  -2.237  1.00 20.00     0.011 A 
ENDBRANCH   2  10
TORSDOF 2
ENDMDL
MODEL 3
REMARK VINA RESULT:      -4.4      1.079      1.603
REMARK  2 active torsions:
REMARK  status: ('A' for Active; 'I' for Inactive)
REMARK    1  A    between atoms: C2_2  and  C9_9 
REMARK    2  A    between atoms: C3_3  and  C10_10 
ROOT
HETATM    1  C1  UNL     1     -33.665  18.498  -3.254  1.00 20.00     0.079 A 
HETATM    2  C2  UNL     1     -33.733  18.077  -1.942  1.00 20.00     0.046 A 
HETATM    3  C3  UNL     1     -34.132  16.157  -2.926  1.00 20.00     0.079 A 
HETATM    4  N11 UNL     1     -34.000  16.734  -1.752  1.00 20.00    -0.249 NA
HETATM    5  S12 UNL     1     -33.945  17.169  -4.300  1.00 20.00    -0.084 SA
ENDROOT
BRANCH   3   6
HETATM    6  C10 UNL     1     -34.448  14.599  -3.068  1.00 20.00     0.045 C 
HETATM    7  C7  UNL     1     -35.558  14.185  -4.075  1.00 20.00     0.011 C 
HETATM    8  C4  UNL     1     -34.447  13.812  -5.072  1.00 20.00     0.002 C 
HETATM    9  C8  UNL     1     -33.498  13.667  -3.869  1.00 20.00     0.011 C 
ENDBRANCH   3   6
BRANCH   2  10
HETATM   10  C9  UNL     1     -33.526  19.031  -0.762  1.00 20.00     0.038 A 
HETATM   11  C5  UNL     1     -32.195  19.020  -0.041  1.00 20.00     0.011 A 
HETATM   12  C6  UNL     1     -33.406  18.452   0.632  1.00 20.00     0.011 A 
ENDBRANCH   2  10
TORSDOF 2
ENDMDL
MODEL 4
REMARK VINA RESULT:      -4.3      2.066      5.475
REMARK  2 active torsions:
REMARK  status: ('A' for Active; 'I' for Inactive)
REMARK    1  A    between atoms: C2_2  and  C9_9 
REMARK    2  A    between atoms: C3_3  and  C10_10 
ROOT
HETATM    1  C1  UNL     1     -34.420  13.744  -5.115  1.00 20.00     0.079 A 
HETATM    2  C2  UNL     1     -34.307  15.003  -5.667  1.00 20.00     0.046 A 
HETATM    3  C3  UNL     1     -33.964  15.532  -3.566  1.00 20.00     0.079 A 
HETATM    4  N11 UNL     1     -34.045  16.030  -4.780  1.00 20.00    -0.249 NA
HETATM    5  S12 UNL     1     -34.191  13.837  -3.419  1.00 20.00    -0.084 SA
ENDROOT
BRANCH   3   6
HETATM    6  C10 UNL     1     -33.670  16.453  -2.297  1.00 20.00     0.045 C 
HETATM    7  C7  UNL     1     -33.748  17.994  -2.500  1.00 20.00     0.011 C 
HETATM    8  C4  UNL     1     -35.146  17.959  -1.859  1.00 20.00     0.002 C 
HETATM    9  C8  UNL     1     -34.740  16.636  -1.185  1.00 20.00     0.011 C 
ENDBRANCH   3   6
BRANCH   2  10
HETATM   10  C9  UNL     1     -34.461  15.257  -7.170  1.00 20.00     0.038 A 
HETATM   11  C5  UNL     1     -35.671  16.024  -7.659  1.00 20.00     0.011 A 
HETATM   12  C6  UNL     1     -35.573  14.553  -7.918  1.00 20.00     0.011 A 
ENDBRANCH   2  10
TORSDOF 2
ENDMDL
MODEL 5
REMARK VINA RESULT:      -4.3      1.156      1.523
REMARK  2 active torsions:
REMARK  status: ('A' for Active; 'I' for Inactive)
REMARK    1  A    between atoms: C2_2  and  C9_9 
REMARK    2  A    between atoms: C3_3  and  C10_10 
ROOT
HETATM    1  C1  UNL     1     -33.793  18.330  -3.509  1.00 20.00     0.079 A 
HETATM    2  C2  UNL     1     -33.753  17.216  -2.696  1.00 20.00     0.046 A 
HETATM    3  C3  UNL     1     -33.928  16.204  -4.635  1.00 20.00     0.079 A 
HETATM    4  N11 UNL     1     -33.831  15.996  -3.340  1.00 20.00    -0.249 NA
HETATM    5  S12 UNL     1     -33.931  17.842  -5.147  1.00 20.00    -0.084 SA
ENDROOT
BRANCH   3   6
HETATM    6  C10 UNL     1     -34.037  14.999  -5.675  1.00 20.00     0.045 C 
HETATM    7  C7  UNL     1     -35.283  14.074  -5.567  1.00 20.00     0.011 C 
HETATM    8  C4  UNL     1     -35.896  14.843  -6.751  1.00 20.00     0.002 C 
HETATM    9  C8  UNL     1     -34.468  15.257  -7.145  1.00 20.00     0.011 C 
ENDBRANCH   3   6
BRANCH   2  10
HETATM   10  C9  UNL     1     -33.632  17.316  -1.173  1.00 20.00     0.038 A 
HETATM   11  C5  UNL     1     -34.820  16.924  -0.320  1.00 20.00     0.011 A 
HETATM   12  C6  UNL     1     -34.442  18.368  -0.445  1.00 20.00     0.011 A 
ENDBRANCH   2  10
TORSDOF 2
ENDMDL
MODEL 6
REMARK VINA RESULT:      -4.2      1.133      5.072
REMARK  2 active torsions:
REMARK  status: ('A' for Active; 'I' for Inactive)
REMARK    1  A    between atoms: C2_2  and  C9_9 
REMARK    2  A    between atoms: C3_3  and  C10_10 
ROOT
HETATM    1  C1  UNL     1     -34.680  16.800  -4.610  1.00 20.00     0.079 A 
HETATM    2  C2  UNL     1     -35.005  15.647  -3.926  1.00 20.00     0.046 A 
HETATM    3  C3  UNL     1     -34.274  16.838  -2.235  1.00 20.00     0.079 A 
HETATM    4  N11 UNL     1     -34.772  15.667  -2.564  1.00 20.00    -0.249 NA
HETATM    5  S12 UNL     1     -34.059  17.963  -3.514  1.00 20.00    -0.084 SA
ENDROOT
BRANCH   3   6
HETATM    6  C10 UNL     1     -33.889  17.196  -0.728  1.00 20.00     0.045 C 
HETATM    7  C7  UNL     1     -33.490  18.669  -0.424  1.00 20.00     0.011 C 
HETATM    8  C4  UNL     1     -34.908  18.887   0.132  1.00 20.00     0.002 C 
HETATM    9  C8  UNL     1     -34.992  17.366   0.353  1.00 20.00     0.011 C 
ENDBRANCH   3   6
BRANCH   2  10
HETATM   10  C9  UNL     1     -35.587  14.414  -4.625  1.00 20.00     0.038 A 
HETATM   11  C5  UNL     1     -34.701  13.202  -4.822  1.00 20.00     0.011 A 
HETATM   12  C6  UNL     1     -35.073  14.047  -6.001  1.00 20.00     0.011 A 
ENDBRANCH   2  10
TORSDOF 2
ENDMDL
MODEL 7
REMARK VINA RESULT:      -4.2      1.471      2.111
REMARK  2 active torsions:
REMARK  status: ('A' for Active; 'I' for Inactive)
REMARK    1  A    between atoms: C2_2  and  C9_9 
REMARK    2  A    between atoms: C3_3  and  C10_10 
ROOT
HETATM    1  C1  UNL     1     -33.622  17.414  -3.082  1.00 20.00     0.079 A 
HETATM    2  C2  UNL     1     -34.404  16.496  -2.411  1.00 20.00     0.046 A 
HETATM    3  C3  UNL     1     -34.632  15.701  -4.443  1.00 20.00     0.079 A 
HETATM    4  N11 UNL     1     -34.984  15.513  -3.190  1.00 20.00    -0.249 NA
HETATM    5  S12 UNL     1     -33.605  17.040  -4.756  1.00 20.00    -0.084 SA
ENDROOT
BRANCH   3   6
HETATM    6  C10 UNL     1     -35.133  14.736  -5.612  1.00 20.00     0.045 C 
HETATM    7  C7  UNL     1     -36.487  15.085  -6.294  1.00 20.00     0.011 C 
HETATM    8  C4  UNL     1     -35.687  15.695  -7.459  1.00 20.00     0.002 C 
HETATM    9  C8  UNL     1     -34.501  14.813  -7.029  1.00 20.00     0.011 C 
ENDBRANCH   3   6
BRANCH   2  10
HETATM   10  C9  UNL     1     -34.621  16.556  -0.896  1.00 20.00     0.038 A 
HETATM   11  C5  UNL     1     -35.513  17.640  -0.331  1.00 20.00     0.011 A 
HETATM   12  C6  UNL     1     -34.033  17.715  -0.121  1.00 20.00     0.011 A 
ENDBRANCH   2  10
TORSDOF 2
ENDMDL
MODEL 8
REMARK VINA RESULT:      -4.0      1.617      5.139
REMARK  2 active torsions:
REMARK  status: ('A' for Active; 'I' for Inactive)
REMARK    1  A    between atoms: C2_2  and  C9_9 
REMARK    2  A    between atoms: C3_3  and  C10_10 
ROOT
HETATM    1  C1  UNL     1     -36.507  15.878  -4.030  1.00 20.00     0.079 A 
HETATM    2  C2  UNL     1     -35.511  15.245  -3.315  1.00 20.00     0.046 A 
HETATM    3  C3  UNL     1     -35.594  17.118  -2.176  1.00 20.00     0.079 A 
HETATM    4  N11 UNL     1     -34.987  15.954  -2.252  1.00 20.00    -0.249 NA
HETATM    5  S12 UNL     1     -36.807  17.424  -3.351  1.00 20.00    -0.084 SA
ENDROOT
BRANCH   3   6
HETATM    6  C10 UNL     1     -35.225  18.189  -1.052  1.00 20.00     0.045 C 
HETATM    7  C7  UNL     1     -36.161  18.273   0.188  1.00 20.00     0.011 C 
HETATM    8  C4  UNL     1     -35.124  17.445   0.967  1.00 20.00     0.002 C 
HETATM    9  C8  UNL     1     -34.069  17.919  -0.049  1.00 20.00     0.011 C 
ENDBRANCH   3   6
BRANCH   2  10
HETATM   10  C9  UNL     1     -35.011  13.842  -3.672  1.00 20.00     0.038 A 
HETATM   11  C5  UNL     1     -33.540  13.647  -3.970  1.00 20.00     0.011 A 
HETATM   12  C6  UNL     1     -34.537  13.575  -5.084  1.00 20.00     0.011 A 
ENDBRANCH   2  10
TORSDOF 2
ENDMDL
MODEL 9
REMARK VINA RESULT:      -3.9      2.006      4.865
REMARK  2 active torsions:
REMARK  status: ('A' for Active; 'I' for Inactive)
REMARK    1  A    between atoms: C2_2  and  C9_9 
REMARK    2  A    between atoms: C3_3  and  C10_10 
ROOT
HETATM    1  C1  UNL     1     -34.938  15.820  -4.963  1.00 20.00     0.079 A 
HETATM    2  C2  UNL     1     -35.894  15.415  -4.055  1.00 20.00     0.046 A 
HETATM    3  C3  UNL     1     -34.492  16.360  -2.658  1.00 20.00     0.079 A 
HETATM    4  N11 UNL     1     -35.641  15.724  -2.733  1.00 20.00    -0.249 NA
HETATM    5  S12 UNL     1     -33.666  16.622  -4.139  1.00 20.00    -0.084 SA
ENDROOT
BRANCH   3   6
HETATM    6  C10 UNL     1     -33.899  16.864  -1.264  1.00 20.00     0.045 C 
HETATM    7  C7  UNL     1     -33.465  18.355  -1.171  1.00 20.00     0.011 C 
HETATM    8  C4  UNL     1     -34.791  18.644  -0.444  1.00 20.00     0.002 C 
HETATM    9  C8  UNL     1     -34.838  17.154  -0.061  1.00 20.00     0.011 C 
ENDBRANCH   3   6
BRANCH   2  10
HETATM   10  C9  UNL     1     -37.162  14.667  -4.478  1.00 20.00     0.038 A 
HETATM   11  C5  UNL     1     -38.294  15.450  -5.109  1.00 20.00     0.011 A 
HETATM   12  C6  UNL     1     -38.446  14.920  -3.717  1.00 20.00     0.011 A 
ENDBRANCH   2  10
TORSDOF 2
ENDMDL
