MODEL 1
REMARK VINA RESULT:      -4.1      0.000      0.000
REMARK  1 active torsions:
REMARK  status: ('A' for Active; 'I' for Inactive)
REMARK    1  A    between atoms: CA_4  and  C_5 
ROOT
HETATM    1  C1  UNK A   1     -34.637  16.068  -2.344  1.00 20.00     0.013 A 
HETATM    2  C2  UNK A   1     -33.953  16.979  -1.380  1.00 20.00     0.066 C 
ATOM      3  N   VAL A   1     -35.889  16.190  -2.666  1.00 20.00    -0.255 NA
ATOM      4  CA  VAL A   1     -36.108  15.174  -3.558  1.00 20.00     0.096 A 
ATOM      5  CB  VAL A   1     -35.033  14.417  -3.806  1.00 20.00    -0.047 A 
ATOM      6  CG1 VAL A   1     -34.852  13.240  -4.694  1.00 20.00     0.046 C 
ATOM      7  CG2 VAL A   1     -33.886  14.938  -3.002  1.00 20.00     0.090 A 
ENDROOT
BRANCH   4   8
ATOM      8  C   VAL A   1     -37.428  14.990  -4.149  1.00 20.00     0.290 C 
ATOM      9  O   VAL A   1     -38.229  14.151  -3.743  1.00 20.00    -0.300 OA
ENDBRANCH   4   8
TORSDOF 1
ENDMDL
MODEL 2
REMARK VINA RESULT:      -4.1     11.817     12.265
REMARK  1 active torsions:
REMARK  status: ('A' for Active; 'I' for Inactive)
REMARK    1  A    between atoms: CA_4  and  C_5 
ROOT
HETATM    1  C1  UNK A   1     -32.844   6.806   3.244  1.00 20.00     0.013 A 
HETATM    2  C2  UNK A   1     -31.985   7.398   2.176  1.00 20.00     0.066 C 
ATOM      3  N   VAL A   1     -33.710   5.865   3.015  1.00 20.00    -0.255 NA
ATOM      4  CA  VAL A   1     -34.271   5.618   4.239  1.00 20.00     0.096 A 
ATOM      5  CB  VAL A   1     -33.787   6.375   5.230  1.00 20.00    -0.047 A 
ATOM      6  CG1 VAL A   1     -34.119   6.418   6.678  1.00 20.00     0.046 C 
ATOM      7  CG2 VAL A   1     -32.743   7.286   4.669  1.00 20.00     0.090 A 
ENDROOT
BRANCH   4   8
ATOM      8  C   VAL A   1     -35.307   4.601   4.379  1.00 20.00     0.290 C 
ATOM      9  O   VAL A   1     -35.113   3.526   4.941  1.00 20.00    -0.300 OA
ENDBRANCH   4   8
TORSDOF 1
ENDMDL
MODEL 3
REMARK VINA RESULT:      -4.1     11.761     12.223
REMARK  1 active torsions:
REMARK  status: ('A' for Active; 'I' for Inactive)
REMARK    1  A    between atoms: CA_4  and  C_5 
ROOT
HETATM    1  C1  UNK A   1     -32.858   6.749   3.221  1.00 20.00     0.013 A 
HETATM    2  C2  UNK A   1     -32.010   7.364   2.157  1.00 20.00     0.066 C 
ATOM      3  N   VAL A   1     -32.840   7.145   4.458  1.00 20.00    -0.255 NA
ATOM      4  CA  VAL A   1     -33.746   6.332   5.085  1.00 20.00     0.096 A 
ATOM      5  CB  VAL A   1     -34.333   5.438   4.282  1.00 20.00    -0.047 A 
ATOM      6  CG1 VAL A   1     -35.354   4.396   4.563  1.00 20.00     0.046 C 
ATOM      7  CG2 VAL A   1     -33.795   5.614   2.898  1.00 20.00     0.090 A 
ENDROOT
BRANCH   4   8
ATOM      8  C   VAL A   1     -34.001   6.484   6.513  1.00 20.00     0.290 C 
ATOM      9  O   VAL A   1     -33.647   7.472   7.151  1.00 20.00    -0.300 OA
ENDBRANCH   4   8
TORSDOF 1
ENDMDL
MODEL 4
REMARK VINA RESULT:      -4.1      1.929      2.122
REMARK  1 active torsions:
REMARK  status: ('A' for Active; 'I' for Inactive)
REMARK    1  A    between atoms: CA_4  and  C_5 
ROOT
HETATM    1  C1  UNK A   1     -34.073  16.405  -2.592  1.00 20.00     0.013 A 
HETATM    2  C2  UNK A   1     -33.747  17.166  -1.350  1.00 20.00     0.066 C 
ATOM      3  N   VAL A   1     -34.758  15.302  -2.587  1.00 20.00    -0.255 NA
ATOM      4  CA  VAL A   1     -34.825  14.940  -3.906  1.00 20.00     0.096 A 
ATOM      5  CB  VAL A   1     -34.203  15.781  -4.740  1.00 20.00    -0.047 A 
ATOM      6  CG1 VAL A   1     -34.045  15.753  -6.217  1.00 20.00     0.046 C 
ATOM      7  CG2 VAL A   1     -33.607  16.895  -3.940  1.00 20.00     0.090 A 
ENDROOT
BRANCH   4   8
ATOM      8  C   VAL A   1     -35.533  13.727  -4.299  1.00 20.00     0.290 C 
ATOM      9  O   VAL A   1     -34.972  12.642  -4.427  1.00 20.00    -0.300 OA
ENDBRANCH   4   8
TORSDOF 1
ENDMDL
MODEL 5
REMARK VINA RESULT:      -3.9      2.971      3.909
REMARK  1 active torsions:
REMARK  status: ('A' for Active; 'I' for Inactive)
REMARK    1  A    between atoms: CA_4  and  C_5 
ROOT
HETATM    1  C1  UNK A   1     -33.611  17.541  -4.937  1.00 20.00     0.013 A 
HETATM    2  C2  UNK A   1     -33.607  18.556  -6.032  1.00 20.00     0.066 C 
ATOM      3  N   VAL A   1     -32.993  16.403  -5.024  1.00 20.00    -0.255 NA
ATOM      4  CA  VAL A   1     -33.249  15.787  -3.828  1.00 20.00     0.096 A 
ATOM      5  CB  VAL A   1     -34.009  16.502  -2.992  1.00 20.00    -0.047 A 
ATOM      6  CG1 VAL A   1     -34.505  16.202  -1.624  1.00 20.00     0.046 C 
ATOM      7  CG2 VAL A   1     -34.353  17.800  -3.650  1.00 20.00     0.090 A 
ENDROOT
BRANCH   4   8
ATOM      8  C   VAL A   1     -32.706  14.461  -3.555  1.00 20.00     0.290 C 
ATOM      9  O   VAL A   1     -33.328  13.427  -3.784  1.00 20.00    -0.300 OA
ENDBRANCH   4   8
TORSDOF 1
ENDMDL
MODEL 6
REMARK VINA RESULT:      -3.9      1.592      2.357
REMARK  1 active torsions:
REMARK  status: ('A' for Active; 'I' for Inactive)
REMARK    1  A    between atoms: CA_4  and  C_5 
ROOT
HETATM    1  C1  UNK A   1     -34.421  16.197  -2.336  1.00 20.00     0.013 A 
HETATM    2  C2  UNK A   1     -33.721  17.116  -1.390  1.00 20.00     0.066 C 
ATOM      3  N   VAL A   1     -33.794  15.348  -3.093  1.00 20.00    -0.255 NA
ATOM      4  CA  VAL A   1     -34.790  14.718  -3.790  1.00 20.00     0.096 A 
ATOM      5  CB  VAL A   1     -36.024  15.145  -3.496  1.00 20.00    -0.047 A 
ATOM      6  CG1 VAL A   1     -37.351  14.729  -4.018  1.00 20.00     0.046 C 
ATOM      7  CG2 VAL A   1     -35.923  16.217  -2.458  1.00 20.00     0.090 A 
ENDROOT
BRANCH   4   8
ATOM      8  C   VAL A   1     -34.463  13.677  -4.758  1.00 20.00     0.290 C 
ATOM      9  O   VAL A   1     -34.820  12.510  -4.626  1.00 20.00    -0.300 OA
ENDBRANCH   4   8
TORSDOF 1
ENDMDL
MODEL 7
REMARK VINA RESULT:      -3.9      2.781      3.206
REMARK  1 active torsions:
REMARK  status: ('A' for Active; 'I' for Inactive)
REMARK    1  A    between atoms: CA_4  and  C_5 
ROOT
HETATM    1  C1  UNK A   1     -33.908  16.821  -5.111  1.00 20.00     0.013 A 
HETATM    2  C2  UNK A   1     -33.520  18.186  -4.646  1.00 20.00     0.066 C 
ATOM      3  N   VAL A   1     -33.711  15.750  -4.403  1.00 20.00    -0.255 NA
ATOM      4  CA  VAL A   1     -34.201  14.737  -5.182  1.00 20.00     0.096 A 
ATOM      5  CB  VAL A   1     -34.699  15.136  -6.358  1.00 20.00    -0.047 A 
ATOM      6  CG1 VAL A   1     -35.314  14.367  -7.470  1.00 20.00     0.046 C 
ATOM      7  CG2 VAL A   1     -34.559  16.622  -6.455  1.00 20.00     0.090 A 
ENDROOT
BRANCH   4   8
ATOM      8  C   VAL A   1     -34.152  13.358  -4.708  1.00 20.00     0.290 C 
ATOM      9  O   VAL A   1     -35.144  12.759  -4.301  1.00 20.00    -0.300 OA
ENDBRANCH   4   8
TORSDOF 1
ENDMDL
MODEL 8
REMARK VINA RESULT:      -3.8      1.984      3.303
REMARK  1 active torsions:
REMARK  status: ('A' for Active; 'I' for Inactive)
REMARK    1  A    between atoms: CA_4  and  C_5 
ROOT
HETATM    1  C1  UNK A   1     -36.771  14.838  -3.761  1.00 20.00     0.013 A 
HETATM    2  C2  UNK A   1     -38.200  14.732  -4.180  1.00 20.00     0.066 C 
ATOM      3  N   VAL A   1     -36.334  15.768  -2.966  1.00 20.00    -0.255 NA
ATOM      4  CA  VAL A   1     -34.995  15.505  -2.844  1.00 20.00     0.096 A 
ATOM      5  CB  VAL A   1     -34.577  14.439  -3.537  1.00 20.00    -0.047 A 
ATOM      6  CG1 VAL A   1     -33.230  13.828  -3.670  1.00 20.00     0.046 C 
ATOM      7  CG2 VAL A   1     -35.748  13.847  -4.255  1.00 20.00     0.090 A 
ENDROOT
BRANCH   4   8
ATOM      8  C   VAL A   1     -34.154  16.356  -2.011  1.00 20.00     0.290 C 
ATOM      9  O   VAL A   1     -34.375  16.549  -0.818  1.00 20.00    -0.300 OA
ENDBRANCH   4   8
TORSDOF 1
ENDMDL
MODEL 9
REMARK VINA RESULT:      -3.8     10.982     11.937
REMARK  1 active torsions:
REMARK  status: ('A' for Active; 'I' for Inactive)
REMARK    1  A    between atoms: CA_4  and  C_5 
ROOT
HETATM    1  C1  UNK A   1     -42.792   6.898  -3.274  1.00 20.00     0.013 A 
HETATM    2  C2  UNK A   1     -43.417   7.956  -4.122  1.00 20.00     0.066 C 
ATOM      3  N   VAL A   1     -42.993   5.629  -3.462  1.00 20.00    -0.255 NA
ATOM      4  CA  VAL A   1     -42.249   5.021  -2.487  1.00 20.00     0.096 A 
ATOM      5  CB  VAL A   1     -41.587   5.868  -1.690  1.00 20.00    -0.047 A 
ATOM      6  CG1 VAL A   1     -40.686   5.619  -0.536  1.00 20.00     0.046 C 
ATOM      7  CG2 VAL A   1     -41.878   7.266  -2.133  1.00 20.00     0.090 A 
ENDROOT
BRANCH   4   8
ATOM      8  C   VAL A   1     -42.227   3.566  -2.381  1.00 20.00     0.290 C 
ATOM      9  O   VAL A   1     -41.374   2.872  -2.930  1.00 20.00    -0.300 OA
ENDBRANCH   4   8
TORSDOF 1
ENDMDL
