MODEL 1
REMARK VINA RESULT:      -4.1      0.000      0.000
REMARK  0 active torsions:
REMARK  status: ('A' for Active; 'I' for Inactive)
ROOT
HETATM    1  C1  UNL     1     -34.446  14.657  -3.180  1.00 20.00     0.016 C 
HETATM    2  C2  UNL     1     -33.848  15.960  -2.640  1.00 20.00     0.016 C 
HETATM    3  C3  UNL     1     -35.461  15.125  -4.237  1.00 20.00     0.122 C 
HETATM    4  C4  UNL     1     -34.015  16.898  -3.836  1.00 20.00     0.122 C 
HETATM    5  C5  UNL     1     -33.370  13.771  -3.813  1.00 20.00     0.013 C 
HETATM    6  C6  UNL     1     -34.588  16.421  -1.382  1.00 20.00     0.013 C 
HETATM    7  C7  UNL     1     -36.906  14.882  -3.830  1.00 20.00     0.040 C 
HETATM    8  C8  UNL     1     -33.996  18.386  -3.540  1.00 20.00     0.040 C 
HETATM    9  O9  UNL     1     -35.274  16.539  -4.421  1.00 20.00    -0.381 OA
ENDROOT
TORSDOF 0
ENDMDL
MODEL 2
REMARK VINA RESULT:      -4.1      1.371      2.946
REMARK  0 active torsions:
REMARK  status: ('A' for Active; 'I' for Inactive)
ROOT
HETATM    1  C1  UNL     1     -34.662  16.596  -2.550  1.00 20.00     0.016 C 
HETATM    2  C2  UNL     1     -33.704  15.599  -3.211  1.00 20.00     0.016 C 
HETATM    3  C3  UNL     1     -36.051  16.155  -3.039  1.00 20.00     0.122 C 
HETATM    4  C4  UNL     1     -34.601  14.374  -3.383  1.00 20.00     0.122 C 
HETATM    5  C5  UNL     1     -34.574  16.524  -1.023  1.00 20.00     0.013 C 
HETATM    6  C6  UNL     1     -33.156  16.158  -4.526  1.00 20.00     0.013 C 
HETATM    7  C7  UNL     1     -36.690  17.144  -4.003  1.00 20.00     0.040 C 
HETATM    8  C8  UNL     1     -34.173  13.361  -4.428  1.00 20.00     0.040 C 
HETATM    9  O9  UNL     1     -35.892  14.899  -3.720  1.00 20.00    -0.381 OA
ENDROOT
TORSDOF 0
ENDMDL
MODEL 3
REMARK VINA RESULT:      -4.1      1.372      2.682
REMARK  0 active torsions:
REMARK  status: ('A' for Active; 'I' for Inactive)
ROOT
HETATM    1  C1  UNL     1     -34.589  15.856  -2.798  1.00 20.00     0.016 C 
HETATM    2  C2  UNL     1     -34.997  16.903  -3.840  1.00 20.00     0.016 C 
HETATM    3  C3  UNL     1     -33.260  15.297  -3.333  1.00 20.00     0.122 C 
HETATM    4  C4  UNL     1     -33.640  17.322  -4.408  1.00 20.00     0.122 C 
HETATM    5  C5  UNL     1     -34.395  16.491  -1.418  1.00 20.00     0.013 C 
HETATM    6  C6  UNL     1     -35.944  16.297  -4.879  1.00 20.00     0.013 C 
HETATM    7  C7  UNL     1     -33.366  13.858  -3.815  1.00 20.00     0.040 C 
HETATM    8  C8  UNL     1     -33.649  17.967  -5.780  1.00 20.00     0.040 C 
HETATM    9  O9  UNL     1     -32.862  16.118  -4.445  1.00 20.00    -0.381 OA
ENDROOT
TORSDOF 0
ENDMDL
MODEL 4
REMARK VINA RESULT:      -4.1      0.804      3.102
REMARK  0 active torsions:
REMARK  status: ('A' for Active; 'I' for Inactive)
ROOT
HETATM    1  C1  UNL     1     -33.793  16.248  -2.859  1.00 20.00     0.016 C 
HETATM    2  C2  UNL     1     -34.707  15.018  -2.848  1.00 20.00     0.016 C 
HETATM    3  C3  UNL     1     -34.359  17.121  -3.991  1.00 20.00     0.122 C 
HETATM    4  C4  UNL     1     -36.008  15.593  -3.408  1.00 20.00     0.122 C 
HETATM    5  C5  UNL     1     -33.845  16.992  -1.521  1.00 20.00     0.013 C 
HETATM    6  C6  UNL     1     -34.112  13.890  -3.694  1.00 20.00     0.013 C 
HETATM    7  C7  UNL     1     -33.437  17.208  -5.198  1.00 20.00     0.040 C 
HETATM    8  C8  UNL     1     -36.987  14.600  -4.005  1.00 20.00     0.040 C 
HETATM    9  O9  UNL     1     -35.601  16.533  -4.412  1.00 20.00    -0.381 OA
ENDROOT
TORSDOF 0
ENDMDL
MODEL 5
REMARK VINA RESULT:      -4.0      1.566      2.517
REMARK  0 active torsions:
REMARK  status: ('A' for Active; 'I' for Inactive)
ROOT
HETATM    1  C1  UNL     1     -34.927  14.955  -4.237  1.00 20.00     0.016 C 
HETATM    2  C2  UNL     1     -35.644  15.497  -2.996  1.00 20.00     0.016 C 
HETATM    3  C3  UNL     1     -33.540  15.617  -4.183  1.00 20.00     0.122 C 
HETATM    4  C4  UNL     1     -34.469  15.789  -2.061  1.00 20.00     0.122 C 
HETATM    5  C5  UNL     1     -34.804  13.429  -4.186  1.00 20.00     0.013 C 
HETATM    6  C6  UNL     1     -36.481  16.730  -3.344  1.00 20.00     0.013 C 
HETATM    7  C7  UNL     1     -33.324  16.645  -5.282  1.00 20.00     0.040 C 
HETATM    8  C8  UNL     1     -34.723  16.779  -0.941  1.00 20.00     0.040 C 
HETATM    9  O9  UNL     1     -33.426  16.281  -2.913  1.00 20.00    -0.381 OA
ENDROOT
TORSDOF 0
ENDMDL
MODEL 6
REMARK VINA RESULT:      -3.9     12.294     13.365
REMARK  0 active torsions:
REMARK  status: ('A' for Active; 'I' for Inactive)
ROOT
HETATM    1  C1  UNL     1     -41.943   6.036  -2.262  1.00 20.00     0.016 C 
HETATM    2  C2  UNL     1     -41.997   6.470  -0.794  1.00 20.00     0.016 C 
HETATM    3  C3  UNL     1     -42.664   4.678  -2.275  1.00 20.00     0.122 C 
HETATM    4  C4  UNL     1     -43.258   5.756  -0.305  1.00 20.00     0.122 C 
HETATM    5  C5  UNL     1     -42.662   7.041  -3.166  1.00 20.00     0.013 C 
HETATM    6  C6  UNL     1     -40.723   6.054  -0.055  1.00 20.00     0.013 C 
HETATM    7  C7  UNL     1     -41.733   3.507  -2.549  1.00 20.00     0.040 C 
HETATM    8  C8  UNL     1     -43.378   5.539   1.192  1.00 20.00     0.040 C 
HETATM    9  O9  UNL     1     -43.256   4.490  -0.978  1.00 20.00    -0.381 OA
ENDROOT
TORSDOF 0
ENDMDL
MODEL 7
REMARK VINA RESULT:      -3.8      1.261      2.520
REMARK  0 active torsions:
REMARK  status: ('A' for Active; 'I' for Inactive)
ROOT
HETATM    1  C1  UNL     1     -33.595  15.200  -3.587  1.00 20.00     0.016 C 
HETATM    2  C2  UNL     1     -34.013  15.860  -4.905  1.00 20.00     0.016 C 
HETATM    3  C3  UNL     1     -34.766  15.495  -2.635  1.00 20.00     0.122 C 
HETATM    4  C4  UNL     1     -35.538  15.819  -4.802  1.00 20.00     0.122 C 
HETATM    5  C5  UNL     1     -33.400  13.691  -3.758  1.00 20.00     0.013 C 
HETATM    6  C6  UNL     1     -33.435  17.273  -5.014  1.00 20.00     0.013 C 
HETATM    7  C7  UNL     1     -34.408  16.475  -1.529  1.00 20.00     0.040 C 
HETATM    8  C8  UNL     1     -36.303  16.803  -5.668  1.00 20.00     0.040 C 
HETATM    9  O9  UNL     1     -35.827  16.067  -3.420  1.00 20.00    -0.381 OA
ENDROOT
TORSDOF 0
ENDMDL
MODEL 8
REMARK VINA RESULT:      -3.8      1.474      3.174
REMARK  0 active torsions:
REMARK  status: ('A' for Active; 'I' for Inactive)
ROOT
HETATM    1  C1  UNL     1     -36.225  14.719  -3.648  1.00 20.00     0.016 C 
HETATM    2  C2  UNL     1     -35.589  14.279  -4.970  1.00 20.00     0.016 C 
HETATM    3  C3  UNL     1     -35.546  16.064  -3.339  1.00 20.00     0.122 C 
HETATM    4  C4  UNL     1     -35.208  15.622  -5.594  1.00 20.00     0.122 C 
HETATM    5  C5  UNL     1     -37.739  14.894  -3.789  1.00 20.00     0.013 C 
HETATM    6  C6  UNL     1     -34.398  13.350  -4.721  1.00 20.00     0.013 C 
HETATM    7  C7  UNL     1     -34.610  16.002  -2.142  1.00 20.00     0.040 C 
HETATM    8  C8  UNL     1     -34.131  15.593  -6.662  1.00 20.00     0.040 C 
HETATM    9  O9  UNL     1     -34.777  16.437  -4.495  1.00 20.00    -0.381 OA
ENDROOT
TORSDOF 0
ENDMDL
MODEL 9
REMARK VINA RESULT:      -3.8      1.872      3.335
REMARK  0 active torsions:
REMARK  status: ('A' for Active; 'I' for Inactive)
ROOT
HETATM    1  C1  UNL     1     -34.443  15.099  -5.600  1.00 20.00     0.016 C 
HETATM    2  C2  UNL     1     -35.696  15.835  -5.114  1.00 20.00     0.016 C 
HETATM    3  C3  UNL     1     -34.480  13.761  -4.842  1.00 20.00     0.122 C 
HETATM    4  C4  UNL     1     -36.616  14.671  -4.742  1.00 20.00     0.122 C 
HETATM    5  C5  UNL     1     -34.486  14.868  -7.113  1.00 20.00     0.013 C 
HETATM    6  C6  UNL     1     -35.364  16.762  -3.942  1.00 20.00     0.013 C 
HETATM    7  C7  UNL     1     -33.382  13.634  -3.797  1.00 20.00     0.040 C 
HETATM    8  C8  UNL     1     -37.744  14.979  -3.776  1.00 20.00     0.040 C 
HETATM    9  O9  UNL     1     -35.751  13.677  -4.175  1.00 20.00    -0.381 OA
ENDROOT
TORSDOF 0
ENDMDL
