MODEL 1
REMARK VINA RESULT:      -4.4      0.000      0.000
REMARK  2 active torsions:
REMARK  status: ('A' for Active; 'I' for Inactive)
REMARK    1  A    between atoms: C2_2  and  C9_9 
REMARK    2  A    between atoms: C3_3  and  C6_6 
ROOT
HETATM    1  C1  UNL     1     -33.704  17.884  -3.221  1.00 20.00     0.079 A 
HETATM    2  C2  UNL     1     -34.044  17.343  -1.998  1.00 20.00     0.045 A 
HETATM    3  C3  UNL     1     -34.123  15.510  -3.202  1.00 20.00     0.079 A 
HETATM    4  N10 UNL     1     -34.284  15.982  -1.986  1.00 20.00    -0.249 NA
HETATM    5  S11 UNL     1     -33.681  16.647  -4.409  1.00 20.00    -0.084 SA
ENDROOT
BRANCH   2   6
HETATM    6  C9  UNL     1     -34.171  18.110  -0.695  1.00 20.00     0.030 C 
HETATM    7  C7  UNL     1     -32.803  18.549  -0.165  1.00 20.00     0.016 C 
HETATM    8  C8  UNL     1     -34.931  17.303   0.360  1.00 20.00     0.016 C 
ENDBRANCH   2   6
BRANCH   3   9
HETATM    9  C6  UNL     1     -34.319  14.020  -3.525  1.00 20.00     0.045 A 
HETATM   10  C4  UNL     1     -34.337  13.592  -4.974  1.00 20.00     0.012 A 
HETATM   11  C5  UNL     1     -35.608  13.586  -4.183  1.00 20.00     0.012 A 
ENDBRANCH   3   9
TORSDOF 2
ENDMDL
MODEL 2
REMARK VINA RESULT:      -4.4      2.342      3.349
REMARK  2 active torsions:
REMARK  status: ('A' for Active; 'I' for Inactive)
REMARK    1  A    between atoms: C2_2  and  C9_9 
REMARK    2  A    between atoms: C3_3  and  C6_6 
ROOT
HETATM    1  C1  UNL     1     -34.381  14.134  -3.377  1.00 20.00     0.079 A 
HETATM    2  C2  UNL     1     -34.087  15.458  -3.626  1.00 20.00     0.045 A 
HETATM    3  C3  UNL     1     -34.391  14.793  -5.695  1.00 20.00     0.079 A 
HETATM    4  N10 UNL     1     -34.092  15.838  -4.955  1.00 20.00    -0.249 NA
HETATM    5  S11 UNL     1     -34.679  13.323  -4.859  1.00 20.00    -0.084 SA
ENDROOT
BRANCH   2   6
HETATM    6  C9  UNL     1     -33.766  16.507  -2.578  1.00 20.00     0.030 C 
HETATM    7  C7  UNL     1     -34.669  16.369  -1.349  1.00 20.00     0.016 C 
HETATM    8  C8  UNL     1     -33.843  17.921  -3.156  1.00 20.00     0.016 C 
ENDBRANCH   2   6
BRANCH   3   9
HETATM    9  C6  UNL     1     -34.479  14.884  -7.227  1.00 20.00     0.045 A 
HETATM   10  C4  UNL     1     -35.108  16.111  -7.843  1.00 20.00     0.012 A 
HETATM   11  C5  UNL     1     -35.839  14.806  -7.880  1.00 20.00     0.012 A 
ENDBRANCH   3   9
TORSDOF 2
ENDMDL
MODEL 3
REMARK VINA RESULT:      -4.3      1.803      4.934
REMARK  2 active torsions:
REMARK  status: ('A' for Active; 'I' for Inactive)
REMARK    1  A    between atoms: C2_2  and  C9_9 
REMARK    2  A    between atoms: C3_3  and  C6_6 
ROOT
HETATM    1  C1  UNL     1     -36.496  16.449  -4.358  1.00 20.00     0.079 A 
HETATM    2  C2  UNL     1     -35.564  15.435  -4.295  1.00 20.00     0.045 A 
HETATM    3  C3  UNL     1     -35.224  16.318  -2.316  1.00 20.00     0.079 A 
HETATM    4  N10 UNL     1     -34.833  15.359  -3.125  1.00 20.00    -0.249 NA
HETATM    5  S11 UNL     1     -36.467  17.348  -2.898  1.00 20.00    -0.084 SA
ENDROOT
BRANCH   2   6
HETATM    6  C9  UNL     1     -35.283  14.419  -5.387  1.00 20.00     0.030 C 
HETATM    7  C7  UNL     1     -34.565  13.184  -4.835  1.00 20.00     0.016 C 
HETATM    8  C8  UNL     1     -34.494  15.039  -6.542  1.00 20.00     0.016 C 
ENDBRANCH   2   6
BRANCH   3   9
HETATM    9  C6  UNL     1     -34.602  16.508  -0.922  1.00 20.00     0.045 A 
HETATM   10  C4  UNL     1     -35.032  17.696  -0.094  1.00 20.00     0.012 A 
HETATM   11  C5  UNL     1     -33.664  17.671  -0.701  1.00 20.00     0.012 A 
ENDBRANCH   3   9
TORSDOF 2
ENDMDL
MODEL 4
REMARK VINA RESULT:      -4.3      1.494      1.942
REMARK  2 active torsions:
REMARK  status: ('A' for Active; 'I' for Inactive)
REMARK    1  A    between atoms: C2_2  and  C9_9 
REMARK    2  A    between atoms: C3_3  and  C6_6 
ROOT
HETATM    1  C1  UNL     1     -36.166  17.343  -2.375  1.00 20.00     0.079 A 
HETATM    2  C2  UNL     1     -35.091  16.650  -1.858  1.00 20.00     0.045 A 
HETATM    3  C3  UNL     1     -35.675  15.231  -3.427  1.00 20.00     0.079 A 
HETATM    4  N10 UNL     1     -34.808  15.439  -2.461  1.00 20.00    -0.249 NA
HETATM    5  S11 UNL     1     -36.857  16.452  -3.667  1.00 20.00    -0.084 SA
ENDROOT
BRANCH   2   6
HETATM    6  C9  UNL     1     -34.214  17.104  -0.706  1.00 20.00     0.030 C 
HETATM    7  C7  UNL     1     -35.040  17.386   0.552  1.00 20.00     0.016 C 
HETATM    8  C8  UNL     1     -33.370  18.322  -1.088  1.00 20.00     0.016 C 
ENDBRANCH   2   6
BRANCH   3   9
HETATM    9  C6  UNL     1     -35.632  13.964  -4.296  1.00 20.00     0.045 A 
HETATM   10  C4  UNL     1     -34.297  13.301  -4.541  1.00 20.00     0.012 A 
HETATM   11  C5  UNL     1     -34.974  14.039  -5.653  1.00 20.00     0.012 A 
ENDBRANCH   3   9
TORSDOF 2
ENDMDL
MODEL 5
REMARK VINA RESULT:      -4.2      1.373      4.670
REMARK  2 active torsions:
REMARK  status: ('A' for Active; 'I' for Inactive)
REMARK    1  A    between atoms: C2_2  and  C9_9 
REMARK    2  A    between atoms: C3_3  and  C6_6 
ROOT
HETATM    1  C1  UNL     1     -33.915  16.774  -5.426  1.00 20.00     0.079 A 
HETATM    2  C2  UNL     1     -34.139  15.601  -4.735  1.00 20.00     0.045 A 
HETATM    3  C3  UNL     1     -33.873  16.948  -3.023  1.00 20.00     0.079 A 
HETATM    4  N10 UNL     1     -34.115  15.699  -3.357  1.00 20.00    -0.249 NA
HETATM    5  S11 UNL     1     -33.664  18.056  -4.316  1.00 20.00    -0.084 SA
ENDROOT
BRANCH   2   6
HETATM    6  C9  UNL     1     -34.404  14.242  -5.356  1.00 20.00     0.030 C 
HETATM    7  C7  UNL     1     -35.240  14.362  -6.634  1.00 20.00     0.016 C 
HETATM    8  C8  UNL     1     -35.065  13.288  -4.360  1.00 20.00     0.016 C 
ENDBRANCH   2   6
BRANCH   3   9
HETATM    9  C6  UNL     1     -33.782  17.391  -1.554  1.00 20.00     0.045 A 
HETATM   10  C4  UNL     1     -34.672  16.713  -0.538  1.00 20.00     0.012 A 
HETATM   11  C5  UNL     1     -34.954  18.125  -0.946  1.00 20.00     0.012 A 
ENDBRANCH   3   9
TORSDOF 2
ENDMDL
MODEL 6
REMARK VINA RESULT:      -4.1      2.462      5.173
REMARK  2 active torsions:
REMARK  status: ('A' for Active; 'I' for Inactive)
REMARK    1  A    between atoms: C2_2  and  C9_9 
REMARK    2  A    between atoms: C3_3  and  C6_6 
ROOT
HETATM    1  C1  UNL     1     -36.157  15.125  -5.133  1.00 20.00     0.079 A 
HETATM    2  C2  UNL     1     -34.942  15.560  -5.620  1.00 20.00     0.045 A 
HETATM    3  C3  UNL     1     -34.573  15.876  -3.480  1.00 20.00     0.079 A 
HETATM    4  N10 UNL     1     -34.032  15.992  -4.673  1.00 20.00    -0.249 NA
HETATM    5  S11 UNL     1     -36.171  15.255  -3.423  1.00 20.00    -0.084 SA
ENDROOT
BRANCH   2   6
HETATM    6  C9  UNL     1     -34.535  15.602  -7.081  1.00 20.00     0.030 C 
HETATM    7  C7  UNL     1     -34.659  17.014  -7.659  1.00 20.00     0.016 C 
HETATM    8  C8  UNL     1     -35.333  14.598  -7.915  1.00 20.00     0.016 C 
ENDBRANCH   2   6
BRANCH   3   9
HETATM    9  C6  UNL     1     -33.813  16.275  -2.204  1.00 20.00     0.045 A 
HETATM   10  C4  UNL     1     -34.608  16.586  -0.957  1.00 20.00     0.012 A 
HETATM   11  C5  UNL     1     -33.936  17.695  -1.703  1.00 20.00     0.012 A 
ENDBRANCH   3   9
TORSDOF 2
ENDMDL
MODEL 7
REMARK VINA RESULT:      -4.1      1.379      1.837
REMARK  2 active torsions:
REMARK  status: ('A' for Active; 'I' for Inactive)
REMARK    1  A    between atoms: C2_2  and  C9_9 
REMARK    2  A    between atoms: C3_3  and  C6_6 
ROOT
HETATM    1  C1  UNL     1     -33.707  18.238  -3.633  1.00 20.00     0.079 A 
HETATM    2  C2  UNL     1     -33.729  17.187  -2.740  1.00 20.00     0.045 A 
HETATM    3  C3  UNL     1     -34.007  16.049  -4.595  1.00 20.00     0.079 A 
HETATM    4  N10 UNL     1     -33.902  15.931  -3.289  1.00 20.00    -0.249 NA
HETATM    5  S11 UNL     1     -33.907  17.640  -5.228  1.00 20.00    -0.084 SA
ENDROOT
BRANCH   2   6
HETATM    6  C9  UNL     1     -33.583  17.301  -1.233  1.00 20.00     0.030 C 
HETATM    7  C7  UNL     1     -34.856  16.852  -0.510  1.00 20.00     0.016 C 
HETATM    8  C8  UNL     1     -33.187  18.718  -0.813  1.00 20.00     0.016 C 
ENDBRANCH   2   6
BRANCH   3   9
HETATM    9  C6  UNL     1     -34.209  14.826  -5.505  1.00 20.00     0.045 A 
HETATM   10  C4  UNL     1     -34.457  15.055  -6.977  1.00 20.00     0.012 A 
HETATM   11  C5  UNL     1     -35.576  14.586  -6.101  1.00 20.00     0.012 A 
ENDBRANCH   3   9
TORSDOF 2
ENDMDL
MODEL 8
REMARK VINA RESULT:      -4.0     13.075     15.852
REMARK  2 active torsions:
REMARK  status: ('A' for Active; 'I' for Inactive)
REMARK    1  A    between atoms: C2_2  and  C9_9 
REMARK    2  A    between atoms: C3_3  and  C6_6 
ROOT
HETATM    1  C1  UNL     1     -43.417   2.490  -2.268  1.00 20.00     0.079 A 
HETATM    2  C2  UNL     1     -42.274   2.497  -3.039  1.00 20.00     0.045 A 
HETATM    3  C3  UNL     1     -41.706   4.045  -1.592  1.00 20.00     0.079 A 
HETATM    4  N10 UNL     1     -41.291   3.389  -2.653  1.00 20.00    -0.249 NA
HETATM    5  S11 UNL     1     -43.267   3.641  -1.005  1.00 20.00    -0.084 SA
ENDROOT
BRANCH   2   6
HETATM    6  C9  UNL     1     -42.016   1.622  -4.252  1.00 20.00     0.030 C 
HETATM    7  C7  UNL     1     -43.123   1.772  -5.299  1.00 20.00     0.016 C 
HETATM    8  C8  UNL     1     -41.834   0.155  -3.857  1.00 20.00     0.016 C 
ENDBRANCH   2   6
BRANCH   3   9
HETATM    9  C6  UNL     1     -40.839   5.118  -0.912  1.00 20.00     0.045 A 
HETATM   10  C4  UNL     1     -41.484   6.034   0.101  1.00 20.00     0.012 A 
HETATM   11  C5  UNL     1     -41.095   6.570  -1.241  1.00 20.00     0.012 A 
ENDBRANCH   3   9
TORSDOF 2
ENDMDL
MODEL 9
REMARK VINA RESULT:      -4.0      1.314      4.701
REMARK  2 active torsions:
REMARK  status: ('A' for Active; 'I' for Inactive)
REMARK    1  A    between atoms: C2_2  and  C9_9 
REMARK    2  A    between atoms: C3_3  and  C6_6 
ROOT
HETATM    1  C1  UNL     1     -33.967  17.054  -3.350  1.00 20.00     0.079 A 
HETATM    2  C2  UNL     1     -34.413  15.987  -2.599  1.00 20.00     0.045 A 
HETATM    3  C3  UNL     1     -34.216  17.464  -0.988  1.00 20.00     0.079 A 
HETATM    4  N10 UNL     1     -34.556  16.220  -1.244  1.00 20.00    -0.249 NA
HETATM    5  S11 UNL     1     -33.715  18.410  -2.330  1.00 20.00    -0.084 SA
ENDROOT
BRANCH   2   6
HETATM    6  C9  UNL     1     -34.752  14.607  -3.132  1.00 20.00     0.030 C 
HETATM    7  C7  UNL     1     -33.536  13.943  -3.784  1.00 20.00     0.016 C 
HETATM    8  C8  UNL     1     -35.934  14.654  -4.103  1.00 20.00     0.016 C 
ENDBRANCH   2   6
BRANCH   3   9
HETATM    9  C6  UNL     1     -34.265  18.041   0.436  1.00 20.00     0.045 A 
HETATM   10  C4  UNL     1     -35.286  17.492   1.403  1.00 20.00     0.012 A 
HETATM   11  C5  UNL     1     -35.463  18.867   0.841  1.00 20.00     0.012 A 
ENDBRANCH   3   9
TORSDOF 2
ENDMDL
