MODEL 1
REMARK VINA RESULT:      -4.2      0.000      0.000
REMARK  1 active torsions:
REMARK  status: ('A' for Active; 'I' for Inactive)
REMARK    1  A    between atoms: C7_7  and  N8_8 
ROOT
HETATM    1  C1  UNL     1     -34.228   6.155   6.387  1.00 20.00     0.065 C 
HETATM    2  C2  UNL     1     -33.265   6.438   5.230  1.00 20.00     0.275 C 
HETATM    3  C3  UNL     1     -34.533   5.189   3.581  1.00 20.00     0.306 C 
HETATM    4  C4  UNL     1     -35.166   5.029   6.102  1.00 20.00     0.154 A 
HETATM    5  C5  UNL     1     -35.349   4.582   4.680  1.00 20.00     0.179 A 
HETATM    6  N8  UNL     1     -34.000   6.509   3.958  1.00 20.00     0.090 N 
HETATM    7  O9  UNL     1     -34.567   3.824   5.626  1.00 20.00    -0.374 OA
ENDROOT
BRANCH   6   8
HETATM    8  C7  UNL     1     -33.139   7.026   2.894  1.00 20.00     0.268 C 
HETATM    9  C6  UNL     1     -31.751   7.253   3.389  1.00 20.00     0.037 C 
ENDBRANCH   6   8
TORSDOF 1
ENDMDL
MODEL 2
REMARK VINA RESULT:      -4.0     12.135     12.509
REMARK  1 active torsions:
REMARK  status: ('A' for Active; 'I' for Inactive)
REMARK    1  A    between atoms: C7_7  and  N8_8 
ROOT
HETATM    1  C1  UNL     1     -36.403  14.776  -4.297  1.00 20.00     0.065 C 
HETATM    2  C2  UNL     1     -35.721  15.361  -3.055  1.00 20.00     0.275 C 
HETATM    3  C3  UNL     1     -33.498  14.587  -3.642  1.00 20.00     0.306 C 
HETATM    4  C4  UNL     1     -35.563  13.762  -4.999  1.00 20.00     0.154 A 
HETATM    5  C5  UNL     1     -34.092  13.706  -4.697  1.00 20.00     0.179 A 
HETATM    6  N8  UNL     1     -34.342  15.762  -3.369  1.00 20.00     0.090 N 
HETATM    7  O9  UNL     1     -35.017  12.729  -4.178  1.00 20.00    -0.374 OA
ENDROOT
BRANCH   6   8
HETATM    8  C7  UNL     1     -33.772  16.547  -2.274  1.00 20.00     0.268 C 
HETATM    9  C6  UNL     1     -34.655  16.513  -1.072  1.00 20.00     0.037 C 
ENDBRANCH   6   8
TORSDOF 1
ENDMDL
MODEL 3
REMARK VINA RESULT:      -4.0     12.047     12.515
REMARK  1 active torsions:
REMARK  status: ('A' for Active; 'I' for Inactive)
REMARK    1  A    between atoms: C7_7  and  N8_8 
ROOT
HETATM    1  C1  UNL     1     -33.536  13.683  -3.916  1.00 20.00     0.065 C 
HETATM    2  C2  UNL     1     -33.417  15.146  -3.478  1.00 20.00     0.275 C 
HETATM    3  C3  UNL     1     -35.809  15.523  -3.330  1.00 20.00     0.306 C 
HETATM    4  C4  UNL     1     -34.903  13.329  -4.399  1.00 20.00     0.154 A 
HETATM    5  C5  UNL     1     -36.049  14.238  -4.058  1.00 20.00     0.179 A 
HETATM    6  N8  UNL     1     -34.534  15.507  -2.592  1.00 20.00     0.090 N 
HETATM    7  O9  UNL     1     -35.465  14.205  -5.377  1.00 20.00    -0.374 OA
ENDROOT
BRANCH   6   8
HETATM    8  C7  UNL     1     -34.296  16.809  -1.970  1.00 20.00     0.268 C 
HETATM    9  C6  UNL     1     -34.658  16.788  -0.523  1.00 20.00     0.037 C 
ENDBRANCH   6   8
TORSDOF 1
ENDMDL
MODEL 4
REMARK VINA RESULT:      -4.0     12.046     12.833
REMARK  1 active torsions:
REMARK  status: ('A' for Active; 'I' for Inactive)
REMARK    1  A    between atoms: C7_7  and  N8_8 
ROOT
HETATM    1  C1  UNL     1     -35.822  14.676  -5.682  1.00 20.00     0.065 C 
HETATM    2  C2  UNL     1     -36.179  15.442  -4.405  1.00 20.00     0.275 C 
HETATM    3  C3  UNL     1     -34.234  14.703  -3.157  1.00 20.00     0.306 C 
HETATM    4  C4  UNL     1     -34.790  13.621  -5.459  1.00 20.00     0.154 A 
HETATM    5  C5  UNL     1     -33.963  13.671  -4.206  1.00 20.00     0.179 A 
HETATM    6  N8  UNL     1     -34.958  15.864  -3.703  1.00 20.00     0.090 N 
HETATM    7  O9  UNL     1     -35.039  12.725  -4.376  1.00 20.00    -0.374 OA
ENDROOT
BRANCH   6   8
HETATM    8  C7  UNL     1     -35.280  16.806  -2.630  1.00 20.00     0.268 C 
HETATM    9  C6  UNL     1     -34.637  16.400  -1.347  1.00 20.00     0.037 C 
ENDBRANCH   6   8
TORSDOF 1
ENDMDL
MODEL 5
REMARK VINA RESULT:      -3.7      0.863      1.872
REMARK  1 active torsions:
REMARK  status: ('A' for Active; 'I' for Inactive)
REMARK    1  A    between atoms: C7_7  and  N8_8 
ROOT
HETATM    1  C1  UNL     1     -35.170   4.118   4.491  1.00 20.00     0.065 C 
HETATM    2  C2  UNL     1     -34.868   5.376   3.671  1.00 20.00     0.275 C 
HETATM    3  C3  UNL     1     -33.445   6.394   5.353  1.00 20.00     0.306 C 
HETATM    4  C4  UNL     1     -34.833   4.269   5.937  1.00 20.00     0.154 A 
HETATM    5  C5  UNL     1     -33.925   5.390   6.355  1.00 20.00     0.179 A 
HETATM    6  N8  UNL     1     -33.518   5.874   3.977  1.00 20.00     0.090 N 
HETATM    7  O9  UNL     1     -35.349   5.436   6.578  1.00 20.00    -0.374 OA
ENDROOT
BRANCH   6   8
HETATM    8  C7  UNL     1     -33.125   6.913   3.025  1.00 20.00     0.268 C 
HETATM    9  C6  UNL     1     -31.756   7.424   3.321  1.00 20.00     0.037 C 
ENDBRANCH   6   8
TORSDOF 1
ENDMDL
MODEL 6
REMARK VINA RESULT:      -3.7     12.132     13.509
REMARK  1 active torsions:
REMARK  status: ('A' for Active; 'I' for Inactive)
REMARK    1  A    between atoms: C7_7  and  N8_8 
ROOT
HETATM    1  C1  UNL     1     -33.828  15.241  -3.291  1.00 20.00     0.065 C 
HETATM    2  C2  UNL     1     -33.472  15.922  -4.616  1.00 20.00     0.275 C 
HETATM    3  C3  UNL     1     -34.728  14.375  -6.001  1.00 20.00     0.306 C 
HETATM    4  C4  UNL     1     -34.370  13.862  -3.473  1.00 20.00     0.154 A 
HETATM    5  C5  UNL     1     -34.865  13.452  -4.831  1.00 20.00     0.179 A 
HETATM    6  N8  UNL     1     -34.575  15.778  -5.578  1.00 20.00     0.090 N 
HETATM    7  O9  UNL     1     -33.601  12.995  -4.307  1.00 20.00    -0.374 OA
ENDROOT
BRANCH   6   8
HETATM    8  C7  UNL     1     -34.356  16.634  -6.745  1.00 20.00     0.268 C 
HETATM    9  C6  UNL     1     -33.995  18.021  -6.334  1.00 20.00     0.037 C 
ENDBRANCH   6   8
TORSDOF 1
ENDMDL
MODEL 7
REMARK VINA RESULT:      -3.6     12.280     13.751
REMARK  1 active torsions:
REMARK  status: ('A' for Active; 'I' for Inactive)
REMARK    1  A    between atoms: C7_7  and  N8_8 
ROOT
HETATM    1  C1  UNL     1     -33.601  13.737  -3.894  1.00 20.00     0.065 C 
HETATM    2  C2  UNL     1     -34.774  13.801  -4.877  1.00 20.00     0.275 C 
HETATM    3  C3  UNL     1     -34.177  15.970  -5.786  1.00 20.00     0.306 C 
HETATM    4  C4  UNL     1     -32.950  15.062  -3.677  1.00 20.00     0.154 A 
HETATM    5  C5  UNL     1     -33.209  16.166  -4.662  1.00 20.00     0.179 A 
HETATM    6  N8  UNL     1     -34.389  14.544  -6.087  1.00 20.00     0.090 N 
HETATM    7  O9  UNL     1     -33.828  16.143  -3.359  1.00 20.00    -0.374 OA
ENDROOT
BRANCH   6   8
HETATM    8  C7  UNL     1     -35.405  14.394  -7.129  1.00 20.00     0.268 C 
HETATM    9  C6  UNL     1     -36.643  15.150  -6.785  1.00 20.00     0.037 C 
ENDBRANCH   6   8
TORSDOF 1
ENDMDL
MODEL 8
REMARK VINA RESULT:      -3.6     12.038     13.487
REMARK  1 active torsions:
REMARK  status: ('A' for Active; 'I' for Inactive)
REMARK    1  A    between atoms: C7_7  and  N8_8 
ROOT
HETATM    1  C1  UNL     1     -35.045  14.152  -5.806  1.00 20.00     0.065 C 
HETATM    2  C2  UNL     1     -34.994  15.603  -5.317  1.00 20.00     0.275 C 
HETATM    3  C3  UNL     1     -33.187  15.237  -3.740  1.00 20.00     0.306 C 
HETATM    4  C4  UNL     1     -34.334  13.206  -4.897  1.00 20.00     0.154 A 
HETATM    5  C5  UNL     1     -33.364  13.759  -3.892  1.00 20.00     0.179 A 
HETATM    6  N8  UNL     1     -33.620  15.969  -4.943  1.00 20.00     0.090 N 
HETATM    7  O9  UNL     1     -34.676  13.294  -3.514  1.00 20.00    -0.374 OA
ENDROOT
BRANCH   6   8
HETATM    8  C7  UNL     1     -33.514  17.411  -4.720  1.00 20.00     0.268 C 
HETATM    9  C6  UNL     1     -33.705  18.167  -5.991  1.00 20.00     0.037 C 
ENDBRANCH   6   8
TORSDOF 1
ENDMDL
MODEL 9
REMARK VINA RESULT:      -3.6      9.563     10.601
REMARK  1 active torsions:
REMARK  status: ('A' for Active; 'I' for Inactive)
REMARK    1  A    between atoms: C7_7  and  N8_8 
ROOT
HETATM    1  C1  UNL     1     -40.737   5.791  -0.394  1.00 20.00     0.065 C 
HETATM    2  C2  UNL     1     -41.666   4.633  -0.775  1.00 20.00     0.275 C 
HETATM    3  C3  UNL     1     -42.568   5.718  -2.748  1.00 20.00     0.306 C 
HETATM    4  C4  UNL     1     -41.082   7.066  -1.088  1.00 20.00     0.154 A 
HETATM    5  C5  UNL     1     -41.966   7.014  -2.301  1.00 20.00     0.179 A 
HETATM    6  N8  UNL     1     -41.818   4.559  -2.236  1.00 20.00     0.090 N 
HETATM    7  O9  UNL     1     -42.452   7.462  -1.019  1.00 20.00    -0.374 OA
ENDROOT
BRANCH   6   8
HETATM    8  C7  UNL     1     -42.488   3.316  -2.621  1.00 20.00     0.268 C 
HETATM    9  C6  UNL     1     -41.544   2.386  -3.302  1.00 20.00     0.037 C 
ENDBRANCH   6   8
TORSDOF 1
ENDMDL
