MODEL 1
REMARK VINA RESULT:      -4.4      0.000      0.000
REMARK  1 active torsions:
REMARK  status: ('A' for Active; 'I' for Inactive)
REMARK    1  A    between atoms: C4_4  and  C10_10 
ROOT
HETATM    1  C1  UNL     1     -34.370  16.274  -3.109  1.00 20.00     0.016 C 
HETATM    2  C2  UNL     1     -34.125  17.667  -3.675  1.00 20.00     0.017 C 
HETATM    3  C3  UNL     1     -33.111  15.548  -3.577  1.00 20.00     0.122 C 
HETATM    4  C4  UNL     1     -33.491  17.349  -5.034  1.00 20.00     0.129 C 
HETATM    5  C5  UNL     1     -34.564  16.236  -1.600  1.00 20.00     0.013 C 
HETATM    6  C6  UNL     1     -35.353  18.562  -3.707  1.00 20.00     0.013 C 
HETATM    7  C7  UNL     1     -33.282  14.045  -3.709  1.00 20.00     0.040 C 
HETATM    8  O11 UNL     1     -32.785  16.102  -4.864  1.00 20.00    -0.380 OA
ENDROOT
BRANCH   4   9
HETATM    9  C10 UNL     1     -34.458  17.171  -6.198  1.00 20.00     0.007 C 
HETATM   10  C8  UNL     1     -34.311  18.314  -7.201  1.00 20.00     0.012 C 
HETATM   11  C9  UNL     1     -34.234  15.824  -6.884  1.00 20.00     0.012 C 
ENDBRANCH   4   9
TORSDOF 1
ENDMDL
MODEL 2
REMARK VINA RESULT:      -4.3      1.085      4.044
REMARK  1 active torsions:
REMARK  status: ('A' for Active; 'I' for Inactive)
REMARK    1  A    between atoms: C4_4  and  C10_10 
ROOT
HETATM    1  C1  UNL     1     -34.509  15.684  -5.628  1.00 20.00     0.016 C 
HETATM    2  C2  UNL     1     -33.998  14.992  -4.370  1.00 20.00     0.017 C 
HETATM    3  C3  UNL     1     -33.605  16.914  -5.664  1.00 20.00     0.122 C 
HETATM    4  C4  UNL     1     -33.736  16.180  -3.439  1.00 20.00     0.129 C 
HETATM    5  C5  UNL     1     -34.426  14.835  -6.888  1.00 20.00     0.013 C 
HETATM    6  C6  UNL     1     -34.918  13.911  -3.826  1.00 20.00     0.013 C 
HETATM    7  C7  UNL     1     -34.203  18.093  -6.411  1.00 20.00     0.040 C 
HETATM    8  O11 UNL     1     -33.381  17.287  -4.293  1.00 20.00    -0.380 OA
ENDROOT
BRANCH   4   9
HETATM    9  C10 UNL     1     -34.911  16.627  -2.577  1.00 20.00     0.007 C 
HETATM   10  C8  UNL     1     -34.591  16.447  -1.094  1.00 20.00     0.012 C 
HETATM   11  C9  UNL     1     -35.274  18.082  -2.874  1.00 20.00     0.012 C 
ENDBRANCH   4   9
TORSDOF 1
ENDMDL
MODEL 3
REMARK VINA RESULT:      -4.3      1.528      2.753
REMARK  1 active torsions:
REMARK  status: ('A' for Active; 'I' for Inactive)
REMARK    1  A    between atoms: C4_4  and  C10_10 
ROOT
HETATM    1  C1  UNL     1     -34.085  17.684  -3.298  1.00 20.00     0.016 C 
HETATM    2  C2  UNL     1     -33.450  17.126  -4.566  1.00 20.00     0.017 C 
HETATM    3  C3  UNL     1     -33.725  16.592  -2.294  1.00 20.00     0.122 C 
HETATM    4  C4  UNL     1     -33.742  15.628  -4.434  1.00 20.00     0.129 C 
HETATM    5  C5  UNL     1     -33.579  19.063  -2.899  1.00 20.00     0.013 C 
HETATM    6  C6  UNL     1     -33.923  17.785  -5.852  1.00 20.00     0.013 C 
HETATM    7  C7  UNL     1     -34.669  16.514  -1.107  1.00 20.00     0.040 C 
HETATM    8  O11 UNL     1     -33.773  15.350  -3.019  1.00 20.00    -0.380 OA
ENDROOT
BRANCH   4   9
HETATM    9  C10 UNL     1     -35.064  15.150  -5.022  1.00 20.00     0.007 C 
HETATM   10  C8  UNL     1     -34.828  14.368  -6.314  1.00 20.00     0.012 C 
HETATM   11  C9  UNL     1     -35.826  14.294  -4.011  1.00 20.00     0.012 C 
ENDBRANCH   4   9
TORSDOF 1
ENDMDL
MODEL 4
REMARK VINA RESULT:      -4.1      1.541      3.099
REMARK  1 active torsions:
REMARK  status: ('A' for Active; 'I' for Inactive)
REMARK    1  A    between atoms: C4_4  and  C10_10 
ROOT
HETATM    1  C1  UNL     1     -34.686  16.316  -2.973  1.00 20.00     0.016 C 
HETATM    2  C2  UNL     1     -35.243  15.043  -3.597  1.00 20.00     0.017 C 
HETATM    3  C3  UNL     1     -35.674  17.351  -3.505  1.00 20.00     0.122 C 
HETATM    4  C4  UNL     1     -35.670  15.531  -4.985  1.00 20.00     0.129 C 
HETATM    5  C5  UNL     1     -34.603  16.285  -1.453  1.00 20.00     0.013 C 
HETATM    6  C6  UNL     1     -34.292  13.858  -3.570  1.00 20.00     0.013 C 
HETATM    7  C7  UNL     1     -35.109  18.759  -3.579  1.00 20.00     0.040 C 
HETATM    8  O11 UNL     1     -36.037  16.917  -4.828  1.00 20.00    -0.380 OA
ENDROOT
BRANCH   4   9
HETATM    9  C10 UNL     1     -34.605  15.462  -6.074  1.00 20.00     0.007 C 
HETATM   10  C8  UNL     1     -35.006  14.463  -7.158  1.00 20.00     0.012 C 
HETATM   11  C9  UNL     1     -34.365  16.843  -6.682  1.00 20.00     0.012 C 
ENDBRANCH   4   9
TORSDOF 1
ENDMDL
MODEL 5
REMARK VINA RESULT:      -4.1      1.445      2.725
REMARK  1 active torsions:
REMARK  status: ('A' for Active; 'I' for Inactive)
REMARK    1  A    between atoms: C4_4  and  C10_10 
ROOT
HETATM    1  C1  UNL     1     -34.723  14.719  -4.735  1.00 20.00     0.016 C 
HETATM    2  C2  UNL     1     -33.580  15.563  -4.185  1.00 20.00     0.017 C 
HETATM    3  C3  UNL     1     -34.399  14.736  -6.227  1.00 20.00     0.122 C 
HETATM    4  C4  UNL     1     -33.442  16.647  -5.259  1.00 20.00     0.129 C 
HETATM    5  C5  UNL     1     -34.804  13.316  -4.150  1.00 20.00     0.013 C 
HETATM    6  C6  UNL     1     -33.787  16.057  -2.762  1.00 20.00     0.013 C 
HETATM    7  C7  UNL     1     -35.607  14.512  -7.119  1.00 20.00     0.040 C 
HETATM    8  O11 UNL     1     -33.843  16.034  -6.501  1.00 20.00    -0.380 OA
ENDROOT
BRANCH   4   9
HETATM    9  C10 UNL     1     -34.301  17.892  -5.066  1.00 20.00     0.007 C 
HETATM   10  C8  UNL     1     -33.429  19.104  -4.740  1.00 20.00     0.012 C 
HETATM   11  C9  UNL     1     -35.147  18.160  -6.310  1.00 20.00     0.012 C 
ENDBRANCH   4   9
TORSDOF 1
ENDMDL
MODEL 6
REMARK VINA RESULT:      -4.1      1.295      4.183
REMARK  1 active torsions:
REMARK  status: ('A' for Active; 'I' for Inactive)
REMARK    1  A    between atoms: C4_4  and  C10_10 
ROOT
HETATM    1  C1  UNL     1     -34.549  17.109  -6.544  1.00 20.00     0.016 C 
HETATM    2  C2  UNL     1     -34.170  15.636  -6.647  1.00 20.00     0.017 C 
HETATM    3  C3  UNL     1     -33.533  17.593  -5.512  1.00 20.00     0.122 C 
HETATM    4  C4  UNL     1     -33.846  15.290  -5.191  1.00 20.00     0.129 C 
HETATM    5  C5  UNL     1     -34.481  17.867  -7.862  1.00 20.00     0.013 C 
HETATM    6  C6  UNL     1     -35.214  14.761  -7.323  1.00 20.00     0.013 C 
HETATM    7  C7  UNL     1     -33.980  18.824  -4.743  1.00 20.00     0.040 C 
HETATM    8  O11 UNL     1     -33.346  16.503  -4.592  1.00 20.00    -0.380 OA
ENDROOT
BRANCH   4   9
HETATM    9  C10 UNL     1     -35.017  14.811  -4.341  1.00 20.00     0.007 C 
HETATM   10  C8  UNL     1     -34.985  13.291  -4.186  1.00 20.00     0.012 C 
HETATM   11  C9  UNL     1     -35.002  15.489  -2.971  1.00 20.00     0.012 C 
ENDBRANCH   4   9
TORSDOF 1
ENDMDL
MODEL 7
REMARK VINA RESULT:      -4.1      1.688      3.556
REMARK  1 active torsions:
REMARK  status: ('A' for Active; 'I' for Inactive)
REMARK    1  A    between atoms: C4_4  and  C10_10 
ROOT
HETATM    1  C1  UNL     1     -34.430  15.438  -5.583  1.00 20.00     0.016 C 
HETATM    2  C2  UNL     1     -34.764  16.910  -5.372  1.00 20.00     0.017 C 
HETATM    3  C3  UNL     1     -35.565  14.774  -4.806  1.00 20.00     0.122 C 
HETATM    4  C4  UNL     1     -35.242  16.922  -3.917  1.00 20.00     0.129 C 
HETATM    5  C5  UNL     1     -34.366  15.013  -7.042  1.00 20.00     0.013 C 
HETATM    6  C6  UNL     1     -33.634  17.869  -5.709  1.00 20.00     0.013 C 
HETATM    7  C7  UNL     1     -35.233  13.378  -4.309  1.00 20.00     0.040 C 
HETATM    8  O11 UNL     1     -35.831  15.627  -3.679  1.00 20.00    -0.380 OA
ENDROOT
BRANCH   4   9
HETATM    9  C10 UNL     1     -34.164  17.134  -2.861  1.00 20.00     0.007 C 
HETATM   10  C8  UNL     1     -34.100  18.602  -2.443  1.00 20.00     0.012 C 
HETATM   11  C9  UNL     1     -34.417  16.242  -1.646  1.00 20.00     0.012 C 
ENDBRANCH   4   9
TORSDOF 1
ENDMDL
MODEL 8
REMARK VINA RESULT:      -4.0      1.547      2.925
REMARK  1 active torsions:
REMARK  status: ('A' for Active; 'I' for Inactive)
REMARK    1  A    between atoms: C4_4  and  C10_10 
ROOT
HETATM    1  C1  UNL     1     -34.600  14.768  -4.579  1.00 20.00     0.016 C 
HETATM    2  C2  UNL     1     -35.209  15.274  -5.881  1.00 20.00     0.017 C 
HETATM    3  C3  UNL     1     -35.283  15.685  -3.568  1.00 20.00     0.122 C 
HETATM    4  C4  UNL     1     -35.259  16.786  -5.640  1.00 20.00     0.129 C 
HETATM    5  C5  UNL     1     -34.836  13.288  -4.311  1.00 20.00     0.013 C 
HETATM    6  C6  UNL     1     -34.481  14.824  -7.137  1.00 20.00     0.013 C 
HETATM    7  C7  UNL     1     -34.500  15.868  -2.280  1.00 20.00     0.040 C 
HETATM    8  O11 UNL     1     -35.429  16.960  -4.218  1.00 20.00    -0.380 OA
ENDROOT
BRANCH   4   9
HETATM    9  C10 UNL     1     -34.018  17.570  -6.050  1.00 20.00     0.007 C 
HETATM   10  C8  UNL     1     -34.299  18.414  -7.292  1.00 20.00     0.012 C 
HETATM   11  C9  UNL     1     -33.534  18.454  -4.901  1.00 20.00     0.012 C 
ENDBRANCH   4   9
TORSDOF 1
ENDMDL
MODEL 9
REMARK VINA RESULT:      -3.9      1.412      3.757
REMARK  1 active torsions:
REMARK  status: ('A' for Active; 'I' for Inactive)
REMARK    1  A    between atoms: C4_4  and  C10_10 
ROOT
HETATM    1  C1  UNL     1     -34.463  16.761  -6.311  1.00 20.00     0.016 C 
HETATM    2  C2  UNL     1     -34.825  17.592  -5.087  1.00 20.00     0.017 C 
HETATM    3  C3  UNL     1     -35.568  15.709  -6.280  1.00 20.00     0.122 C 
HETATM    4  C4  UNL     1     -35.278  16.515  -4.096  1.00 20.00     0.129 C 
HETATM    5  C5  UNL     1     -34.415  17.550  -7.612  1.00 20.00     0.013 C 
HETATM    6  C6  UNL     1     -33.722  18.520  -4.604  1.00 20.00     0.013 C 
HETATM    7  C7  UNL     1     -35.198  14.408  -6.971  1.00 20.00     0.040 C 
HETATM    8  O11 UNL     1     -35.834  15.448  -4.890  1.00 20.00    -0.380 OA
ENDROOT
BRANCH   4   9
HETATM    9  C10 UNL     1     -34.186  15.911  -3.220  1.00 20.00     0.007 C 
HETATM   10  C8  UNL     1     -34.417  16.262  -1.751  1.00 20.00     0.012 C 
HETATM   11  C9  UNL     1     -34.124  14.395  -3.405  1.00 20.00     0.012 C 
ENDBRANCH   4   9
TORSDOF 1
ENDMDL
