MODEL 1
REMARK VINA RESULT:      -4.7      0.000      0.000
REMARK  1 active torsions:
REMARK  status: ('A' for Active; 'I' for Inactive)
REMARK    1  A    between atoms: C4_4  and  C10_10 
ROOT
HETATM    1  C1  UNL     1     -33.903  14.465  -4.010  1.00 20.00     0.016 C 
HETATM    2  C2  UNL     1     -34.716  15.071  -2.862  1.00 20.00     0.017 C 
HETATM    3  C3  UNL     1     -33.274  15.684  -4.704  1.00 20.00     0.122 C 
HETATM    4  C4  UNL     1     -33.839  16.277  -2.519  1.00 20.00     0.129 C 
HETATM    5  C5  UNL     1     -34.622  13.469  -4.907  1.00 20.00     0.013 C 
HETATM    6  C6  UNL     1     -36.158  15.430  -3.226  1.00 20.00     0.013 C 
HETATM    7  C7  UNL     1     -33.886  16.122  -6.026  1.00 20.00     0.040 C 
HETATM    8  O11 UNL     1     -33.372  16.785  -3.778  1.00 20.00    -0.380 OA
ENDROOT
BRANCH   4   9
HETATM    9  C10 UNL     1     -34.493  17.397  -1.731  1.00 20.00     0.007 C 
HETATM   10  C8  UNL     1     -34.688  16.993  -0.270  1.00 20.00     0.012 C 
HETATM   11  C9  UNL     1     -33.665  18.680  -1.822  1.00 20.00     0.012 C 
ENDBRANCH   4   9
TORSDOF 1
ENDMDL
MODEL 2
REMARK VINA RESULT:      -4.5      1.386      2.420
REMARK  1 active torsions:
REMARK  status: ('A' for Active; 'I' for Inactive)
REMARK    1  A    between atoms: C4_4  and  C10_10 
ROOT
HETATM    1  C1  UNL     1     -34.686  16.029  -5.192  1.00 20.00     0.016 C 
HETATM    2  C2  UNL     1     -33.566  16.306  -4.184  1.00 20.00     0.017 C 
HETATM    3  C3  UNL     1     -35.944  15.890  -4.321  1.00 20.00     0.122 C 
HETATM    4  C4  UNL     1     -34.343  17.101  -3.132  1.00 20.00     0.129 C 
HETATM    5  C5  UNL     1     -34.435  14.923  -6.206  1.00 20.00     0.013 C 
HETATM    6  C6  UNL     1     -32.878  15.054  -3.639  1.00 20.00     0.013 C 
HETATM    7  C7  UNL     1     -36.477  14.484  -4.091  1.00 20.00     0.040 C 
HETATM    8  O11 UNL     1     -35.627  16.463  -3.037  1.00 20.00    -0.380 OA
ENDROOT
BRANCH   4   9
HETATM    9  C10 UNL     1     -33.722  17.198  -1.751  1.00 20.00     0.007 C 
HETATM   10  C8  UNL     1     -33.338  18.642  -1.427  1.00 20.00     0.012 C 
HETATM   11  C9  UNL     1     -34.675  16.650  -0.688  1.00 20.00     0.012 C 
ENDBRANCH   4   9
TORSDOF 1
ENDMDL
MODEL 3
REMARK VINA RESULT:      -4.3     12.561     14.587
REMARK  1 active torsions:
REMARK  status: ('A' for Active; 'I' for Inactive)
REMARK    1  A    between atoms: C4_4  and  C10_10 
ROOT
HETATM    1  C1  UNL     1     -41.438   6.238  -1.175  1.00 20.00     0.016 C 
HETATM    2  C2  UNL     1     -41.917   5.527  -2.445  1.00 20.00     0.017 C 
HETATM    3  C3  UNL     1     -41.847   5.286  -0.040  1.00 20.00     0.122 C 
HETATM    4  C4  UNL     1     -41.721   4.068  -2.027  1.00 20.00     0.129 C 
HETATM    5  C5  UNL     1     -41.837   7.697  -1.016  1.00 20.00     0.013 C 
HETATM    6  C6  UNL     1     -43.347   5.871  -2.863  1.00 20.00     0.013 C 
HETATM    7  C7  UNL     1     -43.058   5.678   0.792  1.00 20.00     0.040 C 
HETATM    8  O11 UNL     1     -42.116   4.006  -0.647  1.00 20.00    -0.380 OA
ENDROOT
BRANCH   4   9
HETATM    9  C10 UNL     1     -42.481   3.021  -2.820  1.00 20.00     0.007 C 
HETATM   10  C8  UNL     1     -41.517   2.080  -3.542  1.00 20.00     0.012 C 
HETATM   11  C9  UNL     1     -43.417   2.225  -1.909  1.00 20.00     0.012 C 
ENDBRANCH   4   9
TORSDOF 1
ENDMDL
MODEL 4
REMARK VINA RESULT:      -4.3      1.543      2.615
REMARK  1 active torsions:
REMARK  status: ('A' for Active; 'I' for Inactive)
REMARK    1  A    between atoms: C4_4  and  C10_10 
ROOT
HETATM    1  C1  UNL     1     -35.487  15.381  -5.557  1.00 20.00     0.016 C 
HETATM    2  C2  UNL     1     -34.729  16.554  -4.927  1.00 20.00     0.017 C 
HETATM    3  C3  UNL     1     -35.765  14.440  -4.375  1.00 20.00     0.122 C 
HETATM    4  C4  UNL     1     -35.389  16.589  -3.546  1.00 20.00     0.129 C 
HETATM    5  C5  UNL     1     -34.867  14.752  -6.795  1.00 20.00     0.013 C 
HETATM    6  C6  UNL     1     -33.210  16.381  -4.890  1.00 20.00     0.013 C 
HETATM    7  C7  UNL     1     -34.910  13.186  -4.269  1.00 20.00     0.040 C 
HETATM    8  O11 UNL     1     -35.575  15.214  -3.173  1.00 20.00    -0.380 OA
ENDROOT
BRANCH   4   9
HETATM    9  C10 UNL     1     -34.636  17.315  -2.446  1.00 20.00     0.007 C 
HETATM   10  C8  UNL     1     -35.252  18.689  -2.181  1.00 20.00     0.012 C 
HETATM   11  C9  UNL     1     -34.617  16.484  -1.162  1.00 20.00     0.012 C 
ENDBRANCH   4   9
TORSDOF 1
ENDMDL
MODEL 5
REMARK VINA RESULT:      -4.2      1.412      4.304
REMARK  1 active torsions:
REMARK  status: ('A' for Active; 'I' for Inactive)
REMARK    1  A    between atoms: C4_4  and  C10_10 
ROOT
HETATM    1  C1  UNL     1     -33.776  17.637  -3.293  1.00 20.00     0.016 C 
HETATM    2  C2  UNL     1     -34.514  17.115  -4.530  1.00 20.00     0.017 C 
HETATM    3  C3  UNL     1     -33.739  16.428  -2.346  1.00 20.00     0.122 C 
HETATM    4  C4  UNL     1     -34.049  15.657  -4.526  1.00 20.00     0.129 C 
HETATM    5  C5  UNL     1     -34.270  18.948  -2.703  1.00 20.00     0.013 C 
HETATM    6  C6  UNL     1     -36.033  17.287  -4.482  1.00 20.00     0.013 C 
HETATM    7  C7  UNL     1     -34.700  16.440  -1.167  1.00 20.00     0.040 C 
HETATM    8  O11 UNL     1     -34.027  15.263  -3.146  1.00 20.00    -0.380 OA
ENDROOT
BRANCH   4   9
HETATM    9  C10 UNL     1     -34.883  14.671  -5.323  1.00 20.00     0.007 C 
HETATM   10  C8  UNL     1     -34.559  14.764  -6.814  1.00 20.00     0.012 C 
HETATM   11  C9  UNL     1     -34.662  13.243  -4.819  1.00 20.00     0.012 C 
ENDBRANCH   4   9
TORSDOF 1
ENDMDL
MODEL 6
REMARK VINA RESULT:      -4.2      1.959      3.437
REMARK  1 active torsions:
REMARK  status: ('A' for Active; 'I' for Inactive)
REMARK    1  A    between atoms: C4_4  and  C10_10 
ROOT
HETATM    1  C1  UNL     1     -33.868  15.141  -3.317  1.00 20.00     0.016 C 
HETATM    2  C2  UNL     1     -35.040  14.219  -3.669  1.00 20.00     0.017 C 
HETATM    3  C3  UNL     1     -34.196  16.454  -4.045  1.00 20.00     0.122 C 
HETATM    4  C4  UNL     1     -36.172  15.246  -3.757  1.00 20.00     0.129 C 
HETATM    5  C5  UNL     1     -32.470  14.579  -3.525  1.00 20.00     0.013 C 
HETATM    6  C6  UNL     1     -34.841  13.397  -4.943  1.00 20.00     0.013 C 
HETATM    7  C7  UNL     1     -33.412  16.760  -5.312  1.00 20.00     0.040 C 
HETATM    8  O11 UNL     1     -35.596  16.401  -4.386  1.00 20.00    -0.380 OA
ENDROOT
BRANCH   4   9
HETATM    9  C10 UNL     1     -37.420  14.826  -4.512  1.00 20.00     0.007 C 
HETATM   10  C8  UNL     1     -38.661  14.961  -3.630  1.00 20.00     0.012 C 
HETATM   11  C9  UNL     1     -37.583  15.651  -5.790  1.00 20.00     0.012 C 
ENDBRANCH   4   9
TORSDOF 1
ENDMDL
MODEL 7
REMARK VINA RESULT:      -4.2      1.477      4.080
REMARK  1 active torsions:
REMARK  status: ('A' for Active; 'I' for Inactive)
REMARK    1  A    between atoms: C4_4  and  C10_10 
ROOT
HETATM    1  C1  UNL     1     -35.203  16.407  -2.558  1.00 20.00     0.016 C 
HETATM    2  C2  UNL     1     -34.653  15.367  -3.538  1.00 20.00     0.017 C 
HETATM    3  C3  UNL     1     -35.186  17.718  -3.359  1.00 20.00     0.122 C 
HETATM    4  C4  UNL     1     -35.191  15.929  -4.856  1.00 20.00     0.129 C 
HETATM    5  C5  UNL     1     -34.571  16.447  -1.175  1.00 20.00     0.013 C 
HETATM    6  C6  UNL     1     -33.133  15.203  -3.503  1.00 20.00     0.013 C 
HETATM    7  C7  UNL     1     -34.087  18.718  -3.031  1.00 20.00     0.040 C 
HETATM    8  O11 UNL     1     -35.061  17.355  -4.748  1.00 20.00    -0.380 OA
ENDROOT
BRANCH   4   9
HETATM    9  C10 UNL     1     -34.516  15.453  -6.129  1.00 20.00     0.007 C 
HETATM   10  C8  UNL     1     -35.255  14.253  -6.721  1.00 20.00     0.012 C 
HETATM   11  C9  UNL     1     -34.433  16.585  -7.155  1.00 20.00     0.012 C 
ENDBRANCH   4   9
TORSDOF 1
ENDMDL
MODEL 8
REMARK VINA RESULT:      -4.1      1.630      4.226
REMARK  1 active torsions:
REMARK  status: ('A' for Active; 'I' for Inactive)
REMARK    1  A    between atoms: C4_4  and  C10_10 
ROOT
HETATM    1  C1  UNL     1     -34.841  16.655  -1.405  1.00 20.00     0.016 C 
HETATM    2  C2  UNL     1     -34.406  15.675  -2.499  1.00 20.00     0.017 C 
HETATM    3  C3  UNL     1     -36.016  17.419  -2.035  1.00 20.00     0.122 C 
HETATM    4  C4  UNL     1     -35.758  15.388  -3.156  1.00 20.00     0.129 C 
HETATM    5  C5  UNL     1     -33.748  17.496  -0.765  1.00 20.00     0.013 C 
HETATM    6  C6  UNL     1     -33.349  16.225  -3.458  1.00 20.00     0.013 C 
HETATM    7  C7  UNL     1     -35.746  18.839  -2.509  1.00 20.00     0.040 C 
HETATM    8  O11 UNL     1     -36.454  16.645  -3.170  1.00 20.00    -0.380 OA
ENDROOT
BRANCH   4   9
HETATM    9  C10 UNL     1     -35.728  14.810  -4.559  1.00 20.00     0.007 C 
HETATM   10  C8  UNL     1     -35.394  13.318  -4.525  1.00 20.00     0.012 C 
HETATM   11  C9  UNL     1     -37.063  15.039  -5.269  1.00 20.00     0.012 C 
ENDBRANCH   4   9
TORSDOF 1
ENDMDL
MODEL 9
REMARK VINA RESULT:      -4.1      1.550      4.079
REMARK  1 active torsions:
REMARK  status: ('A' for Active; 'I' for Inactive)
REMARK    1  A    between atoms: C4_4  and  C10_10 
ROOT
HETATM    1  C1  UNL     1     -33.893  16.425  -3.160  1.00 20.00     0.016 C 
HETATM    2  C2  UNL     1     -34.800  17.092  -4.200  1.00 20.00     0.017 C 
HETATM    3  C3  UNL     1     -33.408  15.144  -3.856  1.00 20.00     0.122 C 
HETATM    4  C4  UNL     1     -34.087  16.669  -5.487  1.00 20.00     0.129 C 
HETATM    5  C5  UNL     1     -34.463  16.263  -1.759  1.00 20.00     0.013 C 
HETATM    6  C6  UNL     1     -36.267  16.667  -4.129  1.00 20.00     0.013 C 
HETATM    7  C7  UNL     1     -34.043  13.833  -3.418  1.00 20.00     0.040 C 
HETATM    8  O11 UNL     1     -33.662  15.315  -5.265  1.00 20.00    -0.380 OA
ENDROOT
BRANCH   4   9
HETATM    9  C10 UNL     1     -34.893  16.744  -6.771  1.00 20.00     0.007 C 
HETATM   10  C8  UNL     1     -34.417  17.905  -7.644  1.00 20.00     0.012 C 
HETATM   11  C9  UNL     1     -34.805  15.427  -7.544  1.00 20.00     0.012 C 
ENDBRANCH   4   9
TORSDOF 1
ENDMDL
