MODEL 1
REMARK VINA RESULT:      -4.4      0.000      0.000
REMARK  0 active torsions:
REMARK  status: ('A' for Active; 'I' for Inactive)
ROOT
HETATM    1  C1  UNL     1     -35.211   4.624   4.251  1.00 20.00     0.184 A 
HETATM    2  C2  UNL     1     -35.004   5.078   5.568  1.00 20.00     0.175 A 
HETATM    3  C3  UNL     1     -34.042   6.052   5.448  1.00 20.00     0.162 A 
HETATM    4  C4  UNL     1     -32.790   6.993   3.474  1.00 20.00     0.181 C 
HETATM    5  N5  UNL     1     -34.444   5.259   3.361  1.00 20.00    -0.181 NA
HETATM    6  N6  UNL     1     -33.745   6.120   4.119  1.00 20.00    -0.260 N 
HETATM    7  F7  UNL     1     -35.603   4.658   6.677  1.00 20.00    -0.201 F 
HETATM    8 CL8  UNL     1     -33.279   7.049   6.585  1.00 20.00    -0.059 Cl
ENDROOT
TORSDOF 0
ENDMDL
MODEL 2
REMARK VINA RESULT:      -4.2      2.347      2.645
REMARK  0 active torsions:
REMARK  status: ('A' for Active; 'I' for Inactive)
ROOT
HETATM    1  C1  UNL     1     -35.280   4.843   4.433  1.00 20.00     0.184 A 
HETATM    2  C2  UNL     1     -34.386   5.316   3.453  1.00 20.00     0.175 A 
HETATM    3  C3  UNL     1     -33.561   6.181   4.130  1.00 20.00     0.162 A 
HETATM    4  C4  UNL     1     -33.454   6.922   6.536  1.00 20.00     0.181 C 
HETATM    5  N5  UNL     1     -35.044   5.365   5.640  1.00 20.00    -0.181 NA
HETATM    6  N6  UNL     1     -33.993   6.174   5.423  1.00 20.00    -0.260 N 
HETATM    7  F7  UNL     1     -34.348   4.995   2.164  1.00 20.00    -0.201 F 
HETATM    8 CL8  UNL     1     -32.248   7.131   3.634  1.00 20.00    -0.059 Cl
ENDROOT
TORSDOF 0
ENDMDL
MODEL 3
REMARK VINA RESULT:      -4.0      2.005      2.340
REMARK  0 active torsions:
REMARK  status: ('A' for Active; 'I' for Inactive)
ROOT
HETATM    1  C1  UNL     1     -34.730   5.568   6.245  1.00 20.00     0.184 A 
HETATM    2  C2  UNL     1     -33.667   6.469   6.040  1.00 20.00     0.175 A 
HETATM    3  C3  UNL     1     -33.422   6.409   4.690  1.00 20.00     0.162 A 
HETATM    4  C4  UNL     1     -34.470   5.095   2.812  1.00 20.00     0.181 C 
HETATM    5  N5  UNL     1     -35.132   4.980   5.115  1.00 20.00    -0.181 NA
HETATM    6  N6  UNL     1     -34.318   5.512   4.188  1.00 20.00    -0.260 N 
HETATM    7  F7  UNL     1     -33.043   7.211   6.948  1.00 20.00    -0.201 F 
HETATM    8 CL8  UNL     1     -32.301   7.200   3.696  1.00 20.00    -0.059 Cl
ENDROOT
TORSDOF 0
ENDMDL
MODEL 4
REMARK VINA RESULT:      -3.9      2.105      2.751
REMARK  0 active torsions:
REMARK  status: ('A' for Active; 'I' for Inactive)
ROOT
HETATM    1  C1  UNL     1     -34.459   5.379   3.246  1.00 20.00     0.184 A 
HETATM    2  C2  UNL     1     -33.710   6.405   3.853  1.00 20.00     0.175 A 
HETATM    3  C3  UNL     1     -33.909   6.225   5.200  1.00 20.00     0.162 A 
HETATM    4  C4  UNL     1     -35.239   4.546   6.529  1.00 20.00     0.181 C 
HETATM    5  N5  UNL     1     -35.086   4.604   4.136  1.00 20.00    -0.181 NA
HETATM    6  N6  UNL     1     -34.732   5.143   5.314  1.00 20.00    -0.260 N 
HETATM    7  F7  UNL     1     -32.976   7.338   3.256  1.00 20.00    -0.201 F 
HETATM    8 CL8  UNL     1     -33.340   7.059   6.561  1.00 20.00    -0.059 Cl
ENDROOT
TORSDOF 0
ENDMDL
MODEL 5
REMARK VINA RESULT:      -3.8     12.310     12.464
REMARK  0 active torsions:
REMARK  status: ('A' for Active; 'I' for Inactive)
ROOT
HETATM    1  C1  UNL     1     -34.223  13.331  -4.698  1.00 20.00     0.184 A 
HETATM    2  C2  UNL     1     -33.538  14.114  -3.749  1.00 20.00     0.175 A 
HETATM    3  C3  UNL     1     -34.518  14.880  -3.165  1.00 20.00     0.162 A 
HETATM    4  C4  UNL     1     -37.008  15.041  -3.516  1.00 20.00     0.181 C 
HETATM    5  N5  UNL     1     -35.536  13.576  -4.718  1.00 20.00    -0.181 NA
HETATM    6  N6  UNL     1     -35.684  14.522  -3.775  1.00 20.00    -0.260 N 
HETATM    7  F7  UNL     1     -32.237  14.112  -3.480  1.00 20.00    -0.201 F 
HETATM    8 CL8  UNL     1     -34.474  16.055  -1.946  1.00 20.00    -0.059 Cl
ENDROOT
TORSDOF 0
ENDMDL
MODEL 6
REMARK VINA RESULT:      -3.8      2.510      3.130
REMARK  0 active torsions:
REMARK  status: ('A' for Active; 'I' for Inactive)
ROOT
HETATM    1  C1  UNL     1     -32.765   6.575   3.108  1.00 20.00     0.184 A 
HETATM    2  C2  UNL     1     -33.761   5.585   3.003  1.00 20.00     0.175 A 
HETATM    3  C3  UNL     1     -34.290   5.494   4.267  1.00 20.00     0.162 A 
HETATM    4  C4  UNL     1     -33.785   6.688   6.429  1.00 20.00     0.181 C 
HETATM    5  N5  UNL     1     -32.666   7.076   4.343  1.00 20.00    -0.181 NA
HETATM    6  N6  UNL     1     -33.605   6.399   5.024  1.00 20.00    -0.260 N 
HETATM    7  F7  UNL     1     -34.111   4.896   1.922  1.00 20.00    -0.201 F 
HETATM    8 CL8  UNL     1     -35.520   4.532   4.924  1.00 20.00    -0.059 Cl
ENDROOT
TORSDOF 0
ENDMDL
MODEL 7
REMARK VINA RESULT:      -3.6      9.593     10.268
REMARK  0 active torsions:
REMARK  status: ('A' for Active; 'I' for Inactive)
ROOT
HETATM    1  C1  UNL     1     -40.634   5.857  -0.331  1.00 20.00     0.184 A 
HETATM    2  C2  UNL     1     -41.283   6.838  -1.106  1.00 20.00     0.175 A 
HETATM    3  C3  UNL     1     -41.898   6.130  -2.111  1.00 20.00     0.162 A 
HETATM    4  C4  UNL     1     -42.001   3.674  -2.664  1.00 20.00     0.181 C 
HETATM    5  N5  UNL     1     -40.820   4.621  -0.803  1.00 20.00    -0.181 NA
HETATM    6  N6  UNL     1     -41.592   4.821  -1.885  1.00 20.00    -0.260 N 
HETATM    7  F7  UNL     1     -41.298   8.151  -0.909  1.00 20.00    -0.201 F 
HETATM    8 CL8  UNL     1     -42.860   6.608  -3.420  1.00 20.00    -0.059 Cl
ENDROOT
TORSDOF 0
ENDMDL
MODEL 8
REMARK VINA RESULT:      -3.6     12.406     12.526
REMARK  0 active torsions:
REMARK  status: ('A' for Active; 'I' for Inactive)
ROOT
HETATM    1  C1  UNL     1     -36.357  14.308  -4.072  1.00 20.00     0.184 A 
HETATM    2  C2  UNL     1     -35.111  13.744  -4.409  1.00 20.00     0.175 A 
HETATM    3  C3  UNL     1     -34.205  14.425  -3.633  1.00 20.00     0.162 A 
HETATM    4  C4  UNL     1     -34.445  16.273  -1.937  1.00 20.00     0.181 C 
HETATM    5  N5  UNL     1     -36.254  15.272  -3.153  1.00 20.00    -0.181 NA
HETATM    6  N6  UNL     1     -34.934  15.319  -2.906  1.00 20.00    -0.260 N 
HETATM    7  F7  UNL     1     -34.868  12.772  -5.282  1.00 20.00    -0.201 F 
HETATM    8 CL8  UNL     1     -32.522  14.313  -3.479  1.00 20.00    -0.059 Cl
ENDROOT
TORSDOF 0
ENDMDL
MODEL 9
REMARK VINA RESULT:      -3.6      9.200      9.840
REMARK  0 active torsions:
REMARK  status: ('A' for Active; 'I' for Inactive)
ROOT
HETATM    1  C1  UNL     1     -40.664   4.549  -0.984  1.00 20.00     0.184 A 
HETATM    2  C2  UNL     1     -40.778   5.832  -0.417  1.00 20.00     0.175 A 
HETATM    3  C3  UNL     1     -41.743   6.456  -1.170  1.00 20.00     0.162 A 
HETATM    4  C4  UNL     1     -43.129   5.714  -3.139  1.00 20.00     0.181 C 
HETATM    5  N5  UNL     1     -41.491   4.367  -2.018  1.00 20.00    -0.181 NA
HETATM    6  N6  UNL     1     -42.133   5.544  -2.105  1.00 20.00    -0.260 N 
HETATM    7  F7  UNL     1     -40.104   6.328   0.615  1.00 20.00    -0.201 F 
HETATM    8 CL8  UNL     1     -42.423   8.006  -1.097  1.00 20.00    -0.059 Cl
ENDROOT
TORSDOF 0
ENDMDL
