MODEL 1
REMARK VINA RESULT:      -3.8      0.000      0.000
REMARK  0 active torsions:
REMARK  status: ('A' for Active; 'I' for Inactive)
ROOT
HETATM    1  C1  UNL     1     -34.129   5.541   4.540  1.00 20.00     0.094 A 
HETATM    2  C2  UNL     1     -33.555   6.571   5.310  1.00 20.00     0.073 A 
HETATM    3  C3  UNL     1     -33.655   5.759   3.269  1.00 20.00     0.225 A 
HETATM    4  C4  UNL     1     -33.714   6.826   6.754  1.00 20.00     0.074 C 
HETATM    5  C5  UNL     1     -32.135   7.479   2.267  1.00 20.00     0.183 C 
HETATM    6  N6  UNL     1     -32.776   7.382   4.590  1.00 20.00    -0.174 NA
HETATM    7  N7  UNL     1     -32.858   6.863   3.353  1.00 20.00    -0.247 N 
HETATM    8  F8  UNL     1     -33.919   5.046   2.175  1.00 20.00    -0.183 F 
HETATM    9 BR9  UNL     1     -35.272   4.198   5.141  1.00 20.00    -0.044 Br
ENDROOT
TORSDOF 0
ENDMDL
MODEL 2
REMARK VINA RESULT:      -3.7     12.472     13.342
REMARK  0 active torsions:
REMARK  status: ('A' for Active; 'I' for Inactive)
ROOT
HETATM    1  C1  UNL     1     -34.028  15.630  -4.001  1.00 20.00     0.094 A 
HETATM    2  C2  UNL     1     -34.176  16.584  -2.977  1.00 20.00     0.073 A 
HETATM    3  C3  UNL     1     -33.764  16.372  -5.126  1.00 20.00     0.225 A 
HETATM    4  C4  UNL     1     -34.466  16.353  -1.549  1.00 20.00     0.074 C 
HETATM    5  C5  UNL     1     -33.543  18.829  -5.558  1.00 20.00     0.183 C 
HETATM    6  N6  UNL     1     -34.020  17.837  -3.412  1.00 20.00    -0.174 NA
HETATM    7  N7  UNL     1     -33.771  17.675  -4.723  1.00 20.00    -0.247 N 
HETATM    8  F8  UNL     1     -33.550  15.920  -6.361  1.00 20.00    -0.183 F 
HETATM    9 BR9  UNL     1     -34.165  13.779  -3.835  1.00 20.00    -0.044 Br
ENDROOT
TORSDOF 0
ENDMDL
MODEL 3
REMARK VINA RESULT:      -3.7     12.414     12.948
REMARK  0 active torsions:
REMARK  status: ('A' for Active; 'I' for Inactive)
ROOT
HETATM    1  C1  UNL     1     -33.965  16.656  -4.219  1.00 20.00     0.094 A 
HETATM    2  C2  UNL     1     -34.195  16.041  -2.974  1.00 20.00     0.073 A 
HETATM    3  C3  UNL     1     -34.061  15.633  -5.130  1.00 20.00     0.225 A 
HETATM    4  C4  UNL     1     -34.216  16.665  -1.638  1.00 20.00     0.074 C 
HETATM    5  C5  UNL     1     -34.519  13.179  -4.926  1.00 20.00     0.183 C 
HETATM    6  N6  UNL     1     -34.420  14.729  -3.080  1.00 20.00    -0.174 NA
HETATM    7  N7  UNL     1     -34.332  14.511  -4.404  1.00 20.00    -0.247 N 
HETATM    8  F8  UNL     1     -33.916  15.712  -6.453  1.00 20.00    -0.183 F 
HETATM    9 BR9  UNL     1     -33.612  18.460  -4.529  1.00 20.00    -0.044 Br
ENDROOT
TORSDOF 0
ENDMDL
MODEL 4
REMARK VINA RESULT:      -3.6     12.362     13.182
REMARK  0 active torsions:
REMARK  status: ('A' for Active; 'I' for Inactive)
ROOT
HETATM    1  C1  UNL     1     -34.318  15.418  -3.895  1.00 20.00     0.094 A 
HETATM    2  C2  UNL     1     -33.995  16.293  -4.949  1.00 20.00     0.073 A 
HETATM    3  C3  UNL     1     -34.217  16.191  -2.764  1.00 20.00     0.225 A 
HETATM    4  C4  UNL     1     -33.947  16.001  -6.394  1.00 20.00     0.074 C 
HETATM    5  C5  UNL     1     -33.624  18.591  -2.364  1.00 20.00     0.183 C 
HETATM    6  N6  UNL     1     -33.711  17.527  -4.527  1.00 20.00    -0.174 NA
HETATM    7  N7  UNL     1     -33.854  17.433  -3.194  1.00 20.00    -0.247 N 
HETATM    8  F8  UNL     1     -34.425  15.811  -1.503  1.00 20.00    -0.183 F 
HETATM    9 BR9  UNL     1     -34.776  13.617  -4.034  1.00 20.00    -0.044 Br
ENDROOT
TORSDOF 0
ENDMDL
MODEL 5
REMARK VINA RESULT:      -3.6     10.497     11.248
REMARK  0 active torsions:
REMARK  status: ('A' for Active; 'I' for Inactive)
ROOT
HETATM    1  C1  UNL     1     -41.819   5.942  -1.828  1.00 20.00     0.094 A 
HETATM    2  C2  UNL     1     -42.757   6.038  -2.873  1.00 20.00     0.073 A 
HETATM    3  C3  UNL     1     -41.526   4.601  -1.753  1.00 20.00     0.225 A 
HETATM    4  C4  UNL     1     -43.417   7.248  -3.397  1.00 20.00     0.074 C 
HETATM    5  C5  UNL     1     -42.309   2.591  -3.025  1.00 20.00     0.183 C 
HETATM    6  N6  UNL     1     -43.041   4.855  -3.423  1.00 20.00    -0.174 NA
HETATM    7  N7  UNL     1     -42.277   4.001  -2.719  1.00 20.00    -0.247 N 
HETATM    8  F8  UNL     1     -40.685   4.004  -0.908  1.00 20.00    -0.183 F 
HETATM    9 BR9  UNL     1     -41.145   7.339  -0.795  1.00 20.00    -0.044 Br
ENDROOT
TORSDOF 0
ENDMDL
MODEL 6
REMARK VINA RESULT:      -3.6     12.298     13.062
REMARK  0 active torsions:
REMARK  status: ('A' for Active; 'I' for Inactive)
ROOT
HETATM    1  C1  UNL     1     -34.221  15.659  -4.989  1.00 20.00     0.094 A 
HETATM    2  C2  UNL     1     -34.630  14.698  -4.045  1.00 20.00     0.073 A 
HETATM    3  C3  UNL     1     -33.799  16.725  -4.232  1.00 20.00     0.225 A 
HETATM    4  C4  UNL     1     -35.171  13.348  -4.294  1.00 20.00     0.074 C 
HETATM    5  C5  UNL     1     -33.671  17.145  -1.766  1.00 20.00     0.183 C 
HETATM    6  N6  UNL     1     -34.480  15.114  -2.786  1.00 20.00    -0.174 NA
HETATM    7  N7  UNL     1     -33.974  16.351  -2.932  1.00 20.00    -0.247 N 
HETATM    8  F8  UNL     1     -33.320  17.889  -4.671  1.00 20.00    -0.183 F 
HETATM    9 BR9  UNL     1     -34.258  15.493  -6.845  1.00 20.00    -0.044 Br
ENDROOT
TORSDOF 0
ENDMDL
MODEL 7
REMARK VINA RESULT:      -3.6     10.017     10.611
REMARK  0 active torsions:
REMARK  status: ('A' for Active; 'I' for Inactive)
ROOT
HETATM    1  C1  UNL     1     -42.177   6.044  -1.787  1.00 20.00     0.094 A 
HETATM    2  C2  UNL     1     -41.123   5.536  -1.005  1.00 20.00     0.073 A 
HETATM    3  C3  UNL     1     -42.481   5.025  -2.657  1.00 20.00     0.225 A 
HETATM    4  C4  UNL     1     -40.403   6.201   0.097  1.00 20.00     0.074 C 
HETATM    5  C5  UNL     1     -41.561   2.722  -3.003  1.00 20.00     0.183 C 
HETATM    6  N6  UNL     1     -40.781   4.291  -1.346  1.00 20.00    -0.174 NA
HETATM    7  N7  UNL     1     -41.624   4.009  -2.354  1.00 20.00    -0.247 N 
HETATM    8  F8  UNL     1     -43.416   5.025  -3.606  1.00 20.00    -0.183 F 
HETATM    9 BR9  UNL     1     -42.963   7.729  -1.650  1.00 20.00    -0.044 Br
ENDROOT
TORSDOF 0
ENDMDL
MODEL 8
REMARK VINA RESULT:      -3.6     11.810     12.460
REMARK  0 active torsions:
REMARK  status: ('A' for Active; 'I' for Inactive)
ROOT
HETATM    1  C1  UNL     1     -35.150  15.670  -2.959  1.00 20.00     0.094 A 
HETATM    2  C2  UNL     1     -34.952  14.454  -3.639  1.00 20.00     0.073 A 
HETATM    3  C3  UNL     1     -36.495  15.920  -3.089  1.00 20.00     0.225 A 
HETATM    4  C4  UNL     1     -33.694  13.703  -3.817  1.00 20.00     0.074 C 
HETATM    5  C5  UNL     1     -38.376  14.698  -4.202  1.00 20.00     0.183 C 
HETATM    6  N6  UNL     1     -36.079  13.964  -4.161  1.00 20.00    -0.174 NA
HETATM    7  N7  UNL     1     -36.999  14.878  -3.810  1.00 20.00    -0.247 N 
HETATM    8  F8  UNL     1     -37.172  16.965  -2.615  1.00 20.00    -0.183 F 
HETATM    9 BR9  UNL     1     -33.856  16.691  -2.088  1.00 20.00    -0.044 Br
ENDROOT
TORSDOF 0
ENDMDL
MODEL 9
REMARK VINA RESULT:      -3.5      2.883      3.968
REMARK  0 active torsions:
REMARK  status: ('A' for Active; 'I' for Inactive)
ROOT
HETATM    1  C1  UNL     1     -33.369   6.386   4.012  1.00 20.00     0.094 A 
HETATM    2  C2  UNL     1     -34.225   5.455   3.394  1.00 20.00     0.073 A 
HETATM    3  C3  UNL     1     -33.669   6.291   5.350  1.00 20.00     0.225 A 
HETATM    4  C4  UNL     1     -34.333   5.128   1.959  1.00 20.00     0.074 C 
HETATM    5  C5  UNL     1     -35.289   4.901   6.659  1.00 20.00     0.183 C 
HETATM    6  N6  UNL     1     -35.009   4.815   4.265  1.00 20.00    -0.174 NA
HETATM    7  N7  UNL     1     -34.648   5.346   5.446  1.00 20.00    -0.247 N 
HETATM    8  F8  UNL     1     -33.124   6.981   6.351  1.00 20.00    -0.183 F 
HETATM    9 BR9  UNL     1     -32.119   7.486   3.176  1.00 20.00    -0.044 Br
ENDROOT
TORSDOF 0
ENDMDL
