MODEL 1
REMARK VINA RESULT:      -4.7      0.000      0.000
REMARK  0 active torsions:
REMARK  status: ('A' for Active; 'I' for Inactive)
ROOT
HETATM    1  C1  UNL     1     -34.696  13.678  -4.294  1.00 20.00     0.217 C 
HETATM    2  C2  UNL     1     -35.862  14.608  -4.027  1.00 20.00     0.108 C 
HETATM    3  C3  UNL     1     -33.088  15.575  -3.891  1.00 20.00     0.131 C 
HETATM    4  C4  UNL     1     -35.538  16.104  -4.116  1.00 20.00    -0.001 C 
HETATM    5  C5  UNL     1     -34.233  16.433  -3.336  1.00 20.00    -0.028 C 
HETATM    6  C6  UNL     1     -35.523  16.539  -5.591  1.00 20.00     0.011 C 
HETATM    7  C7  UNL     1     -34.414  16.141  -1.829  1.00 20.00     0.016 C 
HETATM    8  C8  UNL     1     -33.855  17.922  -3.466  1.00 20.00     0.016 C 
HETATM    9  N9  UNL     1     -33.433  14.178  -4.085  1.00 20.00    -0.360 N 
HETATM   10  O10 UNL     1     -34.895  12.502  -4.606  1.00 20.00    -0.274 OA
HETATM   11  H25 UNL     1     -32.667  13.505  -4.063  1.00 20.00     0.162 HD
ENDROOT
TORSDOF 0
ENDMDL
MODEL 2
REMARK VINA RESULT:      -4.7      1.241      2.356
REMARK  0 active torsions:
REMARK  status: ('A' for Active; 'I' for Inactive)
ROOT
HETATM    1  C1  UNL     1     -34.907  13.885  -4.262  1.00 20.00     0.217 C 
HETATM    2  C2  UNL     1     -33.706  14.472  -3.548  1.00 20.00     0.108 C 
HETATM    3  C3  UNL     1     -35.757  16.207  -4.746  1.00 20.00     0.131 C 
HETATM    4  C4  UNL     1     -33.849  15.940  -3.125  1.00 20.00    -0.001 C 
HETATM    5  C5  UNL     1     -34.413  16.797  -4.294  1.00 20.00    -0.028 C 
HETATM    6  C6  UNL     1     -34.668  16.021  -1.826  1.00 20.00     0.011 C 
HETATM    7  C7  UNL     1     -33.427  16.808  -5.484  1.00 20.00     0.016 C 
HETATM    8  C8  UNL     1     -34.626  18.265  -3.870  1.00 20.00     0.016 C 
HETATM    9  N9  UNL     1     -35.748  14.764  -4.902  1.00 20.00    -0.360 N 
HETATM   10  O10 UNL     1     -35.060  12.664  -4.322  1.00 20.00    -0.274 OA
HETATM   11  H25 UNL     1     -36.430  14.365  -5.546  1.00 20.00     0.162 HD
ENDROOT
TORSDOF 0
ENDMDL
MODEL 3
REMARK VINA RESULT:      -4.5      1.279      2.766
REMARK  0 active torsions:
REMARK  status: ('A' for Active; 'I' for Inactive)
ROOT
HETATM    1  C1  UNL     1     -33.506  13.668  -3.735  1.00 20.00     0.217 C 
HETATM    2  C2  UNL     1     -33.218  15.155  -3.690  1.00 20.00     0.108 C 
HETATM    3  C3  UNL     1     -35.953  14.152  -4.093  1.00 20.00     0.131 C 
HETATM    4  C4  UNL     1     -34.437  16.050  -3.436  1.00 20.00    -0.001 C 
HETATM    5  C5  UNL     1     -35.628  15.631  -4.344  1.00 20.00    -0.028 C 
HETATM    6  C6  UNL     1     -34.758  16.062  -1.931  1.00 20.00     0.011 C 
HETATM    7  C7  UNL     1     -35.272  15.836  -5.834  1.00 20.00     0.016 C 
HETATM    8  C8  UNL     1     -36.885  16.478  -4.058  1.00 20.00     0.016 C 
HETATM    9  N9  UNL     1     -34.788  13.286  -4.054  1.00 20.00    -0.360 N 
HETATM   10  O10 UNL     1     -32.598  12.851  -3.569  1.00 20.00    -0.274 OA
HETATM   11  H25 UNL     1     -34.934  12.304  -4.284  1.00 20.00     0.162 HD
ENDROOT
TORSDOF 0
ENDMDL
MODEL 4
REMARK VINA RESULT:      -4.5      2.206      3.365
REMARK  0 active torsions:
REMARK  status: ('A' for Active; 'I' for Inactive)
ROOT
HETATM    1  C1  UNL     1     -34.733  15.908  -2.212  1.00 20.00     0.217 C 
HETATM    2  C2  UNL     1     -33.449  15.642  -2.971  1.00 20.00     0.108 C 
HETATM    3  C3  UNL     1     -36.071  15.287  -4.255  1.00 20.00     0.131 C 
HETATM    4  C4  UNL     1     -33.587  15.608  -4.498  1.00 20.00    -0.001 C 
HETATM    5  C5  UNL     1     -34.803  14.737  -4.922  1.00 20.00    -0.028 C 
HETATM    6  C6  UNL     1     -33.615  17.047  -5.042  1.00 20.00     0.011 C 
HETATM    7  C7  UNL     1     -34.591  13.266  -4.497  1.00 20.00     0.016 C 
HETATM    8  C8  UNL     1     -34.998  14.742  -6.452  1.00 20.00     0.016 C 
HETATM    9  N9  UNL     1     -35.913  15.596  -2.844  1.00 20.00    -0.360 N 
HETATM   10  O10 UNL     1     -34.697  16.313  -1.048  1.00 20.00    -0.274 OA
HETATM   11  H25 UNL     1     -36.755  15.579  -2.270  1.00 20.00     0.162 HD
ENDROOT
TORSDOF 0
ENDMDL
MODEL 5
REMARK VINA RESULT:      -4.5      2.091      3.059
REMARK  0 active torsions:
REMARK  status: ('A' for Active; 'I' for Inactive)
ROOT
HETATM    1  C1  UNL     1     -37.030  14.659  -4.164  1.00 20.00     0.217 C 
HETATM    2  C2  UNL     1     -35.713  13.936  -3.969  1.00 20.00     0.108 C 
HETATM    3  C3  UNL     1     -35.807  16.618  -5.173  1.00 20.00     0.131 C 
HETATM    4  C4  UNL     1     -34.464  14.825  -4.025  1.00 20.00    -0.001 C 
HETATM    5  C5  UNL     1     -34.523  15.780  -5.251  1.00 20.00    -0.028 C 
HETATM    6  C6  UNL     1     -34.280  15.536  -2.674  1.00 20.00     0.011 C 
HETATM    7  C7  UNL     1     -34.511  14.973  -6.569  1.00 20.00     0.016 C 
HETATM    8  C8  UNL     1     -33.306  16.728  -5.291  1.00 20.00     0.016 C 
HETATM    9  N9  UNL     1     -36.997  15.850  -4.849  1.00 20.00    -0.360 N 
HETATM   10  O10 UNL     1     -38.085  14.145  -3.788  1.00 20.00    -0.274 OA
HETATM   11  H25 UNL     1     -37.890  16.231  -5.158  1.00 20.00     0.162 HD
ENDROOT
TORSDOF 0
ENDMDL
MODEL 6
REMARK VINA RESULT:      -4.5      1.417      1.845
REMARK  0 active torsions:
REMARK  status: ('A' for Active; 'I' for Inactive)
ROOT
HETATM    1  C1  UNL     1     -33.300  13.813  -3.868  1.00 20.00     0.217 C 
HETATM    2  C2  UNL     1     -34.792  13.667  -4.089  1.00 20.00     0.108 C 
HETATM    3  C3  UNL     1     -33.415  16.204  -4.656  1.00 20.00     0.131 C 
HETATM    4  C4  UNL     1     -35.425  14.728  -4.998  1.00 20.00    -0.001 C 
HETATM    5  C5  UNL     1     -34.948  16.153  -4.597  1.00 20.00    -0.028 C 
HETATM    6  C6  UNL     1     -35.167  14.362  -6.469  1.00 20.00     0.011 C 
HETATM    7  C7  UNL     1     -35.422  16.502  -3.167  1.00 20.00     0.016 C 
HETATM    8  C8  UNL     1     -35.524  17.230  -5.539  1.00 20.00     0.016 C 
HETATM    9  N9  UNL     1     -32.760  15.066  -4.036  1.00 20.00    -0.360 N 
HETATM   10  O10 UNL     1     -32.630  12.855  -3.477  1.00 20.00    -0.274 OA
HETATM   11  H25 UNL     1     -31.810  15.210  -3.693  1.00 20.00     0.162 HD
ENDROOT
TORSDOF 0
ENDMDL
MODEL 7
REMARK VINA RESULT:      -4.5      1.705      2.182
REMARK  0 active torsions:
REMARK  status: ('A' for Active; 'I' for Inactive)
ROOT
HETATM    1  C1  UNL     1     -34.777  14.448  -6.176  1.00 20.00     0.217 C 
HETATM    2  C2  UNL     1     -35.095  13.697  -4.900  1.00 20.00     0.108 C 
HETATM    3  C3  UNL     1     -33.715  16.293  -4.827  1.00 20.00     0.131 C 
HETATM    4  C4  UNL     1     -35.054  14.538  -3.618  1.00 20.00    -0.001 C 
HETATM    5  C5  UNL     1     -33.767  15.411  -3.573  1.00 20.00    -0.028 C 
HETATM    6  C6  UNL     1     -36.365  15.332  -3.483  1.00 20.00     0.011 C 
HETATM    7  C7  UNL     1     -32.507  14.517  -3.517  1.00 20.00     0.016 C 
HETATM    8  C8  UNL     1     -33.737  16.312  -2.322  1.00 20.00     0.016 C 
HETATM    9  N9  UNL     1     -34.019  15.590  -6.061  1.00 20.00    -0.360 N 
HETATM   10  O10 UNL     1     -35.123  13.996  -7.269  1.00 20.00    -0.274 OA
HETATM   11  H25 UNL     1     -33.634  15.978  -6.921  1.00 20.00     0.162 HD
ENDROOT
TORSDOF 0
ENDMDL
MODEL 8
REMARK VINA RESULT:      -4.3      2.027      2.779
REMARK  0 active torsions:
REMARK  status: ('A' for Active; 'I' for Inactive)
ROOT
HETATM    1  C1  UNL     1     -37.257  14.711  -3.882  1.00 20.00     0.217 C 
HETATM    2  C2  UNL     1     -36.574  14.604  -5.231  1.00 20.00     0.108 C 
HETATM    3  C3  UNL     1     -35.158  15.696  -2.895  1.00 20.00     0.131 C 
HETATM    4  C4  UNL     1     -35.042  14.681  -5.196  1.00 20.00    -0.001 C 
HETATM    5  C5  UNL     1     -34.570  15.864  -4.304  1.00 20.00    -0.028 C 
HETATM    6  C6  UNL     1     -34.469  13.312  -4.791  1.00 20.00     0.011 C 
HETATM    7  C7  UNL     1     -35.035  17.212  -4.900  1.00 20.00     0.016 C 
HETATM    8  C8  UNL     1     -33.032  15.921  -4.203  1.00 20.00     0.016 C 
HETATM    9  N9  UNL     1     -36.568  15.349  -2.878  1.00 20.00    -0.360 N 
HETATM   10  O10 UNL     1     -38.412  14.309  -3.735  1.00 20.00    -0.274 OA
HETATM   11  H25 UNL     1     -37.096  15.603  -2.044  1.00 20.00     0.162 HD
ENDROOT
TORSDOF 0
ENDMDL
MODEL 9
REMARK VINA RESULT:      -4.3      2.010      3.109
REMARK  0 active torsions:
REMARK  status: ('A' for Active; 'I' for Inactive)
ROOT
HETATM    1  C1  UNL     1     -34.622  15.964  -2.457  1.00 20.00     0.217 C 
HETATM    2  C2  UNL     1     -35.835  15.367  -3.141  1.00 20.00     0.108 C 
HETATM    3  C3  UNL     1     -33.391  15.988  -4.655  1.00 20.00     0.131 C 
HETATM    4  C4  UNL     1     -35.565  14.729  -4.510  1.00 20.00    -0.001 C 
HETATM    5  C5  UNL     1     -34.697  15.669  -5.394  1.00 20.00    -0.028 C 
HETATM    6  C6  UNL     1     -34.978  13.321  -4.311  1.00 20.00     0.011 C 
HETATM    7  C7  UNL     1     -35.455  16.982  -5.696  1.00 20.00     0.016 C 
HETATM    8  C8  UNL     1     -34.360  15.018  -6.752  1.00 20.00     0.016 C 
HETATM    9  N9  UNL     1     -33.571  16.342  -3.258  1.00 20.00    -0.360 N 
HETATM   10  O10 UNL     1     -34.630  16.169  -1.241  1.00 20.00    -0.274 OA
HETATM   11  H25 UNL     1     -32.850  16.924  -2.832  1.00 20.00     0.162 HD
ENDROOT
TORSDOF 0
ENDMDL
