MODEL 1
REMARK VINA RESULT:      -4.3      0.000      0.000
REMARK  2 active torsions:
REMARK  status: ('A' for Active; 'I' for Inactive)
REMARK    1  A    between atoms: C6_6  and  C7_7 
REMARK    2  A    between atoms: C6_6  and  C8_8 
ROOT
HETATM    1  C1  UNL     1     -34.453  16.688  -0.891  1.00 20.00     0.012 C 
HETATM    2  C2  UNL     1     -34.868  16.163  -1.887  1.00 20.00    -0.117 C 
HETATM    3  C7  UNL     1     -35.385  15.523  -3.101  1.00 20.00     0.103 C 
ENDROOT
BRANCH   3   4
HETATM    4  C6  UNL     1     -34.249  15.160  -4.058  1.00 20.00    -0.021 C 
HETATM    5  C4  UNL     1     -34.724  14.541  -5.405  1.00 20.00     0.011 C 
HETATM    6  C3  UNL     1     -34.541  13.147  -4.776  1.00 20.00     0.002 C 
HETATM    7  C5  UNL     1     -33.577  13.787  -3.758  1.00 20.00     0.011 C 
BRANCH   4   8
HETATM    8  C8  UNL     1     -33.263  16.312  -4.217  1.00 20.00     0.095 C 
HETATM    9 BR9  UNL     1     -33.848  17.466  -5.660  1.00 20.00    -0.096 Br
ENDBRANCH   4   8
ENDBRANCH   3   4
TORSDOF 2
ENDMDL
MODEL 2
REMARK VINA RESULT:      -4.2      1.001      1.345
REMARK  2 active torsions:
REMARK  status: ('A' for Active; 'I' for Inactive)
REMARK    1  A    between atoms: C6_6  and  C7_7 
REMARK    2  A    between atoms: C6_6  and  C8_8 
ROOT
HETATM    1  C1  UNL     1     -34.721  16.698  -0.891  1.00 20.00     0.012 C 
HETATM    2  C2  UNL     1     -34.247  16.265  -1.904  1.00 20.00    -0.117 C 
HETATM    3  C7  UNL     1     -33.658  15.735  -3.139  1.00 20.00     0.103 C 
ENDROOT
BRANCH   3   4
HETATM    4  C6  UNL     1     -34.734  15.477  -4.194  1.00 20.00    -0.021 C 
HETATM    5  C4  UNL     1     -35.884  14.543  -3.716  1.00 20.00     0.011 C 
HETATM    6  C3  UNL     1     -35.110  13.357  -4.320  1.00 20.00     0.002 C 
HETATM    7  C5  UNL     1     -34.367  14.363  -5.220  1.00 20.00     0.011 C 
BRANCH   4   8
HETATM    8  C8  UNL     1     -35.212  16.775  -4.833  1.00 20.00     0.095 C 
HETATM    9 BR9  UNL     1     -33.683  17.787  -5.461  1.00 20.00    -0.096 Br
ENDBRANCH   4   8
ENDBRANCH   3   4
TORSDOF 2
ENDMDL
MODEL 3
REMARK VINA RESULT:      -4.0      1.162      3.401
REMARK  2 active torsions:
REMARK  status: ('A' for Active; 'I' for Inactive)
REMARK    1  A    between atoms: C6_6  and  C7_7 
REMARK    2  A    between atoms: C6_6  and  C8_8 
ROOT
HETATM    1  C1  UNL     1     -34.515  13.250  -4.567  1.00 20.00     0.012 C 
HETATM    2  C2  UNL     1     -33.879  14.115  -4.030  1.00 20.00    -0.117 C 
HETATM    3  C7  UNL     1     -33.093  15.165  -3.373  1.00 20.00     0.103 C 
ENDROOT
BRANCH   3   4
HETATM    4  C6  UNL     1     -33.941  16.414  -3.130  1.00 20.00    -0.021 C 
HETATM    5  C4  UNL     1     -33.580  17.184  -1.825  1.00 20.00     0.011 C 
HETATM    6  C3  UNL     1     -34.682  16.385  -1.104  1.00 20.00     0.002 C 
HETATM    7  C5  UNL     1     -35.327  16.128  -2.480  1.00 20.00     0.011 C 
BRANCH   4   8
HETATM    8  C8  UNL     1     -34.007  17.295  -4.372  1.00 20.00     0.095 C 
HETATM    9 BR9  UNL     1     -35.806  17.259  -5.092  1.00 20.00    -0.096 Br
ENDBRANCH   4   8
ENDBRANCH   3   4
TORSDOF 2
ENDMDL
MODEL 4
REMARK VINA RESULT:      -4.0      1.794      3.052
REMARK  2 active torsions:
REMARK  status: ('A' for Active; 'I' for Inactive)
REMARK    1  A    between atoms: C6_6  and  C7_7 
REMARK    2  A    between atoms: C6_6  and  C8_8 
ROOT
HETATM    1  C1  UNL     1     -33.773  18.013  -5.981  1.00 20.00     0.012 C 
HETATM    2  C2  UNL     1     -33.545  17.098  -5.240  1.00 20.00    -0.117 C 
HETATM    3  C7  UNL     1     -33.257  15.981  -4.333  1.00 20.00     0.103 C 
ENDROOT
BRANCH   3   4
HETATM    4  C6  UNL     1     -34.531  15.211  -3.987  1.00 20.00    -0.021 C 
HETATM    5  C4  UNL     1     -34.279  13.770  -3.453  1.00 20.00     0.011 C 
HETATM    6  C3  UNL     1     -34.446  13.256  -4.895  1.00 20.00     0.002 C 
HETATM    7  C5  UNL     1     -35.227  14.546  -5.212  1.00 20.00     0.011 C 
BRANCH   4   8
HETATM    8  C8  UNL     1     -35.467  16.041  -3.116  1.00 20.00     0.095 C 
HETATM    9 BR9  UNL     1     -34.580  16.473  -1.447  1.00 20.00    -0.096 Br
ENDBRANCH   4   8
ENDBRANCH   3   4
TORSDOF 2
ENDMDL
MODEL 5
REMARK VINA RESULT:      -4.0      2.046      2.916
REMARK  2 active torsions:
REMARK  status: ('A' for Active; 'I' for Inactive)
REMARK    1  A    between atoms: C6_6  and  C7_7 
REMARK    2  A    between atoms: C6_6  and  C8_8 
ROOT
HETATM    1  C1  UNL     1     -34.737  16.709  -0.757  1.00 20.00     0.012 C 
HETATM    2  C2  UNL     1     -34.203  16.362  -1.775  1.00 20.00    -0.117 C 
HETATM    3  C7  UNL     1     -33.544  15.936  -3.014  1.00 20.00     0.103 C 
ENDROOT
BRANCH   3   4
HETATM    4  C6  UNL     1     -34.423  16.224  -4.232  1.00 20.00    -0.021 C 
HETATM    5  C4  UNL     1     -33.637  16.333  -5.572  1.00 20.00     0.011 C 
HETATM    6  C3  UNL     1     -33.568  17.856  -5.354  1.00 20.00     0.002 C 
HETATM    7  C5  UNL     1     -34.784  17.727  -4.416  1.00 20.00     0.011 C 
BRANCH   4   8
HETATM    8  C8  UNL     1     -35.622  15.285  -4.290  1.00 20.00     0.095 C 
HETATM    9 BR9  UNL     1     -35.002  13.448  -4.323  1.00 20.00    -0.096 Br
ENDBRANCH   4   8
ENDBRANCH   3   4
TORSDOF 2
ENDMDL
MODEL 6
REMARK VINA RESULT:      -3.9      2.189      3.854
REMARK  2 active torsions:
REMARK  status: ('A' for Active; 'I' for Inactive)
REMARK    1  A    between atoms: C6_6  and  C7_7 
REMARK    2  A    between atoms: C6_6  and  C8_8 
ROOT
HETATM    1  C1  UNL     1     -35.603  14.436  -7.918  1.00 20.00     0.012 C 
HETATM    2  C2  UNL     1     -34.910  14.916  -7.063  1.00 20.00    -0.117 C 
HETATM    3  C7  UNL     1     -34.059  15.506  -6.025  1.00 20.00     0.103 C 
ENDROOT
BRANCH   3   4
HETATM    4  C6  UNL     1     -34.585  15.176  -4.628  1.00 20.00    -0.021 C 
HETATM    5  C4  UNL     1     -33.496  15.199  -3.515  1.00 20.00     0.011 C 
HETATM    6  C3  UNL     1     -33.315  13.684  -3.726  1.00 20.00     0.002 C 
HETATM    7  C5  UNL     1     -34.726  13.651  -4.344  1.00 20.00     0.011 C 
BRANCH   4   8
HETATM    8  C8  UNL     1     -35.831  15.988  -4.294  1.00 20.00     0.095 C 
HETATM    9 BR9  UNL     1     -37.324  14.787  -4.002  1.00 20.00    -0.096 Br
ENDBRANCH   4   8
ENDBRANCH   3   4
TORSDOF 2
ENDMDL
MODEL 7
REMARK VINA RESULT:      -3.9      1.687      2.527
REMARK  2 active torsions:
REMARK  status: ('A' for Active; 'I' for Inactive)
REMARK    1  A    between atoms: C6_6  and  C7_7 
REMARK    2  A    between atoms: C6_6  and  C8_8 
ROOT
HETATM    1  C1  UNL     1     -38.109  14.706  -4.089  1.00 20.00     0.012 C 
HETATM    2  C2  UNL     1     -37.007  14.967  -3.690  1.00 20.00    -0.117 C 
HETATM    3  C7  UNL     1     -35.665  15.287  -3.195  1.00 20.00     0.103 C 
ENDROOT
BRANCH   3   4
HETATM    4  C6  UNL     1     -34.614  15.094  -4.288  1.00 20.00    -0.021 C 
HETATM    5  C4  UNL     1     -34.344  13.605  -4.657  1.00 20.00     0.011 C 
HETATM    6  C3  UNL     1     -33.184  13.613  -3.645  1.00 20.00     0.002 C 
HETATM    7  C5  UNL     1     -33.144  15.148  -3.777  1.00 20.00     0.011 C 
BRANCH   4   8
HETATM    8  C8  UNL     1     -34.887  15.992  -5.490  1.00 20.00     0.095 C 
HETATM    9 BR9  UNL     1     -34.662  14.970  -7.122  1.00 20.00    -0.096 Br
ENDBRANCH   4   8
ENDBRANCH   3   4
TORSDOF 2
ENDMDL
MODEL 8
REMARK VINA RESULT:      -3.8     11.941     12.828
REMARK  2 active torsions:
REMARK  status: ('A' for Active; 'I' for Inactive)
REMARK    1  A    between atoms: C6_6  and  C7_7 
REMARK    2  A    between atoms: C6_6  and  C8_8 
ROOT
HETATM    1  C1  UNL     1     -32.064   7.812   2.447  1.00 20.00     0.012 C 
HETATM    2  C2  UNL     1     -32.486   6.786   2.906  1.00 20.00    -0.117 C 
HETATM    3  C7  UNL     1     -32.995   5.527   3.460  1.00 20.00     0.103 C 
ENDROOT
BRANCH   3   4
HETATM    4  C6  UNL     1     -34.100   5.785   4.485  1.00 20.00    -0.021 C 
HETATM    5  C4  UNL     1     -34.167   4.729   5.628  1.00 20.00     0.011 C 
HETATM    6  C3  UNL     1     -35.216   3.965   4.798  1.00 20.00     0.002 C 
HETATM    7  C5  UNL     1     -35.506   5.280   4.047  1.00 20.00     0.011 C 
BRANCH   4   8
HETATM    8  C8  UNL     1     -34.083   7.228   4.974  1.00 20.00     0.095 C 
HETATM    9 BR9  UNL     1     -33.501   7.276   6.823  1.00 20.00    -0.096 Br
ENDBRANCH   4   8
ENDBRANCH   3   4
TORSDOF 2
ENDMDL
MODEL 9
REMARK VINA RESULT:      -3.7      2.099      3.703
REMARK  2 active torsions:
REMARK  status: ('A' for Active; 'I' for Inactive)
REMARK    1  A    between atoms: C6_6  and  C7_7 
REMARK    2  A    between atoms: C6_6  and  C8_8 
ROOT
HETATM    1  C1  UNL     1     -34.410  16.668  -6.759  1.00 20.00     0.012 C 
HETATM    2  C2  UNL     1     -34.080  17.009  -5.656  1.00 20.00    -0.117 C 
HETATM    3  C7  UNL     1     -33.676  17.434  -4.312  1.00 20.00     0.103 C 
ENDROOT
BRANCH   3   4
HETATM    4  C6  UNL     1     -33.826  16.294  -3.305  1.00 20.00    -0.021 C 
HETATM    5  C4  UNL     1     -35.303  15.893  -3.013  1.00 20.00     0.011 C 
HETATM    6  C3  UNL     1     -35.276  16.854  -1.810  1.00 20.00     0.002 C 
HETATM    7  C5  UNL     1     -33.740  16.742  -1.816  1.00 20.00     0.011 C 
BRANCH   4   8
HETATM    8  C8  UNL     1     -32.921  15.118  -3.654  1.00 20.00     0.095 C 
HETATM    9 BR9  UNL     1     -34.007  13.556  -4.025  1.00 20.00    -0.096 Br
ENDBRANCH   4   8
ENDBRANCH   3   4
TORSDOF 2
ENDMDL
