MODEL 1
REMARK VINA RESULT:      -4.6      0.000      0.000
REMARK  0 active torsions:
REMARK  status: ('A' for Active; 'I' for Inactive)
ROOT
HETATM    1  C1  UNL     1     -34.235  14.585  -3.437  1.00 20.00     0.105 C 
HETATM    2  C2  UNL     1     -34.680  15.692  -2.814  1.00 20.00     0.056 C 
HETATM    3  C3  UNL     1     -35.189  13.771  -4.230  1.00 20.00     0.196 C 
HETATM    4  C4  UNL     1     -36.879  15.505  -3.514  1.00 20.00     0.035 C 
HETATM    5  C5  UNL     1     -36.576  14.320  -4.389  1.00 20.00     0.205 C 
HETATM    6  C6  UNL     1     -33.789  16.596  -1.996  1.00 20.00     0.072 C 
HETATM    7  C7  UNL     1     -38.303  16.003  -3.453  1.00 20.00     0.068 C 
HETATM    8  N8  UNL     1     -35.987  16.132  -2.814  1.00 20.00    -0.259 NA
HETATM    9  O9  UNL     1     -34.850  12.714  -4.761  1.00 20.00    -0.289 OA
HETATM   10 CL10 UNL     1     -32.606  14.026  -3.399  1.00 20.00    -0.078 Cl
HETATM   11 CL11 UNL     1     -36.746  14.827  -6.082  1.00 20.00    -0.110 Cl
ENDROOT
TORSDOF 0
ENDMDL
MODEL 2
REMARK VINA RESULT:      -4.4      2.870      3.419
REMARK  0 active torsions:
REMARK  status: ('A' for Active; 'I' for Inactive)
ROOT
HETATM    1  C1  UNL     1     -33.900  17.390  -3.324  1.00 20.00     0.105 C 
HETATM    2  C2  UNL     1     -34.281  16.373  -2.530  1.00 20.00     0.056 C 
HETATM    3  C3  UNL     1     -33.664  17.130  -4.766  1.00 20.00     0.196 C 
HETATM    4  C4  UNL     1     -34.299  14.756  -4.187  1.00 20.00     0.035 C 
HETATM    5  C5  UNL     1     -34.000  15.757  -5.269  1.00 20.00     0.205 C 
HETATM    6  C6  UNL     1     -34.561  16.535  -1.055  1.00 20.00     0.072 C 
HETATM    7  C7  UNL     1     -34.450  13.305  -4.578  1.00 20.00     0.068 C 
HETATM    8  N8  UNL     1     -34.444  15.065  -2.937  1.00 20.00    -0.259 NA
HETATM    9  O9  UNL     1     -33.248  18.008  -5.521  1.00 20.00    -0.289 OA
HETATM   10 CL10 UNL     1     -33.666  19.013  -2.795  1.00 20.00    -0.078 Cl
HETATM   11 CL11 UNL     1     -35.444  15.914  -6.290  1.00 20.00    -0.110 Cl
ENDROOT
TORSDOF 0
ENDMDL
MODEL 3
REMARK VINA RESULT:      -4.2      2.432      4.090
REMARK  0 active torsions:
REMARK  status: ('A' for Active; 'I' for Inactive)
ROOT
HETATM    1  C1  UNL     1     -36.466  15.101  -5.661  1.00 20.00     0.105 C 
HETATM    2  C2  UNL     1     -35.280  15.432  -6.205  1.00 20.00     0.056 C 
HETATM    3  C3  UNL     1     -36.502  14.598  -4.265  1.00 20.00     0.196 C 
HETATM    4  C4  UNL     1     -33.999  14.917  -4.347  1.00 20.00     0.035 C 
HETATM    5  C5  UNL     1     -35.209  14.618  -3.505  1.00 20.00     0.205 C 
HETATM    6  C6  UNL     1     -35.135  15.968  -7.610  1.00 20.00     0.072 C 
HETATM    7  C7  UNL     1     -32.635  14.764  -3.717  1.00 20.00     0.068 C 
HETATM    8  N8  UNL     1     -34.057  15.310  -5.580  1.00 20.00    -0.259 NA
HETATM    9  O9  UNL     1     -37.549  14.216  -3.744  1.00 20.00    -0.289 OA
HETATM   10 CL10 UNL     1     -37.983  15.225  -6.466  1.00 20.00    -0.078 Cl
HETATM   11 CL11 UNL     1     -35.350  15.886  -2.270  1.00 20.00    -0.110 Cl
ENDROOT
TORSDOF 0
ENDMDL
MODEL 4
REMARK VINA RESULT:      -4.2      1.620      3.607
REMARK  0 active torsions:
REMARK  status: ('A' for Active; 'I' for Inactive)
ROOT
HETATM    1  C1  UNL     1     -35.812  15.331  -5.293  1.00 20.00     0.105 C 
HETATM    2  C2  UNL     1     -36.528  15.232  -4.158  1.00 20.00     0.056 C 
HETATM    3  C3  UNL     1     -34.419  15.840  -5.224  1.00 20.00     0.196 C 
HETATM    4  C4  UNL     1     -34.871  16.022  -2.747  1.00 20.00     0.035 C 
HETATM    5  C5  UNL     1     -33.858  16.089  -3.856  1.00 20.00     0.205 C 
HETATM    6  C6  UNL     1     -37.946  14.713  -4.117  1.00 20.00     0.072 C 
HETATM    7  C7  UNL     1     -34.447  16.453  -1.364  1.00 20.00     0.068 C 
HETATM    8  N8  UNL     1     -36.088  15.605  -2.906  1.00 20.00    -0.259 NA
HETATM    9  O9  UNL     1     -33.745  16.015  -6.238  1.00 20.00    -0.289 OA
HETATM   10 CL10 UNL     1     -36.386  14.895  -6.857  1.00 20.00    -0.078 Cl
HETATM   11 CL11 UNL     1     -32.631  14.839  -3.559  1.00 20.00    -0.110 Cl
ENDROOT
TORSDOF 0
ENDMDL
MODEL 5
REMARK VINA RESULT:      -4.1      1.991      2.598
REMARK  0 active torsions:
REMARK  status: ('A' for Active; 'I' for Inactive)
ROOT
HETATM    1  C1  UNL     1     -34.952  14.358  -3.868  1.00 20.00     0.105 C 
HETATM    2  C2  UNL     1     -33.912  15.033  -3.347  1.00 20.00     0.056 C 
HETATM    3  C3  UNL     1     -36.332  14.803  -3.550  1.00 20.00     0.196 C 
HETATM    4  C4  UNL     1     -35.177  16.591  -2.193  1.00 20.00     0.035 C 
HETATM    5  C5  UNL     1     -36.468  16.073  -2.763  1.00 20.00     0.205 C 
HETATM    6  C6  UNL     1     -32.471  14.672  -3.620  1.00 20.00     0.072 C 
HETATM    7  C7  UNL     1     -35.237  17.747  -1.223  1.00 20.00     0.068 C 
HETATM    8  N8  UNL     1     -34.011  16.110  -2.491  1.00 20.00    -0.259 NA
HETATM    9  O9  UNL     1     -37.318  14.181  -3.943  1.00 20.00    -0.289 OA
HETATM   10 CL10 UNL     1     -34.814  12.992  -4.907  1.00 20.00    -0.078 Cl
HETATM   11 CL11 UNL     1     -37.116  17.304  -3.868  1.00 20.00    -0.110 Cl
ENDROOT
TORSDOF 0
ENDMDL
MODEL 6
REMARK VINA RESULT:      -4.1      2.733      3.688
REMARK  0 active torsions:
REMARK  status: ('A' for Active; 'I' for Inactive)
ROOT
HETATM    1  C1  UNL     1     -34.514  15.608  -5.023  1.00 20.00     0.105 C 
HETATM    2  C2  UNL     1     -34.186  14.842  -3.967  1.00 20.00     0.056 C 
HETATM    3  C3  UNL     1     -34.980  16.997  -4.788  1.00 20.00     0.196 C 
HETATM    4  C4  UNL     1     -34.638  16.436  -2.350  1.00 20.00     0.035 C 
HETATM    5  C5  UNL     1     -34.928  17.498  -3.375  1.00 20.00     0.205 C 
HETATM    6  C6  UNL     1     -33.687  13.422  -4.098  1.00 20.00     0.072 C 
HETATM    7  C7  UNL     1     -34.762  16.799  -0.890  1.00 20.00     0.068 C 
HETATM    8  N8  UNL     1     -34.280  15.226  -2.646  1.00 20.00    -0.259 NA
HETATM    9  O9  UNL     1     -35.359  17.716  -5.712  1.00 20.00    -0.289 OA
HETATM   10 CL10 UNL     1     -34.427  15.102  -6.667  1.00 20.00    -0.078 Cl
HETATM   11 CL11 UNL     1     -33.628  18.706  -3.298  1.00 20.00    -0.110 Cl
ENDROOT
TORSDOF 0
ENDMDL
MODEL 7
REMARK VINA RESULT:      -4.0      2.898      3.675
REMARK  0 active torsions:
REMARK  status: ('A' for Active; 'I' for Inactive)
ROOT
HETATM    1  C1  UNL     1     -33.966  17.334  -3.540  1.00 20.00     0.105 C 
HETATM    2  C2  UNL     1     -33.934  17.477  -4.878  1.00 20.00     0.056 C 
HETATM    3  C3  UNL     1     -34.368  16.026  -2.965  1.00 20.00     0.196 C 
HETATM    4  C4  UNL     1     -34.609  15.320  -5.377  1.00 20.00     0.035 C 
HETATM    5  C5  UNL     1     -34.588  14.901  -3.933  1.00 20.00     0.205 C 
HETATM    6  C6  UNL     1     -33.525  18.760  -5.563  1.00 20.00     0.072 C 
HETATM    7  C7  UNL     1     -35.021  14.299  -6.411  1.00 20.00     0.068 C 
HETATM    8  N8  UNL     1     -34.285  16.504  -5.790  1.00 20.00    -0.259 NA
HETATM    9  O9  UNL     1     -34.481  15.862  -1.751  1.00 20.00    -0.289 OA
HETATM   10 CL10 UNL     1     -33.559  18.570  -2.412  1.00 20.00    -0.078 Cl
HETATM   11 CL11 UNL     1     -33.250  13.754  -3.711  1.00 20.00    -0.110 Cl
ENDROOT
TORSDOF 0
ENDMDL
MODEL 8
REMARK VINA RESULT:      -4.0      2.693      3.300
REMARK  0 active torsions:
REMARK  status: ('A' for Active; 'I' for Inactive)
ROOT
HETATM    1  C1  UNL     1     -34.980  15.512  -3.716  1.00 20.00     0.105 C 
HETATM    2  C2  UNL     1     -34.355  14.519  -4.375  1.00 20.00     0.056 C 
HETATM    3  C3  UNL     1     -35.984  16.333  -4.436  1.00 20.00     0.196 C 
HETATM    4  C4  UNL     1     -35.426  14.848  -6.400  1.00 20.00     0.035 C 
HETATM    5  C5  UNL     1     -36.330  15.909  -5.833  1.00 20.00     0.205 C 
HETATM    6  C6  UNL     1     -33.329  13.616  -3.731  1.00 20.00     0.072 C 
HETATM    7  C7  UNL     1     -35.566  14.498  -7.862  1.00 20.00     0.068 C 
HETATM    8  N8  UNL     1     -34.539  14.209  -5.706  1.00 20.00    -0.259 NA
HETATM    9  O9  UNL     1     -36.534  17.296  -3.902  1.00 20.00    -0.289 OA
HETATM   10 CL10 UNL     1     -34.714  15.912  -2.062  1.00 20.00    -0.078 Cl
HETATM   11 CL11 UNL     1     -37.982  15.258  -5.786  1.00 20.00    -0.110 Cl
ENDROOT
TORSDOF 0
ENDMDL
MODEL 9
REMARK VINA RESULT:      -4.0      2.280      2.919
REMARK  0 active torsions:
REMARK  status: ('A' for Active; 'I' for Inactive)
ROOT
HETATM    1  C1  UNL     1     -34.345  15.854  -5.726  1.00 20.00     0.105 C 
HETATM    2  C2  UNL     1     -34.045  16.976  -5.044  1.00 20.00     0.056 C 
HETATM    3  C3  UNL     1     -34.863  14.678  -4.984  1.00 20.00     0.196 C 
HETATM    4  C4  UNL     1     -34.625  16.163  -2.956  1.00 20.00     0.035 C 
HETATM    5  C5  UNL     1     -35.142  14.870  -3.522  1.00 20.00     0.205 C 
HETATM    6  C6  UNL     1     -33.527  18.231  -5.706  1.00 20.00     0.072 C 
HETATM    7  C7  UNL     1     -34.679  16.360  -1.460  1.00 20.00     0.068 C 
HETATM    8  N8  UNL     1     -34.143  17.125  -3.677  1.00 20.00    -0.259 NA
HETATM    9  O9  UNL     1     -35.087  13.607  -5.547  1.00 20.00    -0.289 OA
HETATM   10 CL10 UNL     1     -34.184  15.669  -7.430  1.00 20.00    -0.078 Cl
HETATM   11 CL11 UNL     1     -36.907  14.846  -3.321  1.00 20.00    -0.110 Cl
ENDROOT
TORSDOF 0
ENDMDL
