MODEL 1
REMARK VINA RESULT:      -3.4      0.000      0.000
REMARK  1 active torsions:
REMARK  status: ('A' for Active; 'I' for Inactive)
REMARK    1  A    between atoms: C1_1  and  S3_3 
ROOT
HETATM    1  C1  UNL     1     -34.732   5.116   5.553  1.00 20.00     0.295 C 
HETATM    2  O2  UNL     1     -35.101   4.061   6.057  1.00 20.00    -0.266 OA
HETATM    3 CL4  UNL     1     -34.061   6.469   6.416  1.00 20.00    -0.031 Cl
ENDROOT
BRANCH   1   4
HETATM    4  S3  UNL     1     -34.843   5.411   3.809  1.00 20.00     0.036 SA
HETATM    5 CL5  UNL     1     -32.987   6.146   3.423  1.00 20.00    -0.034 Cl
ENDBRANCH   1   4
TORSDOF 1
ENDMDL
MODEL 2
REMARK VINA RESULT:      -3.3      1.779      1.779
REMARK  1 active torsions:
REMARK  status: ('A' for Active; 'I' for Inactive)
REMARK    1  A    between atoms: C1_1  and  S3_3 
ROOT
HETATM    1  C1  UNL     1     -34.328   5.674   5.512  1.00 20.00     0.295 C 
HETATM    2  O2  UNL     1     -33.957   6.556   6.279  1.00 20.00    -0.266 OA
HETATM    3 CL4  UNL     1     -35.009   4.144   5.982  1.00 20.00    -0.031 Cl
ENDROOT
BRANCH   1   4
HETATM    4  S3  UNL     1     -34.212   5.853   3.752  1.00 20.00     0.036 SA
HETATM    5 CL5  UNL     1     -32.338   6.622   3.565  1.00 20.00    -0.034 Cl
ENDBRANCH   1   4
TORSDOF 1
ENDMDL
MODEL 3
REMARK VINA RESULT:      -3.3      2.432      2.656
REMARK  1 active torsions:
REMARK  status: ('A' for Active; 'I' for Inactive)
REMARK    1  A    between atoms: C1_1  and  S3_3 
ROOT
HETATM    1  C1  UNL     1     -33.745   6.279   4.693  1.00 20.00     0.295 C 
HETATM    2  O2  UNL     1     -32.913   6.678   3.886  1.00 20.00    -0.266 OA
HETATM    3 CL4  UNL     1     -33.827   6.735   6.370  1.00 20.00    -0.031 Cl
ENDROOT
BRANCH   1   4
HETATM    4  S3  UNL     1     -35.023   5.138   4.236  1.00 20.00     0.036 SA
HETATM    5 CL5  UNL     1     -35.129   3.988   5.910  1.00 20.00    -0.034 Cl
ENDBRANCH   1   4
TORSDOF 1
ENDMDL
MODEL 4
REMARK VINA RESULT:      -3.2      2.726      3.296
REMARK  1 active torsions:
REMARK  status: ('A' for Active; 'I' for Inactive)
REMARK    1  A    between atoms: C1_1  and  S3_3 
ROOT
HETATM    1  C1  UNL     1     -33.620   6.189   4.296  1.00 20.00     0.295 C 
HETATM    2  O2  UNL     1     -32.594   6.723   3.890  1.00 20.00    -0.266 OA
HETATM    3 CL4  UNL     1     -34.779   5.345   3.310  1.00 20.00    -0.031 Cl
ENDROOT
BRANCH   1   4
HETATM    4  S3  UNL     1     -34.074   6.209   6.009  1.00 20.00     0.036 SA
HETATM    5 CL5  UNL     1     -35.098   4.459   6.158  1.00 20.00    -0.034 Cl
ENDBRANCH   1   4
TORSDOF 1
ENDMDL
MODEL 5
REMARK VINA RESULT:      -3.2      2.244      2.999
REMARK  1 active torsions:
REMARK  status: ('A' for Active; 'I' for Inactive)
REMARK    1  A    between atoms: C1_1  and  S3_3 
ROOT
HETATM    1  C1  UNL     1     -33.844   5.921   3.937  1.00 20.00     0.295 C 
HETATM    2  O2  UNL     1     -34.629   5.352   3.187  1.00 20.00    -0.266 OA
HETATM    3 CL4  UNL     1     -32.348   6.668   3.458  1.00 20.00    -0.031 Cl
ENDROOT
BRANCH   1   4
HETATM    4  S3  UNL     1     -34.145   6.059   5.679  1.00 20.00     0.036 SA
HETATM    5 CL5  UNL     1     -35.024   4.266   6.062  1.00 20.00    -0.034 Cl
ENDBRANCH   1   4
TORSDOF 1
ENDMDL
MODEL 6
REMARK VINA RESULT:      -3.2      2.186      2.533
REMARK  1 active torsions:
REMARK  status: ('A' for Active; 'I' for Inactive)
REMARK    1  A    between atoms: C1_1  and  S3_3 
ROOT
HETATM    1  C1  UNL     1     -35.032   5.226   4.409  1.00 20.00     0.295 C 
HETATM    2  O2  UNL     1     -35.926   5.453   3.601  1.00 20.00    -0.266 OA
HETATM    3 CL4  UNL     1     -34.975   3.874   5.502  1.00 20.00    -0.031 Cl
ENDROOT
BRANCH   1   4
HETATM    4  S3  UNL     1     -33.626   6.294   4.576  1.00 20.00     0.036 SA
HETATM    5 CL5  UNL     1     -33.781   6.833   6.531  1.00 20.00    -0.034 Cl
ENDBRANCH   1   4
TORSDOF 1
ENDMDL
MODEL 7
REMARK VINA RESULT:      -3.1      2.059      2.813
REMARK  1 active torsions:
REMARK  status: ('A' for Active; 'I' for Inactive)
REMARK    1  A    between atoms: C1_1  and  S3_3 
ROOT
HETATM    1  C1  UNL     1     -33.694   6.251   4.578  1.00 20.00     0.295 C 
HETATM    2  O2  UNL     1     -33.608   6.710   5.711  1.00 20.00    -0.266 OA
HETATM    3 CL4  UNL     1     -32.598   6.580   3.267  1.00 20.00    -0.031 Cl
ENDROOT
BRANCH   1   4
HETATM    4  S3  UNL     1     -35.002   5.150   4.109  1.00 20.00     0.036 SA
HETATM    5 CL5  UNL     1     -35.078   3.928   5.733  1.00 20.00    -0.034 Cl
ENDBRANCH   1   4
TORSDOF 1
ENDMDL
MODEL 8
REMARK VINA RESULT:      -3.1      2.064      2.064
REMARK  1 active torsions:
REMARK  status: ('A' for Active; 'I' for Inactive)
REMARK    1  A    between atoms: C1_1  and  S3_3 
ROOT
HETATM    1  C1  UNL     1     -34.919   5.267   4.482  1.00 20.00     0.295 C 
HETATM    2  O2  UNL     1     -35.725   5.437   3.575  1.00 20.00    -0.266 OA
HETATM    3 CL4  UNL     1     -34.932   3.946   5.614  1.00 20.00    -0.031 Cl
ENDROOT
BRANCH   1   4
HETATM    4  S3  UNL     1     -33.581   6.394   4.770  1.00 20.00     0.036 SA
HETATM    5 CL5  UNL     1     -32.462   6.101   3.097  1.00 20.00    -0.034 Cl
ENDBRANCH   1   4
TORSDOF 1
ENDMDL
MODEL 9
REMARK VINA RESULT:      -2.9     12.348     12.479
REMARK  1 active torsions:
REMARK  status: ('A' for Active; 'I' for Inactive)
REMARK    1  A    between atoms: C1_1  and  S3_3 
ROOT
HETATM    1  C1  UNL     1     -34.648  13.633  -3.964  1.00 20.00     0.295 C 
HETATM    2  O2  UNL     1     -35.075  12.585  -4.436  1.00 20.00    -0.266 OA
HETATM    3 CL4  UNL     1     -32.977  13.992  -3.642  1.00 20.00    -0.031 Cl
ENDROOT
BRANCH   1   4
HETATM    4  S3  UNL     1     -35.726  14.972  -3.528  1.00 20.00     0.036 SA
HETATM    5 CL5  UNL     1     -34.638  15.884  -2.071  1.00 20.00    -0.034 Cl
ENDBRANCH   1   4
TORSDOF 1
ENDMDL
