MODEL 1
REMARK VINA RESULT:      -5.1      0.000      0.000
REMARK  2 active torsions:
REMARK  status: ('A' for Active; 'I' for Inactive)
REMARK    1  A    between atoms: C1_1  and  C2_2 
REMARK    2  A    between atoms: C1_1  and  C3_3 
ROOT
HETATM    1  C1  UNL     1     -35.075   4.449   4.682  1.00 20.00     0.168 C 
ENDROOT
BRANCH   1   2
HETATM    2  C2  UNL     1     -34.987   5.569   3.663  1.00 20.00     0.360 C 
HETATM    3  F4  UNL     1     -34.266   5.141   2.595  1.00 20.00    -0.214 F 
HETATM    4  F5  UNL     1     -36.225   5.869   3.197  1.00 20.00    -0.214 F 
ENDBRANCH   1   2
BRANCH   1   5
HETATM    5  C3  UNL     1     -34.691   4.857   6.097  1.00 20.00     0.325 C 
HETATM    6  F6  UNL     1     -35.767   4.750   6.915  1.00 20.00    -0.188 F 
HETATM    7  F7  UNL     1     -33.763   3.980   6.565  1.00 20.00    -0.188 F 
HETATM    8 CL8  UNL     1     -34.032   6.498   6.188  1.00 20.00    -0.048 Cl
ENDBRANCH   1   5
TORSDOF 2
ENDMDL
MODEL 2
REMARK VINA RESULT:      -5.0      1.848      3.365
REMARK  2 active torsions:
REMARK  status: ('A' for Active; 'I' for Inactive)
REMARK    1  A    between atoms: C1_1  and  C2_2 
REMARK    2  A    between atoms: C1_1  and  C3_3 
ROOT
HETATM    1  C1  UNL     1     -34.147   6.322   4.748  1.00 20.00     0.168 C 
ENDROOT
BRANCH   1   2
HETATM    2  C2  UNL     1     -33.899   6.039   6.217  1.00 20.00     0.360 C 
HETATM    3  F4  UNL     1     -33.299   7.119   6.781  1.00 20.00    -0.214 F 
HETATM    4  F5  UNL     1     -35.081   5.875   6.862  1.00 20.00    -0.214 F 
ENDBRANCH   1   2
BRANCH   1   5
HETATM    5  C3  UNL     1     -34.899   5.220   4.016  1.00 20.00     0.325 C 
HETATM    6  F6  UNL     1     -36.166   5.627   3.751  1.00 20.00    -0.188 F 
HETATM    7  F7  UNL     1     -34.303   5.010   2.813  1.00 20.00    -0.188 F 
HETATM    8 CL8  UNL     1     -34.938   3.695   4.915  1.00 20.00    -0.048 Cl
ENDBRANCH   1   5
TORSDOF 2
ENDMDL
MODEL 3
REMARK VINA RESULT:      -5.0      1.880      2.434
REMARK  2 active torsions:
REMARK  status: ('A' for Active; 'I' for Inactive)
REMARK    1  A    between atoms: C1_1  and  C2_2 
REMARK    2  A    between atoms: C1_1  and  C3_3 
ROOT
HETATM    1  C1  UNL     1     -34.087   5.393   3.240  1.00 20.00     0.168 C 
ENDROOT
BRANCH   1   2
HETATM    2  C2  UNL     1     -32.947   6.312   3.636  1.00 20.00     0.360 C 
HETATM    3  F4  UNL     1     -31.768   5.726   3.302  1.00 20.00    -0.214 F 
HETATM    4  F5  UNL     1     -33.017   7.467   2.927  1.00 20.00    -0.214 F 
ENDBRANCH   1   2
BRANCH   1   5
HETATM    5  C3  UNL     1     -35.021   5.025   4.383  1.00 20.00     0.325 C 
HETATM    6  F6  UNL     1     -36.286   5.419   4.087  1.00 20.00    -0.188 F 
HETATM    7  F7  UNL     1     -35.057   3.671   4.498  1.00 20.00    -0.188 F 
HETATM    8 CL8  UNL     1     -34.525   5.723   5.933  1.00 20.00    -0.048 Cl
ENDBRANCH   1   5
TORSDOF 2
ENDMDL
MODEL 4
REMARK VINA RESULT:      -4.8      1.779      3.334
REMARK  2 active torsions:
REMARK  status: ('A' for Active; 'I' for Inactive)
REMARK    1  A    between atoms: C1_1  and  C2_2 
REMARK    2  A    between atoms: C1_1  and  C3_3 
ROOT
HETATM    1  C1  UNL     1     -33.987   5.558   5.178  1.00 20.00     0.168 C 
ENDROOT
BRANCH   1   2
HETATM    2  C2  UNL     1     -35.155   4.620   5.415  1.00 20.00     0.360 C 
HETATM    3  F4  UNL     1     -34.731   3.339   5.270  1.00 20.00    -0.214 F 
HETATM    4  F5  UNL     1     -35.591   4.739   6.694  1.00 20.00    -0.214 F 
ENDBRANCH   1   2
BRANCH   1   5
HETATM    5  C3  UNL     1     -33.850   6.039   3.741  1.00 20.00     0.325 C 
HETATM    6  F6  UNL     1     -34.564   5.233   2.916  1.00 20.00    -0.188 F 
HETATM    7  F7  UNL     1     -34.403   7.277   3.642  1.00 20.00    -0.188 F 
HETATM    8 CL8  UNL     1     -32.168   6.113   3.194  1.00 20.00    -0.048 Cl
ENDBRANCH   1   5
TORSDOF 2
ENDMDL
MODEL 5
REMARK VINA RESULT:      -4.7      2.137      3.537
REMARK  2 active torsions:
REMARK  status: ('A' for Active; 'I' for Inactive)
REMARK    1  A    between atoms: C1_1  and  C2_2 
REMARK    2  A    between atoms: C1_1  and  C3_3 
ROOT
HETATM    1  C1  UNL     1     -33.741   6.341   4.456  1.00 20.00     0.168 C 
ENDROOT
BRANCH   1   2
HETATM    2  C2  UNL     1     -34.704   5.195   4.700  1.00 20.00     0.360 C 
HETATM    3  F4  UNL     1     -35.067   5.191   6.008  1.00 20.00    -0.214 F 
HETATM    4  F5  UNL     1     -35.841   5.387   3.985  1.00 20.00    -0.214 F 
ENDBRANCH   1   2
BRANCH   1   5
HETATM    5  C3  UNL     1     -32.900   6.196   3.197  1.00 20.00     0.325 C 
HETATM    6  F6  UNL     1     -31.773   5.493   3.475  1.00 20.00    -0.188 F 
HETATM    7  F7  UNL     1     -33.597   5.463   2.289  1.00 20.00    -0.188 F 
HETATM    8 CL8  UNL     1     -32.468   7.753   2.472  1.00 20.00    -0.048 Cl
ENDBRANCH   1   5
TORSDOF 2
ENDMDL
MODEL 6
REMARK VINA RESULT:      -4.7      2.148      3.325
REMARK  2 active torsions:
REMARK  status: ('A' for Active; 'I' for Inactive)
REMARK    1  A    between atoms: C1_1  and  C2_2 
REMARK    2  A    between atoms: C1_1  and  C3_3 
ROOT
HETATM    1  C1  UNL     1     -34.624   5.298   4.359  1.00 20.00     0.168 C 
ENDROOT
BRANCH   1   2
HETATM    2  C2  UNL     1     -34.516   4.633   5.718  1.00 20.00     0.360 C 
HETATM    3  F4  UNL     1     -35.209   5.366   6.626  1.00 20.00    -0.214 F 
HETATM    4  F5  UNL     1     -35.102   3.410   5.682  1.00 20.00    -0.214 F 
ENDBRANCH   1   2
BRANCH   1   5
HETATM    5  C3  UNL     1     -33.618   6.416   4.127  1.00 20.00     0.325 C 
HETATM    6  F6  UNL     1     -34.244   7.492   3.586  1.00 20.00    -0.188 F 
HETATM    7  F7  UNL     1     -33.130   6.820   5.329  1.00 20.00    -0.188 F 
HETATM    8 CL8  UNL     1     -32.269   5.928   3.089  1.00 20.00    -0.048 Cl
ENDBRANCH   1   5
TORSDOF 2
ENDMDL
MODEL 7
REMARK VINA RESULT:      -4.6      2.230      3.609
REMARK  2 active torsions:
REMARK  status: ('A' for Active; 'I' for Inactive)
REMARK    1  A    between atoms: C1_1  and  C2_2 
REMARK    2  A    between atoms: C1_1  and  C3_3 
ROOT
HETATM    1  C1  UNL     1     -33.513   6.316   5.107  1.00 20.00     0.168 C 
ENDROOT
BRANCH   1   2
HETATM    2  C2  UNL     1     -34.577   5.353   5.596  1.00 20.00     0.360 C 
HETATM    3  F4  UNL     1     -34.016   4.132   5.790  1.00 20.00    -0.214 F 
HETATM    4  F5  UNL     1     -35.047   5.756   6.803  1.00 20.00    -0.214 F 
ENDBRANCH   1   2
BRANCH   1   5
HETATM    5  C3  UNL     1     -33.226   6.229   3.616  1.00 20.00     0.325 C 
HETATM    6  F6  UNL     1     -33.198   7.476   3.080  1.00 20.00    -0.188 F 
HETATM    7  F7  UNL     1     -31.983   5.707   3.440  1.00 20.00    -0.188 F 
HETATM    8 CL8  UNL     1     -34.400   5.231   2.743  1.00 20.00    -0.048 Cl
ENDBRANCH   1   5
TORSDOF 2
ENDMDL
MODEL 8
REMARK VINA RESULT:      -4.6      2.156      2.679
REMARK  2 active torsions:
REMARK  status: ('A' for Active; 'I' for Inactive)
REMARK    1  A    between atoms: C1_1  and  C2_2 
REMARK    2  A    between atoms: C1_1  and  C3_3 
ROOT
HETATM    1  C1  UNL     1     -33.380   6.359   4.969  1.00 20.00     0.168 C 
ENDROOT
BRANCH   1   2
HETATM    2  C2  UNL     1     -33.043   6.251   3.494  1.00 20.00     0.360 C 
HETATM    3  F4  UNL     1     -33.002   7.497   2.956  1.00 20.00    -0.214 F 
HETATM    4  F5  UNL     1     -31.803   5.725   3.341  1.00 20.00    -0.214 F 
ENDBRANCH   1   2
BRANCH   1   5
HETATM    5  C3  UNL     1     -34.431   5.367   5.446  1.00 20.00     0.325 C 
HETATM    6  F6  UNL     1     -33.837   4.195   5.783  1.00 20.00    -0.188 F 
HETATM    7  F7  UNL     1     -35.002   5.850   6.581  1.00 20.00    -0.188 F 
HETATM    8 CL8  UNL     1     -35.698   5.071   4.245  1.00 20.00    -0.048 Cl
ENDBRANCH   1   5
TORSDOF 2
ENDMDL
MODEL 9
REMARK VINA RESULT:      -4.6      1.343      3.038
REMARK  2 active torsions:
REMARK  status: ('A' for Active; 'I' for Inactive)
REMARK    1  A    between atoms: C1_1  and  C2_2 
REMARK    2  A    between atoms: C1_1  and  C3_3 
ROOT
HETATM    1  C1  UNL     1     -35.047   5.044   4.411  1.00 20.00     0.168 C 
ENDROOT
BRANCH   1   2
HETATM    2  C2  UNL     1     -35.052   4.026   5.535  1.00 20.00     0.360 C 
HETATM    3  F4  UNL     1     -33.772   3.762   5.900  1.00 20.00    -0.214 F 
HETATM    4  F5  UNL     1     -35.665   4.547   6.627  1.00 20.00    -0.214 F 
ENDBRANCH   1   2
BRANCH   1   5
HETATM    5  C3  UNL     1     -34.003   6.140   4.563  1.00 20.00     0.325 C 
HETATM    6  F6  UNL     1     -32.806   5.705   4.095  1.00 20.00    -0.188 F 
HETATM    7  F7  UNL     1     -34.361   7.194   3.783  1.00 20.00    -0.188 F 
HETATM    8 CL8  UNL     1     -33.823   6.695   6.235  1.00 20.00    -0.048 Cl
ENDBRANCH   1   5
TORSDOF 2
ENDMDL
