MODEL 1
REMARK VINA RESULT:      -5.2      0.000      0.000
REMARK  2 active torsions:
REMARK  status: ('A' for Active; 'I' for Inactive)
REMARK    1  A    between atoms: C3_3  and  C4_4 
REMARK    2  A    between atoms: C5_5  and  C9_9 
ROOT
HETATM    1  C1  UNL     1     -34.791  17.172  -0.088  1.00 20.00    -0.024 C 
HETATM    2  C2  UNL     1     -34.138  18.347  -0.084  1.00 20.00    -0.087 C 
HETATM    3  C6  UNL     1     -34.768  16.210  -1.239  1.00 20.00     0.036 C 
HETATM    4  C7  UNL     1     -33.342  18.819  -1.274  1.00 20.00     0.034 C 
HETATM    5  C8  UNL     1     -33.617  18.022  -2.553  1.00 20.00     0.013 C 
HETATM    6  C9  UNL     1     -33.669  16.516  -2.270  1.00 20.00     0.018 C 
HETATM    7  C10 UNL     1     -34.156  19.261   1.105  1.00 20.00     0.043 C 
ENDROOT
BRANCH   6   8
HETATM    8  C5  UNL     1     -33.884  15.734  -3.530  1.00 20.00    -0.076 C 
HETATM    9  C3  UNL     1     -34.368  14.483  -3.625  1.00 20.00     0.044 C 
HETATM   10  C11 UNL     1     -33.497  16.480  -4.783  1.00 20.00     0.044 C 
BRANCH   9  11
HETATM   11  C4  UNL     1     -34.569  13.736  -4.884  1.00 20.00     0.259 C 
HETATM   12  O12 UNL     1     -34.721  12.519  -4.892  1.00 20.00    -0.302 OA
ENDBRANCH   9  11
ENDBRANCH   6   8
TORSDOF 2
ENDMDL
MODEL 2
REMARK VINA RESULT:      -4.9     11.104     12.235
REMARK  2 active torsions:
REMARK  status: ('A' for Active; 'I' for Inactive)
REMARK    1  A    between atoms: C3_3  and  C4_4 
REMARK    2  A    between atoms: C5_5  and  C9_9 
ROOT
HETATM    1  C1  UNL     1     -34.869   4.841   4.167  1.00 20.00    -0.024 C 
HETATM    2  C2  UNL     1     -34.829   4.887   5.509  1.00 20.00    -0.087 C 
HETATM    3  C6  UNL     1     -34.000   5.683   3.278  1.00 20.00     0.036 C 
HETATM    4  C7  UNL     1     -33.916   5.832   6.247  1.00 20.00     0.034 C 
HETATM    5  C8  UNL     1     -33.313   6.924   5.357  1.00 20.00     0.013 C 
HETATM    6  C9  UNL     1     -32.830   6.349   4.021  1.00 20.00     0.018 C 
HETATM    7  C10 UNL     1     -35.689   3.999   6.359  1.00 20.00     0.043 C 
ENDROOT
BRANCH   6   8
HETATM    8  C5  UNL     1     -32.190   7.406   3.173  1.00 20.00    -0.076 C 
HETATM    9  C3  UNL     1     -32.578   7.794   1.946  1.00 20.00     0.044 C 
HETATM   10  C11 UNL     1     -30.995   8.062   3.818  1.00 20.00     0.044 C 
BRANCH   9  11
HETATM   11  C4  UNL     1     -31.926   8.842   1.134  1.00 20.00     0.259 C 
HETATM   12  O12 UNL     1     -32.288  10.013   1.184  1.00 20.00    -0.302 OA
ENDBRANCH   9  11
ENDBRANCH   6   8
TORSDOF 2
ENDMDL
MODEL 3
REMARK VINA RESULT:      -4.8      2.692      5.388
REMARK  2 active torsions:
REMARK  status: ('A' for Active; 'I' for Inactive)
REMARK    1  A    between atoms: C3_3  and  C4_4 
REMARK    2  A    between atoms: C5_5  and  C9_9 
ROOT
HETATM    1  C1  UNL     1     -33.824  16.647  -4.911  1.00 20.00    -0.024 C 
HETATM    2  C2  UNL     1     -34.333  15.408  -5.019  1.00 20.00    -0.087 C 
HETATM    3  C6  UNL     1     -33.677  17.376  -3.607  1.00 20.00     0.036 C 
HETATM    4  C7  UNL     1     -34.842  14.648  -3.821  1.00 20.00     0.034 C 
HETATM    5  C8  UNL     1     -35.026  15.518  -2.574  1.00 20.00     0.013 C 
HETATM    6  C9  UNL     1     -33.838  16.467  -2.377  1.00 20.00     0.018 C 
HETATM    7  C10 UNL     1     -34.426  14.702  -6.339  1.00 20.00     0.043 C 
ENDROOT
BRANCH   6   8
HETATM    8  C5  UNL     1     -33.991  17.279  -1.127  1.00 20.00    -0.076 C 
HETATM    9  C3  UNL     1     -34.798  17.004  -0.087  1.00 20.00     0.044 C 
HETATM   10  C11 UNL     1     -33.128  18.515  -1.094  1.00 20.00     0.044 C 
BRANCH   9  11
HETATM   11  C4  UNL     1     -34.928  17.825   1.135  1.00 20.00     0.259 C 
HETATM   12  O12 UNL     1     -35.545  17.424   2.117  1.00 20.00    -0.302 OA
ENDBRANCH   9  11
ENDBRANCH   6   8
TORSDOF 2
ENDMDL
MODEL 4
REMARK VINA RESULT:      -4.7      2.874      5.607
REMARK  2 active torsions:
REMARK  status: ('A' for Active; 'I' for Inactive)
REMARK    1  A    between atoms: C3_3  and  C4_4 
REMARK    2  A    between atoms: C5_5  and  C9_9 
ROOT
HETATM    1  C1  UNL     1     -33.924  16.459  -4.885  1.00 20.00    -0.024 C 
HETATM    2  C2  UNL     1     -34.474  15.232  -4.867  1.00 20.00    -0.087 C 
HETATM    3  C6  UNL     1     -33.651  17.267  -3.651  1.00 20.00     0.036 C 
HETATM    4  C7  UNL     1     -34.902  14.570  -3.582  1.00 20.00     0.034 C 
HETATM    5  C8  UNL     1     -34.960  15.527  -2.387  1.00 20.00     0.013 C 
HETATM    6  C9  UNL     1     -33.734  16.448  -2.352  1.00 20.00     0.018 C 
HETATM    7  C10 UNL     1     -34.693  14.443  -6.123  1.00 20.00     0.043 C 
ENDROOT
BRANCH   6   8
HETATM    8  C5  UNL     1     -33.763  17.346  -1.152  1.00 20.00    -0.076 C 
HETATM    9  C3  UNL     1     -32.955  18.394  -0.916  1.00 20.00     0.044 C 
HETATM   10  C11 UNL     1     -34.827  16.984  -0.147  1.00 20.00     0.044 C 
BRANCH   9  11
HETATM   11  C4  UNL     1     -33.008  19.263   0.278  1.00 20.00     0.259 C 
HETATM   12  O12 UNL     1     -32.294  19.058   1.254  1.00 20.00    -0.302 OA
ENDBRANCH   9  11
ENDBRANCH   6   8
TORSDOF 2
ENDMDL
MODEL 5
REMARK VINA RESULT:      -4.7      1.342      1.683
REMARK  2 active torsions:
REMARK  status: ('A' for Active; 'I' for Inactive)
REMARK    1  A    between atoms: C3_3  and  C4_4 
REMARK    2  A    between atoms: C5_5  and  C9_9 
ROOT
HETATM    1  C1  UNL     1     -34.709  16.681  -0.834  1.00 20.00    -0.024 C 
HETATM    2  C2  UNL     1     -34.165  17.909  -0.898  1.00 20.00    -0.087 C 
HETATM    3  C6  UNL     1     -34.688  15.700  -1.969  1.00 20.00     0.036 C 
HETATM    4  C7  UNL     1     -33.508  18.423  -2.153  1.00 20.00     0.034 C 
HETATM    5  C8  UNL     1     -33.807  17.578  -3.395  1.00 20.00     0.013 C 
HETATM    6  C9  UNL     1     -33.702  16.080  -3.087  1.00 20.00     0.018 C 
HETATM    7  C10 UNL     1     -34.176  18.844   0.274  1.00 20.00     0.043 C 
ENDROOT
BRANCH   6   8
HETATM    8  C5  UNL     1     -33.940  15.254  -4.315  1.00 20.00    -0.076 C 
HETATM    9  C3  UNL     1     -34.245  15.712  -5.541  1.00 20.00     0.044 C 
HETATM   10  C11 UNL     1     -33.811  13.770  -4.084  1.00 20.00     0.044 C 
BRANCH   9  11
HETATM   11  C4  UNL     1     -34.474  14.871  -6.735  1.00 20.00     0.259 C 
HETATM   12  O12 UNL     1     -35.596  14.481  -7.041  1.00 20.00    -0.302 OA
ENDBRANCH   9  11
ENDBRANCH   6   8
TORSDOF 2
ENDMDL
MODEL 6
REMARK VINA RESULT:      -4.7      1.362      1.735
REMARK  2 active torsions:
REMARK  status: ('A' for Active; 'I' for Inactive)
REMARK    1  A    between atoms: C3_3  and  C4_4 
REMARK    2  A    between atoms: C5_5  and  C9_9 
ROOT
HETATM    1  C1  UNL     1     -36.545  18.238  -1.425  1.00 20.00    -0.024 C 
HETATM    2  C2  UNL     1     -35.900  18.294  -0.247  1.00 20.00    -0.087 C 
HETATM    3  C6  UNL     1     -36.208  17.260  -2.513  1.00 20.00     0.036 C 
HETATM    4  C7  UNL     1     -34.740  17.386   0.070  1.00 20.00     0.034 C 
HETATM    5  C8  UNL     1     -34.176  16.658  -1.155  1.00 20.00     0.013 C 
HETATM    6  C9  UNL     1     -35.299  16.112  -2.043  1.00 20.00     0.018 C 
HETATM    7  C10 UNL     1     -36.296  19.262   0.828  1.00 20.00     0.043 C 
ENDROOT
BRANCH   6   8
HETATM    8  C5  UNL     1     -34.748  15.353  -3.212  1.00 20.00    -0.076 C 
HETATM    9  C3  UNL     1     -35.409  14.467  -3.976  1.00 20.00     0.044 C 
HETATM   10  C11 UNL     1     -33.300  15.657  -3.506  1.00 20.00     0.044 C 
BRANCH   9  11
HETATM   11  C4  UNL     1     -34.837  13.733  -5.125  1.00 20.00     0.259 C 
HETATM   12  O12 UNL     1     -34.699  12.514  -5.104  1.00 20.00    -0.302 OA
ENDBRANCH   9  11
ENDBRANCH   6   8
TORSDOF 2
ENDMDL
MODEL 7
REMARK VINA RESULT:      -4.6      1.429      1.629
REMARK  2 active torsions:
REMARK  status: ('A' for Active; 'I' for Inactive)
REMARK    1  A    between atoms: C3_3  and  C4_4 
REMARK    2  A    between atoms: C5_5  and  C9_9 
ROOT
HETATM    1  C1  UNL     1     -34.953  17.507  -0.117  1.00 20.00    -0.024 C 
HETATM    2  C2  UNL     1     -36.017  18.269  -0.422  1.00 20.00    -0.087 C 
HETATM    3  C6  UNL     1     -34.260  16.611  -1.101  1.00 20.00     0.036 C 
HETATM    4  C7  UNL     1     -36.635  18.258  -1.797  1.00 20.00     0.034 C 
HETATM    5  C8  UNL     1     -36.164  17.094  -2.674  1.00 20.00     0.013 C 
HETATM    6  C9  UNL     1     -34.649  16.891  -2.562  1.00 20.00     0.018 C 
HETATM    7  C10 UNL     1     -36.655  19.180   0.584  1.00 20.00     0.043 C 
ENDROOT
BRANCH   6   8
HETATM    8  C5  UNL     1     -34.180  15.788  -3.462  1.00 20.00    -0.076 C 
HETATM    9  C3  UNL     1     -34.542  14.495  -3.401  1.00 20.00     0.044 C 
HETATM   10  C11 UNL     1     -33.207  16.240  -4.522  1.00 20.00     0.044 C 
BRANCH   9  11
HETATM   11  C4  UNL     1     -34.062  13.429  -4.305  1.00 20.00     0.259 C 
HETATM   12  O12 UNL     1     -34.834  12.626  -4.819  1.00 20.00    -0.302 OA
ENDBRANCH   9  11
ENDBRANCH   6   8
TORSDOF 2
ENDMDL
MODEL 8
REMARK VINA RESULT:      -4.6      1.257      2.309
REMARK  2 active torsions:
REMARK  status: ('A' for Active; 'I' for Inactive)
REMARK    1  A    between atoms: C3_3  and  C4_4 
REMARK    2  A    between atoms: C5_5  and  C9_9 
ROOT
HETATM    1  C1  UNL     1     -32.902  18.781   0.874  1.00 20.00    -0.024 C 
HETATM    2  C2  UNL     1     -33.955  18.471   1.650  1.00 20.00    -0.087 C 
HETATM    3  C6  UNL     1     -32.781  18.376  -0.566  1.00 20.00     0.036 C 
HETATM    4  C7  UNL     1     -35.107  17.646   1.137  1.00 20.00     0.034 C 
HETATM    5  C8  UNL     1     -34.815  16.940  -0.191  1.00 20.00     0.013 C 
HETATM    6  C9  UNL     1     -34.103  17.877  -1.173  1.00 20.00     0.018 C 
HETATM    7  C10 UNL     1     -34.053  18.930   3.075  1.00 20.00     0.043 C 
ENDROOT
BRANCH   6   8
HETATM    8  C5  UNL     1     -33.866  17.204  -2.491  1.00 20.00    -0.076 C 
HETATM    9  C3  UNL     1     -33.706  15.886  -2.701  1.00 20.00     0.044 C 
HETATM   10  C11 UNL     1     -33.811  18.156  -3.660  1.00 20.00     0.044 C 
BRANCH   9  11
HETATM   11  C4  UNL     1     -33.475  15.251  -4.015  1.00 20.00     0.259 C 
HETATM   12  O12 UNL     1     -33.607  14.042  -4.177  1.00 20.00    -0.302 OA
ENDBRANCH   9  11
ENDBRANCH   6   8
TORSDOF 2
ENDMDL
MODEL 9
REMARK VINA RESULT:      -4.6     13.117     15.285
REMARK  2 active torsions:
REMARK  status: ('A' for Active; 'I' for Inactive)
REMARK    1  A    between atoms: C3_3  and  C4_4 
REMARK    2  A    between atoms: C5_5  and  C9_9 
ROOT
HETATM    1  C1  UNL     1     -42.426   6.126  -2.560  1.00 20.00    -0.024 C 
HETATM    2  C2  UNL     1     -41.560   6.374  -1.562  1.00 20.00    -0.087 C 
HETATM    3  C6  UNL     1     -42.759   4.747  -3.050  1.00 20.00     0.036 C 
HETATM    4  C7  UNL     1     -40.811   5.268  -0.864  1.00 20.00     0.034 C 
HETATM    5  C8  UNL     1     -40.875   3.924  -1.596  1.00 20.00     0.013 C 
HETATM    6  C9  UNL     1     -42.293   3.631  -2.099  1.00 20.00     0.018 C 
HETATM    7  C10 UNL     1     -41.286   7.767  -1.079  1.00 20.00     0.043 C 
ENDROOT
BRANCH   6   8
HETATM    8  C5  UNL     1     -42.368   2.292  -2.767  1.00 20.00    -0.076 C 
HETATM    9  C3  UNL     1     -43.247   1.311  -2.499  1.00 20.00     0.044 C 
HETATM   10  C11 UNL     1     -41.324   2.086  -3.836  1.00 20.00     0.044 C 
BRANCH   9  11
HETATM   11  C4  UNL     1     -43.296  -0.002  -3.177  1.00 20.00     0.259 C 
HETATM   12  O12 UNL     1     -42.828  -1.011  -2.658  1.00 20.00    -0.302 OA
ENDBRANCH   9  11
ENDBRANCH   6   8
TORSDOF 2
ENDMDL
