MODEL 1
REMARK VINA RESULT:      -2.7      0.000      0.000
REMARK  0 active torsions:
REMARK  status: ('A' for Active; 'I' for Inactive)
ROOT
HETATM    1  C1  UNL     1     -34.386   5.592   4.675  1.00 20.00     0.227 C 
HETATM    2 CL2  UNL     1     -35.892   5.898   3.788  1.00 20.00    -0.076 Cl
HETATM    3 CL3  UNL     1     -34.259   6.684   6.068  1.00 20.00    -0.076 Cl
HETATM    4 BR4  UNL     1     -34.402   3.751   5.322  1.00 20.00    -0.037 Br
HETATM    5 BR5  UNL     1     -32.877   5.916   3.483  1.00 20.00    -0.037 Br
ENDROOT
TORSDOF 0
ENDMDL
MODEL 2
REMARK VINA RESULT:      -2.7      0.001      2.748
REMARK  0 active torsions:
REMARK  status: ('A' for Active; 'I' for Inactive)
ROOT
HETATM    1  C1  UNL     1     -34.385   5.591   4.676  1.00 20.00     0.227 C 
HETATM    2 CL2  UNL     1     -34.258   6.684   6.068  1.00 20.00    -0.076 Cl
HETATM    3 CL3  UNL     1     -35.890   5.899   3.788  1.00 20.00    -0.076 Cl
HETATM    4 BR4  UNL     1     -32.876   5.917   3.483  1.00 20.00    -0.037 Br
HETATM    5 BR5  UNL     1     -34.401   3.751   5.322  1.00 20.00    -0.037 Br
ENDROOT
TORSDOF 0
ENDMDL
MODEL 3
REMARK VINA RESULT:      -2.7      1.827      2.444
REMARK  0 active torsions:
REMARK  status: ('A' for Active; 'I' for Inactive)
ROOT
HETATM    1  C1  UNL     1     -34.453   5.359   4.580  1.00 20.00     0.227 C 
HETATM    2 CL2  UNL     1     -35.977   5.843   3.812  1.00 20.00    -0.076 Cl
HETATM    3 CL3  UNL     1     -34.488   3.631   4.983  1.00 20.00    -0.076 Cl
HETATM    4 BR4  UNL     1     -32.991   5.681   3.329  1.00 20.00    -0.037 Br
HETATM    5 BR5  UNL     1     -34.225   6.383   6.225  1.00 20.00    -0.037 Br
ENDROOT
TORSDOF 0
ENDMDL
MODEL 4
REMARK VINA RESULT:      -2.7      1.826      2.236
REMARK  0 active torsions:
REMARK  status: ('A' for Active; 'I' for Inactive)
ROOT
HETATM    1  C1  UNL     1     -34.477   5.352   4.556  1.00 20.00     0.227 C 
HETATM    2 CL2  UNL     1     -34.538   3.620   4.938  1.00 20.00    -0.076 Cl
HETATM    3 CL3  UNL     1     -35.991   5.865   3.787  1.00 20.00    -0.076 Cl
HETATM    4 BR4  UNL     1     -34.247   6.353   6.214  1.00 20.00    -0.037 Br
HETATM    5 BR5  UNL     1     -33.004   5.671   3.318  1.00 20.00    -0.037 Br
ENDROOT
TORSDOF 0
ENDMDL
MODEL 5
REMARK VINA RESULT:      -2.6     12.342     12.867
REMARK  0 active torsions:
REMARK  status: ('A' for Active; 'I' for Inactive)
ROOT
HETATM    1  C1  UNL     1     -33.910  15.034  -3.797  1.00 20.00     0.227 C 
HETATM    2 CL2  UNL     1     -34.612  15.747  -2.332  1.00 20.00    -0.076 Cl
HETATM    3 CL3  UNL     1     -32.254  14.480  -3.480  1.00 20.00    -0.076 Cl
HETATM    4 BR4  UNL     1     -34.992  13.500  -4.329  1.00 20.00    -0.037 Br
HETATM    5 BR5  UNL     1     -33.860  16.393  -5.196  1.00 20.00    -0.037 Br
ENDROOT
TORSDOF 0
ENDMDL
MODEL 6
REMARK VINA RESULT:      -2.6     12.340     13.018
REMARK  0 active torsions:
REMARK  status: ('A' for Active; 'I' for Inactive)
ROOT
HETATM    1  C1  UNL     1     -33.911  15.034  -3.795  1.00 20.00     0.227 C 
HETATM    2 CL2  UNL     1     -32.254  14.483  -3.484  1.00 20.00    -0.076 Cl
HETATM    3 CL3  UNL     1     -34.609  15.744  -2.327  1.00 20.00    -0.076 Cl
HETATM    4 BR4  UNL     1     -33.868  16.397  -5.190  1.00 20.00    -0.037 Br
HETATM    5 BR5  UNL     1     -34.994  13.501  -4.328  1.00 20.00    -0.037 Br
ENDROOT
TORSDOF 0
ENDMDL
MODEL 7
REMARK VINA RESULT:      -2.6     12.425     12.983
REMARK  0 active torsions:
REMARK  status: ('A' for Active; 'I' for Inactive)
ROOT
HETATM    1  C1  UNL     1     -33.947  15.052  -3.886  1.00 20.00     0.227 C 
HETATM    2 CL2  UNL     1     -33.954  16.149  -5.280  1.00 20.00    -0.076 Cl
HETATM    3 CL3  UNL     1     -32.290  14.539  -3.515  1.00 20.00    -0.076 Cl
HETATM    4 BR4  UNL     1     -34.672  15.997  -2.341  1.00 20.00    -0.037 Br
HETATM    5 BR5  UNL     1     -35.009  13.475  -4.322  1.00 20.00    -0.037 Br
ENDROOT
TORSDOF 0
ENDMDL
MODEL 8
REMARK VINA RESULT:      -2.6     12.425     13.032
REMARK  0 active torsions:
REMARK  status: ('A' for Active; 'I' for Inactive)
ROOT
HETATM    1  C1  UNL     1     -33.950  15.052  -3.888  1.00 20.00     0.227 C 
HETATM    2 CL2  UNL     1     -32.293  14.539  -3.515  1.00 20.00    -0.076 Cl
HETATM    3 CL3  UNL     1     -33.957  16.146  -5.284  1.00 20.00    -0.076 Cl
HETATM    4 BR4  UNL     1     -35.012  13.473  -4.324  1.00 20.00    -0.037 Br
HETATM    5 BR5  UNL     1     -34.678  15.997  -2.345  1.00 20.00    -0.037 Br
ENDROOT
TORSDOF 0
ENDMDL
MODEL 9
REMARK VINA RESULT:      -2.6      9.328      9.764
REMARK  0 active torsions:
REMARK  status: ('A' for Active; 'I' for Inactive)
ROOT
HETATM    1  C1  UNL     1     -41.779   5.640  -1.023  1.00 20.00     0.227 C 
HETATM    2 CL2  UNL     1     -40.539   4.378  -1.150  1.00 20.00    -0.076 Cl
HETATM    3 CL3  UNL     1     -41.019   7.233  -0.844  1.00 20.00    -0.076 Cl
HETATM    4 BR4  UNL     1     -42.848   5.637  -2.655  1.00 20.00    -0.037 Br
HETATM    5 BR5  UNL     1     -42.876   5.287   0.550  1.00 20.00    -0.037 Br
ENDROOT
TORSDOF 0
ENDMDL
