MODEL 1
REMARK VINA RESULT:      -4.9      0.000      0.000
REMARK  0 active torsions:
REMARK  status: ('A' for Active; 'I' for Inactive)
ROOT
HETATM    1  C1  UNL     1     -34.466  15.924  -3.195  1.00 20.00    -0.071 C 
HETATM    2  C2  UNL     1     -34.649  15.921  -1.870  1.00 20.00    -0.027 C 
HETATM    3  C3  UNL     1     -35.313  17.524  -4.874  1.00 20.00     0.009 C 
HETATM    4  C4  UNL     1     -35.361  16.406  -5.931  1.00 20.00     0.006 C 
HETATM    5  C5  UNL     1     -33.173  16.499  -5.060  1.00 20.00     0.014 C 
HETATM    6  C6  UNL     1     -34.092  17.140  -4.022  1.00 20.00     0.015 C 
HETATM    7  C7  UNL     1     -34.220  15.459  -5.489  1.00 20.00    -0.002 C 
HETATM    8  C8  UNL     1     -34.545  14.731  -4.142  1.00 20.00    -0.021 C 
HETATM    9  C9  UNL     1     -34.509  17.128  -1.006  1.00 20.00     0.036 C 
HETATM   10  C10 UNL     1     -35.925  14.056  -4.131  1.00 20.00     0.020 C 
HETATM   11  C11 UNL     1     -33.478  13.669  -3.820  1.00 20.00     0.020 C 
ENDROOT
TORSDOF 0
ENDMDL
MODEL 2
REMARK VINA RESULT:      -4.8      1.311      3.173
REMARK  0 active torsions:
REMARK  status: ('A' for Active; 'I' for Inactive)
ROOT
HETATM    1  C1  UNL     1     -34.481  16.230  -4.875  1.00 20.00    -0.071 C 
HETATM    2  C2  UNL     1     -34.398  17.275  -5.706  1.00 20.00    -0.027 C 
HETATM    3  C3  UNL     1     -32.666  15.009  -3.731  1.00 20.00     0.009 C 
HETATM    4  C4  UNL     1     -33.497  13.714  -3.773  1.00 20.00     0.006 C 
HETATM    5  C5  UNL     1     -34.787  15.379  -2.715  1.00 20.00     0.014 C 
HETATM    6  C6  UNL     1     -33.737  16.099  -3.560  1.00 20.00     0.015 C 
HETATM    7  C7  UNL     1     -34.953  14.232  -3.725  1.00 20.00    -0.002 C 
HETATM    8  C8  UNL     1     -35.354  14.990  -5.035  1.00 20.00    -0.021 C 
HETATM    9  C9  UNL     1     -33.549  18.476  -5.453  1.00 20.00     0.036 C 
HETATM   10  C10 UNL     1     -35.038  14.203  -6.316  1.00 20.00     0.020 C 
HETATM   11  C11 UNL     1     -36.854  15.338  -5.032  1.00 20.00     0.020 C 
ENDROOT
TORSDOF 0
ENDMDL
MODEL 3
REMARK VINA RESULT:      -4.8      1.130      2.274
REMARK  0 active torsions:
REMARK  status: ('A' for Active; 'I' for Inactive)
ROOT
HETATM    1  C1  UNL     1     -35.196  15.788  -3.061  1.00 20.00    -0.071 C 
HETATM    2  C2  UNL     1     -35.472  16.500  -1.963  1.00 20.00    -0.027 C 
HETATM    3  C3  UNL     1     -33.152  15.799  -4.445  1.00 20.00     0.009 C 
HETATM    4  C4  UNL     1     -33.983  15.455  -5.694  1.00 20.00     0.006 C 
HETATM    5  C5  UNL     1     -34.411  13.818  -4.054  1.00 20.00     0.014 C 
HETATM    6  C6  UNL     1     -33.894  15.055  -3.323  1.00 20.00     0.015 C 
HETATM    7  C7  UNL     1     -35.162  14.639  -5.115  1.00 20.00    -0.002 C 
HETATM    8  C8  UNL     1     -36.120  15.521  -4.245  1.00 20.00    -0.021 C 
HETATM    9  C9  UNL     1     -34.525  16.677  -0.824  1.00 20.00     0.036 C 
HETATM   10  C10 UNL     1     -36.570  16.810  -4.949  1.00 20.00     0.020 C 
HETATM   11  C11 UNL     1     -37.372  14.727  -3.830  1.00 20.00     0.020 C 
ENDROOT
TORSDOF 0
ENDMDL
MODEL 4
REMARK VINA RESULT:      -4.8      1.233      2.923
REMARK  0 active torsions:
REMARK  status: ('A' for Active; 'I' for Inactive)
ROOT
HETATM    1  C1  UNL     1     -34.251  16.020  -4.853  1.00 20.00    -0.071 C 
HETATM    2  C2  UNL     1     -33.647  17.191  -5.085  1.00 20.00    -0.027 C 
HETATM    3  C3  UNL     1     -36.623  15.410  -5.162  1.00 20.00     0.009 C 
HETATM    4  C4  UNL     1     -36.526  14.405  -3.999  1.00 20.00     0.006 C 
HETATM    5  C5  UNL     1     -34.852  13.874  -5.571  1.00 20.00     0.014 C 
HETATM    6  C6  UNL     1     -35.224  15.338  -5.796  1.00 20.00     0.015 C 
HETATM    7  C7  UNL     1     -35.047  13.957  -4.048  1.00 20.00    -0.002 C 
HETATM    8  C8  UNL     1     -34.067  15.109  -3.644  1.00 20.00    -0.021 C 
HETATM    9  C9  UNL     1     -33.848  18.003  -6.320  1.00 20.00     0.036 C 
HETATM   10  C10 UNL     1     -34.444  15.795  -2.322  1.00 20.00     0.020 C 
HETATM   11  C11 UNL     1     -32.622  14.588  -3.530  1.00 20.00     0.020 C 
ENDROOT
TORSDOF 0
ENDMDL
MODEL 5
REMARK VINA RESULT:      -4.7      1.281      3.359
REMARK  0 active torsions:
REMARK  status: ('A' for Active; 'I' for Inactive)
ROOT
HETATM    1  C1  UNL     1     -36.000  15.332  -3.920  1.00 20.00    -0.071 C 
HETATM    2  C2  UNL     1     -37.268  15.530  -3.544  1.00 20.00    -0.027 C 
HETATM    3  C3  UNL     1     -34.770  13.207  -4.174  1.00 20.00     0.009 C 
HETATM    4  C4  UNL     1     -33.454  13.911  -3.796  1.00 20.00     0.006 C 
HETATM    5  C5  UNL     1     -34.408  15.065  -5.616  1.00 20.00     0.014 C 
HETATM    6  C6  UNL     1     -35.540  14.300  -4.933  1.00 20.00     0.015 C 
HETATM    7  C7  UNL     1     -33.677  15.358  -4.296  1.00 20.00    -0.002 C 
HETATM    8  C8  UNL     1     -34.769  16.109  -3.464  1.00 20.00    -0.021 C 
HETATM    9  C9  UNL     1     -38.426  14.753  -4.074  1.00 20.00     0.036 C 
HETATM   10  C10 UNL     1     -34.544  16.025  -1.946  1.00 20.00     0.020 C 
HETATM   11  C11 UNL     1     -34.843  17.593  -3.867  1.00 20.00     0.020 C 
ENDROOT
TORSDOF 0
ENDMDL
MODEL 6
REMARK VINA RESULT:      -4.7      0.966      2.875
REMARK  0 active torsions:
REMARK  status: ('A' for Active; 'I' for Inactive)
ROOT
HETATM    1  C1  UNL     1     -34.778  16.158  -3.340  1.00 20.00    -0.071 C 
HETATM    2  C2  UNL     1     -34.381  16.967  -2.351  1.00 20.00    -0.027 C 
HETATM    3  C3  UNL     1     -34.394  13.734  -3.610  1.00 20.00     0.009 C 
HETATM    4  C4  UNL     1     -34.399  13.894  -5.142  1.00 20.00     0.006 C 
HETATM    5  C5  UNL     1     -36.413  14.787  -4.304  1.00 20.00     0.014 C 
HETATM    6  C6  UNL     1     -35.411  14.792  -3.151  1.00 20.00     0.015 C 
HETATM    7  C7  UNL     1     -35.343  15.098  -5.364  1.00 20.00    -0.002 C 
HETATM    8  C8  UNL     1     -34.726  16.438  -4.839  1.00 20.00    -0.021 C 
HETATM    9  C9  UNL     1     -34.508  16.635  -0.902  1.00 20.00     0.036 C 
HETATM   10  C10 UNL     1     -33.299  16.691  -5.346  1.00 20.00     0.020 C 
HETATM   11  C11 UNL     1     -35.606  17.639  -5.230  1.00 20.00     0.020 C 
ENDROOT
TORSDOF 0
ENDMDL
MODEL 7
REMARK VINA RESULT:      -4.7      1.034      3.235
REMARK  0 active torsions:
REMARK  status: ('A' for Active; 'I' for Inactive)
ROOT
HETATM    1  C1  UNL     1     -34.496  15.690  -4.902  1.00 20.00    -0.071 C 
HETATM    2  C2  UNL     1     -34.209  15.592  -6.205  1.00 20.00    -0.027 C 
HETATM    3  C3  UNL     1     -33.978  17.525  -3.334  1.00 20.00     0.009 C 
HETATM    4  C4  UNL     1     -33.884  16.520  -2.172  1.00 20.00     0.006 C 
HETATM    5  C5  UNL     1     -35.992  16.265  -3.195  1.00 20.00     0.014 C 
HETATM    6  C6  UNL     1     -35.074  16.919  -4.226  1.00 20.00     0.015 C 
HETATM    7  C7  UNL     1     -34.868  15.404  -2.596  1.00 20.00    -0.002 C 
HETATM    8  C8  UNL     1     -34.354  14.605  -3.840  1.00 20.00    -0.021 C 
HETATM    9  C9  UNL     1     -34.420  16.691  -7.191  1.00 20.00     0.036 C 
HETATM   10  C10 UNL     1     -32.909  14.107  -3.690  1.00 20.00     0.020 C 
HETATM   11  C11 UNL     1     -35.262  13.395  -4.129  1.00 20.00     0.020 C 
ENDROOT
TORSDOF 0
ENDMDL
MODEL 8
REMARK VINA RESULT:      -4.7      1.174      2.820
REMARK  0 active torsions:
REMARK  status: ('A' for Active; 'I' for Inactive)
ROOT
HETATM    1  C1  UNL     1     -34.331  16.540  -4.118  1.00 20.00    -0.071 C 
HETATM    2  C2  UNL     1     -34.397  17.853  -4.369  1.00 20.00    -0.027 C 
HETATM    3  C3  UNL     1     -34.374  14.652  -5.707  1.00 20.00     0.009 C 
HETATM    4  C4  UNL     1     -35.053  13.763  -4.649  1.00 20.00     0.006 C 
HETATM    5  C5  UNL     1     -33.059  14.615  -3.725  1.00 20.00     0.014 C 
HETATM    6  C6  UNL     1     -33.456  15.551  -4.864  1.00 20.00     0.015 C 
HETATM    7  C7  UNL     1     -34.514  14.335  -3.317  1.00 20.00    -0.002 C 
HETATM    8  C8  UNL     1     -35.065  15.771  -3.025  1.00 20.00    -0.021 C 
HETATM    9  C9  UNL     1     -33.608  18.539  -5.433  1.00 20.00     0.036 C 
HETATM   10  C10 UNL     1     -36.592  15.875  -3.150  1.00 20.00     0.020 C 
HETATM   11  C11 UNL     1     -34.656  16.241  -1.616  1.00 20.00     0.020 C 
ENDROOT
TORSDOF 0
ENDMDL
MODEL 9
REMARK VINA RESULT:      -4.6      1.122      2.031
REMARK  0 active torsions:
REMARK  status: ('A' for Active; 'I' for Inactive)
ROOT
HETATM    1  C1  UNL     1     -34.899  16.051  -2.801  1.00 20.00    -0.071 C 
HETATM    2  C2  UNL     1     -34.329  16.259  -1.608  1.00 20.00    -0.027 C 
HETATM    3  C3  UNL     1     -37.208  15.346  -3.315  1.00 20.00     0.009 C 
HETATM    4  C4  UNL     1     -36.718  14.635  -4.589  1.00 20.00     0.006 C 
HETATM    5  C5  UNL     1     -36.014  16.882  -4.685  1.00 20.00     0.014 C 
HETATM    6  C6  UNL     1     -36.268  16.558  -3.214  1.00 20.00     0.015 C 
HETATM    7  C7  UNL     1     -35.487  15.474  -5.005  1.00 20.00    -0.002 C 
HETATM    8  C8  UNL     1     -34.299  15.319  -3.997  1.00 20.00    -0.021 C 
HETATM    9  C9  UNL     1     -34.968  17.028  -0.501  1.00 20.00     0.036 C 
HETATM   10  C10 UNL     1     -33.952  13.856  -3.683  1.00 20.00     0.020 C 
HETATM   11  C11 UNL     1     -33.035  16.020  -4.525  1.00 20.00     0.020 C 
ENDROOT
TORSDOF 0
ENDMDL
