MODEL 1
REMARK VINA RESULT:      -4.3      0.000      0.000
REMARK  1 active torsions:
REMARK  status: ('A' for Active; 'I' for Inactive)
REMARK    1  A    between atoms: C1_1  and  C2_2 
ROOT
HETATM    1  C1  UNL     1     -35.202   4.986   4.763  1.00 20.00     0.314 C 
HETATM    2  F3  UNL     1     -35.194   3.658   4.471  1.00 20.00    -0.228 F 
HETATM    3 CL5  UNL     1     -34.069   5.815   3.673  1.00 20.00    -0.085 Cl
ENDROOT
BRANCH   1   4
HETATM    4  C2  UNL     1     -34.797   5.186   6.210  1.00 20.00     0.314 C 
HETATM    5  F4  UNL     1     -33.985   4.165   6.596  1.00 20.00    -0.228 F 
HETATM    6 CL6  UNL     1     -33.916   6.716   6.410  1.00 20.00    -0.085 Cl
ENDBRANCH   1   4
TORSDOF 1
ENDMDL
MODEL 2
REMARK VINA RESULT:      -4.2      2.027      2.477
REMARK  1 active torsions:
REMARK  status: ('A' for Active; 'I' for Inactive)
REMARK    1  A    between atoms: C1_1  and  C2_2 
ROOT
HETATM    1  C1  UNL     1     -34.855   5.093   4.296  1.00 20.00     0.314 C 
HETATM    2  F3  UNL     1     -36.085   5.417   3.815  1.00 20.00    -0.228 F 
HETATM    3 CL5  UNL     1     -35.043   4.408   5.925  1.00 20.00    -0.085 Cl
ENDROOT
BRANCH   1   4
HETATM    4  C2  UNL     1     -33.986   6.335   4.333  1.00 20.00     0.314 C 
HETATM    5  F4  UNL     1     -33.598   6.575   5.615  1.00 20.00    -0.228 F 
HETATM    6 CL6  UNL     1     -32.533   6.115   3.334  1.00 20.00    -0.085 Cl
ENDBRANCH   1   4
TORSDOF 1
ENDMDL
MODEL 3
REMARK VINA RESULT:      -4.2      1.123      2.542
REMARK  1 active torsions:
REMARK  status: ('A' for Active; 'I' for Inactive)
REMARK    1  A    between atoms: C1_1  and  C2_2 
ROOT
HETATM    1  C1  UNL     1     -34.489   4.856   5.765  1.00 20.00     0.314 C 
HETATM    2  F3  UNL     1     -35.588   4.390   6.417  1.00 20.00    -0.228 F 
HETATM    3 CL5  UNL     1     -34.094   6.469   6.398  1.00 20.00    -0.085 Cl
ENDROOT
BRANCH   1   4
HETATM    4  C2  UNL     1     -34.775   4.920   4.277  1.00 20.00     0.314 C 
HETATM    5  F4  UNL     1     -36.051   5.347   4.081  1.00 20.00    -0.228 F 
HETATM    6 CL6  UNL     1     -33.668   6.054   3.473  1.00 20.00    -0.085 Cl
ENDBRANCH   1   4
TORSDOF 1
ENDMDL
MODEL 4
REMARK VINA RESULT:      -4.2      2.193      2.377
REMARK  1 active torsions:
REMARK  status: ('A' for Active; 'I' for Inactive)
REMARK    1  A    between atoms: C1_1  and  C2_2 
ROOT
HETATM    1  C1  UNL     1     -34.850   4.906   4.459  1.00 20.00     0.314 C 
HETATM    2  F3  UNL     1     -36.032   5.377   3.979  1.00 20.00    -0.228 F 
HETATM    3 CL5  UNL     1     -35.156   4.060   5.992  1.00 20.00    -0.085 Cl
ENDROOT
BRANCH   1   4
HETATM    4  C2  UNL     1     -33.894   6.064   4.668  1.00 20.00     0.314 C 
HETATM    5  F4  UNL     1     -34.247   7.093   3.851  1.00 20.00    -0.228 F 
HETATM    6 CL6  UNL     1     -33.955   6.633   6.351  1.00 20.00    -0.085 Cl
ENDBRANCH   1   4
TORSDOF 1
ENDMDL
MODEL 5
REMARK VINA RESULT:      -4.2      2.016      2.016
REMARK  1 active torsions:
REMARK  status: ('A' for Active; 'I' for Inactive)
REMARK    1  A    between atoms: C1_1  and  C2_2 
ROOT
HETATM    1  C1  UNL     1     -34.118   6.142   4.160  1.00 20.00     0.314 C 
HETATM    2  F3  UNL     1     -34.796   5.181   3.478  1.00 20.00    -0.228 F 
HETATM    3 CL5  UNL     1     -32.511   6.334   3.426  1.00 20.00    -0.085 Cl
ENDROOT
BRANCH   1   4
HETATM    4  C2  UNL     1     -33.996   5.736   5.616  1.00 20.00     0.314 C 
HETATM    5  F4  UNL     1     -34.286   6.804   6.408  1.00 20.00    -0.228 F 
HETATM    6 CL6  UNL     1     -35.132   4.424   5.998  1.00 20.00    -0.085 Cl
ENDBRANCH   1   4
TORSDOF 1
ENDMDL
MODEL 6
REMARK VINA RESULT:      -4.0      2.230      3.044
REMARK  1 active torsions:
REMARK  status: ('A' for Active; 'I' for Inactive)
REMARK    1  A    between atoms: C1_1  and  C2_2 
ROOT
HETATM    1  C1  UNL     1     -34.014   6.444   4.520  1.00 20.00     0.314 C 
HETATM    2  F3  UNL     1     -32.739   6.236   4.092  1.00 20.00    -0.228 F 
HETATM    3 CL5  UNL     1     -34.044   6.331   6.293  1.00 20.00    -0.085 Cl
ENDROOT
BRANCH   1   4
HETATM    4  C2  UNL     1     -34.928   5.404   3.901  1.00 20.00     0.314 C 
HETATM    5  F4  UNL     1     -34.396   4.979   2.723  1.00 20.00    -0.228 F 
HETATM    6 CL6  UNL     1     -35.105   4.003   4.979  1.00 20.00    -0.085 Cl
ENDBRANCH   1   4
TORSDOF 1
ENDMDL
MODEL 7
REMARK VINA RESULT:      -4.0      1.674      2.250
REMARK  1 active torsions:
REMARK  status: ('A' for Active; 'I' for Inactive)
REMARK    1  A    between atoms: C1_1  and  C2_2 
ROOT
HETATM    1  C1  UNL     1     -34.761   5.170   6.136  1.00 20.00     0.314 C 
HETATM    2  F3  UNL     1     -33.856   4.430   6.830  1.00 20.00    -0.228 F 
HETATM    3 CL5  UNL     1     -35.232   4.271   4.677  1.00 20.00    -0.085 Cl
ENDROOT
BRANCH   1   4
HETATM    4  C2  UNL     1     -34.143   6.504   5.767  1.00 20.00     0.314 C 
HETATM    5  F4  UNL     1     -33.281   6.888   6.746  1.00 20.00    -0.228 F 
HETATM    6 CL6  UNL     1     -33.244   6.379   4.239  1.00 20.00    -0.085 Cl
ENDBRANCH   1   4
TORSDOF 1
ENDMDL
MODEL 8
REMARK VINA RESULT:      -3.9      2.058      3.017
REMARK  1 active torsions:
REMARK  status: ('A' for Active; 'I' for Inactive)
REMARK    1  A    between atoms: C1_1  and  C2_2 
ROOT
HETATM    1  C1  UNL     1     -34.504   5.839   5.284  1.00 20.00     0.314 C 
HETATM    2  F3  UNL     1     -33.652   6.515   6.100  1.00 20.00    -0.228 F 
HETATM    3 CL5  UNL     1     -35.014   4.348   6.105  1.00 20.00    -0.085 Cl
ENDROOT
BRANCH   1   4
HETATM    4  C2  UNL     1     -33.803   5.519   3.979  1.00 20.00     0.314 C 
HETATM    5  F4  UNL     1     -34.727   5.393   2.989  1.00 20.00    -0.228 F 
HETATM    6 CL6  UNL     1     -32.675   6.819   3.537  1.00 20.00    -0.085 Cl
ENDBRANCH   1   4
TORSDOF 1
ENDMDL
MODEL 9
REMARK VINA RESULT:      -3.8      2.536      3.142
REMARK  1 active torsions:
REMARK  status: ('A' for Active; 'I' for Inactive)
REMARK    1  A    between atoms: C1_1  and  C2_2 
ROOT
HETATM    1  C1  UNL     1     -33.185   6.100   4.194  1.00 20.00     0.314 C 
HETATM    2  F3  UNL     1     -33.375   6.769   5.363  1.00 20.00    -0.228 F 
HETATM    3 CL5  UNL     1     -32.419   7.199   3.027  1.00 20.00    -0.085 Cl
ENDROOT
BRANCH   1   4
HETATM    4  C2  UNL     1     -34.522   5.611   3.671  1.00 20.00     0.314 C 
HETATM    5  F4  UNL     1     -34.350   5.055   2.442  1.00 20.00    -0.228 F 
HETATM    6 CL6  UNL     1     -35.208   4.381   4.756  1.00 20.00    -0.085 Cl
ENDBRANCH   1   4
TORSDOF 1
ENDMDL
