MODEL 1
REMARK VINA RESULT:      -5.2      0.000      0.000
REMARK  2 active torsions:
REMARK  status: ('A' for Active; 'I' for Inactive)
REMARK    1  A    between atoms: C1_1  and  P9_9 
REMARK    2  A    between atoms: C2_2  and  P9_9 
ROOT
HETATM    1  P9  UNL     1     -33.619   5.323   5.164  1.00 20.00     0.209 P 
HETATM    2 CL10 UNL     1     -33.944   6.885   6.527  1.00 20.00    -0.077 Cl
ENDROOT
BRANCH   1   3
HETATM    3  C1  UNL     1     -35.191   4.530   5.123  1.00 20.00     0.429 C 
HETATM    4  F3  UNL     1     -34.976   3.312   4.623  1.00 20.00    -0.165 F 
HETATM    5  F4  UNL     1     -35.606   4.480   6.391  1.00 20.00    -0.165 F 
HETATM    6  F5  UNL     1     -36.000   5.258   4.354  1.00 20.00    -0.165 F 
ENDBRANCH   1   3
BRANCH   1   7
HETATM    7  C2  UNL     1     -33.525   6.180   3.628  1.00 20.00     0.429 C 
HETATM    8  F6  UNL     1     -33.933   5.315   2.698  1.00 20.00    -0.165 F 
HETATM    9  F7  UNL     1     -32.241   6.510   3.474  1.00 20.00    -0.165 F 
HETATM   10  F8  UNL     1     -34.315   7.250   3.706  1.00 20.00    -0.165 F 
ENDBRANCH   1   7
TORSDOF 2
ENDMDL
MODEL 2
REMARK VINA RESULT:      -5.2      0.052      1.195
REMARK  2 active torsions:
REMARK  status: ('A' for Active; 'I' for Inactive)
REMARK    1  A    between atoms: C1_1  and  P9_9 
REMARK    2  A    between atoms: C2_2  and  P9_9 
ROOT
HETATM    1  P9  UNL     1     -33.624   5.302   5.143  1.00 20.00     0.209 P 
HETATM    2 CL10 UNL     1     -33.927   6.885   6.486  1.00 20.00    -0.077 Cl
ENDROOT
BRANCH   1   3
HETATM    3  C1  UNL     1     -35.203   4.523   5.121  1.00 20.00     0.429 C 
HETATM    4  F3  UNL     1     -35.002   3.296   4.635  1.00 20.00    -0.165 F 
HETATM    5  F4  UNL     1     -35.611   4.493   6.392  1.00 20.00    -0.165 F 
HETATM    6  F5  UNL     1     -36.010   5.249   4.348  1.00 20.00    -0.165 F 
ENDBRANCH   1   3
BRANCH   1   7
HETATM    7  C2  UNL     1     -33.530   6.136   3.595  1.00 20.00     0.429 C 
HETATM    8  F6  UNL     1     -32.241   6.428   3.412  1.00 20.00    -0.165 F 
HETATM    9  F7  UNL     1     -34.276   7.234   3.727  1.00 20.00    -0.165 F 
HETATM   10  F8  UNL     1     -34.002   5.315   2.656  1.00 20.00    -0.165 F 
ENDBRANCH   1   7
TORSDOF 2
ENDMDL
MODEL 3
REMARK VINA RESULT:      -5.0      1.548      3.462
REMARK  2 active torsions:
REMARK  status: ('A' for Active; 'I' for Inactive)
REMARK    1  A    between atoms: C1_1  and  P9_9 
REMARK    2  A    between atoms: C2_2  and  P9_9 
ROOT
HETATM    1  P9  UNL     1     -33.972   6.857   4.081  1.00 20.00     0.209 P 
HETATM    2 CL10 UNL     1     -33.658   6.452   6.116  1.00 20.00    -0.077 Cl
ENDROOT
BRANCH   1   3
HETATM    3  C1  UNL     1     -32.340   6.771   3.426  1.00 20.00     0.429 C 
HETATM    4  F3  UNL     1     -32.412   7.269   2.190  1.00 20.00    -0.165 F 
HETATM    5  F4  UNL     1     -31.586   7.529   4.226  1.00 20.00    -0.165 F 
HETATM    6  F5  UNL     1     -31.959   5.493   3.436  1.00 20.00    -0.165 F 
ENDBRANCH   1   3
BRANCH   1   7
HETATM    7  C2  UNL     1     -34.744   5.377   3.519  1.00 20.00     0.429 C 
HETATM    8  F6  UNL     1     -36.047   5.652   3.432  1.00 20.00    -0.165 F 
HETATM    9  F7  UNL     1     -34.490   4.457   4.453  1.00 20.00    -0.165 F 
HETATM   10  F8  UNL     1     -34.213   5.059   2.339  1.00 20.00    -0.165 F 
ENDBRANCH   1   7
TORSDOF 2
ENDMDL
MODEL 4
REMARK VINA RESULT:      -4.9      0.965      3.315
REMARK  2 active torsions:
REMARK  status: ('A' for Active; 'I' for Inactive)
REMARK    1  A    between atoms: C1_1  and  P9_9 
REMARK    2  A    between atoms: C2_2  and  P9_9 
ROOT
HETATM    1  P9  UNL     1     -34.758   5.947   5.029  1.00 20.00     0.209 P 
HETATM    2 CL10 UNL     1     -33.588   6.872   6.506  1.00 20.00    -0.077 Cl
ENDROOT
BRANCH   1   3
HETATM    3  C1  UNL     1     -33.675   5.947   3.641  1.00 20.00     0.429 C 
HETATM    4  F3  UNL     1     -34.279   5.214   2.703  1.00 20.00    -0.165 F 
HETATM    5  F4  UNL     1     -33.555   7.224   3.273  1.00 20.00    -0.165 F 
HETATM    6  F5  UNL     1     -32.513   5.420   4.025  1.00 20.00    -0.165 F 
ENDBRANCH   1   3
BRANCH   1   7
HETATM    7  C2  UNL     1     -34.779   4.269   5.565  1.00 20.00     0.429 C 
HETATM    8  F6  UNL     1     -35.145   3.548   4.503  1.00 20.00    -0.165 F 
HETATM    9  F7  UNL     1     -35.684   4.210   6.543  1.00 20.00    -0.165 F 
HETATM   10  F8  UNL     1     -33.554   3.959   5.990  1.00 20.00    -0.165 F 
ENDBRANCH   1   7
TORSDOF 2
ENDMDL
MODEL 5
REMARK VINA RESULT:      -4.9      1.999      3.039
REMARK  2 active torsions:
REMARK  status: ('A' for Active; 'I' for Inactive)
REMARK    1  A    between atoms: C1_1  and  P9_9 
REMARK    2  A    between atoms: C2_2  and  P9_9 
ROOT
HETATM    1  P9  UNL     1     -34.248   6.488   4.494  1.00 20.00     0.209 P 
HETATM    2 CL10 UNL     1     -32.330   6.263   3.673  1.00 20.00    -0.077 Cl
ENDROOT
BRANCH   1   3
HETATM    3  C1  UNL     1     -35.165   5.247   3.646  1.00 20.00     0.429 C 
HETATM    4  F3  UNL     1     -36.363   5.780   3.396  1.00 20.00    -0.165 F 
HETATM    5  F4  UNL     1     -34.488   4.998   2.522  1.00 20.00    -0.165 F 
HETATM    6  F5  UNL     1     -35.242   4.178   4.438  1.00 20.00    -0.165 F 
ENDBRANCH   1   3
BRANCH   1   7
HETATM    7  C2  UNL     1     -34.039   5.840   6.118  1.00 20.00     0.429 C 
HETATM    8  F6  UNL     1     -33.287   6.726   6.774  1.00 20.00    -0.165 F 
HETATM    9  F7  UNL     1     -33.414   4.671   5.966  1.00 20.00    -0.165 F 
HETATM   10  F8  UNL     1     -35.248   5.699   6.663  1.00 20.00    -0.165 F 
ENDBRANCH   1   7
TORSDOF 2
ENDMDL
MODEL 6
REMARK VINA RESULT:      -4.6      1.778      3.641
REMARK  2 active torsions:
REMARK  status: ('A' for Active; 'I' for Inactive)
REMARK    1  A    between atoms: C1_1  and  P9_9 
REMARK    2  A    between atoms: C2_2  and  P9_9 
ROOT
HETATM    1  P9  UNL     1     -34.310   4.967   4.440  1.00 20.00     0.209 P 
HETATM    2 CL10 UNL     1     -36.130   5.679   3.673  1.00 20.00    -0.077 Cl
ENDROOT
BRANCH   1   3
HETATM    3  C1  UNL     1     -33.242   6.348   4.210  1.00 20.00     0.429 C 
HETATM    4  F3  UNL     1     -32.199   5.895   3.512  1.00 20.00    -0.165 F 
HETATM    5  F4  UNL     1     -33.951   7.245   3.520  1.00 20.00    -0.165 F 
HETATM    6  F5  UNL     1     -32.889   6.801   5.413  1.00 20.00    -0.165 F 
ENDBRANCH   1   3
BRANCH   1   7
HETATM    7  C2  UNL     1     -34.619   4.940   6.173  1.00 20.00     0.429 C 
HETATM    8  F6  UNL     1     -33.535   4.401   6.732  1.00 20.00    -0.165 F 
HETATM    9  F7  UNL     1     -35.699   4.174   6.338  1.00 20.00    -0.165 F 
HETATM   10  F8  UNL     1     -34.825   6.195   6.573  1.00 20.00    -0.165 F 
ENDBRANCH   1   7
TORSDOF 2
ENDMDL
MODEL 7
REMARK VINA RESULT:      -4.4      1.128      1.615
REMARK  2 active torsions:
REMARK  status: ('A' for Active; 'I' for Inactive)
REMARK    1  A    between atoms: C1_1  and  P9_9 
REMARK    2  A    between atoms: C2_2  and  P9_9 
ROOT
HETATM    1  P9  UNL     1     -33.388   5.546   4.647  1.00 20.00     0.209 P 
HETATM    2 CL10 UNL     1     -34.095   6.769   6.199  1.00 20.00    -0.077 Cl
ENDROOT
BRANCH   1   3
HETATM    3  C1  UNL     1     -34.871   5.133   3.792  1.00 20.00     0.429 C 
HETATM    4  F3  UNL     1     -35.330   4.019   4.367  1.00 20.00    -0.165 F 
HETATM    5  F4  UNL     1     -35.698   6.165   3.978  1.00 20.00    -0.165 F 
HETATM    6  F5  UNL     1     -34.569   4.952   2.507  1.00 20.00    -0.165 F 
ENDBRANCH   1   3
BRANCH   1   7
HETATM    7  C2  UNL     1     -32.587   6.707   3.592  1.00 20.00     0.429 C 
HETATM    8  F6  UNL     1     -31.956   5.986   2.664  1.00 20.00    -0.165 F 
HETATM    9  F7  UNL     1     -31.733   7.376   4.369  1.00 20.00    -0.165 F 
HETATM   10  F8  UNL     1     -33.522   7.500   3.069  1.00 20.00    -0.165 F 
ENDBRANCH   1   7
TORSDOF 2
ENDMDL
MODEL 8
REMARK VINA RESULT:      -4.3      2.140      2.727
REMARK  2 active torsions:
REMARK  status: ('A' for Active; 'I' for Inactive)
REMARK    1  A    between atoms: C1_1  and  P9_9 
REMARK    2  A    between atoms: C2_2  and  P9_9 
ROOT
HETATM    1  P9  UNL     1     -34.730   5.932   4.716  1.00 20.00     0.209 P 
HETATM    2 CL10 UNL     1     -35.037   3.864   4.897  1.00 20.00    -0.077 Cl
ENDROOT
BRANCH   1   3
HETATM    3  C1  UNL     1     -33.853   6.310   6.195  1.00 20.00     0.429 C 
HETATM    4  F3  UNL     1     -33.555   5.137   6.757  1.00 20.00    -0.165 F 
HETATM    5  F4  UNL     1     -32.758   6.970   5.811  1.00 20.00    -0.165 F 
HETATM    6  F5  UNL     1     -34.647   7.054   6.966  1.00 20.00    -0.165 F 
ENDBRANCH   1   3
BRANCH   1   7
HETATM    7  C2  UNL     1     -33.507   6.020   3.451  1.00 20.00     0.429 C 
HETATM    8  F6  UNL     1     -33.377   7.314   3.154  1.00 20.00    -0.165 F 
HETATM    9  F7  UNL     1     -33.994   5.318   2.425  1.00 20.00    -0.165 F 
HETATM   10  F8  UNL     1     -32.381   5.494   3.932  1.00 20.00    -0.165 F 
ENDBRANCH   1   7
TORSDOF 2
ENDMDL
MODEL 9
REMARK VINA RESULT:      -4.3      2.174      2.750
REMARK  2 active torsions:
REMARK  status: ('A' for Active; 'I' for Inactive)
REMARK    1  A    between atoms: C1_1  and  P9_9 
REMARK    2  A    between atoms: C2_2  and  P9_9 
ROOT
HETATM    1  P9  UNL     1     -34.137   6.484   3.722  1.00 20.00     0.209 P 
HETATM    2 CL10 UNL     1     -34.394   4.931   2.334  1.00 20.00    -0.077 Cl
ENDROOT
BRANCH   1   3
HETATM    3  C1  UNL     1     -34.332   5.647   5.259  1.00 20.00     0.429 C 
HETATM    4  F3  UNL     1     -34.206   6.580   6.205  1.00 20.00    -0.165 F 
HETATM    5  F4  UNL     1     -35.560   5.125   5.236  1.00 20.00    -0.165 F 
HETATM    6  F5  UNL     1     -33.386   4.711   5.341  1.00 20.00    -0.165 F 
ENDBRANCH   1   3
BRANCH   1   7
HETATM    7  C2  UNL     1     -32.408   6.800   3.615  1.00 20.00     0.429 C 
HETATM    8  F6  UNL     1     -32.049   7.292   4.802  1.00 20.00    -0.165 F 
HETATM    9  F7  UNL     1     -32.262   7.698   2.639  1.00 20.00    -0.165 F 
HETATM   10  F8  UNL     1     -31.797   5.649   3.338  1.00 20.00    -0.165 F 
ENDBRANCH   1   7
TORSDOF 2
ENDMDL
