MODEL 1
REMARK VINA RESULT:      -4.9      0.000      0.000
REMARK  1 active torsions:
REMARK  status: ('A' for Active; 'I' for Inactive)
REMARK    1  A    between atoms: C2_2  and  C6_6 
ROOT
HETATM    1  C3  UNL     1     -32.918  15.888  -4.686  1.00 20.00     0.006 C 
HETATM    2  C4  UNL     1     -33.996  15.875  -5.777  1.00 20.00     0.006 C 
HETATM    3  C5  UNL     1     -34.166  13.878  -4.545  1.00 20.00     0.010 C 
HETATM    4  C6  UNL     1     -34.662  15.458  -2.853  1.00 20.00     0.025 C 
HETATM    5  C7  UNL     1     -33.457  14.891  -3.641  1.00 20.00    -0.005 C 
HETATM    6  C8  UNL     1     -35.068  14.946  -5.184  1.00 20.00    -0.006 C 
HETATM    7  C9  UNL     1     -35.771  15.594  -3.942  1.00 20.00    -0.036 C 
HETATM    8  C11 UNL     1     -37.011  14.763  -3.546  1.00 20.00     0.016 C 
HETATM    9  C12 UNL     1     -36.259  17.027  -4.213  1.00 20.00     0.016 C 
ENDROOT
BRANCH   4  10
HETATM   10  C2  UNL     1     -34.335  16.665  -2.036  1.00 20.00    -0.088 C 
HETATM   11  C1  UNL     1     -33.668  17.710  -2.550  1.00 20.00     0.014 C 
HETATM   12  C10 UNL     1     -34.793  16.642  -0.608  1.00 20.00     0.043 C 
ENDBRANCH   4  10
TORSDOF 1
ENDMDL
MODEL 2
REMARK VINA RESULT:      -4.7      1.252      2.410
REMARK  1 active torsions:
REMARK  status: ('A' for Active; 'I' for Inactive)
REMARK    1  A    between atoms: C2_2  and  C6_6 
ROOT
HETATM    1  C3  UNL     1     -34.304  15.178  -5.640  1.00 20.00     0.006 C 
HETATM    2  C4  UNL     1     -35.477  14.613  -4.830  1.00 20.00     0.006 C 
HETATM    3  C5  UNL     1     -33.510  14.347  -3.567  1.00 20.00     0.010 C 
HETATM    4  C6  UNL     1     -33.604  16.709  -3.703  1.00 20.00     0.025 C 
HETATM    5  C7  UNL     1     -33.240  15.477  -4.566  1.00 20.00    -0.005 C 
HETATM    6  C8  UNL     1     -34.983  14.745  -3.379  1.00 20.00    -0.006 C 
HETATM    7  C9  UNL     1     -34.882  16.245  -2.937  1.00 20.00    -0.036 C 
HETATM    8  C11 UNL     1     -34.650  16.331  -1.413  1.00 20.00     0.016 C 
HETATM    9  C12 UNL     1     -36.161  17.043  -3.242  1.00 20.00     0.016 C 
ENDROOT
BRANCH   4  10
HETATM   10  C2  UNL     1     -33.679  17.986  -4.476  1.00 20.00    -0.088 C 
HETATM   11  C1  UNL     1     -33.769  18.002  -5.814  1.00 20.00     0.014 C 
HETATM   12  C10 UNL     1     -33.646  19.250  -3.669  1.00 20.00     0.043 C 
ENDBRANCH   4  10
TORSDOF 1
ENDMDL
MODEL 3
REMARK VINA RESULT:      -4.7      1.356      2.846
REMARK  1 active torsions:
REMARK  status: ('A' for Active; 'I' for Inactive)
REMARK    1  A    between atoms: C2_2  and  C6_6 
ROOT
HETATM    1  C3  UNL     1     -35.009  14.026  -6.193  1.00 20.00     0.006 C 
HETATM    2  C4  UNL     1     -34.425  15.082  -7.140  1.00 20.00     0.006 C 
HETATM    3  C5  UNL     1     -36.606  15.740  -6.552  1.00 20.00     0.010 C 
HETATM    4  C6  UNL     1     -35.563  15.804  -4.428  1.00 20.00     0.025 C 
HETATM    5  C7  UNL     1     -36.125  14.790  -5.452  1.00 20.00    -0.005 C 
HETATM    6  C8  UNL     1     -35.210  16.349  -6.761  1.00 20.00    -0.006 C 
HETATM    7  C9  UNL     1     -34.835  16.853  -5.325  1.00 20.00    -0.036 C 
HETATM    8  C11 UNL     1     -35.429  18.259  -5.088  1.00 20.00     0.016 C 
HETATM    9  C12 UNL     1     -33.316  16.965  -5.110  1.00 20.00     0.016 C 
ENDROOT
BRANCH   4  10
HETATM   10  C2  UNL     1     -34.785  15.175  -3.318  1.00 20.00    -0.088 C 
HETATM   11  C1  UNL     1     -34.210  13.969  -3.450  1.00 20.00     0.014 C 
HETATM   12  C10 UNL     1     -34.684  15.966  -2.048  1.00 20.00     0.043 C 
ENDBRANCH   4  10
TORSDOF 1
ENDMDL
MODEL 4
REMARK VINA RESULT:      -4.7      1.329      3.614
REMARK  1 active torsions:
REMARK  status: ('A' for Active; 'I' for Inactive)
REMARK    1  A    between atoms: C2_2  and  C6_6 
ROOT
HETATM    1  C3  UNL     1     -33.213  16.274  -4.694  1.00 20.00     0.006 C 
HETATM    2  C4  UNL     1     -33.341  15.412  -3.432  1.00 20.00     0.006 C 
HETATM    3  C5  UNL     1     -34.993  17.085  -3.355  1.00 20.00     0.010 C 
HETATM    4  C6  UNL     1     -35.682  15.906  -5.289  1.00 20.00     0.025 C 
HETATM    5  C7  UNL     1     -34.607  16.918  -4.828  1.00 20.00    -0.005 C 
HETATM    6  C8  UNL     1     -34.820  15.589  -3.048  1.00 20.00    -0.006 C 
HETATM    7  C9  UNL     1     -35.773  14.910  -4.091  1.00 20.00    -0.036 C 
HETATM    8  C11 UNL     1     -37.215  14.871  -3.539  1.00 20.00     0.016 C 
HETATM    9  C12 UNL     1     -35.373  13.458  -4.406  1.00 20.00     0.016 C 
ENDROOT
BRANCH   4  10
HETATM   10  C2  UNL     1     -35.435  15.339  -6.650  1.00 20.00    -0.088 C 
HETATM   11  C1  UNL     1     -34.196  15.203  -7.147  1.00 20.00     0.014 C 
HETATM   12  C10 UNL     1     -36.651  14.934  -7.429  1.00 20.00     0.043 C 
ENDBRANCH   4  10
TORSDOF 1
ENDMDL
MODEL 5
REMARK VINA RESULT:      -4.7      1.389      3.099
REMARK  1 active torsions:
REMARK  status: ('A' for Active; 'I' for Inactive)
REMARK    1  A    between atoms: C2_2  and  C6_6 
ROOT
HETATM    1  C3  UNL     1     -34.666  15.290  -2.918  1.00 20.00     0.006 C 
HETATM    2  C4  UNL     1     -33.469  14.786  -3.734  1.00 20.00     0.006 C 
HETATM    3  C5  UNL     1     -35.311  13.392  -4.184  1.00 20.00     0.010 C 
HETATM    4  C6  UNL     1     -36.129  15.451  -5.019  1.00 20.00     0.025 C 
HETATM    5  C7  UNL     1     -35.880  14.721  -3.678  1.00 20.00    -0.005 C 
HETATM    6  C8  UNL     1     -34.142  14.070  -4.917  1.00 20.00    -0.006 C 
HETATM    7  C9  UNL     1     -34.871  15.083  -5.866  1.00 20.00    -0.036 C 
HETATM    8  C11 UNL     1     -35.295  14.372  -7.170  1.00 20.00     0.016 C 
HETATM    9  C12 UNL     1     -33.977  16.268  -6.271  1.00 20.00     0.016 C 
ENDROOT
BRANCH   4  10
HETATM   10  C2  UNL     1     -36.468  16.898  -4.866  1.00 20.00    -0.088 C 
HETATM   11  C1  UNL     1     -36.130  17.594  -3.770  1.00 20.00     0.014 C 
HETATM   12  C10 UNL     1     -37.209  17.529  -6.007  1.00 20.00     0.043 C 
ENDBRANCH   4  10
TORSDOF 1
ENDMDL
MODEL 6
REMARK VINA RESULT:      -4.7      1.369      3.408
REMARK  1 active torsions:
REMARK  status: ('A' for Active; 'I' for Inactive)
REMARK    1  A    between atoms: C2_2  and  C6_6 
ROOT
HETATM    1  C3  UNL     1     -36.404  14.978  -5.392  1.00 20.00     0.006 C 
HETATM    2  C4  UNL     1     -36.334  14.526  -3.928  1.00 20.00     0.006 C 
HETATM    3  C5  UNL     1     -34.771  13.276  -5.164  1.00 20.00     0.010 C 
HETATM    4  C6  UNL     1     -33.883  15.452  -5.446  1.00 20.00     0.025 C 
HETATM    5  C7  UNL     1     -35.035  14.557  -5.961  1.00 20.00    -0.005 C 
HETATM    6  C8  UNL     1     -34.899  13.987  -3.808  1.00 20.00    -0.006 C 
HETATM    7  C9  UNL     1     -33.839  15.137  -3.918  1.00 20.00    -0.036 C 
HETATM    8  C11 UNL     1     -32.443  14.607  -3.524  1.00 20.00     0.016 C 
HETATM    9  C12 UNL     1     -34.147  16.323  -2.989  1.00 20.00     0.016 C 
ENDROOT
BRANCH   4  10
HETATM   10  C2  UNL     1     -34.000  16.884  -5.860  1.00 20.00    -0.088 C 
HETATM   11  C1  UNL     1     -33.514  17.882  -5.105  1.00 20.00     0.014 C 
HETATM   12  C10 UNL     1     -34.691  17.142  -7.166  1.00 20.00     0.043 C 
ENDBRANCH   4  10
TORSDOF 1
ENDMDL
MODEL 7
REMARK VINA RESULT:      -4.6      1.402      2.381
REMARK  1 active torsions:
REMARK  status: ('A' for Active; 'I' for Inactive)
REMARK    1  A    between atoms: C2_2  and  C6_6 
ROOT
HETATM    1  C3  UNL     1     -35.233  17.013  -6.727  1.00 20.00     0.006 C 
HETATM    2  C4  UNL     1     -36.431  16.055  -6.750  1.00 20.00     0.006 C 
HETATM    3  C5  UNL     1     -34.482  14.813  -7.189  1.00 20.00     0.010 C 
HETATM    4  C6  UNL     1     -34.013  15.566  -4.994  1.00 20.00     0.025 C 
HETATM    5  C7  UNL     1     -34.037  16.080  -6.453  1.00 20.00    -0.005 C 
HETATM    6  C8  UNL     1     -35.792  14.703  -6.392  1.00 20.00    -0.006 C 
HETATM    7  C9  UNL     1     -35.291  14.675  -4.907  1.00 20.00    -0.036 C 
HETATM    8  C11 UNL     1     -34.910  13.234  -4.506  1.00 20.00     0.016 C 
HETATM    9  C12 UNL     1     -36.361  15.151  -3.909  1.00 20.00     0.016 C 
ENDROOT
BRANCH   4  10
HETATM   10  C2  UNL     1     -33.844  16.646  -3.976  1.00 20.00    -0.088 C 
HETATM   11  C1  UNL     1     -33.816  17.944  -4.316  1.00 20.00     0.014 C 
HETATM   12  C10 UNL     1     -33.707  16.197  -2.551  1.00 20.00     0.043 C 
ENDBRANCH   4  10
TORSDOF 1
ENDMDL
MODEL 8
REMARK VINA RESULT:      -4.6      1.159      3.760
REMARK  1 active torsions:
REMARK  status: ('A' for Active; 'I' for Inactive)
REMARK    1  A    between atoms: C2_2  and  C6_6 
ROOT
HETATM    1  C3  UNL     1     -36.024  17.424  -3.141  1.00 20.00     0.006 C 
HETATM    2  C4  UNL     1     -34.633  18.058  -3.011  1.00 20.00     0.006 C 
HETATM    3  C5  UNL     1     -34.683  16.107  -1.696  1.00 20.00     0.010 C 
HETATM    4  C6  UNL     1     -35.016  15.172  -3.845  1.00 20.00     0.025 C 
HETATM    5  C7  UNL     1     -35.782  15.952  -2.751  1.00 20.00    -0.005 C 
HETATM    6  C8  UNL     1     -33.744  16.854  -2.656  1.00 20.00    -0.006 C 
HETATM    7  C9  UNL     1     -33.614  15.857  -3.858  1.00 20.00    -0.036 C 
HETATM    8  C11 UNL     1     -32.510  14.818  -3.564  1.00 20.00     0.016 C 
HETATM    9  C12 UNL     1     -33.232  16.557  -5.174  1.00 20.00     0.016 C 
ENDROOT
BRANCH   4  10
HETATM   10  C2  UNL     1     -35.753  15.066  -5.141  1.00 20.00    -0.088 C 
HETATM   11  C1  UNL     1     -36.864  15.777  -5.385  1.00 20.00     0.014 C 
HETATM   12  C10 UNL     1     -35.180  14.118  -6.152  1.00 20.00     0.043 C 
ENDBRANCH   4  10
TORSDOF 1
ENDMDL
MODEL 9
REMARK VINA RESULT:      -4.6      1.127      3.584
REMARK  1 active torsions:
REMARK  status: ('A' for Active; 'I' for Inactive)
REMARK    1  A    between atoms: C2_2  and  C6_6 
ROOT
HETATM    1  C3  UNL     1     -34.560  17.962  -3.091  1.00 20.00     0.006 C 
HETATM    2  C4  UNL     1     -33.928  17.056  -2.027  1.00 20.00     0.006 C 
HETATM    3  C5  UNL     1     -36.054  16.200  -2.560  1.00 20.00     0.010 C 
HETATM    4  C6  UNL     1     -34.973  15.968  -4.652  1.00 20.00     0.025 C 
HETATM    5  C7  UNL     1     -35.613  17.052  -3.754  1.00 20.00    -0.005 C 
HETATM    6  C8  UNL     1     -34.627  15.707  -2.270  1.00 20.00    -0.006 C 
HETATM    7  C9  UNL     1     -34.197  15.072  -3.637  1.00 20.00    -0.036 C 
HETATM    8  C11 UNL     1     -34.699  13.614  -3.721  1.00 20.00     0.016 C 
HETATM    9  C12 UNL     1     -32.671  15.033  -3.822  1.00 20.00     0.016 C 
ENDROOT
BRANCH   4  10
HETATM   10  C2  UNL     1     -34.216  16.519  -5.817  1.00 20.00    -0.088 C 
HETATM   11  C1  UNL     1     -33.607  17.713  -5.767  1.00 20.00     0.014 C 
HETATM   12  C10 UNL     1     -34.175  15.660  -7.046  1.00 20.00     0.043 C 
ENDBRANCH   4  10
TORSDOF 1
ENDMDL
