MODEL 1
REMARK VINA RESULT:      -5.1      0.000      0.000
REMARK  2 active torsions:
REMARK  status: ('A' for Active; 'I' for Inactive)
REMARK    1  A    between atoms: C3_3  and  C9_9 
REMARK    2  A    between atoms: C3_3  and  C10_10 
ROOT
HETATM    1  C3  UNL     1     -33.535   6.477   5.168  1.00 20.00     0.135 C 
HETATM    2  O11 UNL     1     -33.039   6.919   6.203  1.00 20.00    -0.297 OA
ENDROOT
BRANCH   1   3
HETATM    3  C9  UNL     1     -32.808   6.573   3.822  1.00 20.00     0.063 C 
HETATM    4  C4  UNL     1     -33.548   7.302   2.665  1.00 20.00     0.045 C 
HETATM    5  C1  UNL     1     -32.189   7.880   2.347  1.00 20.00    -0.088 C 
HETATM    6  C2  UNL     1     -31.674   8.451   1.257  1.00 20.00     0.014 C 
HETATM    7  C5  UNL     1     -31.632   7.583   3.720  1.00 20.00     0.045 C 
ENDBRANCH   1   3
BRANCH   1   8
HETATM    8  C10 UNL     1     -34.864   5.824   5.162  1.00 20.00     0.056 C 
HETATM    9  C7  UNL     1     -34.965   4.531   4.316  1.00 20.00     0.012 C 
HETATM   10  C6  UNL     1     -34.689   3.723   5.599  1.00 20.00     0.002 C 
HETATM   11  C8  UNL     1     -35.178   4.947   6.400  1.00 20.00     0.012 C 
ENDBRANCH   1   8
TORSDOF 2
ENDMDL
MODEL 2
REMARK VINA RESULT:      -5.1     11.416     12.922
REMARK  2 active torsions:
REMARK  status: ('A' for Active; 'I' for Inactive)
REMARK    1  A    between atoms: C3_3  and  C9_9 
REMARK    2  A    between atoms: C3_3  and  C10_10 
ROOT
HETATM    1  C3  UNL     1     -34.895  13.881  -4.673  1.00 20.00     0.135 C 
HETATM    2  O11 UNL     1     -34.688  12.703  -4.958  1.00 20.00    -0.297 OA
ENDROOT
BRANCH   1   3
HETATM    3  C9  UNL     1     -34.519  14.455  -3.303  1.00 20.00     0.063 C 
HETATM    4  C4  UNL     1     -33.276  15.387  -3.240  1.00 20.00     0.045 C 
HETATM    5  C1  UNL     1     -34.109  16.202  -2.279  1.00 20.00    -0.088 C 
HETATM    6  C2  UNL     1     -33.806  17.125  -1.366  1.00 20.00     0.014 C 
HETATM    7  C5  UNL     1     -35.414  15.593  -2.739  1.00 20.00     0.045 C 
ENDBRANCH   1   3
BRANCH   1   8
HETATM    8  C10 UNL     1     -35.520  14.814  -5.638  1.00 20.00     0.056 C 
HETATM    9  C7  UNL     1     -34.597  15.939  -6.168  1.00 20.00     0.012 C 
HETATM   10  C6  UNL     1     -34.289  15.048  -7.388  1.00 20.00     0.002 C 
HETATM   11  C8  UNL     1     -35.605  14.301  -7.098  1.00 20.00     0.012 C 
ENDBRANCH   1   8
TORSDOF 2
ENDMDL
MODEL 3
REMARK VINA RESULT:      -5.0     11.450     12.565
REMARK  2 active torsions:
REMARK  status: ('A' for Active; 'I' for Inactive)
REMARK    1  A    between atoms: C3_3  and  C9_9 
REMARK    2  A    between atoms: C3_3  and  C10_10 
ROOT
HETATM    1  C3  UNL     1     -34.457  16.222  -3.765  1.00 20.00     0.135 C 
HETATM    2  O11 UNL     1     -35.429  16.844  -4.188  1.00 20.00    -0.297 OA
ENDROOT
BRANCH   1   3
HETATM    3  C9  UNL     1     -33.829  16.541  -2.403  1.00 20.00     0.063 C 
HETATM    4  C4  UNL     1     -33.631  18.041  -2.045  1.00 20.00     0.045 C 
HETATM    5  C1  UNL     1     -34.075  17.625  -0.662  1.00 20.00    -0.088 C 
HETATM    6  C2  UNL     1     -33.951  18.185   0.542  1.00 20.00     0.014 C 
HETATM    7  C5  UNL     1     -34.721  16.347  -1.146  1.00 20.00     0.045 C 
ENDBRANCH   1   3
BRANCH   1   8
HETATM    8  C10 UNL     1     -33.836  15.128  -4.545  1.00 20.00     0.056 C 
HETATM    9  C7  UNL     1     -33.601  13.808  -3.768  1.00 20.00     0.012 C 
HETATM   10  C6  UNL     1     -34.947  13.298  -4.320  1.00 20.00     0.002 C 
HETATM   11  C8  UNL     1     -34.802  14.330  -5.456  1.00 20.00     0.012 C 
ENDBRANCH   1   8
TORSDOF 2
ENDMDL
MODEL 4
REMARK VINA RESULT:      -4.8     11.957     13.255
REMARK  2 active torsions:
REMARK  status: ('A' for Active; 'I' for Inactive)
REMARK    1  A    between atoms: C3_3  and  C9_9 
REMARK    2  A    between atoms: C3_3  and  C10_10 
ROOT
HETATM    1  C3  UNL     1     -33.743  16.156  -4.429  1.00 20.00     0.135 C 
HETATM    2  O11 UNL     1     -32.843  16.644  -5.110  1.00 20.00    -0.297 OA
ENDROOT
BRANCH   1   3
HETATM    3  C9  UNL     1     -33.668  16.125  -2.898  1.00 20.00     0.063 C 
HETATM    4  C4  UNL     1     -33.615  17.493  -2.161  1.00 20.00     0.045 C 
HETATM    5  C1  UNL     1     -34.544  16.835  -1.168  1.00 20.00    -0.088 C 
HETATM    6  C2  UNL     1     -34.876  17.115   0.093  1.00 20.00     0.014 C 
HETATM    7  C5  UNL     1     -34.965  15.749  -2.130  1.00 20.00     0.045 C 
ENDBRANCH   1   3
BRANCH   1   8
HETATM    8  C10 UNL     1     -34.954  15.571  -5.048  1.00 20.00     0.056 C 
HETATM    9  C7  UNL     1     -35.280  16.074  -6.476  1.00 20.00     0.012 C 
HETATM   10  C6  UNL     1     -34.531  14.847  -7.030  1.00 20.00     0.002 C 
HETATM   11  C8  UNL     1     -34.768  14.164  -5.669  1.00 20.00     0.012 C 
ENDBRANCH   1   8
TORSDOF 2
ENDMDL
MODEL 5
REMARK VINA RESULT:      -4.6     11.676     12.766
REMARK  2 active torsions:
REMARK  status: ('A' for Active; 'I' for Inactive)
REMARK    1  A    between atoms: C3_3  and  C9_9 
REMARK    2  A    between atoms: C3_3  and  C10_10 
ROOT
HETATM    1  C3  UNL     1     -33.781  16.849  -3.266  1.00 20.00     0.135 C 
HETATM    2  O11 UNL     1     -34.126  17.894  -3.814  1.00 20.00    -0.297 OA
ENDROOT
BRANCH   1   3
HETATM    3  C9  UNL     1     -33.847  16.678  -1.744  1.00 20.00     0.063 C 
HETATM    4  C4  UNL     1     -33.343  17.863  -0.873  1.00 20.00     0.045 C 
HETATM    5  C1  UNL     1     -34.528  17.539   0.005  1.00 20.00    -0.088 C 
HETATM    6  C2  UNL     1     -34.832  17.831   1.271  1.00 20.00     0.014 C 
HETATM    7  C5  UNL     1     -35.248  16.771  -1.079  1.00 20.00     0.045 C 
ENDBRANCH   1   3
BRANCH   1   8
HETATM    8  C10 UNL     1     -33.282  15.692  -4.045  1.00 20.00     0.056 C 
HETATM    9  C7  UNL     1     -33.770  14.305  -3.561  1.00 20.00     0.012 C 
HETATM   10  C6  UNL     1     -34.900  14.389  -4.607  1.00 20.00     0.002 C 
HETATM   11  C8  UNL     1     -34.033  15.410  -5.370  1.00 20.00     0.012 C 
ENDBRANCH   1   8
TORSDOF 2
ENDMDL
MODEL 6
REMARK VINA RESULT:      -4.5      1.558      4.892
REMARK  2 active torsions:
REMARK  status: ('A' for Active; 'I' for Inactive)
REMARK    1  A    between atoms: C3_3  and  C9_9 
REMARK    2  A    between atoms: C3_3  and  C10_10 
ROOT
HETATM    1  C3  UNL     1     -32.539   6.856   2.781  1.00 20.00     0.135 C 
HETATM    2  O11 UNL     1     -32.086   5.891   2.169  1.00 20.00    -0.297 OA
ENDROOT
BRANCH   1   3
HETATM    3  C9  UNL     1     -33.692   6.707   3.781  1.00 20.00     0.063 C 
HETATM    4  C4  UNL     1     -34.504   5.382   3.736  1.00 20.00     0.045 C 
HETATM    5  C1  UNL     1     -34.487   5.484   5.243  1.00 20.00    -0.088 C 
HETATM    6  C2  UNL     1     -35.229   4.929   6.202  1.00 20.00     0.014 C 
HETATM    7  C5  UNL     1     -33.317   6.439   5.264  1.00 20.00     0.045 C 
ENDBRANCH   1   3
BRANCH   1   8
HETATM    8  C10 UNL     1     -31.996   8.221   2.590  1.00 20.00     0.056 C 
HETATM    9  C7  UNL     1     -31.345   8.491   1.212  1.00 20.00     0.012 C 
HETATM   10  C6  UNL     1     -32.692   9.073   0.741  1.00 20.00     0.002 C 
HETATM   11  C8  UNL     1     -33.040   9.306   2.224  1.00 20.00     0.012 C 
ENDBRANCH   1   8
TORSDOF 2
ENDMDL
MODEL 7
REMARK VINA RESULT:      -4.5     11.814     12.724
REMARK  2 active torsions:
REMARK  status: ('A' for Active; 'I' for Inactive)
REMARK    1  A    between atoms: C3_3  and  C9_9 
REMARK    2  A    between atoms: C3_3  and  C10_10 
ROOT
HETATM    1  C3  UNL     1     -33.814  17.532  -2.864  1.00 20.00     0.135 C 
HETATM    2  O11 UNL     1     -34.008  18.714  -3.141  1.00 20.00    -0.297 OA
ENDROOT
BRANCH   1   3
HETATM    3  C9  UNL     1     -33.861  16.436  -3.935  1.00 20.00     0.063 C 
HETATM    4  C4  UNL     1     -33.080  15.124  -3.644  1.00 20.00     0.045 C 
HETATM    5  C1  UNL     1     -34.275  14.439  -4.265  1.00 20.00    -0.088 C 
HETATM    6  C2  UNL     1     -34.461  13.226  -4.786  1.00 20.00     0.014 C 
HETATM    7  C5  UNL     1     -35.183  15.631  -4.071  1.00 20.00     0.045 C 
ENDBRANCH   1   3
BRANCH   1   8
HETATM    8  C10 UNL     1     -33.521  17.098  -1.479  1.00 20.00     0.056 C 
HETATM    9  C7  UNL     1     -33.352  18.239  -0.446  1.00 20.00     0.012 C 
HETATM   10  C6  UNL     1     -34.838  18.063  -0.076  1.00 20.00     0.002 C 
HETATM   11  C8  UNL     1     -34.749  16.637  -0.654  1.00 20.00     0.012 C 
ENDBRANCH   1   8
TORSDOF 2
ENDMDL
MODEL 8
REMARK VINA RESULT:      -4.5     11.842     13.231
REMARK  2 active torsions:
REMARK  status: ('A' for Active; 'I' for Inactive)
REMARK    1  A    between atoms: C3_3  and  C9_9 
REMARK    2  A    between atoms: C3_3  and  C10_10 
ROOT
HETATM    1  C3  UNL     1     -35.288  14.649  -4.717  1.00 20.00     0.135 C 
HETATM    2  O11 UNL     1     -36.160  13.829  -4.436  1.00 20.00    -0.297 OA
ENDROOT
BRANCH   1   3
HETATM    3  C9  UNL     1     -34.934  15.803  -3.772  1.00 20.00     0.063 C 
HETATM    4  C4  UNL     1     -35.915  16.090  -2.602  1.00 20.00     0.045 C 
HETATM    5  C1  UNL     1     -34.661  16.317  -1.791  1.00 20.00    -0.088 C 
HETATM    6  C2  UNL     1     -34.422  16.944  -0.638  1.00 20.00     0.014 C 
HETATM    7  C5  UNL     1     -33.779  15.566  -2.761  1.00 20.00     0.045 C 
ENDBRANCH   1   3
BRANCH   1   8
HETATM    8  C10 UNL     1     -34.526  14.567  -5.984  1.00 20.00     0.056 C 
HETATM    9  C7  UNL     1     -35.379  14.381  -7.262  1.00 20.00     0.012 C 
HETATM   10  C6  UNL     1     -35.339  15.910  -7.457  1.00 20.00     0.002 C 
HETATM   11  C8  UNL     1     -34.074  15.926  -6.575  1.00 20.00     0.012 C 
ENDBRANCH   1   8
TORSDOF 2
ENDMDL
MODEL 9
REMARK VINA RESULT:      -4.5     10.105     11.403
REMARK  2 active torsions:
REMARK  status: ('A' for Active; 'I' for Inactive)
REMARK    1  A    between atoms: C3_3  and  C9_9 
REMARK    2  A    between atoms: C3_3  and  C10_10 
ROOT
HETATM    1  C3  UNL     1     -42.588   5.592  -2.309  1.00 20.00     0.135 C 
HETATM    2  O11 UNL     1     -42.661   6.182  -3.385  1.00 20.00    -0.297 OA
ENDROOT
BRANCH   1   3
HETATM    3  C9  UNL     1     -42.534   4.062  -2.233  1.00 20.00     0.063 C 
HETATM    4  C4  UNL     1     -43.226   3.268  -3.376  1.00 20.00     0.045 C 
HETATM    5  C1  UNL     1     -42.028   2.353  -3.277  1.00 20.00    -0.088 C 
HETATM    6  C2  UNL     1     -41.801   1.102  -3.679  1.00 20.00     0.014 C 
HETATM    7  C5  UNL     1     -41.178   3.380  -2.566  1.00 20.00     0.045 C 
ENDBRANCH   1   3
BRANCH   1   8
HETATM    8  C10 UNL     1     -42.545   6.325  -1.023  1.00 20.00     0.056 C 
HETATM    9  C7  UNL     1     -41.980   5.528   0.178  1.00 20.00     0.012 C 
HETATM   10  C6  UNL     1     -40.604   6.160  -0.109  1.00 20.00     0.002 C 
HETATM   11  C8  UNL     1     -41.346   7.290  -0.849  1.00 20.00     0.012 C 
ENDBRANCH   1   8
TORSDOF 2
ENDMDL
