MODEL 1
REMARK VINA RESULT:      -3.2      0.000      0.000
REMARK  1 active torsions:
REMARK  status: ('A' for Active; 'I' for Inactive)
REMARK    1  A    between atoms: C2_2  and  C3_3 
ROOT
HETATM    1  C1  UNL     1     -34.754   3.952   5.384  1.00 20.00     0.051 C 
HETATM    2  C3  UNL     1     -34.489   5.308   4.735  1.00 20.00     0.122 C 
HETATM    3 CL5  UNL     1     -35.934   5.806   3.793  1.00 20.00    -0.101 Cl
HETATM    4 CL6  UNL     1     -34.253   6.523   6.045  1.00 20.00    -0.101 Cl
ENDROOT
BRANCH   2   5
HETATM    5  C2  UNL     1     -33.237   5.323   3.848  1.00 20.00     0.156 C 
HETATM    6 CL4  UNL     1     -32.790   6.951   3.270  1.00 20.00    -0.127 Cl
ENDBRANCH   2   5
TORSDOF 1
ENDMDL
MODEL 2
REMARK VINA RESULT:      -3.1      1.390      1.983
REMARK  1 active torsions:
REMARK  status: ('A' for Active; 'I' for Inactive)
REMARK    1  A    between atoms: C2_2  and  C3_3 
ROOT
HETATM    1  C1  UNL     1     -34.214   6.382   5.760  1.00 20.00     0.051 C 
HETATM    2  C3  UNL     1     -34.435   5.376   4.633  1.00 20.00     0.122 C 
HETATM    3 CL5  UNL     1     -34.675   3.742   5.337  1.00 20.00    -0.101 Cl
HETATM    4 CL6  UNL     1     -35.954   5.820   3.772  1.00 20.00    -0.101 Cl
ENDROOT
BRANCH   2   5
HETATM    5  C2  UNL     1     -33.298   5.357   3.603  1.00 20.00     0.156 C 
HETATM    6 CL4  UNL     1     -32.289   6.829   3.628  1.00 20.00    -0.127 Cl
ENDBRANCH   2   5
TORSDOF 1
ENDMDL
MODEL 3
REMARK VINA RESULT:      -3.1      1.359      1.996
REMARK  1 active torsions:
REMARK  status: ('A' for Active; 'I' for Inactive)
REMARK    1  A    between atoms: C2_2  and  C3_3 
ROOT
HETATM    1  C1  UNL     1     -35.759   5.805   3.882  1.00 20.00     0.051 C 
HETATM    2  C3  UNL     1     -34.470   5.388   4.587  1.00 20.00     0.122 C 
HETATM    3 CL5  UNL     1     -34.155   6.506   5.956  1.00 20.00    -0.101 Cl
HETATM    4 CL6  UNL     1     -34.713   3.742   5.278  1.00 20.00    -0.101 Cl
ENDROOT
BRANCH   2   5
HETATM    5  C2  UNL     1     -33.257   5.331   3.649  1.00 20.00     0.156 C 
HETATM    6 CL4  UNL     1     -32.364   6.872   3.542  1.00 20.00    -0.127 Cl
ENDBRANCH   2   5
TORSDOF 1
ENDMDL
MODEL 4
REMARK VINA RESULT:      -3.0      1.774      2.761
REMARK  1 active torsions:
REMARK  status: ('A' for Active; 'I' for Inactive)
REMARK    1  A    between atoms: C2_2  and  C3_3 
ROOT
HETATM    1  C1  UNL     1     -36.084   5.926   3.653  1.00 20.00     0.051 C 
HETATM    2  C3  UNL     1     -34.700   5.388   4.013  1.00 20.00     0.122 C 
HETATM    3 CL5  UNL     1     -34.882   3.882   4.974  1.00 20.00    -0.101 Cl
HETATM    4 CL6  UNL     1     -33.851   4.954   2.484  1.00 20.00    -0.101 Cl
ENDROOT
BRANCH   2   5
HETATM    5  C2  UNL     1     -33.830   6.405   4.763  1.00 20.00     0.156 C 
HETATM    6 CL4  UNL     1     -34.121   6.431   6.524  1.00 20.00    -0.127 Cl
ENDBRANCH   2   5
TORSDOF 1
ENDMDL
MODEL 5
REMARK VINA RESULT:      -3.0      1.832      2.482
REMARK  1 active torsions:
REMARK  status: ('A' for Active; 'I' for Inactive)
REMARK    1  A    between atoms: C2_2  and  C3_3 
ROOT
HETATM    1  C1  UNL     1     -33.786   5.121   2.719  1.00 20.00     0.051 C 
HETATM    2  C3  UNL     1     -34.638   5.402   3.955  1.00 20.00     0.122 C 
HETATM    3 CL5  UNL     1     -36.243   6.020   3.440  1.00 20.00    -0.101 Cl
HETATM    4 CL6  UNL     1     -34.910   3.843   4.817  1.00 20.00    -0.101 Cl
ENDROOT
BRANCH   2   5
HETATM    5  C2  UNL     1     -33.976   6.375   4.940  1.00 20.00     0.156 C 
HETATM    6 CL4  UNL     1     -34.322   6.005   6.651  1.00 20.00    -0.127 Cl
ENDBRANCH   2   5
TORSDOF 1
ENDMDL
MODEL 6
REMARK VINA RESULT:      -3.0      1.253      2.360
REMARK  1 active torsions:
REMARK  status: ('A' for Active; 'I' for Inactive)
REMARK    1  A    between atoms: C2_2  and  C3_3 
ROOT
HETATM    1  C1  UNL     1     -34.909   4.117   4.877  1.00 20.00     0.051 C 
HETATM    2  C3  UNL     1     -34.683   5.360   4.019  1.00 20.00     0.122 C 
HETATM    3 CL5  UNL     1     -33.845   4.889   2.503  1.00 20.00    -0.101 Cl
HETATM    4 CL6  UNL     1     -36.292   6.029   3.561  1.00 20.00    -0.101 Cl
ENDROOT
BRANCH   2   5
HETATM    5  C2  UNL     1     -33.903   6.464   4.744  1.00 20.00     0.156 C 
HETATM    6 CL4  UNL     1     -34.119   6.444   6.516  1.00 20.00    -0.127 Cl
ENDBRANCH   2   5
TORSDOF 1
ENDMDL
MODEL 7
REMARK VINA RESULT:      -2.9     12.075     12.831
REMARK  1 active torsions:
REMARK  status: ('A' for Active; 'I' for Inactive)
REMARK    1  A    between atoms: C2_2  and  C3_3 
ROOT
HETATM    1  C1  UNL     1     -35.659  14.729  -3.663  1.00 20.00     0.051 C 
HETATM    2  C3  UNL     1     -34.193  15.111  -3.853  1.00 20.00     0.122 C 
HETATM    3 CL5  UNL     1     -33.172  13.644  -3.680  1.00 20.00    -0.101 Cl
HETATM    4 CL6  UNL     1     -33.984  15.719  -5.537  1.00 20.00    -0.101 Cl
ENDROOT
BRANCH   2   5
HETATM    5  C2  UNL     1     -33.722  16.211  -2.893  1.00 20.00     0.156 C 
HETATM    6 CL4  UNL     1     -34.626  16.250  -1.354  1.00 20.00    -0.127 Cl
ENDBRANCH   2   5
TORSDOF 1
ENDMDL
MODEL 8
REMARK VINA RESULT:      -2.9     12.218     13.006
REMARK  1 active torsions:
REMARK  status: ('A' for Active; 'I' for Inactive)
REMARK    1  A    between atoms: C2_2  and  C3_3 
ROOT
HETATM    1  C1  UNL     1     -33.217  16.189  -4.688  1.00 20.00     0.051 C 
HETATM    2  C3  UNL     1     -34.101  14.976  -4.404  1.00 20.00     0.122 C 
HETATM    3 CL5  UNL     1     -34.745  14.338  -5.954  1.00 20.00    -0.101 Cl
HETATM    4 CL6  UNL     1     -33.073  13.689  -3.676  1.00 20.00    -0.101 Cl
ENDROOT
BRANCH   2   5
HETATM    5  C2  UNL     1     -35.245  15.275  -3.427  1.00 20.00     0.156 C 
HETATM    6 CL4  UNL     1     -34.698  15.982  -1.882  1.00 20.00    -0.127 Cl
ENDBRANCH   2   5
TORSDOF 1
ENDMDL
MODEL 9
REMARK VINA RESULT:      -2.8     12.088     12.990
REMARK  1 active torsions:
REMARK  status: ('A' for Active; 'I' for Inactive)
REMARK    1  A    between atoms: C2_2  and  C3_3 
ROOT
HETATM    1  C1  UNL     1     -34.736  15.587  -2.594  1.00 20.00     0.051 C 
HETATM    2  C3  UNL     1     -34.139  14.941  -3.843  1.00 20.00     0.122 C 
HETATM    3 CL5  UNL     1     -32.391  14.633  -3.573  1.00 20.00    -0.101 Cl
HETATM    4 CL6  UNL     1     -34.938  13.345  -4.088  1.00 20.00    -0.101 Cl
ENDROOT
BRANCH   2   5
HETATM    5  C2  UNL     1     -34.349  15.773  -5.115  1.00 20.00     0.156 C 
HETATM    6 CL4  UNL     1     -34.426  14.793  -6.605  1.00 20.00    -0.127 Cl
ENDBRANCH   2   5
TORSDOF 1
ENDMDL
