MODEL 1
REMARK VINA RESULT:      -4.1      0.000      0.000
REMARK  0 active torsions:
REMARK  status: ('A' for Active; 'I' for Inactive)
ROOT
HETATM    1  C1  UNL     1     -36.200  14.199  -4.301  1.00 20.00     0.023 C 
HETATM    2  C2  UNL     1     -37.094  15.094  -3.864  1.00 20.00     0.047 C 
HETATM    3  C3  UNL     1     -34.769  14.697  -4.406  1.00 20.00     0.040 C 
HETATM    4  C4  UNL     1     -38.556  14.903  -3.694  1.00 20.00     0.076 C 
HETATM    5  C5  UNL     1     -34.394  14.803  -5.890  1.00 20.00     0.029 C 
HETATM    6  C6  UNL     1     -33.800  13.750  -3.700  1.00 20.00     0.029 C 
HETATM    7  O7  UNL     1     -36.578  16.341  -3.542  1.00 20.00    -0.305 OA
HETATM    8  P8  UNL     1     -34.942  16.352  -3.607  1.00 20.00     0.165 P 
HETATM    9  S9  UNL     1     -34.101  17.933  -4.335  1.00 20.00    -0.049 SA
HETATM   10 CL10 UNL     1     -34.492  16.133  -1.658  1.00 20.00    -0.054 Cl
ENDROOT
TORSDOF 0
ENDMDL
MODEL 2
REMARK VINA RESULT:      -4.0      2.932      3.366
REMARK  0 active torsions:
REMARK  status: ('A' for Active; 'I' for Inactive)
ROOT
HETATM    1  C1  UNL     1     -33.663  16.193  -2.429  1.00 20.00     0.023 C 
HETATM    2  C2  UNL     1     -34.647  16.630  -1.636  1.00 20.00     0.047 C 
HETATM    3  C3  UNL     1     -34.102  15.613  -3.764  1.00 20.00     0.040 C 
HETATM    4  C4  UNL     1     -34.522  17.208  -0.275  1.00 20.00     0.076 C 
HETATM    5  C5  UNL     1     -33.858  14.099  -3.746  1.00 20.00     0.029 C 
HETATM    6  C6  UNL     1     -33.329  16.242  -4.922  1.00 20.00     0.029 C 
HETATM    7  O7  UNL     1     -35.927  16.519  -2.160  1.00 20.00    -0.305 OA
HETATM    8  P8  UNL     1     -35.899  16.035  -3.724  1.00 20.00     0.165 P 
HETATM    9  S9  UNL     1     -37.258  14.778  -4.282  1.00 20.00    -0.049 SA
HETATM   10 CL10 UNL     1     -36.127  17.801  -4.663  1.00 20.00    -0.054 Cl
ENDROOT
TORSDOF 0
ENDMDL
MODEL 3
REMARK VINA RESULT:      -3.9      3.117      3.552
REMARK  0 active torsions:
REMARK  status: ('A' for Active; 'I' for Inactive)
ROOT
HETATM    1  C1  UNL     1     -34.555  17.303  -3.105  1.00 20.00     0.023 C 
HETATM    2  C2  UNL     1     -34.655  16.496  -2.043  1.00 20.00     0.047 C 
HETATM    3  C3  UNL     1     -34.717  16.631  -4.459  1.00 20.00     0.040 C 
HETATM    4  C4  UNL     1     -34.509  16.863  -0.612  1.00 20.00     0.076 C 
HETATM    5  C5  UNL     1     -33.358  16.626  -5.169  1.00 20.00     0.029 C 
HETATM    6  C6  UNL     1     -35.743  17.363  -5.321  1.00 20.00     0.029 C 
HETATM    7  O7  UNL     1     -34.922  15.165  -2.330  1.00 20.00    -0.305 OA
HETATM    8  P8  UNL     1     -35.233  14.942  -3.921  1.00 20.00     0.165 P 
HETATM    9  S9  UNL     1     -34.519  13.344  -4.742  1.00 20.00    -0.049 SA
HETATM   10 CL10 UNL     1     -37.245  14.901  -3.904  1.00 20.00    -0.054 Cl
ENDROOT
TORSDOF 0
ENDMDL
MODEL 4
REMARK VINA RESULT:      -3.9      3.096      3.761
REMARK  0 active torsions:
REMARK  status: ('A' for Active; 'I' for Inactive)
ROOT
HETATM    1  C1  UNL     1     -33.417  16.591  -4.340  1.00 20.00     0.023 C 
HETATM    2  C2  UNL     1     -34.100  17.238  -5.291  1.00 20.00     0.047 C 
HETATM    3  C3  UNL     1     -34.133  15.412  -3.703  1.00 20.00     0.040 C 
HETATM    4  C4  UNL     1     -33.672  18.435  -6.056  1.00 20.00     0.076 C 
HETATM    5  C5  UNL     1     -34.497  15.779  -2.260  1.00 20.00     0.029 C 
HETATM    6  C6  UNL     1     -33.253  14.163  -3.707  1.00 20.00     0.029 C 
HETATM    7  O7  UNL     1     -35.354  16.718  -5.581  1.00 20.00    -0.305 OA
HETATM    8  P8  UNL     1     -35.617  15.306  -4.796  1.00 20.00     0.165 P 
HETATM    9  S9  UNL     1     -37.391  15.011  -4.086  1.00 20.00    -0.049 SA
HETATM   10 CL10 UNL     1     -35.201  13.986  -6.256  1.00 20.00    -0.054 Cl
ENDROOT
TORSDOF 0
ENDMDL
MODEL 5
REMARK VINA RESULT:      -3.9      2.461      2.951
REMARK  0 active torsions:
REMARK  status: ('A' for Active; 'I' for Inactive)
ROOT
HETATM    1  C1  UNL     1     -34.849  15.163  -2.623  1.00 20.00     0.023 C 
HETATM    2  C2  UNL     1     -34.691  16.429  -2.220  1.00 20.00     0.047 C 
HETATM    3  C3  UNL     1     -35.298  14.982  -4.063  1.00 20.00     0.040 C 
HETATM    4  C4  UNL     1     -34.297  16.906  -0.871  1.00 20.00     0.076 C 
HETATM    5  C5  UNL     1     -36.740  14.462  -4.065  1.00 20.00     0.029 C 
HETATM    6  C6  UNL     1     -34.397  13.996  -4.804  1.00 20.00     0.029 C 
HETATM    7  O7  UNL     1     -34.932  17.395  -3.187  1.00 20.00    -0.305 OA
HETATM    8  P8  UNL     1     -35.180  16.725  -4.659  1.00 20.00     0.165 P 
HETATM    9  S9  UNL     1     -36.547  17.521  -5.770  1.00 20.00    -0.049 SA
HETATM   10 CL10 UNL     1     -33.360  16.960  -5.486  1.00 20.00    -0.054 Cl
ENDROOT
TORSDOF 0
ENDMDL
MODEL 6
REMARK VINA RESULT:      -3.9      2.370      2.917
REMARK  0 active torsions:
REMARK  status: ('A' for Active; 'I' for Inactive)
ROOT
HETATM    1  C1  UNL     1     -34.090  15.383  -5.594  1.00 20.00     0.023 C 
HETATM    2  C2  UNL     1     -34.607  16.616  -5.650  1.00 20.00     0.047 C 
HETATM    3  C3  UNL     1     -34.126  14.717  -4.229  1.00 20.00     0.040 C 
HETATM    4  C4  UNL     1     -34.677  17.514  -6.829  1.00 20.00     0.076 C 
HETATM    5  C5  UNL     1     -32.694  14.622  -3.691  1.00 20.00     0.029 C 
HETATM    6  C6  UNL     1     -34.735  13.318  -4.313  1.00 20.00     0.029 C 
HETATM    7  O7  UNL     1     -35.130  17.096  -4.458  1.00 20.00    -0.305 OA
HETATM    8  P8  UNL     1     -35.146  15.942  -3.298  1.00 20.00     0.165 P 
HETATM    9  S9  UNL     1     -34.695  16.493  -1.501  1.00 20.00    -0.049 SA
HETATM   10 CL10 UNL     1     -37.063  15.337  -3.403  1.00 20.00    -0.054 Cl
ENDROOT
TORSDOF 0
ENDMDL
MODEL 7
REMARK VINA RESULT:      -3.8      2.454      2.514
REMARK  0 active torsions:
REMARK  status: ('A' for Active; 'I' for Inactive)
ROOT
HETATM    1  C1  UNL     1     -35.403  15.435  -3.161  1.00 20.00     0.023 C 
HETATM    2  C2  UNL     1     -36.264  16.296  -3.717  1.00 20.00     0.047 C 
HETATM    3  C3  UNL     1     -34.389  14.816  -4.108  1.00 20.00     0.040 C 
HETATM    4  C4  UNL     1     -37.373  17.022  -3.050  1.00 20.00     0.076 C 
HETATM    5  C5  UNL     1     -34.728  13.331  -4.287  1.00 20.00     0.029 C 
HETATM    6  C6  UNL     1     -32.968  14.954  -3.565  1.00 20.00     0.029 C 
HETATM    7  O7  UNL     1     -36.086  16.523  -5.074  1.00 20.00    -0.305 OA
HETATM    8  P8  UNL     1     -34.727  15.801  -5.632  1.00 20.00     0.165 P 
HETATM    9  S9  UNL     1     -34.820  14.981  -7.381  1.00 20.00    -0.049 SA
HETATM   10 CL10 UNL     1     -33.455  17.360  -5.639  1.00 20.00    -0.054 Cl
ENDROOT
TORSDOF 0
ENDMDL
MODEL 8
REMARK VINA RESULT:      -3.7      1.862      2.078
REMARK  0 active torsions:
REMARK  status: ('A' for Active; 'I' for Inactive)
ROOT
HETATM    1  C1  UNL     1     -36.772  15.506  -5.431  1.00 20.00     0.023 C 
HETATM    2  C2  UNL     1     -37.360  15.100  -4.300  1.00 20.00     0.047 C 
HETATM    3  C3  UNL     1     -35.312  15.909  -5.305  1.00 20.00     0.040 C 
HETATM    4  C4  UNL     1     -38.772  14.681  -4.116  1.00 20.00     0.076 C 
HETATM    5  C5  UNL     1     -35.205  17.428  -5.488  1.00 20.00     0.029 C 
HETATM    6  C6  UNL     1     -34.451  15.206  -6.352  1.00 20.00     0.029 C 
HETATM    7  O7  UNL     1     -36.542  15.077  -3.179  1.00 20.00    -0.305 OA
HETATM    8  P8  UNL     1     -34.983  15.388  -3.565  1.00 20.00     0.165 P 
HETATM    9  S9  UNL     1     -33.977  16.494  -2.338  1.00 20.00    -0.049 SA
HETATM   10 CL10 UNL     1     -34.235  13.521  -3.624  1.00 20.00    -0.054 Cl
ENDROOT
TORSDOF 0
ENDMDL
MODEL 9
REMARK VINA RESULT:      -3.7      2.591      3.387
REMARK  0 active torsions:
REMARK  status: ('A' for Active; 'I' for Inactive)
ROOT
HETATM    1  C1  UNL     1     -36.148  16.312  -2.859  1.00 20.00     0.023 C 
HETATM    2  C2  UNL     1     -34.831  16.277  -2.629  1.00 20.00     0.047 C 
HETATM    3  C3  UNL     1     -36.593  15.782  -4.213  1.00 20.00     0.040 C 
HETATM    4  C4  UNL     1     -34.111  16.753  -1.421  1.00 20.00     0.076 C 
HETATM    5  C5  UNL     1     -37.088  16.960  -5.061  1.00 20.00     0.029 C 
HETATM    6  C6  UNL     1     -37.712  14.753  -4.064  1.00 20.00     0.029 C 
HETATM    7  O7  UNL     1     -34.063  15.735  -3.649  1.00 20.00    -0.305 OA
HETATM    8  P8  UNL     1     -34.996  15.094  -4.831  1.00 20.00     0.165 P 
HETATM    9  S9  UNL     1     -34.408  15.352  -6.655  1.00 20.00    -0.049 SA
HETATM   10 CL10 UNL     1     -34.943  13.145  -4.330  1.00 20.00    -0.054 Cl
ENDROOT
TORSDOF 0
ENDMDL
