MODEL 1
REMARK VINA RESULT:      -4.3      0.000      0.000
REMARK  2 active torsions:
REMARK  status: ('A' for Active; 'I' for Inactive)
REMARK    1  A    between atoms: C2_2  and  O6_6 
REMARK    2  A    between atoms: C5_5  and  O6_6 
ROOT
HETATM    1  C1  UNL     1     -34.681   5.565   6.106  1.00 20.00     0.099 A 
HETATM    2  C2  UNL     1     -33.618   5.437   5.051  1.00 20.00     0.181 A 
HETATM    3  C3  UNL     1     -34.989   4.864   4.812  1.00 20.00     0.207 A 
HETATM    4  F7  UNL     1     -35.083   3.478   4.886  1.00 20.00    -0.223 F 
HETATM    5 CL8  UNL     1     -36.085   5.634   3.681  1.00 20.00    -0.080 Cl
ENDROOT
BRANCH   2   6
HETATM    6  O6  UNL     1     -33.271   6.645   4.357  1.00 20.00    -0.382 OA
BRANCH   6   7
HETATM    7  C5  UNL     1     -32.325   6.388   3.334  1.00 20.00     0.164 C 
HETATM    8  C4  UNL     1     -32.128   7.647   2.517  1.00 20.00     0.033 C 
ENDBRANCH   6   7
ENDBRANCH   2   6
TORSDOF 2
ENDMDL
MODEL 2
REMARK VINA RESULT:      -4.2      2.494      3.713
REMARK  2 active torsions:
REMARK  status: ('A' for Active; 'I' for Inactive)
REMARK    1  A    between atoms: C2_2  and  O6_6 
REMARK    2  A    between atoms: C5_5  and  O6_6 
ROOT
HETATM    1  C1  UNL     1     -34.016   6.484   3.033  1.00 20.00     0.099 A 
HETATM    2  C2  UNL     1     -33.626   5.763   4.293  1.00 20.00     0.181 A 
HETATM    3  C3  UNL     1     -32.564   6.261   3.351  1.00 20.00     0.207 A 
HETATM    4  F7  UNL     1     -31.925   5.284   2.595  1.00 20.00    -0.223 F 
HETATM    5 CL8  UNL     1     -31.578   7.646   3.781  1.00 20.00    -0.080 Cl
ENDROOT
BRANCH   2   6
HETATM    6  O6  UNL     1     -33.823   6.487   5.518  1.00 20.00    -0.382 OA
BRANCH   6   7
HETATM    7  C5  UNL     1     -34.518   5.697   6.466  1.00 20.00     0.164 C 
HETATM    8  C4  UNL     1     -34.835   4.352   5.849  1.00 20.00     0.033 C 
ENDBRANCH   6   7
ENDBRANCH   2   6
TORSDOF 2
ENDMDL
MODEL 3
REMARK VINA RESULT:      -4.2      1.866      2.109
REMARK  2 active torsions:
REMARK  status: ('A' for Active; 'I' for Inactive)
REMARK    1  A    between atoms: C2_2  and  O6_6 
REMARK    2  A    between atoms: C5_5  and  O6_6 
ROOT
HETATM    1  C1  UNL     1     -34.213   4.117   5.243  1.00 20.00     0.099 A 
HETATM    2  C2  UNL     1     -35.278   4.975   4.619  1.00 20.00     0.181 A 
HETATM    3  C3  UNL     1     -34.909   5.165   6.066  1.00 20.00     0.207 A 
HETATM    4  F7  UNL     1     -35.833   4.690   6.990  1.00 20.00    -0.223 F 
HETATM    5 CL8  UNL     1     -33.999   6.577   6.568  1.00 20.00    -0.080 Cl
ENDROOT
BRANCH   2   6
HETATM    6  O6  UNL     1     -34.821   5.960   3.680  1.00 20.00    -0.382 OA
BRANCH   6   7
HETATM    7  C5  UNL     1     -33.656   5.516   3.007  1.00 20.00     0.164 C 
HETATM    8  C4  UNL     1     -32.593   6.589   3.102  1.00 20.00     0.033 C 
ENDBRANCH   6   7
ENDBRANCH   2   6
TORSDOF 2
ENDMDL
MODEL 4
REMARK VINA RESULT:      -4.2      2.866      4.002
REMARK  2 active torsions:
REMARK  status: ('A' for Active; 'I' for Inactive)
REMARK    1  A    between atoms: C2_2  and  O6_6 
REMARK    2  A    between atoms: C5_5  and  O6_6 
ROOT
HETATM    1  C1  UNL     1     -32.097   5.829   3.127  1.00 20.00     0.099 A 
HETATM    2  C2  UNL     1     -33.030   6.507   4.090  1.00 20.00     0.181 A 
HETATM    3  C3  UNL     1     -32.012   7.316   3.332  1.00 20.00     0.207 A 
HETATM    4  F7  UNL     1     -30.923   7.760   4.075  1.00 20.00    -0.223 F 
HETATM    5 CL8  UNL     1     -32.514   8.372   2.026  1.00 20.00    -0.080 Cl
ENDROOT
BRANCH   2   6
HETATM    6  O6  UNL     1     -34.402   6.605   3.674  1.00 20.00    -0.382 OA
BRANCH   6   7
HETATM    7  C5  UNL     1     -35.072   5.369   3.848  1.00 20.00     0.164 C 
HETATM    8  C4  UNL     1     -34.984   4.962   5.304  1.00 20.00     0.033 C 
ENDBRANCH   6   7
ENDBRANCH   2   6
TORSDOF 2
ENDMDL
MODEL 5
REMARK VINA RESULT:      -4.1      1.690      1.916
REMARK  2 active torsions:
REMARK  status: ('A' for Active; 'I' for Inactive)
REMARK    1  A    between atoms: C2_2  and  O6_6 
REMARK    2  A    between atoms: C5_5  and  O6_6 
ROOT
HETATM    1  C1  UNL     1     -34.232   5.047   2.877  1.00 20.00     0.099 A 
HETATM    2  C2  UNL     1     -34.161   6.373   3.581  1.00 20.00     0.181 A 
HETATM    3  C3  UNL     1     -35.043   5.280   4.121  1.00 20.00     0.207 A 
HETATM    4  F7  UNL     1     -36.408   5.458   3.925  1.00 20.00    -0.223 F 
HETATM    5 CL8  UNL     1     -34.597   4.426   5.585  1.00 20.00    -0.080 Cl
ENDROOT
BRANCH   2   6
HETATM    6  O6  UNL     1     -32.937   6.649   4.281  1.00 20.00    -0.382 OA
BRANCH   6   7
HETATM    7  C5  UNL     1     -31.858   6.793   3.375  1.00 20.00     0.164 C 
HETATM    8  C4  UNL     1     -32.151   7.946   2.438  1.00 20.00     0.033 C 
ENDBRANCH   6   7
ENDBRANCH   2   6
TORSDOF 2
ENDMDL
MODEL 6
REMARK VINA RESULT:      -4.0      1.711      1.824
REMARK  2 active torsions:
REMARK  status: ('A' for Active; 'I' for Inactive)
REMARK    1  A    between atoms: C2_2  and  O6_6 
REMARK    2  A    between atoms: C5_5  and  O6_6 
ROOT
HETATM    1  C1  UNL     1     -35.548   5.768   4.090  1.00 20.00     0.099 A 
HETATM    2  C2  UNL     1     -34.105   6.149   4.273  1.00 20.00     0.181 A 
HETATM    3  C3  UNL     1     -34.768   5.214   5.249  1.00 20.00     0.207 A 
HETATM    4  F7  UNL     1     -35.069   5.758   6.493  1.00 20.00    -0.223 F 
HETATM    5 CL8  UNL     1     -34.368   3.507   5.250  1.00 20.00    -0.080 Cl
ENDROOT
BRANCH   2   6
HETATM    6  O6  UNL     1     -33.181   5.583   3.331  1.00 20.00    -0.382 OA
BRANCH   6   7
HETATM    7  C5  UNL     1     -31.995   6.355   3.259  1.00 20.00     0.164 C 
HETATM    8  C4  UNL     1     -32.288   7.638   2.512  1.00 20.00     0.033 C 
ENDBRANCH   6   7
ENDBRANCH   2   6
TORSDOF 2
ENDMDL
MODEL 7
REMARK VINA RESULT:      -3.8      2.402      3.119
REMARK  2 active torsions:
REMARK  status: ('A' for Active; 'I' for Inactive)
REMARK    1  A    between atoms: C2_2  and  O6_6 
REMARK    2  A    between atoms: C5_5  and  O6_6 
ROOT
HETATM    1  C1  UNL     1     -35.448   5.798   3.790  1.00 20.00     0.099 A 
HETATM    2  C2  UNL     1     -34.701   4.584   4.267  1.00 20.00     0.181 A 
HETATM    3  C3  UNL     1     -34.168   5.391   3.115  1.00 20.00     0.207 A 
HETATM    4  F7  UNL     1     -34.306   4.811   1.859  1.00 20.00    -0.223 F 
HETATM    5 CL8  UNL     1     -32.752   6.405   3.325  1.00 20.00    -0.080 Cl
ENDROOT
BRANCH   2   6
HETATM    6  O6  UNL     1     -34.037   4.712   5.535  1.00 20.00    -0.382 OA
BRANCH   6   7
HETATM    7  C5  UNL     1     -34.726   5.620   6.376  1.00 20.00     0.164 C 
HETATM    8  C4  UNL     1     -33.828   6.804   6.664  1.00 20.00     0.033 C 
ENDBRANCH   6   7
ENDBRANCH   2   6
TORSDOF 2
ENDMDL
MODEL 8
REMARK VINA RESULT:      -3.6     12.443     13.381
REMARK  2 active torsions:
REMARK  status: ('A' for Active; 'I' for Inactive)
REMARK    1  A    between atoms: C2_2  and  O6_6 
REMARK    2  A    between atoms: C5_5  and  O6_6 
ROOT
HETATM    1  C1  UNL     1     -33.639  16.116  -2.881  1.00 20.00     0.099 A 
HETATM    2  C2  UNL     1     -33.440  16.147  -4.371  1.00 20.00     0.181 A 
HETATM    3  C3  UNL     1     -33.245  14.863  -3.611  1.00 20.00     0.207 A 
HETATM    4  F7  UNL     1     -31.925  14.458  -3.444  1.00 20.00    -0.223 F 
HETATM    5 CL8  UNL     1     -34.418  13.567  -3.746  1.00 20.00    -0.080 Cl
ENDROOT
BRANCH   2   6
HETATM    6  O6  UNL     1     -34.632  16.278  -5.162  1.00 20.00    -0.382 OA
BRANCH   6   7
HETATM    7  C5  UNL     1     -34.315  16.397  -6.538  1.00 20.00     0.164 C 
HETATM    8  C4  UNL     1     -34.423  15.034  -7.187  1.00 20.00     0.033 C 
ENDBRANCH   6   7
ENDBRANCH   2   6
TORSDOF 2
ENDMDL
MODEL 9
REMARK VINA RESULT:      -3.6      9.529      9.923
REMARK  2 active torsions:
REMARK  status: ('A' for Active; 'I' for Inactive)
REMARK    1  A    between atoms: C2_2  and  O6_6 
REMARK    2  A    between atoms: C5_5  and  O6_6 
ROOT
HETATM    1  C1  UNL     1     -42.338   6.464  -0.402  1.00 20.00     0.099 A 
HETATM    2  C2  UNL     1     -41.353   7.138  -1.316  1.00 20.00     0.181 A 
HETATM    3  C3  UNL     1     -40.907   6.004  -0.432  1.00 20.00     0.207 A 
HETATM    4  F7  UNL     1     -40.135   6.366   0.666  1.00 20.00    -0.223 F 
HETATM    5 CL8  UNL     1     -40.546   4.433  -1.123  1.00 20.00    -0.080 Cl
ENDROOT
BRANCH   2   6
HETATM    6  O6  UNL     1     -41.509   6.868  -2.718  1.00 20.00    -0.382 OA
BRANCH   6   7
HETATM    7  C5  UNL     1     -42.716   7.424  -3.208  1.00 20.00     0.164 C 
HETATM    8  C4  UNL     1     -42.394   8.385  -4.333  1.00 20.00     0.033 C 
ENDBRANCH   6   7
ENDBRANCH   2   6
TORSDOF 2
ENDMDL
