MODEL 1
REMARK VINA RESULT:      -4.3      0.000      0.000
REMARK  1 active torsions:
REMARK  status: ('A' for Active; 'I' for Inactive)
REMARK    1  A    between atoms: C1_1  and  C2_2 
ROOT
HETATM    1  C1  UNL     1     -34.860   5.051   4.197  1.00 20.00     0.314 C 
HETATM    2  F3  UNL     1     -36.114   5.419   3.824  1.00 20.00    -0.228 F 
HETATM    3 CL5  UNL     1     -34.977   3.978   5.608  1.00 20.00    -0.085 Cl
ENDROOT
BRANCH   1   4
HETATM    4  C2  UNL     1     -34.051   6.288   4.529  1.00 20.00     0.314 C 
HETATM    5  F4  UNL     1     -32.791   6.150   4.036  1.00 20.00    -0.228 F 
HETATM    6 CL6  UNL     1     -33.950   6.516   6.289  1.00 20.00    -0.085 Cl
ENDBRANCH   1   4
TORSDOF 1
ENDMDL
MODEL 2
REMARK VINA RESULT:      -4.3      0.005      2.701
REMARK  1 active torsions:
REMARK  status: ('A' for Active; 'I' for Inactive)
REMARK    1  A    between atoms: C1_1  and  C2_2 
ROOT
HETATM    1  C1  UNL     1     -34.051   6.287   4.528  1.00 20.00     0.314 C 
HETATM    2  F3  UNL     1     -32.791   6.146   4.036  1.00 20.00    -0.228 F 
HETATM    3 CL5  UNL     1     -33.952   6.514   6.287  1.00 20.00    -0.085 Cl
ENDROOT
BRANCH   1   4
HETATM    4  C2  UNL     1     -34.863   5.052   4.191  1.00 20.00     0.314 C 
HETATM    5  F4  UNL     1     -36.118   5.424   3.822  1.00 20.00    -0.228 F 
HETATM    6 CL6  UNL     1     -34.981   3.977   5.602  1.00 20.00    -0.085 Cl
ENDBRANCH   1   4
TORSDOF 1
ENDMDL
MODEL 3
REMARK VINA RESULT:      -4.1      1.795      2.248
REMARK  1 active torsions:
REMARK  status: ('A' for Active; 'I' for Inactive)
REMARK    1  A    between atoms: C1_1  and  C2_2 
ROOT
HETATM    1  C1  UNL     1     -34.272   5.413   5.206  1.00 20.00     0.314 C 
HETATM    2  F3  UNL     1     -35.522   4.896   5.341  1.00 20.00    -0.228 F 
HETATM    3 CL5  UNL     1     -34.010   6.612   6.491  1.00 20.00    -0.085 Cl
ENDROOT
BRANCH   1   4
HETATM    4  C2  UNL     1     -34.138   6.054   3.839  1.00 20.00     0.314 C 
HETATM    5  F4  UNL     1     -34.756   5.275   2.913  1.00 20.00    -0.228 F 
HETATM    6 CL6  UNL     1     -32.427   6.219   3.391  1.00 20.00    -0.085 Cl
ENDBRANCH   1   4
TORSDOF 1
ENDMDL
MODEL 4
REMARK VINA RESULT:      -4.1      1.748      2.395
REMARK  1 active torsions:
REMARK  status: ('A' for Active; 'I' for Inactive)
REMARK    1  A    between atoms: C1_1  and  C2_2 
ROOT
HETATM    1  C1  UNL     1     -34.073   6.057   3.764  1.00 20.00     0.314 C 
HETATM    2  F3  UNL     1     -34.516   5.235   2.776  1.00 20.00    -0.228 F 
HETATM    3 CL5  UNL     1     -32.350   6.394   3.495  1.00 20.00    -0.085 Cl
ENDROOT
BRANCH   1   4
HETATM    4  C2  UNL     1     -34.285   5.388   5.107  1.00 20.00     0.314 C 
HETATM    5  F4  UNL     1     -35.559   4.918   5.182  1.00 20.00    -0.228 F 
HETATM    6 CL6  UNL     1     -34.029   6.546   6.431  1.00 20.00    -0.085 Cl
ENDBRANCH   1   4
TORSDOF 1
ENDMDL
MODEL 5
REMARK VINA RESULT:      -4.0      1.992      2.333
REMARK  1 active torsions:
REMARK  status: ('A' for Active; 'I' for Inactive)
REMARK    1  A    between atoms: C1_1  and  C2_2 
ROOT
HETATM    1  C1  UNL     1     -34.773   5.388   4.450  1.00 20.00     0.314 C 
HETATM    2  F3  UNL     1     -35.131   4.173   3.958  1.00 20.00    -0.228 F 
HETATM    3 CL5  UNL     1     -33.406   6.007   3.499  1.00 20.00    -0.085 Cl
ENDROOT
BRANCH   1   4
HETATM    4  C2  UNL     1     -34.390   5.247   5.910  1.00 20.00     0.314 C 
HETATM    5  F4  UNL     1     -35.455   4.777   6.612  1.00 20.00    -0.228 F 
HETATM    6 CL6  UNL     1     -33.912   6.819   6.586  1.00 20.00    -0.085 Cl
ENDBRANCH   1   4
TORSDOF 1
ENDMDL
MODEL 6
REMARK VINA RESULT:      -3.9      2.283      3.048
REMARK  1 active torsions:
REMARK  status: ('A' for Active; 'I' for Inactive)
REMARK    1  A    between atoms: C1_1  and  C2_2 
ROOT
HETATM    1  C1  UNL     1     -33.932   5.780   5.863  1.00 20.00     0.314 C 
HETATM    2  F3  UNL     1     -34.323   6.771   6.708  1.00 20.00    -0.228 F 
HETATM    3 CL5  UNL     1     -33.262   6.518   4.392  1.00 20.00    -0.085 Cl
ENDROOT
BRANCH   1   4
HETATM    4  C2  UNL     1     -35.124   4.905   5.529  1.00 20.00     0.314 C 
HETATM    5  F4  UNL     1     -34.756   3.598   5.593  1.00 20.00    -0.228 F 
HETATM    6 CL6  UNL     1     -35.713   5.249   3.888  1.00 20.00    -0.085 Cl
ENDBRANCH   1   4
TORSDOF 1
ENDMDL
MODEL 7
REMARK VINA RESULT:      -3.9      1.756      2.165
REMARK  1 active torsions:
REMARK  status: ('A' for Active; 'I' for Inactive)
REMARK    1  A    between atoms: C1_1  and  C2_2 
ROOT
HETATM    1  C1  UNL     1     -34.723   5.710   5.413  1.00 20.00     0.314 C 
HETATM    2  F3  UNL     1     -33.762   6.253   6.206  1.00 20.00    -0.228 F 
HETATM    3 CL5  UNL     1     -34.784   3.959   5.710  1.00 20.00    -0.085 Cl
ENDROOT
BRANCH   1   4
HETATM    4  C2  UNL     1     -34.398   5.997   3.961  1.00 20.00     0.314 C 
HETATM    5  F4  UNL     1     -34.663   4.893   3.212  1.00 20.00    -0.228 F 
HETATM    6 CL6  UNL     1     -32.679   6.410   3.774  1.00 20.00    -0.085 Cl
ENDBRANCH   1   4
TORSDOF 1
ENDMDL
MODEL 8
REMARK VINA RESULT:      -3.9      1.756      2.338
REMARK  1 active torsions:
REMARK  status: ('A' for Active; 'I' for Inactive)
REMARK    1  A    between atoms: C1_1  and  C2_2 
ROOT
HETATM    1  C1  UNL     1     -34.378   6.012   3.984  1.00 20.00     0.314 C 
HETATM    2  F3  UNL     1     -34.685   4.910   3.249  1.00 20.00    -0.228 F 
HETATM    3 CL5  UNL     1     -32.654   6.381   3.766  1.00 20.00    -0.085 Cl
ENDROOT
BRANCH   1   4
HETATM    4  C2  UNL     1     -34.690   5.746   5.443  1.00 20.00     0.314 C 
HETATM    5  F4  UNL     1     -33.733   6.320   6.221  1.00 20.00    -0.228 F 
HETATM    6 CL6  UNL     1     -34.713   4.000   5.770  1.00 20.00    -0.085 Cl
ENDBRANCH   1   4
TORSDOF 1
ENDMDL
MODEL 9
REMARK VINA RESULT:      -3.9      2.339      2.339
REMARK  1 active torsions:
REMARK  status: ('A' for Active; 'I' for Inactive)
REMARK    1  A    between atoms: C1_1  and  C2_2 
ROOT
HETATM    1  C1  UNL     1     -35.003   5.043   5.804  1.00 20.00     0.314 C 
HETATM    2  F3  UNL     1     -34.604   3.776   6.094  1.00 20.00    -0.228 F 
HETATM    3 CL5  UNL     1     -35.616   5.079   4.137  1.00 20.00    -0.085 Cl
ENDROOT
BRANCH   1   4
HETATM    4  C2  UNL     1     -33.830   5.989   5.964  1.00 20.00     0.314 C 
HETATM    5  F4  UNL     1     -34.212   7.060   6.710  1.00 20.00    -0.228 F 
HETATM    6 CL6  UNL     1     -33.274   6.571   4.379  1.00 20.00    -0.085 Cl
ENDBRANCH   1   4
TORSDOF 1
ENDMDL
