MODEL 1
REMARK VINA RESULT:      -4.9      0.000      0.000
REMARK  0 active torsions:
REMARK  status: ('A' for Active; 'I' for Inactive)
ROOT
HETATM    1  C1  UNL     1     -34.203  16.141  -4.784  1.00 20.00    -0.071 C 
HETATM    2  C2  UNL     1     -33.582  17.247  -5.208  1.00 20.00    -0.027 C 
HETATM    3  C3  UNL     1     -34.955  14.186  -6.093  1.00 20.00     0.009 C 
HETATM    4  C4  UNL     1     -34.730  13.271  -4.874  1.00 20.00     0.006 C 
HETATM    5  C5  UNL     1     -36.179  15.015  -4.227  1.00 20.00     0.014 C 
HETATM    6  C6  UNL     1     -35.410  15.508  -5.451  1.00 20.00     0.015 C 
HETATM    7  C7  UNL     1     -34.985  14.217  -3.678  1.00 20.00    -0.002 C 
HETATM    8  C8  UNL     1     -33.877  15.315  -3.545  1.00 20.00    -0.021 C 
HETATM    9  C9  UNL     1     -33.994  18.026  -6.412  1.00 20.00     0.036 C 
HETATM   10  C10 UNL     1     -34.061  16.127  -2.249  1.00 20.00     0.020 C 
HETATM   11  C11 UNL     1     -32.451  14.748  -3.567  1.00 20.00     0.020 C 
ENDROOT
TORSDOF 0
ENDMDL
MODEL 2
REMARK VINA RESULT:      -4.9      1.282      3.235
REMARK  0 active torsions:
REMARK  status: ('A' for Active; 'I' for Inactive)
ROOT
HETATM    1  C1  UNL     1     -34.992  15.825  -3.212  1.00 20.00    -0.071 C 
HETATM    2  C2  UNL     1     -35.320  16.399  -2.050  1.00 20.00    -0.027 C 
HETATM    3  C3  UNL     1     -33.559  13.855  -3.620  1.00 20.00     0.009 C 
HETATM    4  C4  UNL     1     -34.383  13.502  -4.872  1.00 20.00     0.006 C 
HETATM    5  C5  UNL     1     -33.612  15.718  -5.100  1.00 20.00     0.014 C 
HETATM    6  C6  UNL     1     -33.593  15.393  -3.608  1.00 20.00     0.015 C 
HETATM    7  C7  UNL     1     -34.875  14.883  -5.365  1.00 20.00    -0.002 C 
HETATM    8  C8  UNL     1     -35.916  15.524  -4.387  1.00 20.00    -0.021 C 
HETATM    9  C9  UNL     1     -34.343  16.701  -0.964  1.00 20.00     0.036 C 
HETATM   10  C10 UNL     1     -36.516  16.808  -4.990  1.00 20.00     0.020 C 
HETATM   11  C11 UNL     1     -37.065  14.577  -4.013  1.00 20.00     0.020 C 
ENDROOT
TORSDOF 0
ENDMDL
MODEL 3
REMARK VINA RESULT:      -4.9      1.348      2.985
REMARK  0 active torsions:
REMARK  status: ('A' for Active; 'I' for Inactive)
ROOT
HETATM    1  C1  UNL     1     -34.747  15.828  -2.893  1.00 20.00    -0.071 C 
HETATM    2  C2  UNL     1     -34.118  16.287  -1.806  1.00 20.00    -0.027 C 
HETATM    3  C3  UNL     1     -36.595  16.857  -4.167  1.00 20.00     0.009 C 
HETATM    4  C4  UNL     1     -36.084  16.197  -5.462  1.00 20.00     0.006 C 
HETATM    5  C5  UNL     1     -36.421  14.504  -3.857  1.00 20.00     0.014 C 
HETATM    6  C6  UNL     1     -36.251  15.815  -3.090  1.00 20.00     0.015 C 
HETATM    7  C7  UNL     1     -35.416  14.900  -4.950  1.00 20.00    -0.002 C 
HETATM    8  C8  UNL     1     -34.116  15.189  -4.126  1.00 20.00    -0.021 C 
HETATM    9  C9  UNL     1     -34.815  16.859  -0.618  1.00 20.00     0.036 C 
HETATM   10  C10 UNL     1     -33.382  13.880  -3.783  1.00 20.00     0.020 C 
HETATM   11  C11 UNL     1     -33.135  16.127  -4.844  1.00 20.00     0.020 C 
ENDROOT
TORSDOF 0
ENDMDL
MODEL 4
REMARK VINA RESULT:      -4.9      0.916      2.934
REMARK  0 active torsions:
REMARK  status: ('A' for Active; 'I' for Inactive)
ROOT
HETATM    1  C1  UNL     1     -34.540  15.640  -5.163  1.00 20.00    -0.071 C 
HETATM    2  C2  UNL     1     -34.991  15.927  -6.388  1.00 20.00    -0.027 C 
HETATM    3  C3  UNL     1     -33.968  17.179  -3.319  1.00 20.00     0.009 C 
HETATM    4  C4  UNL     1     -34.376  16.111  -2.286  1.00 20.00     0.006 C 
HETATM    5  C5  UNL     1     -32.758  15.169  -3.719  1.00 20.00     0.014 C 
HETATM    6  C6  UNL     1     -33.387  16.341  -4.470  1.00 20.00     0.015 C 
HETATM    7  C7  UNL     1     -34.072  14.785  -3.021  1.00 20.00    -0.002 C 
HETATM    8  C8  UNL     1     -35.039  14.542  -4.229  1.00 20.00    -0.021 C 
HETATM    9  C9  UNL     1     -34.416  16.993  -7.259  1.00 20.00     0.036 C 
HETATM   10  C10 UNL     1     -34.828  13.139  -4.827  1.00 20.00     0.020 C 
HETATM   11  C11 UNL     1     -36.522  14.700  -3.865  1.00 20.00     0.020 C 
ENDROOT
TORSDOF 0
ENDMDL
MODEL 5
REMARK VINA RESULT:      -4.8      1.296      3.012
REMARK  0 active torsions:
REMARK  status: ('A' for Active; 'I' for Inactive)
ROOT
HETATM    1  C1  UNL     1     -34.909  15.917  -3.395  1.00 20.00    -0.071 C 
HETATM    2  C2  UNL     1     -34.687  15.897  -2.076  1.00 20.00    -0.027 C 
HETATM    3  C3  UNL     1     -33.359  16.516  -5.221  1.00 20.00     0.009 C 
HETATM    4  C4  UNL     1     -34.079  15.536  -6.167  1.00 20.00     0.006 C 
HETATM    5  C5  UNL     1     -35.680  17.034  -5.302  1.00 20.00     0.014 C 
HETATM    6  C6  UNL     1     -34.500  17.037  -4.332  1.00 20.00     0.015 C 
HETATM    7  C7  UNL     1     -35.530  15.541  -5.633  1.00 20.00    -0.002 C 
HETATM    8  C8  UNL     1     -35.643  14.868  -4.223  1.00 20.00    -0.021 C 
HETATM    9  C9  UNL     1     -33.996  16.989  -1.331  1.00 20.00     0.036 C 
HETATM   10  C10 UNL     1     -37.117  14.730  -3.799  1.00 20.00     0.020 C 
HETATM   11  C11 UNL     1     -34.982  13.485  -4.152  1.00 20.00     0.020 C 
ENDROOT
TORSDOF 0
ENDMDL
MODEL 6
REMARK VINA RESULT:      -4.6      1.283      3.009
REMARK  0 active torsions:
REMARK  status: ('A' for Active; 'I' for Inactive)
ROOT
HETATM    1  C1  UNL     1     -35.706  15.573  -3.573  1.00 20.00    -0.071 C 
HETATM    2  C2  UNL     1     -37.031  15.645  -3.408  1.00 20.00    -0.027 C 
HETATM    3  C3  UNL     1     -34.415  15.274  -5.656  1.00 20.00     0.009 C 
HETATM    4  C4  UNL     1     -33.249  16.088  -5.063  1.00 20.00     0.006 C 
HETATM    5  C5  UNL     1     -33.732  14.314  -3.588  1.00 20.00     0.014 C 
HETATM    6  C6  UNL     1     -34.987  14.547  -4.427  1.00 20.00     0.015 C 
HETATM    7  C7  UNL     1     -33.364  15.806  -3.547  1.00 20.00    -0.002 C 
HETATM    8  C8  UNL     1     -34.645  16.454  -2.920  1.00 20.00    -0.021 C 
HETATM    9  C9  UNL     1     -38.003  14.713  -4.051  1.00 20.00     0.036 C 
HETATM   10  C10 UNL     1     -34.640  16.307  -1.387  1.00 20.00     0.020 C 
HETATM   11  C11 UNL     1     -34.810  17.939  -3.268  1.00 20.00     0.020 C 
ENDROOT
TORSDOF 0
ENDMDL
MODEL 7
REMARK VINA RESULT:      -4.6      1.467      2.991
REMARK  0 active torsions:
REMARK  status: ('A' for Active; 'I' for Inactive)
ROOT
HETATM    1  C1  UNL     1     -35.281  15.175  -5.264  1.00 20.00    -0.071 C 
HETATM    2  C2  UNL     1     -35.663  15.298  -6.540  1.00 20.00    -0.027 C 
HETATM    3  C3  UNL     1     -33.113  15.748  -4.231  1.00 20.00     0.009 C 
HETATM    4  C4  UNL     1     -33.820  16.067  -2.900  1.00 20.00     0.006 C 
HETATM    5  C5  UNL     1     -34.398  13.871  -3.531  1.00 20.00     0.014 C 
HETATM    6  C6  UNL     1     -33.957  14.596  -4.801  1.00 20.00     0.015 C 
HETATM    7  C7  UNL     1     -35.046  15.126  -2.923  1.00 20.00    -0.002 C 
HETATM    8  C8  UNL     1     -36.086  15.535  -4.020  1.00 20.00    -0.021 C 
HETATM    9  C9  UNL     1     -34.830  14.878  -7.704  1.00 20.00     0.036 C 
HETATM   10  C10 UNL     1     -37.369  14.692  -3.901  1.00 20.00     0.020 C 
HETATM   11  C11 UNL     1     -36.471  17.020  -3.971  1.00 20.00     0.020 C 
ENDROOT
TORSDOF 0
ENDMDL
MODEL 8
REMARK VINA RESULT:      -4.5      1.112      3.169
REMARK  0 active torsions:
REMARK  status: ('A' for Active; 'I' for Inactive)
ROOT
HETATM    1  C1  UNL     1     -35.426  15.368  -4.304  1.00 20.00    -0.071 C 
HETATM    2  C2  UNL     1     -36.460  14.825  -3.653  1.00 20.00    -0.027 C 
HETATM    3  C3  UNL     1     -35.289  17.546  -5.458  1.00 20.00     0.009 C 
HETATM    4  C4  UNL     1     -33.788  17.639  -5.128  1.00 20.00     0.006 C 
HETATM    5  C5  UNL     1     -34.167  15.608  -6.263  1.00 20.00     0.014 C 
HETATM    6  C6  UNL     1     -35.504  16.037  -5.663  1.00 20.00     0.015 C 
HETATM    7  C7  UNL     1     -33.350  16.157  -5.082  1.00 20.00    -0.002 C 
HETATM    8  C8  UNL     1     -33.967  15.395  -3.861  1.00 20.00    -0.021 C 
HETATM    9  C9  UNL     1     -37.856  14.801  -4.178  1.00 20.00     0.036 C 
HETATM   10  C10 UNL     1     -33.376  13.978  -3.742  1.00 20.00     0.020 C 
HETATM   11  C11 UNL     1     -33.766  16.122  -2.524  1.00 20.00     0.020 C 
ENDROOT
TORSDOF 0
ENDMDL
MODEL 9
REMARK VINA RESULT:      -4.5      1.347      3.554
REMARK  0 active torsions:
REMARK  status: ('A' for Active; 'I' for Inactive)
ROOT
HETATM    1  C1  UNL     1     -35.918  15.260  -4.002  1.00 20.00    -0.071 C 
HETATM    2  C2  UNL     1     -37.023  14.520  -4.146  1.00 20.00    -0.027 C 
HETATM    3  C3  UNL     1     -35.088  16.436  -1.996  1.00 20.00     0.009 C 
HETATM    4  C4  UNL     1     -33.635  16.235  -2.467  1.00 20.00     0.006 C 
HETATM    5  C5  UNL     1     -34.823  17.321  -4.190  1.00 20.00     0.014 C 
HETATM    6  C6  UNL     1     -35.856  16.612  -3.317  1.00 20.00     0.015 C 
HETATM    7  C7  UNL     1     -33.769  16.217  -4.008  1.00 20.00    -0.002 C 
HETATM    8  C8  UNL     1     -34.520  14.943  -4.522  1.00 20.00    -0.021 C 
HETATM    9  C9  UNL     1     -38.369  14.925  -3.644  1.00 20.00     0.036 C 
HETATM   10  C10 UNL     1     -34.482  14.867  -6.059  1.00 20.00     0.020 C 
HETATM   11  C11 UNL     1     -33.958  13.633  -3.953  1.00 20.00     0.020 C 
ENDROOT
TORSDOF 0
ENDMDL
