MODEL 1
REMARK VINA RESULT:      -4.4      0.000      0.000
REMARK  2 active torsions:
REMARK  status: ('A' for Active; 'I' for Inactive)
REMARK    1  A    between atoms: C2_2  and  O6_6 
REMARK    2  A    between atoms: C5_5  and  O6_6 
ROOT
HETATM    1  C1  UNL     1     -34.110   6.437   5.307  1.00 20.00     0.099 A 
HETATM    2  C2  UNL     1     -33.344   5.720   4.232  1.00 20.00     0.181 A 
HETATM    3  C3  UNL     1     -34.747   5.296   4.567  1.00 20.00     0.207 A 
HETATM    4  F7  UNL     1     -35.734   5.644   3.650  1.00 20.00    -0.223 F 
HETATM    5 CL8  UNL     1     -34.991   3.777   5.406  1.00 20.00    -0.080 Cl
ENDROOT
BRANCH   2   6
HETATM    6  O6  UNL     1     -33.174   6.434   2.997  1.00 20.00    -0.382 OA
BRANCH   6   7
HETATM    7  C5  UNL     1     -32.021   7.253   3.040  1.00 20.00     0.164 C 
HETATM    8  C4  UNL     1     -32.126   8.311   1.962  1.00 20.00     0.033 C 
ENDBRANCH   6   7
ENDBRANCH   2   6
TORSDOF 2
ENDMDL
MODEL 2
REMARK VINA RESULT:      -4.2      2.874      3.998
REMARK  2 active torsions:
REMARK  status: ('A' for Active; 'I' for Inactive)
REMARK    1  A    between atoms: C2_2  and  O6_6 
REMARK    2  A    between atoms: C5_5  and  O6_6 
ROOT
HETATM    1  C1  UNL     1     -32.889   6.810   4.522  1.00 20.00     0.099 A 
HETATM    2  C2  UNL     1     -33.959   6.492   3.518  1.00 20.00     0.181 A 
HETATM    3  C3  UNL     1     -32.532   6.646   3.073  1.00 20.00     0.207 A 
HETATM    4  F7  UNL     1     -31.856   5.476   2.743  1.00 20.00    -0.223 F 
HETATM    5 CL8  UNL     1     -32.086   8.067   2.148  1.00 20.00    -0.080 Cl
ENDROOT
BRANCH   2   6
HETATM    6  O6  UNL     1     -34.472   5.149   3.549  1.00 20.00    -0.382 OA
BRANCH   6   7
HETATM    7  C5  UNL     1     -35.431   4.998   4.579  1.00 20.00     0.164 C 
HETATM    8  C4  UNL     1     -34.879   4.064   5.634  1.00 20.00     0.033 C 
ENDBRANCH   6   7
ENDBRANCH   2   6
TORSDOF 2
ENDMDL
MODEL 3
REMARK VINA RESULT:      -3.8      2.685      3.904
REMARK  2 active torsions:
REMARK  status: ('A' for Active; 'I' for Inactive)
REMARK    1  A    between atoms: C2_2  and  O6_6 
REMARK    2  A    between atoms: C5_5  and  O6_6 
ROOT
HETATM    1  C1  UNL     1     -32.279   5.675   3.001  1.00 20.00     0.099 A 
HETATM    2  C2  UNL     1     -33.193   6.136   4.099  1.00 20.00     0.181 A 
HETATM    3  C3  UNL     1     -32.351   7.133   3.353  1.00 20.00     0.207 A 
HETATM    4  F7  UNL     1     -33.016   7.945   2.440  1.00 20.00    -0.223 F 
HETATM    5 CL8  UNL     1     -30.990   7.870   4.176  1.00 20.00    -0.080 Cl
ENDROOT
BRANCH   2   6
HETATM    6  O6  UNL     1     -34.597   6.136   3.791  1.00 20.00    -0.382 OA
BRANCH   6   7
HETATM    7  C5  UNL     1     -35.257   5.065   4.440  1.00 20.00     0.164 C 
HETATM    8  C4  UNL     1     -34.810   5.012   5.885  1.00 20.00     0.033 C 
ENDBRANCH   6   7
ENDBRANCH   2   6
TORSDOF 2
ENDMDL
MODEL 4
REMARK VINA RESULT:      -3.7      1.839      2.302
REMARK  2 active torsions:
REMARK  status: ('A' for Active; 'I' for Inactive)
REMARK    1  A    between atoms: C2_2  and  O6_6 
REMARK    2  A    between atoms: C5_5  and  O6_6 
ROOT
HETATM    1  C1  UNL     1     -32.259   5.519   3.216  1.00 20.00     0.099 A 
HETATM    2  C2  UNL     1     -32.853   6.782   2.663  1.00 20.00     0.181 A 
HETATM    3  C3  UNL     1     -33.367   6.213   3.956  1.00 20.00     0.207 A 
HETATM    4  F7  UNL     1     -32.994   6.881   5.118  1.00 20.00    -0.223 F 
HETATM    5 CL8  UNL     1     -34.956   5.475   3.980  1.00 20.00    -0.080 Cl
ENDROOT
BRANCH   2   6
HETATM    6  O6  UNL     1     -32.037   7.960   2.768  1.00 20.00    -0.382 OA
BRANCH   6   7
HETATM    7  C5  UNL     1     -31.835   8.551   1.498  1.00 20.00     0.164 C 
HETATM    8  C4  UNL     1     -32.516   9.902   1.468  1.00 20.00     0.033 C 
ENDBRANCH   6   7
ENDBRANCH   2   6
TORSDOF 2
ENDMDL
MODEL 5
REMARK VINA RESULT:      -3.5     11.424     11.884
REMARK  2 active torsions:
REMARK  status: ('A' for Active; 'I' for Inactive)
REMARK    1  A    between atoms: C2_2  and  O6_6 
REMARK    2  A    between atoms: C5_5  and  O6_6 
ROOT
HETATM    1  C1  UNL     1     -33.605  13.659  -3.857  1.00 20.00     0.099 A 
HETATM    2  C2  UNL     1     -34.112  15.067  -3.733  1.00 20.00     0.181 A 
HETATM    3  C3  UNL     1     -34.868  14.065  -4.562  1.00 20.00     0.207 A 
HETATM    4  F7  UNL     1     -36.051  13.577  -4.017  1.00 20.00    -0.223 F 
HETATM    5 CL8  UNL     1     -34.844  14.227  -6.307  1.00 20.00    -0.080 Cl
ENDROOT
BRANCH   2   6
HETATM    6  O6  UNL     1     -34.699  15.415  -2.468  1.00 20.00    -0.382 OA
BRANCH   6   7
HETATM    7  C5  UNL     1     -34.083  16.567  -1.924  1.00 20.00     0.164 C 
HETATM    8  C4  UNL     1     -34.642  16.819  -0.540  1.00 20.00     0.033 C 
ENDBRANCH   6   7
ENDBRANCH   2   6
TORSDOF 2
ENDMDL
MODEL 6
REMARK VINA RESULT:      -3.5      9.144      9.657
REMARK  2 active torsions:
REMARK  status: ('A' for Active; 'I' for Inactive)
REMARK    1  A    between atoms: C2_2  and  O6_6 
REMARK    2  A    between atoms: C5_5  and  O6_6 
ROOT
HETATM    1  C1  UNL     1     -40.815   4.505  -1.235  1.00 20.00     0.099 A 
HETATM    2  C2  UNL     1     -41.768   5.608  -1.597  1.00 20.00     0.181 A 
HETATM    3  C3  UNL     1     -41.388   5.384  -0.160  1.00 20.00     0.207 A 
HETATM    4  F7  UNL     1     -40.511   6.308   0.399  1.00 20.00    -0.223 F 
HETATM    5 CL8  UNL     1     -42.582   4.712   0.932  1.00 20.00    -0.080 Cl
ENDROOT
BRANCH   2   6
HETATM    6  O6  UNL     1     -41.186   6.757  -2.235  1.00 20.00    -0.382 OA
BRANCH   6   7
HETATM    7  C5  UNL     1     -42.154   7.461  -2.991  1.00 20.00     0.164 C 
HETATM    8  C4  UNL     1     -43.251   7.941  -2.064  1.00 20.00     0.033 C 
ENDBRANCH   6   7
ENDBRANCH   2   6
TORSDOF 2
ENDMDL
MODEL 7
REMARK VINA RESULT:      -3.5     11.667     12.091
REMARK  2 active torsions:
REMARK  status: ('A' for Active; 'I' for Inactive)
REMARK    1  A    between atoms: C2_2  and  O6_6 
REMARK    2  A    between atoms: C5_5  and  O6_6 
ROOT
HETATM    1  C1  UNL     1     -33.743  16.039  -4.502  1.00 20.00     0.099 A 
HETATM    2  C2  UNL     1     -34.270  15.659  -3.148  1.00 20.00     0.181 A 
HETATM    3  C3  UNL     1     -33.386  14.707  -3.906  1.00 20.00     0.207 A 
HETATM    4  F7  UNL     1     -32.079  14.579  -3.447  1.00 20.00    -0.223 F 
HETATM    5 CL8  UNL     1     -34.098  13.259  -4.590  1.00 20.00    -0.080 Cl
ENDROOT
BRANCH   2   6
HETATM    6  O6  UNL     1     -33.668  16.329  -2.028  1.00 20.00    -0.382 OA
BRANCH   6   7
HETATM    7  C5  UNL     1     -34.625  16.583  -1.017  1.00 20.00     0.164 C 
HETATM    8  C4  UNL     1     -34.127  17.711  -0.139  1.00 20.00     0.033 C 
ENDBRANCH   6   7
ENDBRANCH   2   6
TORSDOF 2
ENDMDL
MODEL 8
REMARK VINA RESULT:      -3.4      2.563      3.686
REMARK  2 active torsions:
REMARK  status: ('A' for Active; 'I' for Inactive)
REMARK    1  A    between atoms: C2_2  and  O6_6 
REMARK    2  A    between atoms: C5_5  and  O6_6 
ROOT
HETATM    1  C1  UNL     1     -34.316   5.324   2.434  1.00 20.00     0.099 A 
HETATM    2  C2  UNL     1     -34.176   4.955   3.883  1.00 20.00     0.181 A 
HETATM    3  C3  UNL     1     -33.663   6.280   3.391  1.00 20.00     0.207 A 
HETATM    4  F7  UNL     1     -34.414   7.400   3.735  1.00 20.00    -0.223 F 
HETATM    5 CL8  UNL     1     -31.931   6.528   3.288  1.00 20.00    -0.080 Cl
ENDROOT
BRANCH   2   6
HETATM    6  O6  UNL     1     -35.384   4.991   4.660  1.00 20.00    -0.382 OA
BRANCH   6   7
HETATM    7  C5  UNL     1     -35.122   4.690   6.018  1.00 20.00     0.164 C 
HETATM    8  C4  UNL     1     -34.396   5.857   6.651  1.00 20.00     0.033 C 
ENDBRANCH   6   7
ENDBRANCH   2   6
TORSDOF 2
ENDMDL
MODEL 9
REMARK VINA RESULT:      -3.4     11.560     12.503
REMARK  2 active torsions:
REMARK  status: ('A' for Active; 'I' for Inactive)
REMARK    1  A    between atoms: C2_2  and  O6_6 
REMARK    2  A    between atoms: C5_5  and  O6_6 
ROOT
HETATM    1  C1  UNL     1     -36.197  14.556  -4.029  1.00 20.00     0.099 A 
HETATM    2  C2  UNL     1     -35.037  15.133  -4.788  1.00 20.00     0.181 A 
HETATM    3  C3  UNL     1     -34.851  14.664  -3.372  1.00 20.00     0.207 A 
HETATM    4  F7  UNL     1     -34.161  13.468  -3.202  1.00 20.00    -0.223 F 
HETATM    5 CL8  UNL     1     -34.621  15.860  -2.112  1.00 20.00    -0.080 Cl
ENDROOT
BRANCH   2   6
HETATM    6  O6  UNL     1     -34.477  14.295  -5.813  1.00 20.00    -0.382 OA
BRANCH   6   7
HETATM    7  C5  UNL     1     -34.459  14.964  -7.060  1.00 20.00     0.164 C 
HETATM    8  C4  UNL     1     -35.647  14.509  -7.881  1.00 20.00     0.033 C 
ENDBRANCH   6   7
ENDBRANCH   2   6
TORSDOF 2
ENDMDL
