MODEL 1
REMARK VINA RESULT:      -5.1      0.000      0.000
REMARK  1 active torsions:
REMARK  status: ('A' for Active; 'I' for Inactive)
REMARK    1  A    between atoms: C4_4  and  C8_8 
ROOT
HETATM    1  C1  UNL     1     -33.762  17.146  -4.300  1.00 20.00     0.030 A 
HETATM    2  C2  UNL     1     -34.488  15.927  -2.360  1.00 20.00     0.055 A 
HETATM    3  C3  UNL     1     -33.622  18.257  -3.484  1.00 20.00     0.119 A 
HETATM    4  C4  UNL     1     -34.205  15.964  -3.721  1.00 20.00    -0.010 A 
HETATM    5  C5  UNL     1     -34.315  17.091  -1.630  1.00 20.00     0.126 A 
HETATM    6  N9  UNL     1     -33.887  18.260  -2.158  1.00 20.00    -0.249 NA
HETATM    7 CL12 UNL     1     -34.642  17.138   0.054  1.00 20.00    -0.062 Cl
ENDROOT
BRANCH   4   8
HETATM    8  C8  UNL     1     -34.380  14.690  -4.587  1.00 20.00     0.173 C 
HETATM    9  C6  UNL     1     -33.725  13.395  -4.083  1.00 20.00     0.218 C 
HETATM   10  O10 UNL     1     -34.946  12.655  -4.325  1.00 20.00    -0.384 OA
HETATM   11  C7  UNL     1     -35.685  13.895  -4.420  1.00 20.00     0.218 C 
HETATM   12  F11 UNL     1     -34.077  15.025  -5.860  1.00 20.00    -0.233 F 
ENDBRANCH   4   8
TORSDOF 1
ENDMDL
MODEL 2
REMARK VINA RESULT:      -4.7      1.024      1.173
REMARK  1 active torsions:
REMARK  status: ('A' for Active; 'I' for Inactive)
REMARK    1  A    between atoms: C4_4  and  C8_8 
ROOT
HETATM    1  C1  UNL     1     -33.689  17.072  -3.931  1.00 20.00     0.030 A 
HETATM    2  C2  UNL     1     -34.416  15.879  -1.974  1.00 20.00     0.055 A 
HETATM    3  C3  UNL     1     -33.787  18.239  -3.191  1.00 20.00     0.119 A 
HETATM    4  C4  UNL     1     -34.011  15.874  -3.304  1.00 20.00    -0.010 A 
HETATM    5  C5  UNL     1     -34.482  17.099  -1.321  1.00 20.00     0.126 A 
HETATM    6  N9  UNL     1     -34.177  18.283  -1.897  1.00 20.00    -0.249 NA
HETATM    7 CL12 UNL     1     -34.972  17.200   0.321  1.00 20.00    -0.062 Cl
ENDROOT
BRANCH   4   8
HETATM    8  C8  UNL     1     -33.919  14.538  -4.085  1.00 20.00     0.173 C 
HETATM    9  C6  UNL     1     -35.125  13.588  -4.007  1.00 20.00     0.218 C 
HETATM   10  O10 UNL     1     -35.105  13.405  -5.443  1.00 20.00    -0.384 OA
HETATM   11  C7  UNL     1     -34.257  14.570  -5.584  1.00 20.00     0.218 C 
HETATM   12  F11 UNL     1     -32.730  13.976  -3.781  1.00 20.00    -0.233 F 
ENDBRANCH   4   8
TORSDOF 1
ENDMDL
MODEL 3
REMARK VINA RESULT:      -4.5      3.568      4.536
REMARK  1 active torsions:
REMARK  status: ('A' for Active; 'I' for Inactive)
REMARK    1  A    between atoms: C4_4  and  C8_8 
ROOT
HETATM    1  C1  UNL     1     -33.711  17.578  -3.623  1.00 20.00     0.030 A 
HETATM    2  C2  UNL     1     -34.288  15.354  -2.912  1.00 20.00     0.055 A 
HETATM    3  C3  UNL     1     -33.495  17.059  -4.890  1.00 20.00     0.119 A 
HETATM    4  C4  UNL     1     -34.114  16.703  -2.621  1.00 20.00    -0.010 A 
HETATM    5  C5  UNL     1     -34.046  14.935  -4.210  1.00 20.00     0.126 A 
HETATM    6  N9  UNL     1     -33.653  15.755  -5.210  1.00 20.00    -0.249 NA
HETATM    7 CL12 UNL     1     -34.234  13.289  -4.659  1.00 20.00    -0.062 Cl
ENDROOT
BRANCH   4   8
HETATM    8  C8  UNL     1     -34.370  17.229  -1.185  1.00 20.00     0.173 C 
HETATM    9  C6  UNL     1     -33.285  18.113  -0.551  1.00 20.00     0.218 C 
HETATM   10  O10 UNL     1     -34.281  19.075  -0.129  1.00 20.00    -0.384 OA
HETATM   11  C7  UNL     1     -35.242  18.486  -1.037  1.00 20.00     0.218 C 
HETATM   12  F11 UNL     1     -34.758  16.175  -0.435  1.00 20.00    -0.233 F 
ENDBRANCH   4   8
TORSDOF 1
ENDMDL
MODEL 4
REMARK VINA RESULT:      -4.4      1.831      2.105
REMARK  1 active torsions:
REMARK  status: ('A' for Active; 'I' for Inactive)
REMARK    1  A    between atoms: C4_4  and  C8_8 
ROOT
HETATM    1  C1  UNL     1     -34.378  16.028  -1.838  1.00 20.00     0.030 A 
HETATM    2  C2  UNL     1     -36.248  16.853  -3.103  1.00 20.00     0.055 A 
HETATM    3  C3  UNL     1     -34.678  16.978  -0.875  1.00 20.00     0.119 A 
HETATM    4  C4  UNL     1     -35.181  15.971  -2.970  1.00 20.00    -0.010 A 
HETATM    5  C5  UNL     1     -36.466  17.766  -2.084  1.00 20.00     0.126 A 
HETATM    6  N9  UNL     1     -35.706  17.851  -0.969  1.00 20.00    -0.249 NA
HETATM    7 CL12 UNL     1     -37.758  18.892  -2.164  1.00 20.00    -0.062 Cl
ENDROOT
BRANCH   4   8
HETATM    8  C8  UNL     1     -34.891  14.928  -4.079  1.00 20.00     0.173 C 
HETATM    9  C6  UNL     1     -33.940  13.771  -3.732  1.00 20.00     0.218 C 
HETATM   10  O10 UNL     1     -34.861  12.811  -4.302  1.00 20.00    -0.384 OA
HETATM   11  C7  UNL     1     -35.917  13.801  -4.277  1.00 20.00     0.218 C 
HETATM   12  F11 UNL     1     -34.572  15.611  -5.200  1.00 20.00    -0.233 F 
ENDBRANCH   4   8
TORSDOF 1
ENDMDL
MODEL 5
REMARK VINA RESULT:      -4.4      3.534      4.587
REMARK  1 active torsions:
REMARK  status: ('A' for Active; 'I' for Inactive)
REMARK    1  A    between atoms: C4_4  and  C8_8 
ROOT
HETATM    1  C1  UNL     1     -34.243  14.489  -3.331  1.00 20.00     0.030 A 
HETATM    2  C2  UNL     1     -36.344  15.633  -3.096  1.00 20.00     0.055 A 
HETATM    3  C3  UNL     1     -34.907  13.536  -4.086  1.00 20.00     0.119 A 
HETATM    4  C4  UNL     1     -34.982  15.553  -2.830  1.00 20.00    -0.010 A 
HETATM    5  C5  UNL     1     -36.915  14.629  -3.862  1.00 20.00     0.126 A 
HETATM    6  N9  UNL     1     -36.229  13.579  -4.367  1.00 20.00    -0.249 NA
HETATM    7 CL12 UNL     1     -38.588  14.645  -4.240  1.00 20.00    -0.062 Cl
ENDROOT
BRANCH   4   8
HETATM    8  C8  UNL     1     -34.290  16.648  -1.978  1.00 20.00     0.173 C 
HETATM    9  C6  UNL     1     -34.823  18.084  -2.102  1.00 20.00     0.218 C 
HETATM   10  O10 UNL     1     -34.847  18.227  -0.662  1.00 20.00    -0.384 OA
HETATM   11  C7  UNL     1     -34.735  16.792  -0.513  1.00 20.00     0.218 C 
HETATM   12  F11 UNL     1     -32.959  16.516  -2.158  1.00 20.00    -0.233 F 
ENDBRANCH   4   8
TORSDOF 1
ENDMDL
MODEL 6
REMARK VINA RESULT:      -4.3      3.712      4.727
REMARK  1 active torsions:
REMARK  status: ('A' for Active; 'I' for Inactive)
REMARK    1  A    between atoms: C4_4  and  C8_8 
ROOT
HETATM    1  C1  UNL     1     -33.540  15.770  -2.867  1.00 20.00     0.030 A 
HETATM    2  C2  UNL     1     -33.936  18.070  -3.442  1.00 20.00     0.055 A 
HETATM    3  C3  UNL     1     -33.139  15.567  -4.177  1.00 20.00     0.119 A 
HETATM    4  C4  UNL     1     -33.946  17.047  -2.501  1.00 20.00    -0.010 A 
HETATM    5  C5  UNL     1     -33.516  17.765  -4.727  1.00 20.00     0.126 A 
HETATM    6  N9  UNL     1     -33.115  16.535  -5.120  1.00 20.00    -0.249 NA
HETATM    7 CL12 UNL     1     -33.472  18.964  -5.953  1.00 20.00    -0.062 Cl
ENDROOT
BRANCH   4   8
HETATM    8  C8  UNL     1     -34.406  17.331  -1.048  1.00 20.00     0.173 C 
HETATM    9  C6  UNL     1     -33.502  18.221  -0.180  1.00 20.00     0.218 C 
HETATM   10  O10 UNL     1     -34.642  19.005   0.247  1.00 20.00    -0.384 OA
HETATM   11  C7  UNL     1     -35.430  18.458  -0.837  1.00 20.00     0.218 C 
HETATM   12  F11 UNL     1     -34.741  16.146  -0.494  1.00 20.00    -0.233 F 
ENDBRANCH   4   8
TORSDOF 1
ENDMDL
MODEL 7
REMARK VINA RESULT:      -4.3      2.012      2.501
REMARK  1 active torsions:
REMARK  status: ('A' for Active; 'I' for Inactive)
REMARK    1  A    between atoms: C4_4  and  C8_8 
ROOT
HETATM    1  C1  UNL     1     -34.543  16.074  -2.078  1.00 20.00     0.030 A 
HETATM    2  C2  UNL     1     -34.345  16.824  -4.353  1.00 20.00     0.055 A 
HETATM    3  C3  UNL     1     -33.993  17.284  -1.687  1.00 20.00     0.119 A 
HETATM    4  C4  UNL     1     -34.718  15.847  -3.437  1.00 20.00    -0.010 A 
HETATM    5  C5  UNL     1     -33.804  18.001  -3.861  1.00 20.00     0.126 A 
HETATM    6  N9  UNL     1     -33.618  18.257  -2.547  1.00 20.00    -0.249 NA
HETATM    7 CL12 UNL     1     -33.315  19.261  -4.918  1.00 20.00    -0.062 Cl
ENDROOT
BRANCH   4   8
HETATM    8  C8  UNL     1     -35.329  14.510  -3.931  1.00 20.00     0.173 C 
HETATM    9  C6  UNL     1     -35.211  14.188  -5.429  1.00 20.00     0.218 C 
HETATM   10  O10 UNL     1     -34.755  12.847  -5.130  1.00 20.00    -0.384 OA
HETATM   11  C7  UNL     1     -34.479  13.240  -3.765  1.00 20.00     0.218 C 
HETATM   12  F11 UNL     1     -36.579  14.429  -3.427  1.00 20.00    -0.233 F 
ENDBRANCH   4   8
TORSDOF 1
ENDMDL
MODEL 8
REMARK VINA RESULT:      -4.3      3.774      4.814
REMARK  1 active torsions:
REMARK  status: ('A' for Active; 'I' for Inactive)
REMARK    1  A    between atoms: C4_4  and  C8_8 
ROOT
HETATM    1  C1  UNL     1     -34.617  14.413  -3.274  1.00 20.00     0.030 A 
HETATM    2  C2  UNL     1     -34.421  15.860  -5.184  1.00 20.00     0.055 A 
HETATM    3  C3  UNL     1     -34.806  13.362  -4.157  1.00 20.00     0.119 A 
HETATM    4  C4  UNL     1     -34.423  15.682  -3.805  1.00 20.00    -0.010 A 
HETATM    5  C5  UNL     1     -34.618  14.745  -5.982  1.00 20.00     0.126 A 
HETATM    6  N9  UNL     1     -34.810  13.496  -5.503  1.00 20.00    -0.249 NA
HETATM    7 CL12 UNL     1     -34.631  14.871  -7.693  1.00 20.00    -0.062 Cl
ENDROOT
BRANCH   4   8
HETATM    8  C8  UNL     1     -34.208  16.895  -2.863  1.00 20.00     0.173 C 
HETATM    9  C6  UNL     1     -33.804  18.229  -3.508  1.00 20.00     0.218 C 
HETATM   10  O10 UNL     1     -34.805  18.934  -2.736  1.00 20.00    -0.384 OA
HETATM   11  C7  UNL     1     -35.455  17.679  -2.423  1.00 20.00     0.218 C 
HETATM   12  F11 UNL     1     -33.409  16.484  -1.855  1.00 20.00    -0.233 F 
ENDBRANCH   4   8
TORSDOF 1
ENDMDL
MODEL 9
REMARK VINA RESULT:      -4.3     13.283     14.286
REMARK  1 active torsions:
REMARK  status: ('A' for Active; 'I' for Inactive)
REMARK    1  A    between atoms: C4_4  and  C8_8 
ROOT
HETATM    1  C1  UNL     1     -43.088   4.986  -3.302  1.00 20.00     0.030 A 
HETATM    2  C2  UNL     1     -41.489   4.296  -1.645  1.00 20.00     0.055 A 
HETATM    3  C3  UNL     1     -42.961   6.276  -2.810  1.00 20.00     0.119 A 
HETATM    4  C4  UNL     1     -42.336   3.984  -2.702  1.00 20.00    -0.010 A 
HETATM    5  C5  UNL     1     -41.431   5.616  -1.228  1.00 20.00     0.126 A 
HETATM    6  N9  UNL     1     -42.148   6.618  -1.785  1.00 20.00    -0.249 NA
HETATM    7 CL12 UNL     1     -40.414   6.092   0.069  1.00 20.00    -0.062 Cl
ENDROOT
BRANCH   4   8
HETATM    8  C8  UNL     1     -42.440   2.523  -3.211  1.00 20.00     0.173 C 
HETATM    9  C6  UNL     1     -43.136   2.292  -4.561  1.00 20.00     0.218 C 
HETATM   10  O10 UNL     1     -42.056   1.431  -4.998  1.00 20.00    -0.384 OA
HETATM   11  C7  UNL     1     -41.217   1.936  -3.933  1.00 20.00     0.218 C 
HETATM   12  F11 UNL     1     -42.912   1.775  -2.190  1.00 20.00    -0.233 F 
ENDBRANCH   4   8
TORSDOF 1
ENDMDL
