MODEL 1
REMARK VINA RESULT:      -4.1      0.000      0.000
REMARK  2 active torsions:
REMARK  status: ('A' for Active; 'I' for Inactive)
REMARK    1  A    between atoms: C4_4  and  O9_9 
REMARK    2  A    between atoms: C7_7  and  O9_9 
ROOT
HETATM    1  C1  UNL     1     -34.764   4.779   5.152  1.00 20.00     0.155 C 
HETATM    2  C2  UNL     1     -34.924   5.150   6.636  1.00 20.00     0.084 C 
HETATM    3  C3  UNL     1     -34.088   6.415   6.333  1.00 20.00     0.047 C 
HETATM    4  C4  UNL     1     -33.694   5.866   4.938  1.00 20.00     0.191 C 
HETATM    5  O8  UNL     1     -35.285   3.955   4.432  1.00 20.00    -0.295 OA
ENDROOT
BRANCH   4   6
HETATM    6  O9  UNL     1     -33.959   6.722   3.816  1.00 20.00    -0.374 OA
BRANCH   6   7
HETATM    7  C7  UNL     1     -32.819   6.833   2.983  1.00 20.00     0.114 C 
HETATM    8  C5  UNL     1     -31.737   7.611   3.717  1.00 20.00     0.039 C 
HETATM    9  C6  UNL     1     -32.348   5.441   2.590  1.00 20.00     0.039 C 
ENDBRANCH   6   7
ENDBRANCH   4   6
TORSDOF 2
ENDMDL
MODEL 2
REMARK VINA RESULT:      -3.9     11.799     12.881
REMARK  2 active torsions:
REMARK  status: ('A' for Active; 'I' for Inactive)
REMARK    1  A    between atoms: C4_4  and  O9_9 
REMARK    2  A    between atoms: C7_7  and  O9_9 
ROOT
HETATM    1  C1  UNL     1     -35.194  13.708  -4.114  1.00 20.00     0.155 C 
HETATM    2  C2  UNL     1     -34.303  14.648  -3.283  1.00 20.00     0.084 C 
HETATM    3  C3  UNL     1     -35.577  15.469  -2.982  1.00 20.00     0.047 C 
HETATM    4  C4  UNL     1     -36.379  14.692  -4.058  1.00 20.00     0.191 C 
HETATM    5  O8  UNL     1     -35.029  12.616  -4.612  1.00 20.00    -0.295 OA
ENDROOT
BRANCH   4   6
HETATM    6  O9  UNL     1     -37.609  14.090  -3.626  1.00 20.00    -0.374 OA
BRANCH   6   7
HETATM    7  C7  UNL     1     -38.719  14.684  -4.275  1.00 20.00     0.114 C 
HETATM    8  C5  UNL     1     -39.438  15.600  -3.296  1.00 20.00     0.039 C 
HETATM    9  C6  UNL     1     -38.235  15.437  -5.505  1.00 20.00     0.039 C 
ENDBRANCH   6   7
ENDBRANCH   4   6
TORSDOF 2
ENDMDL
MODEL 3
REMARK VINA RESULT:      -3.9     11.858     12.407
REMARK  2 active torsions:
REMARK  status: ('A' for Active; 'I' for Inactive)
REMARK    1  A    between atoms: C4_4  and  O9_9 
REMARK    2  A    between atoms: C7_7  and  O9_9 
ROOT
HETATM    1  C1  UNL     1     -35.871  14.113  -4.002  1.00 20.00     0.155 C 
HETATM    2  C2  UNL     1     -34.853  13.208  -4.717  1.00 20.00     0.084 C 
HETATM    3  C3  UNL     1     -33.747  13.991  -3.974  1.00 20.00     0.047 C 
HETATM    4  C4  UNL     1     -34.764  15.067  -3.515  1.00 20.00     0.191 C 
HETATM    5  O8  UNL     1     -37.075  14.081  -3.869  1.00 20.00    -0.295 OA
ENDROOT
BRANCH   4   6
HETATM    6  O9  UNL     1     -34.815  15.337  -2.106  1.00 20.00    -0.374 OA
BRANCH   6   7
HETATM    7  C7  UNL     1     -34.896  16.729  -1.859  1.00 20.00     0.114 C 
HETATM    8  C5  UNL     1     -34.689  16.987  -0.374  1.00 20.00     0.039 C 
HETATM    9  C6  UNL     1     -33.859  17.449  -2.709  1.00 20.00     0.039 C 
ENDBRANCH   6   7
ENDBRANCH   4   6
TORSDOF 2
ENDMDL
MODEL 4
REMARK VINA RESULT:      -3.9      1.561      1.999
REMARK  2 active torsions:
REMARK  status: ('A' for Active; 'I' for Inactive)
REMARK    1  A    between atoms: C4_4  and  O9_9 
REMARK    2  A    between atoms: C7_7  and  O9_9 
ROOT
HETATM    1  C1  UNL     1     -34.083   6.157   5.780  1.00 20.00     0.155 C 
HETATM    2  C2  UNL     1     -35.055   4.966   5.840  1.00 20.00     0.084 C 
HETATM    3  C3  UNL     1     -34.839   4.809   4.317  1.00 20.00     0.047 C 
HETATM    4  C4  UNL     1     -34.117   6.179   4.240  1.00 20.00     0.191 C 
HETATM    5  O8  UNL     1     -33.510   6.816   6.621  1.00 20.00    -0.295 OA
ENDROOT
BRANCH   4   6
HETATM    6  O9  UNL     1     -32.815   6.181   3.635  1.00 20.00    -0.374 OA
BRANCH   6   7
HETATM    7  C7  UNL     1     -32.388   7.502   3.356  1.00 20.00     0.114 C 
HETATM    8  C5  UNL     1     -31.134   7.804   4.163  1.00 20.00     0.039 C 
HETATM    9  C6  UNL     1     -32.147   7.645   1.861  1.00 20.00     0.039 C 
ENDBRANCH   6   7
ENDBRANCH   4   6
TORSDOF 2
ENDMDL
MODEL 5
REMARK VINA RESULT:      -3.8     11.976     13.176
REMARK  2 active torsions:
REMARK  status: ('A' for Active; 'I' for Inactive)
REMARK    1  A    between atoms: C4_4  and  O9_9 
REMARK    2  A    between atoms: C7_7  and  O9_9 
ROOT
HETATM    1  C1  UNL     1     -34.914  13.727  -5.017  1.00 20.00     0.155 C 
HETATM    2  C2  UNL     1     -35.066  14.041  -6.515  1.00 20.00     0.084 C 
HETATM    3  C3  UNL     1     -34.454  15.427  -6.211  1.00 20.00     0.047 C 
HETATM    4  C4  UNL     1     -34.596  15.197  -4.684  1.00 20.00     0.191 C 
HETATM    5  O8  UNL     1     -35.003  12.714  -4.357  1.00 20.00    -0.295 OA
ENDROOT
BRANCH   4   6
HETATM    6  O9  UNL     1     -33.405  15.366  -3.900  1.00 20.00    -0.374 OA
BRANCH   6   7
HETATM    7  C7  UNL     1     -33.609  16.311  -2.865  1.00 20.00     0.114 C 
HETATM    8  C5  UNL     1     -33.788  17.692  -3.477  1.00 20.00     0.039 C 
HETATM    9  C6  UNL     1     -34.818  15.896  -2.040  1.00 20.00     0.039 C 
ENDBRANCH   6   7
ENDBRANCH   4   6
TORSDOF 2
ENDMDL
MODEL 6
REMARK VINA RESULT:      -3.7     11.920     12.904
REMARK  2 active torsions:
REMARK  status: ('A' for Active; 'I' for Inactive)
REMARK    1  A    between atoms: C4_4  and  O9_9 
REMARK    2  A    between atoms: C7_7  and  O9_9 
ROOT
HETATM    1  C1  UNL     1     -33.672  16.609  -3.458  1.00 20.00     0.155 C 
HETATM    2  C2  UNL     1     -33.705  17.333  -2.101  1.00 20.00     0.084 C 
HETATM    3  C3  UNL     1     -34.641  16.206  -1.607  1.00 20.00     0.047 C 
HETATM    4  C4  UNL     1     -34.829  15.677  -3.052  1.00 20.00     0.191 C 
HETATM    5  O8  UNL     1     -32.993  16.725  -4.456  1.00 20.00    -0.295 OA
ENDROOT
BRANCH   4   6
HETATM    6  O9  UNL     1     -34.548  14.284  -3.263  1.00 20.00    -0.374 OA
BRANCH   6   7
HETATM    7  C7  UNL     1     -35.471  13.714  -4.173  1.00 20.00     0.114 C 
HETATM    8  C5  UNL     1     -36.798  14.451  -4.068  1.00 20.00     0.039 C 
HETATM    9  C6  UNL     1     -34.895  13.782  -5.579  1.00 20.00     0.039 C 
ENDBRANCH   6   7
ENDBRANCH   4   6
TORSDOF 2
ENDMDL
MODEL 7
REMARK VINA RESULT:      -3.7     12.072     13.594
REMARK  2 active torsions:
REMARK  status: ('A' for Active; 'I' for Inactive)
REMARK    1  A    between atoms: C4_4  and  O9_9 
REMARK    2  A    between atoms: C7_7  and  O9_9 
ROOT
HETATM    1  C1  UNL     1     -34.244  13.582  -4.521  1.00 20.00     0.155 C 
HETATM    2  C2  UNL     1     -33.119  14.048  -3.581  1.00 20.00     0.084 C 
HETATM    3  C3  UNL     1     -33.274  15.451  -4.212  1.00 20.00     0.047 C 
HETATM    4  C4  UNL     1     -34.176  14.886  -5.339  1.00 20.00     0.191 C 
HETATM    5  O8  UNL     1     -34.924  12.581  -4.586  1.00 20.00    -0.295 OA
ENDROOT
BRANCH   4   6
HETATM    6  O9  UNL     1     -35.450  15.523  -5.516  1.00 20.00    -0.374 OA
BRANCH   6   7
HETATM    7  C7  UNL     1     -35.681  15.823  -6.880  1.00 20.00     0.114 C 
HETATM    8  C5  UNL     1     -34.649  16.837  -7.351  1.00 20.00     0.039 C 
HETATM    9  C6  UNL     1     -35.624  14.539  -7.693  1.00 20.00     0.039 C 
ENDBRANCH   6   7
ENDBRANCH   4   6
TORSDOF 2
ENDMDL
MODEL 8
REMARK VINA RESULT:      -3.5     11.563     12.687
REMARK  2 active torsions:
REMARK  status: ('A' for Active; 'I' for Inactive)
REMARK    1  A    between atoms: C4_4  and  O9_9 
REMARK    2  A    between atoms: C7_7  and  O9_9 
ROOT
HETATM    1  C1  UNL     1     -34.226  16.671  -1.709  1.00 20.00     0.155 C 
HETATM    2  C2  UNL     1     -33.770  17.942  -2.447  1.00 20.00     0.084 C 
HETATM    3  C3  UNL     1     -33.810  17.110  -3.749  1.00 20.00     0.047 C 
HETATM    4  C4  UNL     1     -33.969  15.793  -2.949  1.00 20.00     0.191 C 
HETATM    5  O8  UNL     1     -34.635  16.450  -0.590  1.00 20.00    -0.295 OA
ENDROOT
BRANCH   4   6
HETATM    6  O9  UNL     1     -35.083  14.959  -3.305  1.00 20.00    -0.374 OA
BRANCH   6   7
HETATM    7  C7  UNL     1     -34.642  13.740  -3.874  1.00 20.00     0.114 C 
HETATM    8  C5  UNL     1     -34.973  13.731  -5.359  1.00 20.00     0.039 C 
HETATM    9  C6  UNL     1     -33.149  13.583  -3.625  1.00 20.00     0.039 C 
ENDBRANCH   6   7
ENDBRANCH   4   6
TORSDOF 2
ENDMDL
MODEL 9
REMARK VINA RESULT:      -3.5     12.312     13.329
REMARK  2 active torsions:
REMARK  status: ('A' for Active; 'I' for Inactive)
REMARK    1  A    between atoms: C4_4  and  O9_9 
REMARK    2  A    between atoms: C7_7  and  O9_9 
ROOT
HETATM    1  C1  UNL     1     -33.407  15.923  -4.467  1.00 20.00     0.155 C 
HETATM    2  C2  UNL     1     -34.147  14.586  -4.642  1.00 20.00     0.084 C 
HETATM    3  C3  UNL     1     -34.623  14.743  -3.180  1.00 20.00     0.047 C 
HETATM    4  C4  UNL     1     -33.633  15.911  -2.942  1.00 20.00     0.191 C 
HETATM    5  O8  UNL     1     -32.864  16.689  -5.233  1.00 20.00    -0.295 OA
ENDROOT
BRANCH   4   6
HETATM    6  O9  UNL     1     -34.195  17.131  -2.434  1.00 20.00    -0.374 OA
BRANCH   6   7
HETATM    7  C7  UNL     1     -33.698  17.418  -1.140  1.00 20.00     0.114 C 
HETATM    8  C5  UNL     1     -33.247  18.870  -1.087  1.00 20.00     0.039 C 
HETATM    9  C6  UNL     1     -34.779  17.122  -0.111  1.00 20.00     0.039 C 
ENDBRANCH   6   7
ENDBRANCH   4   6
TORSDOF 2
ENDMDL
