MODEL 1
REMARK VINA RESULT:      -4.6      0.000      0.000
REMARK  0 active torsions:
REMARK  status: ('A' for Active; 'I' for Inactive)
ROOT
HETATM    1  C1  UNL     1     -32.171   7.737   2.501  1.00 20.00     0.012 C 
HETATM    2  C2  UNL     1     -32.693   6.887   3.169  1.00 20.00    -0.110 C 
HETATM    3  C3  UNL     1     -34.665   5.403   3.434  1.00 20.00     0.045 C 
HETATM    4  C4  UNL     1     -35.327   4.816   4.661  1.00 20.00     0.169 C 
HETATM    5  C5  UNL     1     -33.714   6.340   5.369  1.00 20.00     0.184 C 
HETATM    6  C6  UNL     1     -33.329   5.852   3.984  1.00 20.00     0.090 C 
HETATM    7  O7  UNL     1     -34.862   5.582   5.780  1.00 20.00    -0.390 OA
ENDROOT
TORSDOF 0
ENDMDL
MODEL 2
REMARK VINA RESULT:      -4.5      1.084      1.669
REMARK  0 active torsions:
REMARK  status: ('A' for Active; 'I' for Inactive)
ROOT
HETATM    1  C1  UNL     1     -32.141   6.982   2.917  1.00 20.00     0.012 C 
HETATM    2  C2  UNL     1     -33.076   6.636   3.585  1.00 20.00    -0.110 C 
HETATM    3  C3  UNL     1     -33.882   6.097   5.871  1.00 20.00     0.045 C 
HETATM    4  C4  UNL     1     -34.962   5.159   6.363  1.00 20.00     0.169 C 
HETATM    5  C5  UNL     1     -34.686   4.805   4.078  1.00 20.00     0.184 C 
HETATM    6  C6  UNL     1     -34.216   6.213   4.400  1.00 20.00     0.090 C 
HETATM    7  O7  UNL     1     -35.246   4.261   5.282  1.00 20.00    -0.390 OA
ENDROOT
TORSDOF 0
ENDMDL
MODEL 3
REMARK VINA RESULT:      -3.9     11.206     11.667
REMARK  0 active torsions:
REMARK  status: ('A' for Active; 'I' for Inactive)
ROOT
HETATM    1  C1  UNL     1     -34.426  16.627  -1.297  1.00 20.00     0.012 C 
HETATM    2  C2  UNL     1     -34.373  15.984  -2.309  1.00 20.00    -0.110 C 
HETATM    3  C3  UNL     1     -35.572  14.412  -3.811  1.00 20.00     0.045 C 
HETATM    4  C4  UNL     1     -35.073  13.328  -4.739  1.00 20.00     0.169 C 
HETATM    5  C5  UNL     1     -33.264  14.099  -3.493  1.00 20.00     0.184 C 
HETATM    6  C6  UNL     1     -34.308  15.200  -3.543  1.00 20.00     0.090 C 
HETATM    7  O7  UNL     1     -33.727  13.038  -4.342  1.00 20.00    -0.390 OA
ENDROOT
TORSDOF 0
ENDMDL
MODEL 4
REMARK VINA RESULT:      -3.8      1.670      3.305
REMARK  0 active torsions:
REMARK  status: ('A' for Active; 'I' for Inactive)
ROOT
HETATM    1  C1  UNL     1     -35.189   4.207   5.844  1.00 20.00     0.012 C 
HETATM    2  C2  UNL     1     -34.718   5.072   5.159  1.00 20.00    -0.110 C 
HETATM    3  C3  UNL     1     -33.530   5.603   3.045  1.00 20.00     0.045 C 
HETATM    4  C4  UNL     1     -32.570   6.714   2.680  1.00 20.00     0.169 C 
HETATM    5  C5  UNL     1     -32.956   6.818   4.974  1.00 20.00     0.184 C 
HETATM    6  C6  UNL     1     -34.143   6.128   4.325  1.00 20.00     0.090 C 
HETATM    7  O7  UNL     1     -32.096   7.265   3.915  1.00 20.00    -0.390 OA
ENDROOT
TORSDOF 0
ENDMDL
MODEL 5
REMARK VINA RESULT:      -3.7      1.545      2.680
REMARK  0 active torsions:
REMARK  status: ('A' for Active; 'I' for Inactive)
ROOT
HETATM    1  C1  UNL     1     -33.535   7.651   7.292  1.00 20.00     0.012 C 
HETATM    2  C2  UNL     1     -33.668   6.821   6.436  1.00 20.00    -0.110 C 
HETATM    3  C3  UNL     1     -34.099   6.403   4.027  1.00 20.00     0.045 C 
HETATM    4  C4  UNL     1     -34.759   5.249   3.307  1.00 20.00     0.169 C 
HETATM    5  C5  UNL     1     -35.060   4.939   5.596  1.00 20.00     0.184 C 
HETATM    6  C6  UNL     1     -33.832   5.808   5.392  1.00 20.00     0.090 C 
HETATM    7  O7  UNL     1     -35.505   4.525   4.295  1.00 20.00    -0.390 OA
ENDROOT
TORSDOF 0
ENDMDL
MODEL 6
REMARK VINA RESULT:      -3.6     11.400     12.215
REMARK  0 active torsions:
REMARK  status: ('A' for Active; 'I' for Inactive)
ROOT
HETATM    1  C1  UNL     1     -34.483  16.518  -1.256  1.00 20.00     0.012 C 
HETATM    2  C2  UNL     1     -34.787  15.847  -2.203  1.00 20.00    -0.110 C 
HETATM    3  C3  UNL     1     -34.290  13.799  -3.515  1.00 20.00     0.045 C 
HETATM    4  C4  UNL     1     -34.474  13.472  -4.981  1.00 20.00     0.169 C 
HETATM    5  C5  UNL     1     -34.930  15.736  -4.683  1.00 20.00     0.184 C 
HETATM    6  C6  UNL     1     -35.157  15.029  -3.359  1.00 20.00     0.090 C 
HETATM    7  O7  UNL     1     -34.643  14.723  -5.659  1.00 20.00    -0.390 OA
ENDROOT
TORSDOF 0
ENDMDL
MODEL 7
REMARK VINA RESULT:      -3.6     10.979     12.043
REMARK  0 active torsions:
REMARK  status: ('A' for Active; 'I' for Inactive)
ROOT
HETATM    1  C1  UNL     1     -34.584  16.323  -1.594  1.00 20.00     0.012 C 
HETATM    2  C2  UNL     1     -34.387  15.702  -2.602  1.00 20.00    -0.110 C 
HETATM    3  C3  UNL     1     -35.160  15.240  -4.916  1.00 20.00     0.045 C 
HETATM    4  C4  UNL     1     -35.056  14.008  -5.786  1.00 20.00     0.169 C 
HETATM    5  C5  UNL     1     -34.323  13.446  -3.648  1.00 20.00     0.184 C 
HETATM    6  C6  UNL     1     -34.149  14.944  -3.831  1.00 20.00     0.090 C 
HETATM    7  O7  UNL     1     -34.755  12.914  -4.909  1.00 20.00    -0.390 OA
ENDROOT
TORSDOF 0
ENDMDL
MODEL 8
REMARK VINA RESULT:      -3.5     11.977     12.526
REMARK  0 active torsions:
REMARK  status: ('A' for Active; 'I' for Inactive)
ROOT
HETATM    1  C1  UNL     1     -34.679  17.021  -0.344  1.00 20.00     0.012 C 
HETATM    2  C2  UNL     1     -34.606  16.366  -1.347  1.00 20.00    -0.110 C 
HETATM    3  C3  UNL     1     -33.570  16.154  -3.592  1.00 20.00     0.045 C 
HETATM    4  C4  UNL     1     -34.066  15.525  -4.875  1.00 20.00     0.169 C 
HETATM    5  C5  UNL     1     -35.823  15.529  -3.348  1.00 20.00     0.184 C 
HETATM    6  C6  UNL     1     -34.519  15.568  -2.570  1.00 20.00     0.090 C 
HETATM    7  O7  UNL     1     -35.484  15.374  -4.734  1.00 20.00    -0.390 OA
ENDROOT
TORSDOF 0
ENDMDL
MODEL 9
REMARK VINA RESULT:      -3.5     11.841     12.697
REMARK  0 active torsions:
REMARK  status: ('A' for Active; 'I' for Inactive)
ROOT
HETATM    1  C1  UNL     1     -34.815  16.959  -0.399  1.00 20.00     0.012 C 
HETATM    2  C2  UNL     1     -34.299  16.560  -1.407  1.00 20.00    -0.110 C 
HETATM    3  C3  UNL     1     -33.683  17.095  -3.751  1.00 20.00     0.045 C 
HETATM    4  C4  UNL     1     -33.526  16.221  -4.976  1.00 20.00     0.169 C 
HETATM    5  C5  UNL     1     -34.422  14.916  -3.268  1.00 20.00     0.184 C 
HETATM    6  C6  UNL     1     -33.670  16.073  -2.636  1.00 20.00     0.090 C 
HETATM    7  O7  UNL     1     -34.192  14.986  -4.684  1.00 20.00    -0.390 OA
ENDROOT
TORSDOF 0
ENDMDL
