MODEL 1
REMARK VINA RESULT:      -4.9      0.000      0.000
REMARK  2 active torsions:
REMARK  status: ('A' for Active; 'I' for Inactive)
REMARK    1  A    between atoms: C1_1  and  C4_4 
REMARK    2  A    between atoms: C4_4  and  C5_5 
ROOT
HETATM    1  C2  UNL     1     -34.218   5.265   3.300  1.00 20.00     0.027 A 
HETATM    2  C3  UNL     1     -35.535   5.827   3.740  1.00 20.00     0.027 A 
HETATM    3  C4  UNL     1     -34.491   5.466   4.777  1.00 20.00     0.110 A 
ENDROOT
BRANCH   3   4
HETATM    4  C1  UNL     1     -33.789   6.590   5.443  1.00 20.00     0.249 C 
HETATM    5  O6  UNL     1     -33.929   6.865   6.630  1.00 20.00    -0.306 OA
ENDBRANCH   3   4
BRANCH   3   6
HETATM    6  C5  UNL     1     -34.743   4.229   5.601  1.00 20.00     0.401 C 
HETATM    7  F7  UNL     1     -33.620   3.841   6.238  1.00 20.00    -0.170 F 
HETATM    8  F8  UNL     1     -35.693   4.457   6.530  1.00 20.00    -0.170 F 
HETATM    9  F9  UNL     1     -35.155   3.209   4.822  1.00 20.00    -0.170 F 
ENDBRANCH   3   6
TORSDOF 2
ENDMDL
MODEL 2
REMARK VINA RESULT:      -4.8      2.136      2.750
REMARK  2 active torsions:
REMARK  status: ('A' for Active; 'I' for Inactive)
REMARK    1  A    between atoms: C1_1  and  C4_4 
REMARK    2  A    between atoms: C4_4  and  C5_5 
ROOT
HETATM    1  C2  UNL     1     -35.465   4.423   5.242  1.00 20.00     0.027 A 
HETATM    2  C3  UNL     1     -34.076   3.952   5.550  1.00 20.00     0.027 A 
HETATM    3  C4  UNL     1     -34.321   5.417   5.245  1.00 20.00     0.110 A 
ENDROOT
BRANCH   3   4
HETATM    4  C1  UNL     1     -34.254   6.360   6.388  1.00 20.00     0.249 C 
HETATM    5  O6  UNL     1     -33.270   7.048   6.640  1.00 20.00    -0.306 OA
ENDBRANCH   3   4
BRANCH   3   6
HETATM    6  C5  UNL     1     -33.852   5.926   3.906  1.00 20.00     0.401 C 
HETATM    7  F7  UNL     1     -32.509   5.864   3.814  1.00 20.00    -0.170 F 
HETATM    8  F8  UNL     1     -34.375   5.191   2.904  1.00 20.00    -0.170 F 
HETATM    9  F9  UNL     1     -34.225   7.208   3.723  1.00 20.00    -0.170 F 
ENDBRANCH   3   6
TORSDOF 2
ENDMDL
MODEL 3
REMARK VINA RESULT:      -4.8      2.135      2.779
REMARK  2 active torsions:
REMARK  status: ('A' for Active; 'I' for Inactive)
REMARK    1  A    between atoms: C1_1  and  C4_4 
REMARK    2  A    between atoms: C4_4  and  C5_5 
ROOT
HETATM    1  C2  UNL     1     -35.470   4.439   5.248  1.00 20.00     0.027 A 
HETATM    2  C3  UNL     1     -34.086   3.957   5.560  1.00 20.00     0.027 A 
HETATM    3  C4  UNL     1     -34.317   5.422   5.245  1.00 20.00     0.110 A 
ENDROOT
BRANCH   3   4
HETATM    4  C1  UNL     1     -34.242   6.373   6.380  1.00 20.00     0.249 C 
HETATM    5  O6  UNL     1     -33.255   7.061   6.621  1.00 20.00    -0.306 OA
ENDBRANCH   3   4
BRANCH   3   6
HETATM    6  C5  UNL     1     -33.843   5.916   3.902  1.00 20.00     0.401 C 
HETATM    7  F7  UNL     1     -34.369   5.177   2.906  1.00 20.00    -0.170 F 
HETATM    8  F8  UNL     1     -34.207   7.200   3.708  1.00 20.00    -0.170 F 
HETATM    9  F9  UNL     1     -32.500   5.845   3.811  1.00 20.00    -0.170 F 
ENDBRANCH   3   6
TORSDOF 2
ENDMDL
MODEL 4
REMARK VINA RESULT:      -4.7      1.782      2.063
REMARK  2 active torsions:
REMARK  status: ('A' for Active; 'I' for Inactive)
REMARK    1  A    between atoms: C1_1  and  C4_4 
REMARK    2  A    between atoms: C4_4  and  C5_5 
ROOT
HETATM    1  C2  UNL     1     -34.713   4.355   4.017  1.00 20.00     0.027 A 
HETATM    2  C3  UNL     1     -35.640   5.531   3.979  1.00 20.00     0.027 A 
HETATM    3  C4  UNL     1     -34.340   5.627   4.752  1.00 20.00     0.110 A 
ENDROOT
BRANCH   3   4
HETATM    4  C1  UNL     1     -33.265   6.456   4.156  1.00 20.00     0.249 C 
HETATM    5  O6  UNL     1     -32.355   5.995   3.474  1.00 20.00    -0.306 OA
ENDBRANCH   3   4
BRANCH   3   6
HETATM    6  C5  UNL     1     -34.433   5.600   6.256  1.00 20.00     0.401 C 
HETATM    7  F7  UNL     1     -34.205   6.825   6.771  1.00 20.00    -0.170 F 
HETATM    8  F8  UNL     1     -35.658   5.200   6.654  1.00 20.00    -0.170 F 
HETATM    9  F9  UNL     1     -33.526   4.751   6.778  1.00 20.00    -0.170 F 
ENDBRANCH   3   6
TORSDOF 2
ENDMDL
MODEL 5
REMARK VINA RESULT:      -4.6      1.934      2.460
REMARK  2 active torsions:
REMARK  status: ('A' for Active; 'I' for Inactive)
REMARK    1  A    between atoms: C1_1  and  C4_4 
REMARK    2  A    between atoms: C4_4  and  C5_5 
ROOT
HETATM    1  C2  UNL     1     -32.331   6.017   3.515  1.00 20.00     0.027 A 
HETATM    2  C3  UNL     1     -33.160   7.235   3.241  1.00 20.00     0.027 A 
HETATM    3  C4  UNL     1     -33.719   6.129   4.113  1.00 20.00     0.110 A 
ENDROOT
BRANCH   3   4
HETATM    4  C1  UNL     1     -33.803   6.399   5.569  1.00 20.00     0.249 C 
HETATM    5  O6  UNL     1     -34.571   5.809   6.322  1.00 20.00    -0.306 OA
ENDBRANCH   3   4
BRANCH   3   6
HETATM    6  C5  UNL     1     -34.795   5.261   3.513  1.00 20.00     0.401 C 
HETATM    7  F7  UNL     1     -34.512   4.966   2.229  1.00 20.00    -0.170 F 
HETATM    8  F8  UNL     1     -34.913   4.103   4.193  1.00 20.00    -0.170 F 
HETATM    9  F9  UNL     1     -35.989   5.887   3.544  1.00 20.00    -0.170 F 
ENDBRANCH   3   6
TORSDOF 2
ENDMDL
MODEL 6
REMARK VINA RESULT:      -4.5      2.027      2.773
REMARK  2 active torsions:
REMARK  status: ('A' for Active; 'I' for Inactive)
REMARK    1  A    between atoms: C1_1  and  C4_4 
REMARK    2  A    between atoms: C4_4  and  C5_5 
ROOT
HETATM    1  C2  UNL     1     -34.147   6.954   4.039  1.00 20.00     0.027 A 
HETATM    2  C3  UNL     1     -33.022   5.965   3.998  1.00 20.00     0.027 A 
HETATM    3  C4  UNL     1     -34.250   5.669   4.836  1.00 20.00     0.110 A 
ENDROOT
BRANCH   3   4
HETATM    4  C1  UNL     1     -35.179   4.634   4.323  1.00 20.00     0.249 C 
HETATM    5  O6  UNL     1     -35.258   3.504   4.795  1.00 20.00    -0.306 OA
ENDBRANCH   3   4
BRANCH   3   6
HETATM    6  C5  UNL     1     -34.100   5.777   6.332  1.00 20.00     0.401 C 
HETATM    7  F7  UNL     1     -35.307   5.823   6.932  1.00 20.00    -0.170 F 
HETATM    8  F8  UNL     1     -33.427   4.718   6.825  1.00 20.00    -0.170 F 
HETATM    9  F9  UNL     1     -33.424   6.894   6.667  1.00 20.00    -0.170 F 
ENDBRANCH   3   6
TORSDOF 2
ENDMDL
MODEL 7
REMARK VINA RESULT:      -4.4      2.084      2.761
REMARK  2 active torsions:
REMARK  status: ('A' for Active; 'I' for Inactive)
REMARK    1  A    between atoms: C1_1  and  C4_4 
REMARK    2  A    between atoms: C4_4  and  C5_5 
ROOT
HETATM    1  C2  UNL     1     -34.428   6.524   5.851  1.00 20.00     0.027 A 
HETATM    2  C3  UNL     1     -33.746   5.205   6.051  1.00 20.00     0.027 A 
HETATM    3  C4  UNL     1     -33.943   5.742   4.648  1.00 20.00     0.110 A 
ENDROOT
BRANCH   3   4
HETATM    4  C1  UNL     1     -32.740   6.258   3.951  1.00 20.00     0.249 C 
HETATM    5  O6  UNL     1     -32.771   7.178   3.140  1.00 20.00    -0.306 OA
ENDBRANCH   3   4
BRANCH   3   6
HETATM    6  C5  UNL     1     -34.993   5.072   3.798  1.00 20.00     0.401 C 
HETATM    7  F7  UNL     1     -34.554   4.908   2.535  1.00 20.00    -0.170 F 
HETATM    8  F8  UNL     1     -35.307   3.857   4.293  1.00 20.00    -0.170 F 
HETATM    9  F9  UNL     1     -36.120   5.811   3.757  1.00 20.00    -0.170 F 
ENDBRANCH   3   6
TORSDOF 2
ENDMDL
MODEL 8
REMARK VINA RESULT:      -4.2     13.237     13.756
REMARK  2 active torsions:
REMARK  status: ('A' for Active; 'I' for Inactive)
REMARK    1  A    between atoms: C1_1  and  C4_4 
REMARK    2  A    between atoms: C4_4  and  C5_5 
ROOT
HETATM    1  C2  UNL     1     -35.714  15.189  -3.265  1.00 20.00     0.027 A 
HETATM    2  C3  UNL     1     -35.526  15.964  -4.534  1.00 20.00     0.027 A 
HETATM    3  C4  UNL     1     -34.552  14.858  -4.180  1.00 20.00     0.110 A 
ENDROOT
BRANCH   3   4
HETATM    4  C1  UNL     1     -34.650  13.601  -4.961  1.00 20.00     0.249 C 
HETATM    5  O6  UNL     1     -34.966  12.522  -4.470  1.00 20.00    -0.306 OA
ENDBRANCH   3   4
BRANCH   3   6
HETATM    6  C5  UNL     1     -33.178  15.275  -3.721  1.00 20.00     0.401 C 
HETATM    7  F7  UNL     1     -32.378  14.201  -3.566  1.00 20.00    -0.170 F 
HETATM    8  F8  UNL     1     -32.602  16.100  -4.619  1.00 20.00    -0.170 F 
HETATM    9  F9  UNL     1     -33.243  15.922  -2.540  1.00 20.00    -0.170 F 
ENDBRANCH   3   6
TORSDOF 2
ENDMDL
MODEL 9
REMARK VINA RESULT:      -4.2     13.232     13.747
REMARK  2 active torsions:
REMARK  status: ('A' for Active; 'I' for Inactive)
REMARK    1  A    between atoms: C1_1  and  C4_4 
REMARK    2  A    between atoms: C4_4  and  C5_5 
ROOT
HETATM    1  C2  UNL     1     -35.719  15.164  -3.314  1.00 20.00     0.027 A 
HETATM    2  C3  UNL     1     -35.512  15.926  -4.587  1.00 20.00     0.027 A 
HETATM    3  C4  UNL     1     -34.538  14.830  -4.203  1.00 20.00     0.110 A 
ENDROOT
BRANCH   3   4
HETATM    4  C1  UNL     1     -34.612  13.565  -4.973  1.00 20.00     0.249 C 
HETATM    5  O6  UNL     1     -34.964  12.496  -4.484  1.00 20.00    -0.306 OA
ENDBRANCH   3   4
BRANCH   3   6
HETATM    6  C5  UNL     1     -33.176  15.262  -3.721  1.00 20.00     0.401 C 
HETATM    7  F7  UNL     1     -33.266  15.889  -2.532  1.00 20.00    -0.170 F 
HETATM    8  F8  UNL     1     -32.361  14.198  -3.573  1.00 20.00    -0.170 F 
HETATM    9  F9  UNL     1     -32.603  16.109  -4.599  1.00 20.00    -0.170 F 
ENDBRANCH   3   6
TORSDOF 2
ENDMDL
