MODEL 1
REMARK VINA RESULT:      -5.0      0.000      0.000
REMARK  1 active torsions:
REMARK  status: ('A' for Active; 'I' for Inactive)
REMARK    1  A    between atoms: C4_4  and  C6_6 
ROOT
HETATM    1  C1  UNL     1     -34.058   5.190   4.070  1.00 20.00     0.070 A 
HETATM    2  C2  UNL     1     -33.369   6.965   5.495  1.00 20.00     0.129 A 
HETATM    3  C3  UNL     1     -34.774   5.351   6.332  1.00 20.00     0.170 A 
HETATM    4  C4  UNL     1     -33.327   6.358   4.249  1.00 20.00     0.027 A 
HETATM    5  C5  UNL     1     -34.798   4.669   5.126  1.00 20.00     0.190 A 
HETATM    6  N7  UNL     1     -34.076   6.489   6.545  1.00 20.00    -0.268 NA
HETATM    7  O8  UNL     1     -35.479   3.595   4.988  1.00 20.00    -0.287 OA
ENDROOT
BRANCH   4   8
HETATM    8  C6  UNL     1     -32.527   6.940   3.140  1.00 20.00     0.388 C 
HETATM    9  F9  UNL     1     -31.943   5.964   2.394  1.00 20.00    -0.209 F 
HETATM   10  F10 UNL     1     -31.512   7.709   3.623  1.00 20.00    -0.209 F 
ENDBRANCH   4   8
TORSDOF 1
ENDMDL
MODEL 2
REMARK VINA RESULT:      -4.9      1.780      2.223
REMARK  1 active torsions:
REMARK  status: ('A' for Active; 'I' for Inactive)
REMARK    1  A    between atoms: C4_4  and  C6_6 
ROOT
HETATM    1  C1  UNL     1     -33.330   6.495   5.027  1.00 20.00     0.070 A 
HETATM    2  C2  UNL     1     -33.914   5.676   2.872  1.00 20.00     0.129 A 
HETATM    3  C3  UNL     1     -35.193   5.058   4.677  1.00 20.00     0.170 A 
HETATM    4  C4  UNL     1     -33.070   6.441   3.663  1.00 20.00     0.027 A 
HETATM    5  C5  UNL     1     -34.410   5.793   5.553  1.00 20.00     0.190 A 
HETATM    6  N7  UNL     1     -34.972   4.981   3.346  1.00 20.00    -0.268 NA
HETATM    7  O8  UNL     1     -34.672   5.826   6.805  1.00 20.00    -0.287 OA
ENDROOT
BRANCH   4   8
HETATM    8  C6  UNL     1     -31.924   7.179   3.070  1.00 20.00     0.388 C 
HETATM    9  F9  UNL     1     -31.238   7.863   4.025  1.00 20.00    -0.209 F 
HETATM   10  F10 UNL     1     -32.354   8.106   2.171  1.00 20.00    -0.209 F 
ENDBRANCH   4   8
TORSDOF 1
ENDMDL
MODEL 3
REMARK VINA RESULT:      -4.7     11.875     12.254
REMARK  1 active torsions:
REMARK  status: ('A' for Active; 'I' for Inactive)
REMARK    1  A    between atoms: C4_4  and  C6_6 
ROOT
HETATM    1  C1  UNL     1     -33.913  14.728  -3.005  1.00 20.00     0.070 A 
HETATM    2  C2  UNL     1     -36.177  15.447  -3.126  1.00 20.00     0.129 A 
HETATM    3  C3  UNL     1     -35.519  13.638  -4.380  1.00 20.00     0.170 A 
HETATM    4  C4  UNL     1     -34.906  15.613  -2.599  1.00 20.00     0.027 A 
HETATM    5  C5  UNL     1     -34.217  13.719  -3.913  1.00 20.00     0.190 A 
HETATM    6  N7  UNL     1     -36.510  14.479  -4.009  1.00 20.00    -0.268 NA
HETATM    7  O8  UNL     1     -33.323  12.892  -4.303  1.00 20.00    -0.287 OA
ENDROOT
BRANCH   4   8
HETATM    8  C6  UNL     1     -34.613  16.702  -1.631  1.00 20.00     0.388 C 
HETATM    9  F9  UNL     1     -33.307  17.075  -1.695  1.00 20.00    -0.209 F 
HETATM   10  F10 UNL     1     -34.829  16.289  -0.352  1.00 20.00    -0.209 F 
ENDBRANCH   4   8
TORSDOF 1
ENDMDL
MODEL 4
REMARK VINA RESULT:      -4.6     12.077     12.768
REMARK  1 active torsions:
REMARK  status: ('A' for Active; 'I' for Inactive)
REMARK    1  A    between atoms: C4_4  and  C6_6 
ROOT
HETATM    1  C1  UNL     1     -34.694  14.705  -2.973  1.00 20.00     0.070 A 
HETATM    2  C2  UNL     1     -33.812  16.598  -4.110  1.00 20.00     0.129 A 
HETATM    3  C3  UNL     1     -34.161  14.659  -5.290  1.00 20.00     0.170 A 
HETATM    4  C4  UNL     1     -34.275  16.030  -2.934  1.00 20.00     0.027 A 
HETATM    5  C5  UNL     1     -34.640  13.999  -4.169  1.00 20.00     0.190 A 
HETATM    6  N7  UNL     1     -33.745  15.944  -5.291  1.00 20.00    -0.268 NA
HETATM    7  O8  UNL     1     -35.019  12.778  -4.233  1.00 20.00    -0.287 OA
ENDROOT
BRANCH   4   8
HETATM    8  C6  UNL     1     -34.320  16.812  -1.670  1.00 20.00     0.388 C 
HETATM    9  F9  UNL     1     -33.070  17.178  -1.278  1.00 20.00    -0.209 F 
HETATM   10  F10 UNL     1     -34.836  16.068  -0.654  1.00 20.00    -0.209 F 
ENDBRANCH   4   8
TORSDOF 1
ENDMDL
MODEL 5
REMARK VINA RESULT:      -4.6     12.011     12.416
REMARK  1 active torsions:
REMARK  status: ('A' for Active; 'I' for Inactive)
REMARK    1  A    between atoms: C4_4  and  C6_6 
ROOT
HETATM    1  C1  UNL     1     -35.633  15.306  -3.142  1.00 20.00     0.070 A 
HETATM    2  C2  UNL     1     -33.465  14.441  -3.593  1.00 20.00     0.129 A 
HETATM    3  C3  UNL     1     -35.299  13.303  -4.380  1.00 20.00     0.170 A 
HETATM    4  C4  UNL     1     -34.254  15.421  -3.013  1.00 20.00     0.027 A 
HETATM    5  C5  UNL     1     -36.175  14.230  -3.837  1.00 20.00     0.190 A 
HETATM    6  N7  UNL     1     -33.954  13.381  -4.276  1.00 20.00    -0.268 NA
HETATM    7  O8  UNL     1     -37.440  14.100  -3.970  1.00 20.00    -0.287 OA
ENDROOT
BRANCH   4   8
HETATM    8  C6  UNL     1     -33.645  16.559  -2.276  1.00 20.00     0.388 C 
HETATM    9  F9  UNL     1     -34.030  16.559  -0.971  1.00 20.00    -0.209 F 
HETATM   10  F10 UNL     1     -34.053  17.750  -2.793  1.00 20.00    -0.209 F 
ENDBRANCH   4   8
TORSDOF 1
ENDMDL
MODEL 6
REMARK VINA RESULT:      -4.6      3.299      4.195
REMARK  1 active torsions:
REMARK  status: ('A' for Active; 'I' for Inactive)
REMARK    1  A    between atoms: C4_4  and  C6_6 
ROOT
HETATM    1  C1  UNL     1     -33.256   6.416   4.883  1.00 20.00     0.070 A 
HETATM    2  C2  UNL     1     -34.686   5.064   3.547  1.00 20.00     0.129 A 
HETATM    3  C3  UNL     1     -32.958   6.187   2.535  1.00 20.00     0.170 A 
HETATM    4  C4  UNL     1     -34.351   5.563   4.797  1.00 20.00     0.027 A 
HETATM    5  C5  UNL     1     -32.541   6.739   3.736  1.00 20.00     0.190 A 
HETATM    6  N7  UNL     1     -34.016   5.356   2.411  1.00 20.00    -0.268 NA
HETATM    7  O8  UNL     1     -31.530   7.522   3.788  1.00 20.00    -0.287 OA
ENDROOT
BRANCH   4   8
HETATM    8  C6  UNL     1     -35.137   5.198   6.004  1.00 20.00     0.388 C 
HETATM    9  F9  UNL     1     -34.757   5.941   7.078  1.00 20.00    -0.209 F 
HETATM   10  F10 UNL     1     -34.927   3.897   6.348  1.00 20.00    -0.209 F 
ENDBRANCH   4   8
TORSDOF 1
ENDMDL
MODEL 7
REMARK VINA RESULT:      -4.5      1.999      2.476
REMARK  1 active torsions:
REMARK  status: ('A' for Active; 'I' for Inactive)
REMARK    1  A    between atoms: C4_4  and  C6_6 
ROOT
HETATM    1  C1  UNL     1     -33.540   6.672   5.004  1.00 20.00     0.070 A 
HETATM    2  C2  UNL     1     -34.790   4.705   4.526  1.00 20.00     0.129 A 
HETATM    3  C3  UNL     1     -34.778   5.516   6.675  1.00 20.00     0.170 A 
HETATM    4  C4  UNL     1     -33.963   5.724   4.079  1.00 20.00     0.027 A 
HETATM    5  C5  UNL     1     -33.950   6.573   6.330  1.00 20.00     0.190 A 
HETATM    6  N7  UNL     1     -35.209   4.577   5.805  1.00 20.00    -0.268 NA
HETATM    7  O8  UNL     1     -33.576   7.431   7.202  1.00 20.00    -0.287 OA
ENDROOT
BRANCH   4   8
HETATM    8  C6  UNL     1     -33.542   5.801   2.655  1.00 20.00     0.388 C 
HETATM    9  F9  UNL     1     -34.072   4.778   1.933  1.00 20.00    -0.209 F 
HETATM   10  F10 UNL     1     -32.191   5.689   2.540  1.00 20.00    -0.209 F 
ENDBRANCH   4   8
TORSDOF 1
ENDMDL
MODEL 8
REMARK VINA RESULT:      -4.3     12.751     13.757
REMARK  1 active torsions:
REMARK  status: ('A' for Active; 'I' for Inactive)
REMARK    1  A    between atoms: C4_4  and  C6_6 
ROOT
HETATM    1  C1  UNL     1     -34.653  14.658  -5.652  1.00 20.00     0.070 A 
HETATM    2  C2  UNL     1     -33.127  16.065  -4.491  1.00 20.00     0.129 A 
HETATM    3  C3  UNL     1     -33.405  13.901  -3.775  1.00 20.00     0.170 A 
HETATM    4  C4  UNL     1     -34.043  15.900  -5.519  1.00 20.00     0.027 A 
HETATM    5  C5  UNL     1     -34.334  13.633  -4.768  1.00 20.00     0.190 A 
HETATM    6  N7  UNL     1     -32.792  15.094  -3.613  1.00 20.00    -0.268 NA
HETATM    7  O8  UNL     1     -34.880  12.481  -4.869  1.00 20.00    -0.287 OA
ENDROOT
BRANCH   4   8
HETATM    8  C6  UNL     1     -34.362  17.016  -6.447  1.00 20.00     0.388 C 
HETATM    9  F9  UNL     1     -34.286  16.610  -7.743  1.00 20.00    -0.209 F 
HETATM   10  F10 UNL     1     -33.468  18.033  -6.313  1.00 20.00    -0.209 F 
ENDBRANCH   4   8
TORSDOF 1
ENDMDL
MODEL 9
REMARK VINA RESULT:      -4.3     12.076     13.089
REMARK  1 active torsions:
REMARK  status: ('A' for Active; 'I' for Inactive)
REMARK    1  A    between atoms: C4_4  and  C6_6 
ROOT
HETATM    1  C1  UNL     1     -34.092  15.523  -5.053  1.00 20.00     0.070 A 
HETATM    2  C2  UNL     1     -34.430  13.814  -3.434  1.00 20.00     0.129 A 
HETATM    3  C3  UNL     1     -34.811  13.335  -5.648  1.00 20.00     0.170 A 
HETATM    4  C4  UNL     1     -34.070  15.121  -3.723  1.00 20.00     0.027 A 
HETATM    5  C5  UNL     1     -34.469  14.620  -6.041  1.00 20.00     0.190 A 
HETATM    6  N7  UNL     1     -34.802  12.908  -4.366  1.00 20.00    -0.268 NA
HETATM    7  O8  UNL     1     -34.499  14.963  -7.273  1.00 20.00    -0.287 OA
ENDROOT
BRANCH   4   8
HETATM    8  C6  UNL     1     -33.672  16.063  -2.644  1.00 20.00     0.388 C 
HETATM    9  F9  UNL     1     -34.476  15.926  -1.555  1.00 20.00    -0.209 F 
HETATM   10  F10 UNL     1     -33.801  17.355  -3.052  1.00 20.00    -0.209 F 
ENDBRANCH   4   8
TORSDOF 1
ENDMDL
