MODEL 1
REMARK VINA RESULT:      -4.5      0.000      0.000
REMARK  2 active torsions:
REMARK  status: ('A' for Active; 'I' for Inactive)
REMARK    1  A    between atoms: C8_8  and  O11_11 
REMARK    2  A    between atoms: C9_9  and  O11_11 
ROOT
HETATM    1  C1  UNL     1     -34.824  13.245  -4.533  1.00 20.00     0.092 C 
HETATM    2  C2  UNL     1     -34.545  14.915  -6.086  1.00 20.00     0.027 C 
HETATM    3  C3  UNL     1     -34.324  15.244  -7.369  1.00 20.00     0.040 C 
HETATM    4  C4  UNL     1     -34.296  14.052  -3.378  1.00 20.00     0.079 C 
HETATM    5  C5  UNL     1     -34.364  15.934  -4.993  1.00 20.00     0.090 C 
HETATM    6  C8  UNL     1     -33.587  15.312  -3.842  1.00 20.00     0.132 C 
HETATM    7  N10 UNL     1     -34.945  13.640  -5.762  1.00 20.00    -0.270 NA
ENDROOT
BRANCH   6   8
HETATM    8  O11 UNL     1     -33.512  16.227  -2.756  1.00 20.00    -0.380 OA
BRANCH   8   9
HETATM    9  C9  UNL     1     -34.637  16.104  -1.899  1.00 20.00     0.122 A 
HETATM   10  C6  UNL     1     -34.555  16.836  -0.591  1.00 20.00     0.034 A 
HETATM   11  C7  UNL     1     -35.442  17.352  -1.685  1.00 20.00     0.034 A 
ENDBRANCH   8   9
ENDBRANCH   6   8
TORSDOF 2
ENDMDL
MODEL 2
REMARK VINA RESULT:      -4.4     10.707     12.103
REMARK  2 active torsions:
REMARK  status: ('A' for Active; 'I' for Inactive)
REMARK    1  A    between atoms: C8_8  and  O11_11 
REMARK    2  A    between atoms: C9_9  and  O11_11 
ROOT
HETATM    1  C1  UNL     1     -35.147   4.975   4.174  1.00 20.00     0.092 C 
HETATM    2  C2  UNL     1     -33.951   6.259   5.657  1.00 20.00     0.027 C 
HETATM    3  C3  UNL     1     -33.932   6.917   6.827  1.00 20.00     0.040 C 
HETATM    4  C4  UNL     1     -34.394   5.445   2.959  1.00 20.00     0.079 C 
HETATM    5  C5  UNL     1     -32.894   6.517   4.617  1.00 20.00     0.090 C 
HETATM    6  C8  UNL     1     -33.549   6.671   3.253  1.00 20.00     0.132 C 
HETATM    7  N10 UNL     1     -34.940   5.339   5.401  1.00 20.00    -0.270 NA
ENDROOT
BRANCH   6   8
HETATM    8  O11 UNL     1     -32.552   6.797   2.247  1.00 20.00    -0.380 OA
BRANCH   8   9
HETATM    9  C9  UNL     1     -31.939   8.077   2.285  1.00 20.00     0.122 A 
HETATM   10  C6  UNL     1     -31.583   8.680   0.956  1.00 20.00     0.034 A 
HETATM   11  C7  UNL     1     -32.751   9.213   1.733  1.00 20.00     0.034 A 
ENDBRANCH   8   9
ENDBRANCH   6   8
TORSDOF 2
ENDMDL
MODEL 3
REMARK VINA RESULT:      -4.4     11.042     12.419
REMARK  2 active torsions:
REMARK  status: ('A' for Active; 'I' for Inactive)
REMARK    1  A    between atoms: C8_8  and  O11_11 
REMARK    2  A    between atoms: C9_9  and  O11_11 
ROOT
HETATM    1  C1  UNL     1     -33.460   6.885   6.117  1.00 20.00     0.092 C 
HETATM    2  C2  UNL     1     -34.642   5.103   5.276  1.00 20.00     0.027 C 
HETATM    3  C3  UNL     1     -35.160   3.884   5.493  1.00 20.00     0.040 C 
HETATM    4  C4  UNL     1     -32.908   7.315   4.785  1.00 20.00     0.079 C 
HETATM    5  C5  UNL     1     -34.483   5.629   3.875  1.00 20.00     0.090 C 
HETATM    6  C8  UNL     1     -33.104   6.252   3.719  1.00 20.00     0.132 C 
HETATM    7  N10 UNL     1     -34.255   5.885   6.339  1.00 20.00    -0.270 NA
ENDROOT
BRANCH   6   8
HETATM    8  O11 UNL     1     -32.986   6.856   2.437  1.00 20.00    -0.380 OA
BRANCH   8   9
HETATM    9  C9  UNL     1     -32.102   7.966   2.469  1.00 20.00     0.122 A 
HETATM   10  C6  UNL     1     -31.613   8.461   1.138  1.00 20.00     0.034 A 
HETATM   11  C7  UNL     1     -32.635   9.250   1.903  1.00 20.00     0.034 A 
ENDBRANCH   8   9
ENDBRANCH   6   8
TORSDOF 2
ENDMDL
MODEL 4
REMARK VINA RESULT:      -4.0      1.907      2.890
REMARK  2 active torsions:
REMARK  status: ('A' for Active; 'I' for Inactive)
REMARK    1  A    between atoms: C8_8  and  O11_11 
REMARK    2  A    between atoms: C9_9  and  O11_11 
ROOT
HETATM    1  C1  UNL     1     -33.454  17.096  -4.550  1.00 20.00     0.092 C 
HETATM    2  C2  UNL     1     -33.956  14.999  -3.755  1.00 20.00     0.027 C 
HETATM    3  C3  UNL     1     -34.135  13.697  -4.028  1.00 20.00     0.040 C 
HETATM    4  C4  UNL     1     -34.240  17.826  -3.495  1.00 20.00     0.079 C 
HETATM    5  C5  UNL     1     -34.446  15.583  -2.457  1.00 20.00     0.090 C 
HETATM    6  C8  UNL     1     -35.164  16.896  -2.729  1.00 20.00     0.132 C 
HETATM    7  N10 UNL     1     -33.318  15.811  -4.662  1.00 20.00    -0.270 NA
ENDROOT
BRANCH   6   8
HETATM    8  O11 UNL     1     -35.527  17.515  -1.501  1.00 20.00    -0.380 OA
BRANCH   8   9
HETATM    9  C9  UNL     1     -34.725  17.043  -0.429  1.00 20.00     0.122 A 
HETATM   10  C6  UNL     1     -33.958  18.086   0.332  1.00 20.00     0.034 A 
HETATM   11  C7  UNL     1     -35.165  17.444   0.950  1.00 20.00     0.034 A 
ENDBRANCH   8   9
ENDBRANCH   6   8
TORSDOF 2
ENDMDL
MODEL 5
REMARK VINA RESULT:      -4.0      2.224      4.760
REMARK  2 active torsions:
REMARK  status: ('A' for Active; 'I' for Inactive)
REMARK    1  A    between atoms: C8_8  and  O11_11 
REMARK    2  A    between atoms: C9_9  and  O11_11 
ROOT
HETATM    1  C1  UNL     1     -34.214  18.534  -3.161  1.00 20.00     0.092 C 
HETATM    2  C2  UNL     1     -34.686  17.220  -1.337  1.00 20.00     0.027 C 
HETATM    3  C3  UNL     1     -34.812  17.136  -0.003  1.00 20.00     0.040 C 
HETATM    4  C4  UNL     1     -33.698  17.402  -4.007  1.00 20.00     0.079 C 
HETATM    5  C5  UNL     1     -34.565  15.974  -2.173  1.00 20.00     0.090 C 
HETATM    6  C8  UNL     1     -33.444  16.150  -3.187  1.00 20.00     0.132 C 
HETATM    7  N10 UNL     1     -34.671  18.450  -1.951  1.00 20.00    -0.270 NA
ENDROOT
BRANCH   6   8
HETATM    8  O11 UNL     1     -33.398  15.028  -4.059  1.00 20.00    -0.380 OA
BRANCH   8   9
HETATM    9  C9  UNL     1     -34.702  14.623  -4.448  1.00 20.00     0.122 A 
HETATM   10  C6  UNL     1     -34.850  14.139  -5.862  1.00 20.00     0.034 A 
HETATM   11  C7  UNL     1     -34.882  13.158  -4.727  1.00 20.00     0.034 A 
ENDBRANCH   8   9
ENDBRANCH   6   8
TORSDOF 2
ENDMDL
MODEL 6
REMARK VINA RESULT:      -4.0      1.435      1.507
REMARK  2 active torsions:
REMARK  status: ('A' for Active; 'I' for Inactive)
REMARK    1  A    between atoms: C8_8  and  O11_11 
REMARK    2  A    between atoms: C9_9  and  O11_11 
ROOT
HETATM    1  C1  UNL     1     -37.038  15.018  -4.780  1.00 20.00     0.092 C 
HETATM    2  C2  UNL     1     -35.126  15.164  -6.046  1.00 20.00     0.027 C 
HETATM    3  C3  UNL     1     -34.510  14.880  -7.204  1.00 20.00     0.040 C 
HETATM    4  C4  UNL     1     -36.321  15.047  -3.458  1.00 20.00     0.079 C 
HETATM    5  C5  UNL     1     -34.330  15.579  -4.838  1.00 20.00     0.090 C 
HETATM    6  C8  UNL     1     -34.828  14.822  -3.616  1.00 20.00     0.132 C 
HETATM    7  N10 UNL     1     -36.495  15.079  -5.956  1.00 20.00    -0.270 NA
ENDROOT
BRANCH   6   8
HETATM    8  O11 UNL     1     -34.164  15.292  -2.449  1.00 20.00    -0.380 OA
BRANCH   8   9
HETATM    9  C9  UNL     1     -34.696  16.536  -2.018  1.00 20.00     0.122 A 
HETATM   10  C6  UNL     1     -34.695  16.779  -0.536  1.00 20.00     0.034 A 
HETATM   11  C7  UNL     1     -33.715  17.499  -1.415  1.00 20.00     0.034 A 
ENDBRANCH   8   9
ENDBRANCH   6   8
TORSDOF 2
ENDMDL
MODEL 7
REMARK VINA RESULT:      -3.9     12.062     13.821
REMARK  2 active torsions:
REMARK  status: ('A' for Active; 'I' for Inactive)
REMARK    1  A    between atoms: C8_8  and  O11_11 
REMARK    2  A    between atoms: C9_9  and  O11_11 
ROOT
HETATM    1  C1  UNL     1     -40.685   5.649  -0.639  1.00 20.00     0.092 C 
HETATM    2  C2  UNL     1     -42.274   7.028  -1.563  1.00 20.00     0.027 C 
HETATM    3  C3  UNL     1     -43.071   8.098  -1.412  1.00 20.00     0.040 C 
HETATM    4  C4  UNL     1     -41.082   4.439  -1.440  1.00 20.00     0.079 C 
HETATM    5  C5  UNL     1     -42.519   6.041  -2.673  1.00 20.00     0.090 C 
HETATM    6  C8  UNL     1     -42.424   4.625  -2.125  1.00 20.00     0.132 C 
HETATM    7  N10 UNL     1     -41.221   6.828  -0.701  1.00 20.00    -0.270 NA
ENDROOT
BRANCH   6   8
HETATM    8  O11 UNL     1     -42.536   3.685  -3.186  1.00 20.00    -0.380 OA
BRANCH   8   9
HETATM    9  C9  UNL     1     -41.754   2.528  -2.935  1.00 20.00     0.122 A 
HETATM   10  C6  UNL     1     -42.377   1.214  -3.311  1.00 20.00     0.034 A 
HETATM   11  C7  UNL     1     -41.268   1.785  -4.146  1.00 20.00     0.034 A 
ENDBRANCH   8   9
ENDBRANCH   6   8
TORSDOF 2
ENDMDL
MODEL 8
REMARK VINA RESULT:      -3.7      3.078      4.095
REMARK  2 active torsions:
REMARK  status: ('A' for Active; 'I' for Inactive)
REMARK    1  A    between atoms: C8_8  and  O11_11 
REMARK    2  A    between atoms: C9_9  and  O11_11 
ROOT
HETATM    1  C1  UNL     1     -34.119  15.312  -5.180  1.00 20.00     0.092 C 
HETATM    2  C2  UNL     1     -34.400  16.164  -3.065  1.00 20.00     0.027 C 
HETATM    3  C3  UNL     1     -33.825  16.640  -1.949  1.00 20.00     0.040 C 
HETATM    4  C4  UNL     1     -35.390  14.507  -5.166  1.00 20.00     0.079 C 
HETATM    5  C5  UNL     1     -35.842  15.733  -3.058  1.00 20.00     0.090 C 
HETATM    6  C8  UNL     1     -35.976  14.395  -3.770  1.00 20.00     0.132 C 
HETATM    7  N10 UNL     1     -33.674  16.072  -4.228  1.00 20.00    -0.270 NA
ENDROOT
BRANCH   6   8
HETATM    8  O11 UNL     1     -37.347  14.034  -3.873  1.00 20.00    -0.380 OA
BRANCH   8   9
HETATM    9  C9  UNL     1     -38.154  15.159  -4.190  1.00 20.00     0.122 A 
HETATM   10  C6  UNL     1     -39.413  14.874  -4.958  1.00 20.00     0.034 A 
HETATM   11  C7  UNL     1     -39.487  15.228  -3.501  1.00 20.00     0.034 A 
ENDBRANCH   8   9
ENDBRANCH   6   8
TORSDOF 2
ENDMDL
MODEL 9
REMARK VINA RESULT:      -3.7      3.004      5.753
REMARK  2 active torsions:
REMARK  status: ('A' for Active; 'I' for Inactive)
REMARK    1  A    between atoms: C8_8  and  O11_11 
REMARK    2  A    between atoms: C9_9  and  O11_11 
ROOT
HETATM    1  C1  UNL     1     -33.277  19.105  -1.100  1.00 20.00     0.092 C 
HETATM    2  C2  UNL     1     -34.207  18.268   0.828  1.00 20.00     0.027 C 
HETATM    3  C3  UNL     1     -34.183  18.220   2.169  1.00 20.00     0.040 C 
HETATM    4  C4  UNL     1     -33.668  17.929  -1.953  1.00 20.00     0.079 C 
HETATM    5  C5  UNL     1     -34.974  17.241   0.039  1.00 20.00     0.090 C 
HETATM    6  C8  UNL     1     -34.120  16.745  -1.117  1.00 20.00     0.132 C 
HETATM    7  N10 UNL     1     -33.530  19.262   0.162  1.00 20.00    -0.270 NA
ENDROOT
BRANCH   6   8
HETATM    8  O11 UNL     1     -34.877  15.863  -1.937  1.00 20.00    -0.380 OA
BRANCH   8   9
HETATM    9  C9  UNL     1     -34.124  15.428  -3.059  1.00 20.00     0.122 A 
HETATM   10  C6  UNL     1     -34.387  14.026  -3.529  1.00 20.00     0.034 A 
HETATM   11  C7  UNL     1     -34.900  15.191  -4.322  1.00 20.00     0.034 A 
ENDBRANCH   8   9
ENDBRANCH   6   8
TORSDOF 2
ENDMDL
