MODEL 1
REMARK VINA RESULT:      -4.8      0.000      0.000
REMARK  2 active torsions:
REMARK  status: ('A' for Active; 'I' for Inactive)
REMARK    1  A    between atoms: C7_7  and  O10_10 
REMARK    2  A    between atoms: C8_8  and  O10_10 
ROOT
HETATM    1  C1  UNL     1     -35.972  15.113  -3.712  1.00 20.00     0.024 C 
HETATM    2  C2  UNL     1     -35.842  13.848  -4.134  1.00 20.00     0.118 C 
HETATM    3  C3  UNL     1     -33.614  13.720  -3.724  1.00 20.00     0.188 C 
HETATM    4  C4  UNL     1     -33.485  15.211  -3.537  1.00 20.00     0.127 C 
HETATM    5  C7  UNL     1     -34.809  15.853  -3.136  1.00 20.00     0.154 C 
HETATM    6  N9  UNL     1     -34.703  13.093  -4.037  1.00 20.00    -0.237 NA
HETATM    7  F11 UNL     1     -32.497  12.989  -3.608  1.00 20.00    -0.189 F 
ENDROOT
BRANCH   5   8
HETATM    8  O10 UNL     1     -34.914  15.860  -1.715  1.00 20.00    -0.376 OA
BRANCH   8   9
HETATM    9  C8  UNL     1     -34.986  17.184  -1.207  1.00 20.00     0.122 A 
HETATM   10  C5  UNL     1     -34.874  17.328   0.285  1.00 20.00     0.034 A 
HETATM   11  C6  UNL     1     -33.725  17.726  -0.596  1.00 20.00     0.034 A 
ENDBRANCH   8   9
ENDBRANCH   5   8
TORSDOF 2
ENDMDL
MODEL 2
REMARK VINA RESULT:      -4.5      1.666      2.085
REMARK  2 active torsions:
REMARK  status: ('A' for Active; 'I' for Inactive)
REMARK    1  A    between atoms: C7_7  and  O10_10 
REMARK    2  A    between atoms: C8_8  and  O10_10 
ROOT
HETATM    1  C1  UNL     1     -33.360  16.330  -4.439  1.00 20.00     0.024 C 
HETATM    2  C2  UNL     1     -33.880  15.987  -5.625  1.00 20.00     0.118 C 
HETATM    3  C3  UNL     1     -34.326  13.839  -5.043  1.00 20.00     0.188 C 
HETATM    4  C4  UNL     1     -33.488  13.924  -3.793  1.00 20.00     0.127 C 
HETATM    5  C7  UNL     1     -33.334  15.359  -3.303  1.00 20.00     0.154 C 
HETATM    6  N9  UNL     1     -34.478  14.788  -5.912  1.00 20.00    -0.237 NA
HETATM    7  F11 UNL     1     -34.923  12.668  -5.303  1.00 20.00    -0.189 F 
ENDROOT
BRANCH   5   8
HETATM    8  O10 UNL     1     -34.395  15.663  -2.402  1.00 20.00    -0.376 OA
BRANCH   8   9
HETATM    9  C8  UNL     1     -34.147  16.869  -1.695  1.00 20.00     0.122 A 
HETATM   10  C5  UNL     1     -35.349  17.715  -1.386  1.00 20.00     0.034 A 
HETATM   11  C6  UNL     1     -34.680  16.934  -0.292  1.00 20.00     0.034 A 
ENDBRANCH   8   9
ENDBRANCH   5   8
TORSDOF 2
ENDMDL
MODEL 3
REMARK VINA RESULT:      -4.5      1.830      2.148
REMARK  2 active torsions:
REMARK  status: ('A' for Active; 'I' for Inactive)
REMARK    1  A    between atoms: C7_7  and  O10_10 
REMARK    2  A    between atoms: C8_8  and  O10_10 
ROOT
HETATM    1  C1  UNL     1     -33.566  16.280  -5.619  1.00 20.00     0.024 C 
HETATM    2  C2  UNL     1     -34.360  15.445  -6.302  1.00 20.00     0.118 C 
HETATM    3  C3  UNL     1     -34.535  13.916  -4.634  1.00 20.00     0.188 C 
HETATM    4  C4  UNL     1     -33.404  14.530  -3.849  1.00 20.00     0.127 C 
HETATM    5  C7  UNL     1     -33.197  16.000  -4.199  1.00 20.00     0.154 C 
HETATM    6  N9  UNL     1     -34.954  14.320  -5.791  1.00 20.00    -0.237 NA
HETATM    7  F11 UNL     1     -35.121  12.828  -4.116  1.00 20.00    -0.189 F 
ENDROOT
BRANCH   5   8
HETATM    8  O10 UNL     1     -33.999  16.803  -3.337  1.00 20.00    -0.376 OA
BRANCH   8   9
HETATM    9  C8  UNL     1     -33.663  16.598  -1.974  1.00 20.00     0.122 A 
HETATM   10  C5  UNL     1     -33.826  17.783  -1.065  1.00 20.00     0.034 A 
HETATM   11  C6  UNL     1     -34.804  16.646  -0.998  1.00 20.00     0.034 A 
ENDBRANCH   8   9
ENDBRANCH   5   8
TORSDOF 2
ENDMDL
MODEL 4
REMARK VINA RESULT:      -4.5     10.198     10.976
REMARK  2 active torsions:
REMARK  status: ('A' for Active; 'I' for Inactive)
REMARK    1  A    between atoms: C7_7  and  O10_10 
REMARK    2  A    between atoms: C8_8  and  O10_10 
ROOT
HETATM    1  C1  UNL     1     -33.994   5.331   2.875  1.00 20.00     0.024 C 
HETATM    2  C2  UNL     1     -34.898   5.029   3.816  1.00 20.00     0.118 C 
HETATM    3  C3  UNL     1     -33.978   6.348   5.418  1.00 20.00     0.188 C 
HETATM    4  C4  UNL     1     -32.705   6.543   4.634  1.00 20.00     0.127 C 
HETATM    5  C7  UNL     1     -32.916   6.332   3.138  1.00 20.00     0.154 C 
HETATM    6  N9  UNL     1     -34.981   5.615   5.053  1.00 20.00    -0.237 NA
HETATM    7  F11 UNL     1     -34.056   6.942   6.616  1.00 20.00    -0.189 F 
ENDROOT
BRANCH   5   8
HETATM    8  O10 UNL     1     -33.271   7.573   2.536  1.00 20.00    -0.376 OA
BRANCH   8   9
HETATM    9  C8  UNL     1     -32.120   8.335   2.203  1.00 20.00     0.122 A 
HETATM   10  C5  UNL     1     -31.902   8.601   0.740  1.00 20.00     0.034 A 
HETATM   11  C6  UNL     1     -32.375   9.705   1.640  1.00 20.00     0.034 A 
ENDBRANCH   8   9
ENDBRANCH   5   8
TORSDOF 2
ENDMDL
MODEL 5
REMARK VINA RESULT:      -4.4     11.208     11.943
REMARK  2 active torsions:
REMARK  status: ('A' for Active; 'I' for Inactive)
REMARK    1  A    between atoms: C7_7  and  O10_10 
REMARK    2  A    between atoms: C8_8  and  O10_10 
ROOT
HETATM    1  C1  UNL     1     -33.764   6.950   5.461  1.00 20.00     0.024 C 
HETATM    2  C2  UNL     1     -34.079   6.049   6.402  1.00 20.00     0.118 C 
HETATM    3  C3  UNL     1     -34.870   4.498   4.946  1.00 20.00     0.188 C 
HETATM    4  C4  UNL     1     -34.907   5.479   3.802  1.00 20.00     0.127 C 
HETATM    5  C7  UNL     1     -33.938   6.638   4.011  1.00 20.00     0.154 C 
HETATM    6  N9  UNL     1     -34.519   4.773   6.162  1.00 20.00    -0.237 NA
HETATM    7  F11 UNL     1     -35.284   3.248   4.695  1.00 20.00    -0.189 F 
ENDROOT
BRANCH   5   8
HETATM    8  O10 UNL     1     -32.674   6.298   3.448  1.00 20.00    -0.376 OA
BRANCH   8   9
HETATM    9  C8  UNL     1     -31.911   7.457   3.148  1.00 20.00     0.122 A 
HETATM   10  C5  UNL     1     -31.689   7.745   1.690  1.00 20.00     0.034 A 
HETATM   11  C6  UNL     1     -32.653   8.581   2.482  1.00 20.00     0.034 A 
ENDBRANCH   8   9
ENDBRANCH   5   8
TORSDOF 2
ENDMDL
MODEL 6
REMARK VINA RESULT:      -4.3      2.423      4.351
REMARK  2 active torsions:
REMARK  status: ('A' for Active; 'I' for Inactive)
REMARK    1  A    between atoms: C7_7  and  O10_10 
REMARK    2  A    between atoms: C8_8  and  O10_10 
ROOT
HETATM    1  C1  UNL     1     -36.042  15.465  -3.053  1.00 20.00     0.024 C 
HETATM    2  C2  UNL     1     -35.049  16.095  -2.411  1.00 20.00     0.118 C 
HETATM    3  C3  UNL     1     -33.383  14.904  -3.389  1.00 20.00     0.188 C 
HETATM    4  C4  UNL     1     -34.336  13.873  -3.936  1.00 20.00     0.127 C 
HETATM    5  C7  UNL     1     -35.751  14.423  -4.084  1.00 20.00     0.154 C 
HETATM    6  N9  UNL     1     -33.711  15.916  -2.651  1.00 20.00    -0.237 NA
HETATM    7  F11 UNL     1     -32.079  14.731  -3.646  1.00 20.00    -0.189 F 
ENDROOT
BRANCH   5   8
HETATM    8  O10 UNL     1     -35.898  14.992  -5.382  1.00 20.00    -0.376 OA
BRANCH   8   9
HETATM    9  C8  UNL     1     -35.177  14.253  -6.356  1.00 20.00     0.122 A 
HETATM   10  C5  UNL     1     -35.619  14.429  -7.782  1.00 20.00     0.034 A 
HETATM   11  C6  UNL     1     -34.341  15.059  -7.310  1.00 20.00     0.034 A 
ENDBRANCH   8   9
ENDBRANCH   5   8
TORSDOF 2
ENDMDL
MODEL 7
REMARK VINA RESULT:      -4.3     11.866     13.761
REMARK  2 active torsions:
REMARK  status: ('A' for Active; 'I' for Inactive)
REMARK    1  A    between atoms: C7_7  and  O10_10 
REMARK    2  A    between atoms: C8_8  and  O10_10 
ROOT
HETATM    1  C1  UNL     1     -42.644   5.360  -2.675  1.00 20.00     0.024 C 
HETATM    2  C2  UNL     1     -42.000   6.527  -2.532  1.00 20.00     0.118 C 
HETATM    3  C3  UNL     1     -40.978   5.963  -0.586  1.00 20.00     0.188 C 
HETATM    4  C4  UNL     1     -41.854   4.752  -0.388  1.00 20.00     0.127 C 
HETATM    5  C7  UNL     1     -42.434   4.244  -1.704  1.00 20.00     0.154 C 
HETATM    6  N9  UNL     1     -41.071   6.806  -1.564  1.00 20.00    -0.237 NA
HETATM    7  F11 UNL     1     -40.060   6.216   0.357  1.00 20.00    -0.189 F 
ENDROOT
BRANCH   5   8
HETATM    8  O10 UNL     1     -41.542   3.289  -2.271  1.00 20.00    -0.376 OA
BRANCH   8   9
HETATM    9  C8  UNL     1     -42.125   2.632  -3.386  1.00 20.00     0.122 A 
HETATM   10  C5  UNL     1     -41.286   1.575  -4.047  1.00 20.00     0.034 A 
HETATM   11  C6  UNL     1     -42.458   1.179  -3.196  1.00 20.00     0.034 A 
ENDBRANCH   8   9
ENDBRANCH   5   8
TORSDOF 2
ENDMDL
MODEL 8
REMARK VINA RESULT:      -4.1      2.258      2.628
REMARK  2 active torsions:
REMARK  status: ('A' for Active; 'I' for Inactive)
REMARK    1  A    between atoms: C7_7  and  O10_10 
REMARK    2  A    between atoms: C8_8  and  O10_10 
ROOT
HETATM    1  C1  UNL     1     -34.362  14.803  -3.204  1.00 20.00     0.024 C 
HETATM    2  C2  UNL     1     -33.432  15.009  -4.146  1.00 20.00     0.118 C 
HETATM    3  C3  UNL     1     -33.663  17.266  -4.175  1.00 20.00     0.188 C 
HETATM    4  C4  UNL     1     -34.944  17.222  -3.381  1.00 20.00     0.127 C 
HETATM    5  C7  UNL     1     -35.056  15.951  -2.546  1.00 20.00     0.154 C 
HETATM    6  N9  UNL     1     -32.981  16.235  -4.560  1.00 20.00    -0.237 NA
HETATM    7  F11 UNL     1     -33.220  18.472  -4.558  1.00 20.00    -0.189 F 
ENDROOT
BRANCH   5   8
HETATM    8  O10 UNL     1     -34.475  16.180  -1.265  1.00 20.00    -0.376 OA
BRANCH   8   9
HETATM    9  C8  UNL     1     -34.916  17.409  -0.708  1.00 20.00     0.122 A 
HETATM   10  C5  UNL     1     -35.103  17.432   0.783  1.00 20.00     0.034 A 
HETATM   11  C6  UNL     1     -33.928  18.132   0.162  1.00 20.00     0.034 A 
ENDBRANCH   8   9
ENDBRANCH   5   8
TORSDOF 2
ENDMDL
MODEL 9
REMARK VINA RESULT:      -4.1      2.827      4.540
REMARK  2 active torsions:
REMARK  status: ('A' for Active; 'I' for Inactive)
REMARK    1  A    between atoms: C7_7  and  O10_10 
REMARK    2  A    between atoms: C8_8  and  O10_10 
ROOT
HETATM    1  C1  UNL     1     -35.113  17.292  -3.278  1.00 20.00     0.024 C 
HETATM    2  C2  UNL     1     -34.404  18.412  -3.083  1.00 20.00     0.118 C 
HETATM    3  C3  UNL     1     -33.594  17.793  -1.055  1.00 20.00     0.188 C 
HETATM    4  C4  UNL     1     -34.566  16.647  -0.931  1.00 20.00     0.127 C 
HETATM    5  C7  UNL     1     -35.066  16.172  -2.291  1.00 20.00     0.154 C 
HETATM    6  N9  UNL     1     -33.543  18.633  -2.039  1.00 20.00    -0.237 NA
HETATM    7  F11 UNL     1     -32.744  17.988  -0.038  1.00 20.00    -0.189 F 
ENDROOT
BRANCH   5   8
HETATM    8  O10 UNL     1     -34.198  15.152  -2.778  1.00 20.00    -0.376 OA
BRANCH   8   9
HETATM    9  C8  UNL     1     -34.543  14.765  -4.099  1.00 20.00     0.122 A 
HETATM   10  C5  UNL     1     -34.135  13.379  -4.512  1.00 20.00     0.034 A 
HETATM   11  C6  UNL     1     -35.577  13.681  -4.221  1.00 20.00     0.034 A 
ENDBRANCH   8   9
ENDBRANCH   5   8
TORSDOF 2
ENDMDL
