MODEL 1
REMARK VINA RESULT:      -4.7      0.000      0.000
REMARK  2 active torsions:
REMARK  status: ('A' for Active; 'I' for Inactive)
REMARK    1  A    between atoms: C7_7  and  O10_10 
REMARK    2  A    between atoms: C8_8  and  O10_10 
ROOT
HETATM    1  C1  UNL     1     -35.186  13.372  -4.186  1.00 20.00     0.153 C 
HETATM    2  C2  UNL     1     -36.453  15.184  -3.654  1.00 20.00     0.121 C 
HETATM    3  C3  UNL     1     -34.040  13.881  -3.720  1.00 20.00     0.114 C 
HETATM    4  C4  UNL     1     -33.993  15.204  -3.037  1.00 20.00     0.109 C 
HETATM    5  C7  UNL     1     -35.251  16.027  -3.291  1.00 20.00     0.168 C 
HETATM    6  N9  UNL     1     -36.417  13.960  -4.084  1.00 20.00    -0.272 NA
HETATM    7  F11 UNL     1     -32.896  13.180  -3.879  1.00 20.00    -0.209 F 
ENDROOT
BRANCH   5   8
HETATM    8  O10 UNL     1     -35.581  16.744  -2.113  1.00 20.00    -0.375 OA
BRANCH   8   9
HETATM    9  C8  UNL     1     -34.596  16.568  -1.103  1.00 20.00     0.122 A 
HETATM   10  C5  UNL     1     -33.849  17.801  -0.684  1.00 20.00     0.034 A 
HETATM   11  C6  UNL     1     -34.888  17.210   0.223  1.00 20.00     0.034 A 
ENDBRANCH   8   9
ENDBRANCH   5   8
TORSDOF 2
ENDMDL
MODEL 2
REMARK VINA RESULT:      -4.5      1.953      2.182
REMARK  2 active torsions:
REMARK  status: ('A' for Active; 'I' for Inactive)
REMARK    1  A    between atoms: C7_7  and  O10_10 
REMARK    2  A    between atoms: C8_8  and  O10_10 
ROOT
HETATM    1  C1  UNL     1     -34.705  13.314  -5.561  1.00 20.00     0.153 C 
HETATM    2  C2  UNL     1     -34.621  14.010  -3.398  1.00 20.00     0.121 C 
HETATM    3  C3  UNL     1     -34.497  14.524  -6.090  1.00 20.00     0.114 C 
HETATM    4  C4  UNL     1     -34.230  15.715  -5.235  1.00 20.00     0.109 C 
HETATM    5  C7  UNL     1     -34.612  15.474  -3.778  1.00 20.00     0.168 C 
HETATM    6  N9  UNL     1     -34.681  13.013  -4.227  1.00 20.00    -0.272 NA
HETATM    7  F11 UNL     1     -34.536  14.672  -7.432  1.00 20.00    -0.209 F 
ENDROOT
BRANCH   5   8
HETATM    8  O10 UNL     1     -33.669  16.120  -2.939  1.00 20.00    -0.375 OA
BRANCH   8   9
HETATM    9  C8  UNL     1     -34.284  17.118  -2.136  1.00 20.00     0.122 A 
HETATM   10  C5  UNL     1     -34.628  16.718  -0.731  1.00 20.00     0.034 A 
HETATM   11  C6  UNL     1     -33.469  17.635  -0.986  1.00 20.00     0.034 A 
ENDBRANCH   8   9
ENDBRANCH   5   8
TORSDOF 2
ENDMDL
MODEL 3
REMARK VINA RESULT:      -4.5     10.542     11.158
REMARK  2 active torsions:
REMARK  status: ('A' for Active; 'I' for Inactive)
REMARK    1  A    between atoms: C7_7  and  O10_10 
REMARK    2  A    between atoms: C8_8  and  O10_10 
ROOT
HETATM    1  C1  UNL     1     -34.837   5.319   4.276  1.00 20.00     0.153 C 
HETATM    2  C2  UNL     1     -33.260   5.894   2.743  1.00 20.00     0.121 C 
HETATM    3  C3  UNL     1     -34.269   5.978   5.293  1.00 20.00     0.114 C 
HETATM    4  C4  UNL     1     -33.047   6.808   5.100  1.00 20.00     0.109 C 
HETATM    5  C7  UNL     1     -32.342   6.496   3.784  1.00 20.00     0.168 C 
HETATM    6  N9  UNL     1     -34.407   5.335   2.977  1.00 20.00    -0.272 NA
HETATM    7  F11 UNL     1     -34.813   5.881   6.525  1.00 20.00    -0.209 F 
ENDROOT
BRANCH   5   8
HETATM    8  O10 UNL     1     -31.822   7.699   3.241  1.00 20.00    -0.375 OA
BRANCH   8   9
HETATM    9  C8  UNL     1     -32.491   8.060   2.040  1.00 20.00     0.122 A 
HETATM   10  C5  UNL     1     -32.579   9.530   1.747  1.00 20.00     0.034 A 
HETATM   11  C6  UNL     1     -31.635   8.666   0.964  1.00 20.00     0.034 A 
ENDBRANCH   8   9
ENDBRANCH   5   8
TORSDOF 2
ENDMDL
MODEL 4
REMARK VINA RESULT:      -4.5      1.973      2.325
REMARK  2 active torsions:
REMARK  status: ('A' for Active; 'I' for Inactive)
REMARK    1  A    between atoms: C7_7  and  O10_10 
REMARK    2  A    between atoms: C8_8  and  O10_10 
ROOT
HETATM    1  C1  UNL     1     -34.531  14.615  -6.082  1.00 20.00     0.153 C 
HETATM    2  C2  UNL     1     -33.466  16.363  -5.091  1.00 20.00     0.121 C 
HETATM    3  C3  UNL     1     -34.467  13.809  -5.017  1.00 20.00     0.114 C 
HETATM    4  C4  UNL     1     -33.898  14.273  -3.720  1.00 20.00     0.109 C 
HETATM    5  C7  UNL     1     -33.080  15.551  -3.875  1.00 20.00     0.168 C 
HETATM    6  N9  UNL     1     -34.124  15.921  -6.119  1.00 20.00    -0.272 NA
HETATM    7  F11 UNL     1     -34.922  12.542  -5.122  1.00 20.00    -0.209 F 
ENDROOT
BRANCH   5   8
HETATM    8  O10 UNL     1     -33.286  16.373  -2.737  1.00 20.00    -0.375 OA
BRANCH   8   9
HETATM    9  C8  UNL     1     -34.523  16.080  -2.102  1.00 20.00     0.122 A 
HETATM   10  C5  UNL     1     -34.687  16.600  -0.702  1.00 20.00     0.034 A 
HETATM   11  C6  UNL     1     -35.422  17.254  -1.835  1.00 20.00     0.034 A 
ENDBRANCH   8   9
ENDBRANCH   5   8
TORSDOF 2
ENDMDL
MODEL 5
REMARK VINA RESULT:      -4.4      2.440      4.045
REMARK  2 active torsions:
REMARK  status: ('A' for Active; 'I' for Inactive)
REMARK    1  A    between atoms: C7_7  and  O10_10 
REMARK    2  A    between atoms: C8_8  and  O10_10 
ROOT
HETATM    1  C1  UNL     1     -33.433  14.207  -3.624  1.00 20.00     0.153 C 
HETATM    2  C2  UNL     1     -35.308  13.350  -4.582  1.00 20.00     0.121 C 
HETATM    3  C3  UNL     1     -34.055  15.227  -3.023  1.00 20.00     0.114 C 
HETATM    4  C4  UNL     1     -35.534  15.389  -3.091  1.00 20.00     0.109 C 
HETATM    5  C7  UNL     1     -36.155  14.542  -4.196  1.00 20.00     0.168 C 
HETATM    6  N9  UNL     1     -34.043  13.206  -4.329  1.00 20.00    -0.272 NA
HETATM    7  F11 UNL     1     -33.322  16.137  -2.345  1.00 20.00    -0.209 F 
ENDROOT
BRANCH   5   8
HETATM    8  O10 UNL     1     -37.405  14.042  -3.749  1.00 20.00    -0.375 OA
BRANCH   8   9
HETATM    9  C8  UNL     1     -38.443  14.994  -3.936  1.00 20.00     0.122 A 
HETATM   10  C5  UNL     1     -38.764  15.355  -5.358  1.00 20.00     0.034 A 
HETATM   11  C6  UNL     1     -39.702  14.482  -4.577  1.00 20.00     0.034 A 
ENDBRANCH   8   9
ENDBRANCH   5   8
TORSDOF 2
ENDMDL
MODEL 6
REMARK VINA RESULT:      -4.4     11.850     13.668
REMARK  2 active torsions:
REMARK  status: ('A' for Active; 'I' for Inactive)
REMARK    1  A    between atoms: C7_7  and  O10_10 
REMARK    2  A    between atoms: C8_8  and  O10_10 
ROOT
HETATM    1  C1  UNL     1     -41.499   6.860  -1.264  1.00 20.00     0.153 C 
HETATM    2  C2  UNL     1     -42.335   5.340  -2.735  1.00 20.00     0.121 C 
HETATM    3  C3  UNL     1     -40.801   5.970  -0.549  1.00 20.00     0.114 C 
HETATM    4  C4  UNL     1     -40.735   4.534  -0.938  1.00 20.00     0.109 C 
HETATM    5  C7  UNL     1     -41.823   4.159  -1.940  1.00 20.00     0.168 C 
HETATM    6  N9  UNL     1     -42.197   6.589  -2.409  1.00 20.00    -0.272 NA
HETATM    7  F11 UNL     1     -40.146   6.384   0.557  1.00 20.00    -0.209 F 
ENDROOT
BRANCH   5   8
HETATM    8  O10 UNL     1     -41.295   3.225  -2.868  1.00 20.00    -0.375 OA
BRANCH   8   9
HETATM    9  C8  UNL     1     -42.192   2.144  -3.085  1.00 20.00     0.122 A 
HETATM   10  C5  UNL     1     -42.657   1.943  -4.499  1.00 20.00     0.034 A 
HETATM   11  C6  UNL     1     -41.659   0.997  -3.896  1.00 20.00     0.034 A 
ENDBRANCH   8   9
ENDBRANCH   5   8
TORSDOF 2
ENDMDL
MODEL 7
REMARK VINA RESULT:      -4.3      2.639      4.466
REMARK  2 active torsions:
REMARK  status: ('A' for Active; 'I' for Inactive)
REMARK    1  A    between atoms: C7_7  and  O10_10 
REMARK    2  A    between atoms: C8_8  and  O10_10 
ROOT
HETATM    1  C1  UNL     1     -35.592  15.971  -2.559  1.00 20.00     0.153 C 
HETATM    2  C2  UNL     1     -36.455  14.462  -4.024  1.00 20.00     0.121 C 
HETATM    3  C3  UNL     1     -34.315  15.630  -2.766  1.00 20.00     0.114 C 
HETATM    4  C4  UNL     1     -33.935  14.610  -3.784  1.00 20.00     0.109 C 
HETATM    5  C7  UNL     1     -35.126  13.769  -4.229  1.00 20.00     0.168 C 
HETATM    6  N9  UNL     1     -36.670  15.470  -3.237  1.00 20.00    -0.272 NA
HETATM    7  F11 UNL     1     -33.349  16.219  -2.030  1.00 20.00    -0.209 F 
ENDROOT
BRANCH   5   8
HETATM    8  O10 UNL     1     -35.006  13.493  -5.615  1.00 20.00    -0.375 OA
BRANCH   8   9
HETATM    9  C8  UNL     1     -35.388  14.611  -6.404  1.00 20.00     0.122 A 
HETATM   10  C5  UNL     1     -34.367  15.110  -7.385  1.00 20.00     0.034 A 
HETATM   11  C6  UNL     1     -35.566  14.353  -7.873  1.00 20.00     0.034 A 
ENDBRANCH   8   9
ENDBRANCH   5   8
TORSDOF 2
ENDMDL
MODEL 8
REMARK VINA RESULT:      -4.2      2.872      4.619
REMARK  2 active torsions:
REMARK  status: ('A' for Active; 'I' for Inactive)
REMARK    1  A    between atoms: C7_7  and  O10_10 
REMARK    2  A    between atoms: C8_8  and  O10_10 
ROOT
HETATM    1  C1  UNL     1     -33.831  18.382  -0.787  1.00 20.00     0.153 C 
HETATM    2  C2  UNL     1     -33.877  18.079  -3.040  1.00 20.00     0.121 C 
HETATM    3  C3  UNL     1     -34.491  17.255  -0.496  1.00 20.00     0.114 C 
HETATM    4  C4  UNL     1     -34.890  16.288  -1.556  1.00 20.00     0.109 C 
HETATM    5  C7  UNL     1     -34.826  16.904  -2.950  1.00 20.00     0.168 C 
HETATM    6  N9  UNL     1     -33.433  18.771  -2.037  1.00 20.00    -0.272 NA
HETATM    7  F11 UNL     1     -34.808  16.992   0.790  1.00 20.00    -0.209 F 
ENDROOT
BRANCH   5   8
HETATM    8  O10 UNL     1     -34.368  15.924  -3.868  1.00 20.00    -0.375 OA
BRANCH   8   9
HETATM    9  C8  UNL     1     -34.413  14.620  -3.303  1.00 20.00     0.122 A 
HETATM   10  C5  UNL     1     -34.885  13.521  -4.211  1.00 20.00     0.034 A 
HETATM   11  C6  UNL     1     -33.431  13.627  -3.855  1.00 20.00     0.034 A 
ENDBRANCH   8   9
ENDBRANCH   5   8
TORSDOF 2
ENDMDL
MODEL 9
REMARK VINA RESULT:      -4.0     11.746     13.549
REMARK  2 active torsions:
REMARK  status: ('A' for Active; 'I' for Inactive)
REMARK    1  A    between atoms: C7_7  and  O10_10 
REMARK    2  A    between atoms: C8_8  and  O10_10 
ROOT
HETATM    1  C1  UNL     1     -41.125   6.994  -1.005  1.00 20.00     0.153 C 
HETATM    2  C2  UNL     1     -40.901   4.738  -0.830  1.00 20.00     0.121 C 
HETATM    3  C3  UNL     1     -41.916   6.958  -2.083  1.00 20.00     0.114 C 
HETATM    4  C4  UNL     1     -42.387   5.669  -2.664  1.00 20.00     0.109 C 
HETATM    5  C7  UNL     1     -41.574   4.481  -2.160  1.00 20.00     0.168 C 
HETATM    6  N9  UNL     1     -40.680   5.905  -0.307  1.00 20.00    -0.272 NA
HETATM    7  F11 UNL     1     -42.290   8.118  -2.664  1.00 20.00    -0.209 F 
ENDROOT
BRANCH   5   8
HETATM    8  O10 UNL     1     -42.439   3.370  -1.986  1.00 20.00    -0.375 OA
BRANCH   8   9
HETATM    9  C8  UNL     1     -42.642   2.672  -3.207  1.00 20.00     0.122 A 
HETATM   10  C5  UNL     1     -41.453   1.934  -3.754  1.00 20.00     0.034 A 
HETATM   11  C6  UNL     1     -42.585   1.173  -3.128  1.00 20.00     0.034 A 
ENDBRANCH   8   9
ENDBRANCH   5   8
TORSDOF 2
ENDMDL
