MODEL 1
REMARK VINA RESULT:      -4.0      0.000      0.000
REMARK  1 active torsions:
REMARK  status: ('A' for Active; 'I' for Inactive)
REMARK    1  A    between atoms: C1_1  and  C4_4 
ROOT
HETATM    1  C2  UNL     1     -33.966  16.697  -2.904  1.00 20.00     0.038 C 
HETATM    2  C3  UNL     1     -34.904  15.844  -2.073  1.00 20.00     0.169 C 
HETATM    3  C4  UNL     1     -34.985  15.097  -4.275  1.00 20.00     0.190 C 
HETATM    4  C5  UNL     1     -33.628  15.787  -4.082  1.00 20.00    -0.013 C 
HETATM    5  C6  UNL     1     -32.496  14.818  -3.691  1.00 20.00     0.018 C 
HETATM    6  C7  UNL     1     -33.204  16.580  -5.319  1.00 20.00     0.018 C 
HETATM    7  O9  UNL     1     -35.563  14.943  -2.975  1.00 20.00    -0.378 OA
ENDROOT
BRANCH   3   8
HETATM    8  C1  UNL     1     -34.923  13.744  -4.907  1.00 20.00     0.263 C 
HETATM    9  O8  UNL     1     -35.100  12.700  -4.289  1.00 20.00    -0.304 OA
ENDBRANCH   3   8
TORSDOF 1
ENDMDL
MODEL 2
REMARK VINA RESULT:      -4.0      1.514      2.779
REMARK  1 active torsions:
REMARK  status: ('A' for Active; 'I' for Inactive)
REMARK    1  A    between atoms: C1_1  and  C4_4 
ROOT
HETATM    1  C2  UNL     1     -33.533  14.252  -3.820  1.00 20.00     0.038 C 
HETATM    2  C3  UNL     1     -34.172  13.206  -4.713  1.00 20.00     0.169 C 
HETATM    3  C4  UNL     1     -35.850  14.259  -3.493  1.00 20.00     0.190 C 
HETATM    4  C5  UNL     1     -34.672  15.238  -3.578  1.00 20.00    -0.013 C 
HETATM    5  C6  UNL     1     -34.776  16.223  -4.758  1.00 20.00     0.018 C 
HETATM    6  C7  UNL     1     -34.484  16.027  -2.281  1.00 20.00     0.018 C 
HETATM    7  O9  UNL     1     -35.574  13.194  -4.408  1.00 20.00    -0.378 OA
ENDROOT
BRANCH   3   8
HETATM    8  C1  UNL     1     -37.181  14.836  -3.856  1.00 20.00     0.263 C 
HETATM    9  O8  UNL     1     -38.232  14.209  -3.782  1.00 20.00    -0.304 OA
ENDBRANCH   3   8
TORSDOF 1
ENDMDL
MODEL 3
REMARK VINA RESULT:      -4.0      1.195      2.047
REMARK  1 active torsions:
REMARK  status: ('A' for Active; 'I' for Inactive)
REMARK    1  A    between atoms: C1_1  and  C4_4 
ROOT
HETATM    1  C2  UNL     1     -33.401  16.865  -4.654  1.00 20.00     0.038 C 
HETATM    2  C3  UNL     1     -34.713  17.097  -5.378  1.00 20.00     0.169 C 
HETATM    3  C4  UNL     1     -34.493  14.818  -4.964  1.00 20.00     0.190 C 
HETATM    4  C5  UNL     1     -33.645  15.551  -3.917  1.00 20.00    -0.013 C 
HETATM    5  C6  UNL     1     -34.394  15.818  -2.598  1.00 20.00     0.018 C 
HETATM    6  C7  UNL     1     -32.341  14.812  -3.612  1.00 20.00     0.018 C 
HETATM    7  O9  UNL     1     -35.294  15.808  -5.618  1.00 20.00    -0.378 OA
ENDROOT
BRANCH   3   8
HETATM    8  C1  UNL     1     -35.415  13.776  -4.417  1.00 20.00     0.263 C 
HETATM    9  O8  UNL     1     -35.117  12.591  -4.326  1.00 20.00    -0.304 OA
ENDBRANCH   3   8
TORSDOF 1
ENDMDL
MODEL 4
REMARK VINA RESULT:      -4.0      1.603      2.733
REMARK  1 active torsions:
REMARK  status: ('A' for Active; 'I' for Inactive)
REMARK    1  A    between atoms: C1_1  and  C4_4 
ROOT
HETATM    1  C2  UNL     1     -33.995  17.730  -3.341  1.00 20.00     0.038 C 
HETATM    2  C3  UNL     1     -33.482  17.316  -4.707  1.00 20.00     0.169 C 
HETATM    3  C4  UNL     1     -33.528  15.437  -3.336  1.00 20.00     0.190 C 
HETATM    4  C5  UNL     1     -34.557  16.428  -2.777  1.00 20.00    -0.013 C 
HETATM    5  C6  UNL     1     -35.984  16.197  -3.309  1.00 20.00     0.018 C 
HETATM    6  C7  UNL     1     -34.586  16.428  -1.248  1.00 20.00     0.018 C 
HETATM    7  O9  UNL     1     -33.131  15.927  -4.620  1.00 20.00    -0.378 OA
ENDROOT
BRANCH   3   8
HETATM    8  C1  UNL     1     -34.028  14.040  -3.518  1.00 20.00     0.263 C 
HETATM    9  O8  UNL     1     -33.304  13.096  -3.816  1.00 20.00    -0.304 OA
ENDBRANCH   3   8
TORSDOF 1
ENDMDL
MODEL 5
REMARK VINA RESULT:      -3.9      1.761      2.683
REMARK  1 active torsions:
REMARK  status: ('A' for Active; 'I' for Inactive)
REMARK    1  A    between atoms: C1_1  and  C4_4 
ROOT
HETATM    1  C2  UNL     1     -34.652  16.994  -5.728  1.00 20.00     0.038 C 
HETATM    2  C3  UNL     1     -33.284  16.860  -5.088  1.00 20.00     0.169 C 
HETATM    3  C4  UNL     1     -34.517  14.949  -4.598  1.00 20.00     0.190 C 
HETATM    4  C5  UNL     1     -35.099  15.543  -5.887  1.00 20.00    -0.013 C 
HETATM    5  C6  UNL     1     -34.492  14.943  -7.169  1.00 20.00     0.018 C 
HETATM    6  C7  UNL     1     -36.622  15.413  -5.945  1.00 20.00     0.018 C 
HETATM    7  O9  UNL     1     -33.289  15.635  -4.340  1.00 20.00    -0.378 OA
ENDROOT
BRANCH   3   8
HETATM    8  C1  UNL     1     -34.217  13.486  -4.655  1.00 20.00     0.263 C 
HETATM    9  O8  UNL     1     -35.039  12.616  -4.390  1.00 20.00    -0.304 OA
ENDBRANCH   3   8
TORSDOF 1
ENDMDL
MODEL 6
REMARK VINA RESULT:      -3.9      1.793      3.193
REMARK  1 active torsions:
REMARK  status: ('A' for Active; 'I' for Inactive)
REMARK    1  A    between atoms: C1_1  and  C4_4 
ROOT
HETATM    1  C2  UNL     1     -34.852  13.690  -3.836  1.00 20.00     0.038 C 
HETATM    2  C3  UNL     1     -34.739  13.436  -5.326  1.00 20.00     0.169 C 
HETATM    3  C4  UNL     1     -34.400  15.705  -4.936  1.00 20.00     0.190 C 
HETATM    4  C5  UNL     1     -34.036  14.965  -3.643  1.00 20.00    -0.013 C 
HETATM    5  C6  UNL     1     -32.539  14.621  -3.532  1.00 20.00     0.018 C 
HETATM    6  C7  UNL     1     -34.466  15.740  -2.396  1.00 20.00     0.018 C 
HETATM    7  O9  UNL     1     -34.551  14.712  -5.956  1.00 20.00    -0.378 OA
ENDROOT
BRANCH   3   8
HETATM    8  C1  UNL     1     -33.381  16.691  -5.410  1.00 20.00     0.263 C 
HETATM    9  O8  UNL     1     -33.366  17.867  -5.064  1.00 20.00    -0.304 OA
ENDBRANCH   3   8
TORSDOF 1
ENDMDL
MODEL 7
REMARK VINA RESULT:      -3.9      1.563      2.471
REMARK  1 active torsions:
REMARK  status: ('A' for Active; 'I' for Inactive)
REMARK    1  A    between atoms: C1_1  and  C4_4 
ROOT
HETATM    1  C2  UNL     1     -33.303  16.161  -4.552  1.00 20.00     0.038 C 
HETATM    2  C3  UNL     1     -34.218  17.281  -5.008  1.00 20.00     0.169 C 
HETATM    3  C4  UNL     1     -35.519  15.406  -4.550  1.00 20.00     0.190 C 
HETATM    4  C5  UNL     1     -34.232  15.275  -3.725  1.00 20.00    -0.013 C 
HETATM    5  C6  UNL     1     -34.358  15.835  -2.296  1.00 20.00     0.018 C 
HETATM    6  C7  UNL     1     -33.737  13.830  -3.656  1.00 20.00     0.018 C 
HETATM    7  O9  UNL     1     -35.545  16.738  -5.072  1.00 20.00    -0.378 OA
ENDROOT
BRANCH   3   8
HETATM    8  C1  UNL     1     -36.785  15.193  -3.785  1.00 20.00     0.263 C 
HETATM    9  O8  UNL     1     -37.407  14.136  -3.789  1.00 20.00    -0.304 OA
ENDBRANCH   3   8
TORSDOF 1
ENDMDL
MODEL 8
REMARK VINA RESULT:      -3.8      1.846      2.703
REMARK  1 active torsions:
REMARK  status: ('A' for Active; 'I' for Inactive)
REMARK    1  A    between atoms: C1_1  and  C4_4 
ROOT
HETATM    1  C2  UNL     1     -36.928  15.258  -5.791  1.00 20.00     0.038 C 
HETATM    2  C3  UNL     1     -37.597  14.882  -4.483  1.00 20.00     0.169 C 
HETATM    3  C4  UNL     1     -35.511  13.855  -4.566  1.00 20.00     0.190 C 
HETATM    4  C5  UNL     1     -35.444  15.086  -5.478  1.00 20.00    -0.013 C 
HETATM    5  C6  UNL     1     -34.906  16.345  -4.773  1.00 20.00     0.018 C 
HETATM    6  C7  UNL     1     -34.618  14.825  -6.738  1.00 20.00     0.018 C 
HETATM    7  O9  UNL     1     -36.726  13.956  -3.817  1.00 20.00    -0.378 OA
ENDROOT
BRANCH   3   8
HETATM    8  C1  UNL     1     -34.386  13.727  -3.591  1.00 20.00     0.263 C 
HETATM    9  O8  UNL     1     -33.341  13.136  -3.838  1.00 20.00    -0.304 OA
ENDBRANCH   3   8
TORSDOF 1
ENDMDL
MODEL 9
REMARK VINA RESULT:      -3.8      1.457      2.031
REMARK  1 active torsions:
REMARK  status: ('A' for Active; 'I' for Inactive)
REMARK    1  A    between atoms: C1_1  and  C4_4 
ROOT
HETATM    1  C2  UNL     1     -33.587  15.438  -4.021  1.00 20.00     0.038 C 
HETATM    2  C3  UNL     1     -34.301  15.533  -2.687  1.00 20.00     0.169 C 
HETATM    3  C4  UNL     1     -35.900  15.471  -4.376  1.00 20.00     0.190 C 
HETATM    4  C5  UNL     1     -34.636  14.798  -4.926  1.00 20.00    -0.013 C 
HETATM    5  C6  UNL     1     -34.625  13.269  -4.745  1.00 20.00     0.018 C 
HETATM    6  C7  UNL     1     -34.403  15.130  -6.401  1.00 20.00     0.018 C 
HETATM    7  O9  UNL     1     -35.704  15.638  -2.969  1.00 20.00    -0.378 OA
ENDROOT
BRANCH   3   8
HETATM    8  C1  UNL     1     -37.165  14.698  -4.571  1.00 20.00     0.263 C 
HETATM    9  O8  UNL     1     -37.836  14.257  -3.645  1.00 20.00    -0.304 OA
ENDBRANCH   3   8
TORSDOF 1
ENDMDL
