MODEL 1
REMARK VINA RESULT:      -4.4      0.000      0.000
REMARK  1 active torsions:
REMARK  status: ('A' for Active; 'I' for Inactive)
REMARK    1  A    between atoms: C1_1  and  C5_5 
ROOT
HETATM    1  C3  UNL     1     -34.748   3.806   5.209  1.00 20.00     0.009 A 
HETATM    2  C4  UNL     1     -35.064   4.687   6.380  1.00 20.00     0.009 A 
HETATM    3  C5  UNL     1     -35.071   5.258   4.987  1.00 20.00     0.009 A 
ENDROOT
BRANCH   3   4
HETATM    4  C1  UNL     1     -34.007   6.166   4.592  1.00 20.00    -0.015 C 
HETATM    5  C2  UNL     1     -33.402   6.123   3.399  1.00 20.00     0.052 C 
HETATM    6 BR6  UNL     1     -32.044   7.271   2.874  1.00 20.00    -0.064 Br
ENDBRANCH   3   4
TORSDOF 1
ENDMDL
MODEL 2
REMARK VINA RESULT:      -4.2      0.898      1.297
REMARK  1 active torsions:
REMARK  status: ('A' for Active; 'I' for Inactive)
REMARK    1  A    between atoms: C1_1  and  C5_5 
ROOT
HETATM    1  C3  UNL     1     -34.592   5.592   6.209  1.00 20.00     0.009 A 
HETATM    2  C4  UNL     1     -35.269   4.825   5.113  1.00 20.00     0.009 A 
HETATM    3  C5  UNL     1     -33.858   5.315   4.926  1.00 20.00     0.009 A 
ENDROOT
BRANCH   3   4
HETATM    4  C1  UNL     1     -33.609   6.411   4.005  1.00 20.00    -0.015 C 
HETATM    5  C2  UNL     1     -32.426   6.631   3.420  1.00 20.00     0.052 C 
HETATM    6 BR6  UNL     1     -32.086   8.022   2.241  1.00 20.00    -0.064 Br
ENDBRANCH   3   4
TORSDOF 1
ENDMDL
MODEL 3
REMARK VINA RESULT:      -3.5      2.479      4.006
REMARK  1 active torsions:
REMARK  status: ('A' for Active; 'I' for Inactive)
REMARK    1  A    between atoms: C1_1  and  C5_5 
ROOT
HETATM    1  C3  UNL     1     -31.681   7.430   3.707  1.00 20.00     0.009 A 
HETATM    2  C4  UNL     1     -32.143   7.127   2.314  1.00 20.00     0.009 A 
HETATM    3  C5  UNL     1     -33.144   7.212   3.434  1.00 20.00     0.009 A 
ENDROOT
BRANCH   3   4
HETATM    4  C1  UNL     1     -33.776   5.991   3.908  1.00 20.00    -0.015 C 
HETATM    5  C2  UNL     1     -34.131   5.789   5.182  1.00 20.00     0.052 C 
HETATM    6 BR6  UNL     1     -34.939   4.241   5.808  1.00 20.00    -0.064 Br
ENDBRANCH   3   4
TORSDOF 1
ENDMDL
MODEL 4
REMARK VINA RESULT:      -3.4      2.842      4.817
REMARK  1 active torsions:
REMARK  status: ('A' for Active; 'I' for Inactive)
REMARK    1  A    between atoms: C1_1  and  C5_5 
ROOT
HETATM    1  C3  UNL     1     -31.747   8.372   0.948  1.00 20.00     0.009 A 
HETATM    2  C4  UNL     1     -32.445   9.355   1.839  1.00 20.00     0.009 A 
HETATM    3  C5  UNL     1     -31.991   8.031   2.392  1.00 20.00     0.009 A 
ENDROOT
BRANCH   3   4
HETATM    4  C1  UNL     1     -32.988   7.026   2.721  1.00 20.00    -0.015 C 
HETATM    5  C2  UNL     1     -33.235   6.608   3.968  1.00 20.00     0.052 C 
HETATM    6 BR6  UNL     1     -34.501   5.328   4.410  1.00 20.00    -0.064 Br
ENDBRANCH   3   4
TORSDOF 1
ENDMDL
MODEL 5
REMARK VINA RESULT:      -3.3     12.039     12.426
REMARK  1 active torsions:
REMARK  status: ('A' for Active; 'I' for Inactive)
REMARK    1  A    between atoms: C1_1  and  C5_5 
ROOT
HETATM    1  C3  UNL     1     -33.437  13.735  -3.745  1.00 20.00     0.009 A 
HETATM    2  C4  UNL     1     -34.866  13.470  -4.113  1.00 20.00     0.009 A 
HETATM    3  C5  UNL     1     -34.421  14.871  -3.789  1.00 20.00     0.009 A 
ENDROOT
BRANCH   3   4
HETATM    4  C1  UNL     1     -34.856  15.477  -2.541  1.00 20.00    -0.015 C 
HETATM    5  C2  UNL     1     -34.160  16.420  -1.895  1.00 20.00     0.052 C 
HETATM    6 BR6  UNL     1     -34.695  17.207  -0.304  1.00 20.00    -0.064 Br
ENDBRANCH   3   4
TORSDOF 1
ENDMDL
MODEL 6
REMARK VINA RESULT:      -3.2     12.394     12.746
REMARK  1 active torsions:
REMARK  status: ('A' for Active; 'I' for Inactive)
REMARK    1  A    between atoms: C1_1  and  C5_5 
ROOT
HETATM    1  C3  UNL     1     -34.779  17.023  -0.128  1.00 20.00     0.009 A 
HETATM    2  C4  UNL     1     -33.604  17.729  -0.735  1.00 20.00     0.009 A 
HETATM    3  C5  UNL     1     -34.628  17.077  -1.624  1.00 20.00     0.009 A 
ENDROOT
BRANCH   3   4
HETATM    4  C1  UNL     1     -34.270  15.864  -2.341  1.00 20.00    -0.015 C 
HETATM    5  C2  UNL     1     -35.120  15.187  -3.121  1.00 20.00     0.052 C 
HETATM    6 BR6  UNL     1     -34.684  13.639  -4.045  1.00 20.00    -0.064 Br
ENDBRANCH   3   4
TORSDOF 1
ENDMDL
MODEL 7
REMARK VINA RESULT:      -3.1     12.279     12.720
REMARK  1 active torsions:
REMARK  status: ('A' for Active; 'I' for Inactive)
REMARK    1  A    between atoms: C1_1  and  C5_5 
ROOT
HETATM    1  C3  UNL     1     -34.840  17.910  -1.501  1.00 20.00     0.009 A 
HETATM    2  C4  UNL     1     -34.771  16.959  -0.344  1.00 20.00     0.009 A 
HETATM    3  C5  UNL     1     -34.169  16.574  -1.668  1.00 20.00     0.009 A 
ENDROOT
BRANCH   3   4
HETATM    4  C1  UNL     1     -34.821  15.551  -2.470  1.00 20.00    -0.015 C 
HETATM    5  C2  UNL     1     -34.170  14.754  -3.324  1.00 20.00     0.052 C 
HETATM    6 BR6  UNL     1     -34.982  13.443  -4.354  1.00 20.00    -0.064 Br
ENDBRANCH   3   4
TORSDOF 1
ENDMDL
MODEL 8
REMARK VINA RESULT:      -3.1      9.762     10.202
REMARK  1 active torsions:
REMARK  status: ('A' for Active; 'I' for Inactive)
REMARK    1  A    between atoms: C1_1  and  C5_5 
ROOT
HETATM    1  C3  UNL     1     -40.728   6.007  -0.038  1.00 20.00     0.009 A 
HETATM    2  C4  UNL     1     -41.103   6.776  -1.269  1.00 20.00     0.009 A 
HETATM    3  C5  UNL     1     -41.712   5.423  -1.015  1.00 20.00     0.009 A 
ENDROOT
BRANCH   3   4
HETATM    4  C1  UNL     1     -41.303   4.300  -1.842  1.00 20.00    -0.015 C 
HETATM    5  C2  UNL     1     -42.164   3.483  -2.459  1.00 20.00     0.052 C 
HETATM    6 BR6  UNL     1     -41.665   2.046  -3.519  1.00 20.00    -0.064 Br
ENDBRANCH   3   4
TORSDOF 1
ENDMDL
MODEL 9
REMARK VINA RESULT:      -2.9     10.013     10.295
REMARK  1 active torsions:
REMARK  status: ('A' for Active; 'I' for Inactive)
REMARK    1  A    between atoms: C1_1  and  C5_5 
ROOT
HETATM    1  C3  UNL     1     -40.903   4.941  -1.112  1.00 20.00     0.009 A 
HETATM    2  C4  UNL     1     -40.729   5.986  -0.052  1.00 20.00     0.009 A 
HETATM    3  C5  UNL     1     -41.854   6.104  -1.044  1.00 20.00     0.009 A 
ENDROOT
BRANCH   3   4
HETATM    4  C1  UNL     1     -41.785   7.133  -2.069  1.00 20.00    -0.015 C 
HETATM    5  C2  UNL     1     -42.573   7.154  -3.150  1.00 20.00     0.052 C 
HETATM    6 BR6  UNL     1     -42.503   8.457  -4.468  1.00 20.00    -0.064 Br
ENDBRANCH   3   4
TORSDOF 1
ENDMDL
