MODEL 1
REMARK VINA RESULT:      -4.9      0.000      0.000
REMARK  1 active torsions:
REMARK  status: ('A' for Active; 'I' for Inactive)
REMARK    1  A    between atoms: C4_4  and  C9_9 
ROOT
HETATM    1  C1  UNL     1     -33.949  14.953  -3.013  1.00 20.00     0.065 A 
HETATM    2  C2  UNL     1     -36.278  15.361  -3.372  1.00 20.00     0.095 A 
HETATM    3  C3  UNL     1     -35.298  13.421  -4.259  1.00 20.00     0.142 A 
HETATM    4  C4  UNL     1     -35.066  15.761  -2.827  1.00 20.00    -0.031 A 
HETATM    5  C5  UNL     1     -34.060  13.770  -3.737  1.00 20.00     0.187 A 
HETATM    6  N10 UNL     1     -36.358  14.217  -4.065  1.00 20.00    -0.371 N 
HETATM    7  O11 UNL     1     -33.043  13.015  -3.920  1.00 20.00    -0.287 OA
HETATM    8  H24 UNL     1     -37.258  13.943  -4.457  1.00 20.00     0.164 HD
ENDROOT
BRANCH   4   9
HETATM    9  C9  UNL     1     -34.964  17.072  -2.030  1.00 20.00    -0.023 C 
HETATM   10  C6  UNL     1     -34.666  16.757  -0.548  1.00 20.00     0.019 C 
HETATM   11  C7  UNL     1     -36.297  17.845  -2.127  1.00 20.00     0.019 C 
HETATM   12  C8  UNL     1     -33.849  18.020  -2.527  1.00 20.00     0.019 C 
ENDBRANCH   4   9
TORSDOF 1
ENDMDL
MODEL 2
REMARK VINA RESULT:      -4.7      1.534      2.281
REMARK  1 active torsions:
REMARK  status: ('A' for Active; 'I' for Inactive)
REMARK    1  A    between atoms: C4_4  and  C9_9 
ROOT
HETATM    1  C1  UNL     1     -35.182  14.781  -3.167  1.00 20.00     0.065 A 
HETATM    2  C2  UNL     1     -32.959  15.664  -3.173  1.00 20.00     0.095 A 
HETATM    3  C3  UNL     1     -33.381  13.599  -4.208  1.00 20.00     0.142 A 
HETATM    4  C4  UNL     1     -34.293  15.789  -2.811  1.00 20.00    -0.031 A 
HETATM    5  C5  UNL     1     -34.726  13.671  -3.872  1.00 20.00     0.187 A 
HETATM    6  N10 UNL     1     -32.546  14.585  -3.852  1.00 20.00    -0.371 N 
HETATM    7  O11 UNL     1     -35.529  12.733  -4.207  1.00 20.00    -0.287 OA
HETATM    8  H24 UNL     1     -31.562  14.513  -4.107  1.00 20.00     0.164 HD
ENDROOT
BRANCH   4   9
HETATM    9  C9  UNL     1     -34.776  17.024  -2.031  1.00 20.00    -0.023 C 
HETATM   10  C6  UNL     1     -36.236  17.346  -2.421  1.00 20.00     0.019 C 
HETATM   11  C7  UNL     1     -33.881  18.236  -2.369  1.00 20.00     0.019 C 
HETATM   12  C8  UNL     1     -34.744  16.846  -0.496  1.00 20.00     0.019 C 
ENDBRANCH   4   9
TORSDOF 1
ENDMDL
MODEL 3
REMARK VINA RESULT:      -4.7      1.528      2.281
REMARK  1 active torsions:
REMARK  status: ('A' for Active; 'I' for Inactive)
REMARK    1  A    between atoms: C4_4  and  C9_9 
ROOT
HETATM    1  C1  UNL     1     -35.191  14.787  -3.188  1.00 20.00     0.065 A 
HETATM    2  C2  UNL     1     -32.974  15.684  -3.176  1.00 20.00     0.095 A 
HETATM    3  C3  UNL     1     -33.369  13.602  -4.188  1.00 20.00     0.142 A 
HETATM    4  C4  UNL     1     -34.313  15.806  -2.834  1.00 20.00    -0.031 A 
HETATM    5  C5  UNL     1     -34.719  13.670  -3.871  1.00 20.00     0.187 A 
HETATM    6  N10 UNL     1     -32.545  14.598  -3.834  1.00 20.00    -0.371 N 
HETATM    7  O11 UNL     1     -35.512  12.723  -4.204  1.00 20.00    -0.287 OA
HETATM    8  H24 UNL     1     -31.557  14.528  -4.075  1.00 20.00     0.164 HD
ENDROOT
BRANCH   4   9
HETATM    9  C9  UNL     1     -34.814  17.048  -2.078  1.00 20.00    -0.023 C 
HETATM   10  C6  UNL     1     -33.945  18.269  -2.451  1.00 20.00     0.019 C 
HETATM   11  C7  UNL     1     -34.722  16.805  -0.557  1.00 20.00     0.019 C 
HETATM   12  C8  UNL     1     -36.281  17.421  -2.392  1.00 20.00     0.019 C 
ENDBRANCH   4   9
TORSDOF 1
ENDMDL
MODEL 4
REMARK VINA RESULT:      -4.7      2.896      3.584
REMARK  1 active torsions:
REMARK  status: ('A' for Active; 'I' for Inactive)
REMARK    1  A    between atoms: C4_4  and  C9_9 
ROOT
HETATM    1  C1  UNL     1     -34.917  14.727  -5.249  1.00 20.00     0.065 A 
HETATM    2  C2  UNL     1     -32.995  15.981  -4.574  1.00 20.00     0.095 A 
HETATM    3  C3  UNL     1     -33.284  13.794  -3.771  1.00 20.00     0.142 A 
HETATM    4  C4  UNL     1     -34.175  15.903  -5.300  1.00 20.00    -0.031 A 
HETATM    5  C5  UNL     1     -34.472  13.659  -4.477  1.00 20.00     0.187 A 
HETATM    6  N10 UNL     1     -32.589  14.937  -3.839  1.00 20.00    -0.371 N 
HETATM    7  O11 UNL     1     -35.141  12.570  -4.416  1.00 20.00    -0.287 OA
HETATM    8  H24 UNL     1     -31.720  15.016  -3.312  1.00 20.00     0.164 HD
ENDROOT
BRANCH   4   9
HETATM    9  C9  UNL     1     -34.650  17.095  -6.147  1.00 20.00    -0.023 C 
HETATM   10  C6  UNL     1     -33.709  18.299  -5.922  1.00 20.00     0.019 C 
HETATM   11  C7  UNL     1     -36.085  17.488  -5.735  1.00 20.00     0.019 C 
HETATM   12  C8  UNL     1     -34.672  16.813  -7.667  1.00 20.00     0.019 C 
ENDBRANCH   4   9
TORSDOF 1
ENDMDL
MODEL 5
REMARK VINA RESULT:      -4.6      2.895      3.602
REMARK  1 active torsions:
REMARK  status: ('A' for Active; 'I' for Inactive)
REMARK    1  A    between atoms: C4_4  and  C9_9 
ROOT
HETATM    1  C1  UNL     1     -34.916  14.726  -5.256  1.00 20.00     0.065 A 
HETATM    2  C2  UNL     1     -33.006  15.990  -4.566  1.00 20.00     0.095 A 
HETATM    3  C3  UNL     1     -33.285  13.798  -3.773  1.00 20.00     0.142 A 
HETATM    4  C4  UNL     1     -34.182  15.907  -5.299  1.00 20.00    -0.031 A 
HETATM    5  C5  UNL     1     -34.468  13.658  -4.485  1.00 20.00     0.187 A 
HETATM    6  N10 UNL     1     -32.597  14.946  -3.833  1.00 20.00    -0.371 N 
HETATM    7  O11 UNL     1     -35.131  12.565  -4.432  1.00 20.00    -0.287 OA
HETATM    8  H24 UNL     1     -31.731  15.029  -3.302  1.00 20.00     0.164 HD
ENDROOT
BRANCH   4   9
HETATM    9  C9  UNL     1     -34.659  17.099  -6.144  1.00 20.00    -0.023 C 
HETATM   10  C6  UNL     1     -36.069  17.531  -5.683  1.00 20.00     0.019 C 
HETATM   11  C7  UNL     1     -34.714  16.694  -7.633  1.00 20.00     0.019 C 
HETATM   12  C8  UNL     1     -33.747  18.343  -6.043  1.00 20.00     0.019 C 
ENDBRANCH   4   9
TORSDOF 1
ENDMDL
MODEL 6
REMARK VINA RESULT:      -4.4      2.601      4.260
REMARK  1 active torsions:
REMARK  status: ('A' for Active; 'I' for Inactive)
REMARK    1  A    between atoms: C4_4  and  C9_9 
ROOT
HETATM    1  C1  UNL     1     -34.710  15.918  -1.902  1.00 20.00     0.065 A 
HETATM    2  C2  UNL     1     -33.780  17.190  -3.701  1.00 20.00     0.095 A 
HETATM    3  C3  UNL     1     -33.982  18.174  -1.579  1.00 20.00     0.142 A 
HETATM    4  C4  UNL     1     -34.330  16.004  -3.237  1.00 20.00    -0.031 A 
HETATM    5  C5  UNL     1     -34.538  17.013  -1.060  1.00 20.00     0.187 A 
HETATM    6  N10 UNL     1     -33.624  18.229  -2.869  1.00 20.00    -0.371 N 
HETATM    7  O11 UNL     1     -34.883  16.953   0.171  1.00 20.00    -0.287 OA
HETATM    8  H24 UNL     1     -33.219  19.091  -3.231  1.00 20.00     0.164 HD
ENDROOT
BRANCH   4   9
HETATM    9  C9  UNL     1     -34.512  14.806  -4.184  1.00 20.00    -0.023 C 
HETATM   10  C6  UNL     1     -35.944  14.244  -4.042  1.00 20.00     0.019 C 
HETATM   11  C7  UNL     1     -33.495  13.700  -3.827  1.00 20.00     0.019 C 
HETATM   12  C8  UNL     1     -34.305  15.152  -5.676  1.00 20.00     0.019 C 
ENDBRANCH   4   9
TORSDOF 1
ENDMDL
MODEL 7
REMARK VINA RESULT:      -4.4      2.592      4.257
REMARK  1 active torsions:
REMARK  status: ('A' for Active; 'I' for Inactive)
REMARK    1  A    between atoms: C4_4  and  C9_9 
ROOT
HETATM    1  C1  UNL     1     -34.695  15.911  -1.913  1.00 20.00     0.065 A 
HETATM    2  C2  UNL     1     -33.795  17.183  -3.727  1.00 20.00     0.095 A 
HETATM    3  C3  UNL     1     -34.001  18.180  -1.611  1.00 20.00     0.142 A 
HETATM    4  C4  UNL     1     -34.324  15.992  -3.251  1.00 20.00    -0.031 A 
HETATM    5  C5  UNL     1     -34.535  17.014  -1.080  1.00 20.00     0.187 A 
HETATM    6  N10 UNL     1     -33.651  18.231  -2.904  1.00 20.00    -0.371 N 
HETATM    7  O11 UNL     1     -34.872  16.959   0.153  1.00 20.00    -0.287 OA
HETATM    8  H24 UNL     1     -33.262  19.096  -3.275  1.00 20.00     0.164 HD
ENDROOT
BRANCH   4   9
HETATM    9  C9  UNL     1     -34.493  14.784  -4.188  1.00 20.00    -0.023 C 
HETATM   10  C6  UNL     1     -33.465  13.692  -3.818  1.00 20.00     0.019 C 
HETATM   11  C7  UNL     1     -34.264  15.224  -5.650  1.00 20.00     0.019 C 
HETATM   12  C8  UNL     1     -35.893  14.132  -4.122  1.00 20.00     0.019 C 
ENDBRANCH   4   9
TORSDOF 1
ENDMDL
MODEL 8
REMARK VINA RESULT:      -4.4      2.279      3.967
REMARK  1 active torsions:
REMARK  status: ('A' for Active; 'I' for Inactive)
REMARK    1  A    between atoms: C4_4  and  C9_9 
ROOT
HETATM    1  C1  UNL     1     -33.801  16.231  -2.303  1.00 20.00     0.065 A 
HETATM    2  C2  UNL     1     -36.087  16.044  -2.979  1.00 20.00     0.095 A 
HETATM    3  C3  UNL     1     -35.502  17.586  -1.308  1.00 20.00     0.142 A 
HETATM    4  C4  UNL     1     -34.767  15.635  -3.106  1.00 20.00    -0.031 A 
HETATM    5  C5  UNL     1     -34.167  17.216  -1.391  1.00 20.00     0.187 A 
HETATM    6  N10 UNL     1     -36.413  16.996  -2.094  1.00 20.00    -0.371 N 
HETATM    7  O11 UNL     1     -33.292  17.775  -0.643  1.00 20.00    -0.287 OA
HETATM    8  H24 UNL     1     -37.389  17.281  -2.016  1.00 20.00     0.164 HD
ENDROOT
BRANCH   4   9
HETATM    9  C9  UNL     1     -34.384  14.544  -4.119  1.00 20.00    -0.023 C 
HETATM   10  C6  UNL     1     -33.076  13.855  -3.671  1.00 20.00     0.019 C 
HETATM   11  C7  UNL     1     -34.173  15.177  -5.511  1.00 20.00     0.019 C 
HETATM   12  C8  UNL     1     -35.450  13.436  -4.279  1.00 20.00     0.019 C 
ENDBRANCH   4   9
TORSDOF 1
ENDMDL
MODEL 9
REMARK VINA RESULT:      -4.3      1.820      2.402
REMARK  1 active torsions:
REMARK  status: ('A' for Active; 'I' for Inactive)
REMARK    1  A    between atoms: C4_4  and  C9_9 
ROOT
HETATM    1  C1  UNL     1     -35.176  15.409  -5.052  1.00 20.00     0.065 A 
HETATM    2  C2  UNL     1     -34.323  14.203  -3.171  1.00 20.00     0.095 A 
HETATM    3  C3  UNL     1     -34.604  13.093  -5.220  1.00 20.00     0.142 A 
HETATM    4  C4  UNL     1     -34.794  15.390  -3.715  1.00 20.00    -0.031 A 
HETATM    5  C5  UNL     1     -35.083  14.251  -5.817  1.00 20.00     0.187 A 
HETATM    6  N10 UNL     1     -34.243  13.102  -3.930  1.00 20.00    -0.371 N 
HETATM    7  O11 UNL     1     -35.430  14.249  -7.049  1.00 20.00    -0.287 OA
HETATM    8  H24 UNL     1     -33.894  12.241  -3.511  1.00 20.00     0.164 HD
ENDROOT
BRANCH   4   9
HETATM    9  C9  UNL     1     -34.889  16.659  -2.852  1.00 20.00    -0.023 C 
HETATM   10  C6  UNL     1     -36.312  17.251  -2.954  1.00 20.00     0.019 C 
HETATM   11  C7  UNL     1     -33.867  17.704  -3.348  1.00 20.00     0.019 C 
HETATM   12  C8  UNL     1     -34.603  16.418  -1.352  1.00 20.00     0.019 C 
ENDBRANCH   4   9
TORSDOF 1
ENDMDL
