MODEL 1
REMARK VINA RESULT:      -4.6      0.000      0.000
REMARK  1 active torsions:
REMARK  status: ('A' for Active; 'I' for Inactive)
REMARK    1  A    between atoms: C3_3  and  C6_6 
ROOT
HETATM    1  C1  UNL     1     -34.121  15.036  -2.976  1.00 20.00     0.055 A 
HETATM    2  C2  UNL     1     -35.131  13.329  -4.287  1.00 20.00     0.160 A 
HETATM    3  C3  UNL     1     -35.365  15.651  -2.872  1.00 20.00    -0.001 A 
HETATM    4  C4  UNL     1     -33.994  13.853  -3.695  1.00 20.00     0.134 A 
HETATM    5  C5  UNL     1     -36.440  15.045  -3.502  1.00 20.00     0.133 A 
HETATM    6  N7  UNL     1     -36.355  13.896  -4.209  1.00 20.00    -0.245 NA
HETATM    7  F8  UNL     1     -32.810  13.242  -3.813  1.00 20.00    -0.205 F 
HETATM    8 CL9  UNL     1     -38.027  15.707  -3.447  1.00 20.00    -0.062 Cl
ENDROOT
BRANCH   3   9
HETATM    9  C6  UNL     1     -35.495  16.918  -2.099  1.00 20.00     0.156 C 
HETATM   10 CL10 UNL     1     -34.698  16.773  -0.515  1.00 20.00    -0.125 Cl
ENDBRANCH   3   9
TORSDOF 1
ENDMDL
MODEL 2
REMARK VINA RESULT:      -4.3      2.372      2.970
REMARK  1 active torsions:
REMARK  status: ('A' for Active; 'I' for Inactive)
REMARK    1  A    between atoms: C3_3  and  C6_6 
ROOT
HETATM    1  C1  UNL     1     -35.986  15.442  -3.202  1.00 20.00     0.055 A 
HETATM    2  C2  UNL     1     -35.673  13.436  -4.439  1.00 20.00     0.160 A 
HETATM    3  C3  UNL     1     -34.608  15.509  -3.018  1.00 20.00    -0.001 A 
HETATM    4  C4  UNL     1     -36.535  14.389  -3.924  1.00 20.00     0.134 A 
HETATM    5  C5  UNL     1     -33.832  14.505  -3.574  1.00 20.00     0.133 A 
HETATM    6  N7  UNL     1     -34.330  13.466  -4.282  1.00 20.00    -0.245 NA
HETATM    7  F8  UNL     1     -37.856  14.299  -4.115  1.00 20.00    -0.205 F 
HETATM    8 CL9  UNL     1     -32.119  14.475  -3.417  1.00 20.00    -0.062 Cl
ENDROOT
BRANCH   3   9
HETATM    9  C6  UNL     1     -34.025  16.641  -2.244  1.00 20.00     0.156 C 
HETATM   10 CL10 UNL     1     -34.621  16.630  -0.568  1.00 20.00    -0.125 Cl
ENDBRANCH   3   9
TORSDOF 1
ENDMDL
MODEL 3
REMARK VINA RESULT:      -4.2      2.341      2.593
REMARK  1 active torsions:
REMARK  status: ('A' for Active; 'I' for Inactive)
REMARK    1  A    between atoms: C3_3  and  C6_6 
ROOT
HETATM    1  C1  UNL     1     -34.400  14.862  -3.129  1.00 20.00     0.055 A 
HETATM    2  C2  UNL     1     -34.507  14.604  -5.491  1.00 20.00     0.160 A 
HETATM    3  C3  UNL     1     -33.997  16.180  -3.321  1.00 20.00    -0.001 A 
HETATM    4  C4  UNL     1     -34.661  14.053  -4.230  1.00 20.00     0.134 A 
HETATM    5  C5  UNL     1     -33.874  16.635  -4.624  1.00 20.00     0.133 A 
HETATM    6  N7  UNL     1     -34.119  15.879  -5.718  1.00 20.00    -0.245 NA
HETATM    7  F8  UNL     1     -35.047  12.782  -4.074  1.00 20.00    -0.205 F 
HETATM    8 CL9  UNL     1     -33.385  18.243  -4.992  1.00 20.00    -0.062 Cl
ENDROOT
BRANCH   3   9
HETATM    9  C6  UNL     1     -33.720  17.042  -2.138  1.00 20.00     0.156 C 
HETATM   10 CL10 UNL     1     -34.690  16.524  -0.740  1.00 20.00    -0.125 Cl
ENDBRANCH   3   9
TORSDOF 1
ENDMDL
MODEL 4
REMARK VINA RESULT:      -4.1      3.552      4.345
REMARK  1 active torsions:
REMARK  status: ('A' for Active; 'I' for Inactive)
REMARK    1  A    between atoms: C3_3  and  C6_6 
ROOT
HETATM    1  C1  UNL     1     -34.634  15.898  -1.918  1.00 20.00     0.055 A 
HETATM    2  C2  UNL     1     -34.012  18.148  -1.469  1.00 20.00     0.160 A 
HETATM    3  C3  UNL     1     -34.294  16.101  -3.252  1.00 20.00    -0.001 A 
HETATM    4  C4  UNL     1     -34.493  16.936  -1.004  1.00 20.00     0.134 A 
HETATM    5  C5  UNL     1     -33.823  17.352  -3.616  1.00 20.00     0.133 A 
HETATM    6  N7  UNL     1     -33.672  18.385  -2.756  1.00 20.00    -0.245 NA
HETATM    7  F8  UNL     1     -34.813  16.768   0.284  1.00 20.00    -0.205 F 
HETATM    8 CL9  UNL     1     -33.371  17.728  -5.232  1.00 20.00    -0.062 Cl
ENDROOT
BRANCH   3   9
HETATM    9  C6  UNL     1     -34.446  14.984  -4.226  1.00 20.00     0.156 C 
HETATM   10 CL10 UNL     1     -33.353  13.641  -3.819  1.00 20.00    -0.125 Cl
ENDBRANCH   3   9
TORSDOF 1
ENDMDL
MODEL 5
REMARK VINA RESULT:      -4.1     11.706     12.137
REMARK  1 active torsions:
REMARK  status: ('A' for Active; 'I' for Inactive)
REMARK    1  A    between atoms: C3_3  and  C6_6 
ROOT
HETATM    1  C1  UNL     1     -33.533   6.671   5.168  1.00 20.00     0.055 A 
HETATM    2  C2  UNL     1     -35.173   4.971   5.439  1.00 20.00     0.160 A 
HETATM    3  C3  UNL     1     -33.459   6.343   3.818  1.00 20.00    -0.001 A 
HETATM    4  C4  UNL     1     -34.403   5.976   6.000  1.00 20.00     0.134 A 
HETATM    5  C5  UNL     1     -34.271   5.321   3.355  1.00 20.00     0.133 A 
HETATM    6  N7  UNL     1     -35.129   4.624   4.133  1.00 20.00    -0.245 NA
HETATM    7  F8  UNL     1     -34.493   6.270   7.302  1.00 20.00    -0.205 F 
HETATM    8 CL9  UNL     1     -34.271   4.822   1.709  1.00 20.00    -0.062 Cl
ENDROOT
BRANCH   3   9
HETATM    9  C6  UNL     1     -32.525   7.092   2.931  1.00 20.00     0.156 C 
HETATM   10 CL10 UNL     1     -31.177   7.777   3.869  1.00 20.00    -0.125 Cl
ENDBRANCH   3   9
TORSDOF 1
ENDMDL
MODEL 6
REMARK VINA RESULT:      -4.1     10.753     11.681
REMARK  1 active torsions:
REMARK  status: ('A' for Active; 'I' for Inactive)
REMARK    1  A    between atoms: C3_3  and  C6_6 
ROOT
HETATM    1  C1  UNL     1     -41.637   6.782  -1.526  1.00 20.00     0.055 A 
HETATM    2  C2  UNL     1     -40.825   4.677  -0.774  1.00 20.00     0.160 A 
HETATM    3  C3  UNL     1     -42.380   6.115  -2.496  1.00 20.00    -0.001 A 
HETATM    4  C4  UNL     1     -40.843   6.056  -0.646  1.00 20.00     0.134 A 
HETATM    5  C5  UNL     1     -42.293   4.733  -2.541  1.00 20.00     0.133 A 
HETATM    6  N7  UNL     1     -41.532   3.994  -1.702  1.00 20.00    -0.245 NA
HETATM    7  F8  UNL     1     -40.118   6.672   0.295  1.00 20.00    -0.205 F 
HETATM    8 CL9  UNL     1     -43.161   3.795  -3.692  1.00 20.00    -0.062 Cl
ENDROOT
BRANCH   3   9
HETATM    9  C6  UNL     1     -43.230   6.898  -3.436  1.00 20.00     0.156 C 
HETATM   10 CL10 UNL     1     -42.299   8.222  -4.174  1.00 20.00    -0.125 Cl
ENDBRANCH   3   9
TORSDOF 1
ENDMDL
MODEL 7
REMARK VINA RESULT:      -3.9      3.364      4.336
REMARK  1 active torsions:
REMARK  status: ('A' for Active; 'I' for Inactive)
REMARK    1  A    between atoms: C3_3  and  C6_6 
ROOT
HETATM    1  C1  UNL     1     -34.544  13.952  -5.342  1.00 20.00     0.055 A 
HETATM    2  C2  UNL     1     -33.316  15.629  -4.187  1.00 20.00     0.160 A 
HETATM    3  C3  UNL     1     -34.725  14.848  -6.391  1.00 20.00    -0.001 A 
HETATM    4  C4  UNL     1     -33.828  14.342  -4.216  1.00 20.00     0.134 A 
HETATM    5  C5  UNL     1     -34.173  16.112  -6.264  1.00 20.00     0.133 A 
HETATM    6  N7  UNL     1     -33.471  16.528  -5.185  1.00 20.00    -0.245 NA
HETATM    7  F8  UNL     1     -33.640  13.502  -3.193  1.00 20.00    -0.205 F 
HETATM    8 CL9  UNL     1     -34.327  17.309  -7.490  1.00 20.00    -0.062 Cl
ENDROOT
BRANCH   3   9
HETATM    9  C6  UNL     1     -35.492  14.423  -7.595  1.00 20.00     0.156 C 
HETATM   10 CL10 UNL     1     -37.164  15.026  -7.522  1.00 20.00    -0.125 Cl
ENDBRANCH   3   9
TORSDOF 1
ENDMDL
MODEL 8
REMARK VINA RESULT:      -3.9      2.766      3.609
REMARK  1 active torsions:
REMARK  status: ('A' for Active; 'I' for Inactive)
REMARK    1  A    between atoms: C3_3  and  C6_6 
ROOT
HETATM    1  C1  UNL     1     -35.795  15.601  -3.036  1.00 20.00     0.055 A 
HETATM    2  C2  UNL     1     -33.434  15.885  -3.044  1.00 20.00     0.160 A 
HETATM    3  C3  UNL     1     -35.745  15.392  -4.410  1.00 20.00    -0.001 A 
HETATM    4  C4  UNL     1     -34.622  15.854  -2.333  1.00 20.00     0.134 A 
HETATM    5  C5  UNL     1     -34.505  15.444  -5.028  1.00 20.00     0.133 A 
HETATM    6  N7  UNL     1     -33.345  15.687  -4.378  1.00 20.00    -0.245 NA
HETATM    7  F8  UNL     1     -34.642  16.060  -1.012  1.00 20.00    -0.205 F 
HETATM    8 CL9  UNL     1     -34.312  15.202  -6.720  1.00 20.00    -0.062 Cl
ENDROOT
BRANCH   3   9
HETATM    9  C6  UNL     1     -37.004  15.120  -5.158  1.00 20.00     0.156 C 
HETATM   10 CL10 UNL     1     -38.309  14.650  -4.044  1.00 20.00    -0.125 Cl
ENDBRANCH   3   9
TORSDOF 1
ENDMDL
MODEL 9
REMARK VINA RESULT:      -3.9     11.296     11.723
REMARK  1 active torsions:
REMARK  status: ('A' for Active; 'I' for Inactive)
REMARK    1  A    between atoms: C3_3  and  C6_6 
ROOT
HETATM    1  C1  UNL     1     -32.869   7.086   4.458  1.00 20.00     0.055 A 
HETATM    2  C2  UNL     1     -33.183   5.975   2.379  1.00 20.00     0.160 A 
HETATM    3  C3  UNL     1     -33.799   6.222   5.026  1.00 20.00    -0.001 A 
HETATM    4  C4  UNL     1     -32.549   6.966   3.110  1.00 20.00     0.134 A 
HETATM    5  C5  UNL     1     -34.377   5.264   4.208  1.00 20.00     0.133 A 
HETATM    6  N7  UNL     1     -34.092   5.118   2.894  1.00 20.00    -0.245 NA
HETATM    7  F8  UNL     1     -31.660   7.785   2.537  1.00 20.00    -0.205 F 
HETATM    8 CL9  UNL     1     -35.540   4.139   4.791  1.00 20.00    -0.062 Cl
ENDROOT
BRANCH   3   9
HETATM    9  C6  UNL     1     -34.136   6.353   6.471  1.00 20.00     0.156 C 
HETATM   10 CL10 UNL     1     -33.230   7.695   7.209  1.00 20.00    -0.125 Cl
ENDBRANCH   3   9
TORSDOF 1
ENDMDL
