MODEL 1
REMARK VINA RESULT:      -4.7      0.000      0.000
REMARK  0 active torsions:
REMARK  status: ('A' for Active; 'I' for Inactive)
ROOT
HETATM    1  C1  UNL     1     -34.384   5.781   6.460  1.00 20.00     0.032 A 
HETATM    2  C2  UNL     1     -33.060   6.935   4.618  1.00 20.00     0.037 A 
HETATM    3  C3  UNL     1     -33.359   6.016   2.374  1.00 20.00     0.003 A 
HETATM    4  C4  UNL     1     -35.213   4.735   6.310  1.00 20.00     0.118 A 
HETATM    5  C5  UNL     1     -33.899   6.047   5.149  1.00 20.00    -0.008 A 
HETATM    6  C6  UNL     1     -32.788   6.914   3.195  1.00 20.00     0.031 A 
HETATM    7  C7  UNL     1     -34.560   5.033   4.308  1.00 20.00     0.048 A 
HETATM    8  C8  UNL     1     -34.324   4.953   2.828  1.00 20.00     0.088 A 
HETATM    9  N9  UNL     1     -35.344   4.255   5.013  1.00 20.00    -0.264 NA
HETATM   10 CL10 UNL     1     -31.691   8.095   2.573  1.00 20.00    -0.085 Cl
ENDROOT
TORSDOF 0
ENDMDL
MODEL 2
REMARK VINA RESULT:      -4.5     12.191     13.133
REMARK  0 active torsions:
REMARK  status: ('A' for Active; 'I' for Inactive)
ROOT
HETATM    1  C1  UNL     1     -34.437  16.633  -1.101  1.00 20.00     0.032 A 
HETATM    2  C2  UNL     1     -34.594  14.940  -2.995  1.00 20.00     0.037 A 
HETATM    3  C3  UNL     1     -33.873  15.744  -5.187  1.00 20.00     0.003 A 
HETATM    4  C4  UNL     1     -34.004  17.901  -1.199  1.00 20.00     0.118 A 
HETATM    5  C5  UNL     1     -34.330  16.113  -2.422  1.00 20.00    -0.008 A 
HETATM    6  C6  UNL     1     -34.357  14.757  -4.412  1.00 20.00     0.031 A 
HETATM    7  C7  UNL     1     -33.799  17.239  -3.210  1.00 20.00     0.048 A 
HETATM    8  C8  UNL     1     -33.530  17.120  -4.681  1.00 20.00     0.088 A 
HETATM    9  N9  UNL     1     -33.607  18.302  -2.469  1.00 20.00    -0.264 NA
HETATM   10 CL10 UNL     1     -34.718  13.210  -5.091  1.00 20.00    -0.085 Cl
ENDROOT
TORSDOF 0
ENDMDL
MODEL 3
REMARK VINA RESULT:      -4.4     11.941     13.011
REMARK  0 active torsions:
REMARK  status: ('A' for Active; 'I' for Inactive)
ROOT
HETATM    1  C1  UNL     1     -34.989  13.506  -4.115  1.00 20.00     0.032 A 
HETATM    2  C2  UNL     1     -34.487  15.376  -2.463  1.00 20.00     0.037 A 
HETATM    3  C3  UNL     1     -33.672  17.459  -3.448  1.00 20.00     0.003 A 
HETATM    4  C4  UNL     1     -34.847  13.562  -5.450  1.00 20.00     0.118 A 
HETATM    5  C5  UNL     1     -34.583  14.791  -3.655  1.00 20.00    -0.008 A 
HETATM    6  C6  UNL     1     -34.020  16.744  -2.363  1.00 20.00     0.031 A 
HETATM    7  C7  UNL     1     -34.218  15.514  -4.886  1.00 20.00     0.048 A 
HETATM    8  C8  UNL     1     -33.727  16.932  -4.857  1.00 20.00     0.088 A 
HETATM    9  N9  UNL     1     -34.381  14.770  -5.953  1.00 20.00    -0.264 NA
HETATM   10 CL10 UNL     1     -33.921  17.443  -0.786  1.00 20.00    -0.085 Cl
ENDROOT
TORSDOF 0
ENDMDL
MODEL 4
REMARK VINA RESULT:      -4.3     12.482     13.669
REMARK  0 active torsions:
REMARK  status: ('A' for Active; 'I' for Inactive)
ROOT
HETATM    1  C1  UNL     1     -33.456  14.675  -3.687  1.00 20.00     0.032 A 
HETATM    2  C2  UNL     1     -33.812  16.369  -5.553  1.00 20.00     0.037 A 
HETATM    3  C3  UNL     1     -35.098  15.568  -7.470  1.00 20.00     0.003 A 
HETATM    4  C4  UNL     1     -33.903  13.408  -3.665  1.00 20.00     0.118 A 
HETATM    5  C5  UNL     1     -33.914  15.197  -4.930  1.00 20.00    -0.008 A 
HETATM    6  C6  UNL     1     -34.422  16.554  -6.854  1.00 20.00     0.031 A 
HETATM    7  C7  UNL     1     -34.640  14.072  -5.546  1.00 20.00     0.048 A 
HETATM    8  C8  UNL     1     -35.295  14.192  -6.891  1.00 20.00     0.088 A 
HETATM    9  N9  UNL     1     -34.628  13.008  -4.781  1.00 20.00    -0.264 NA
HETATM   10 CL10 UNL     1     -34.253  18.100  -7.606  1.00 20.00    -0.085 Cl
ENDROOT
TORSDOF 0
ENDMDL
MODEL 5
REMARK VINA RESULT:      -4.2      9.836     10.998
REMARK  0 active torsions:
REMARK  status: ('A' for Active; 'I' for Inactive)
ROOT
HETATM    1  C1  UNL     1     -41.614   2.410  -3.032  1.00 20.00     0.032 A 
HETATM    2  C2  UNL     1     -40.982   4.363  -1.526  1.00 20.00     0.037 A 
HETATM    3  C3  UNL     1     -42.410   6.338  -1.710  1.00 20.00     0.003 A 
HETATM    4  C4  UNL     1     -42.639   2.372  -3.899  1.00 20.00     0.118 A 
HETATM    5  C5  UNL     1     -41.690   3.704  -2.442  1.00 20.00    -0.008 A 
HETATM    6  C6  UNL     1     -41.357   5.712  -1.155  1.00 20.00     0.031 A 
HETATM    7  C7  UNL     1     -42.856   4.327  -3.092  1.00 20.00     0.048 A 
HETATM    8  C8  UNL     1     -43.300   5.721  -2.757  1.00 20.00     0.088 A 
HETATM    9  N9  UNL     1     -43.416   3.522  -3.961  1.00 20.00    -0.264 NA
HETATM   10 CL10 UNL     1     -40.398   6.509   0.041  1.00 20.00    -0.085 Cl
ENDROOT
TORSDOF 0
ENDMDL
MODEL 6
REMARK VINA RESULT:      -4.2     12.222     13.370
REMARK  0 active torsions:
REMARK  status: ('A' for Active; 'I' for Inactive)
ROOT
HETATM    1  C1  UNL     1     -34.662  14.018  -5.866  1.00 20.00     0.032 A 
HETATM    2  C2  UNL     1     -34.103  16.483  -5.564  1.00 20.00     0.037 A 
HETATM    3  C3  UNL     1     -33.675  17.190  -3.264  1.00 20.00     0.003 A 
HETATM    4  C4  UNL     1     -34.742  13.093  -4.895  1.00 20.00     0.118 A 
HETATM    5  C5  UNL     1     -34.324  15.224  -5.190  1.00 20.00    -0.008 A 
HETATM    6  C6  UNL     1     -33.770  17.486  -4.573  1.00 20.00     0.031 A 
HETATM    7  C7  UNL     1     -34.238  14.829  -3.772  1.00 20.00     0.048 A 
HETATM    8  C8  UNL     1     -33.899  15.815  -2.693  1.00 20.00     0.088 A 
HETATM    9  N9  UNL     1     -34.489  13.553  -3.608  1.00 20.00    -0.264 NA
HETATM   10 CL10 UNL     1     -33.494  19.098  -5.127  1.00 20.00    -0.085 Cl
ENDROOT
TORSDOF 0
ENDMDL
MODEL 7
REMARK VINA RESULT:      -4.2     12.236     13.648
REMARK  0 active torsions:
REMARK  status: ('A' for Active; 'I' for Inactive)
ROOT
HETATM    1  C1  UNL     1     -34.387  16.196  -7.068  1.00 20.00     0.032 A 
HETATM    2  C2  UNL     1     -34.036  16.470  -4.562  1.00 20.00     0.037 A 
HETATM    3  C3  UNL     1     -34.580  14.512  -3.204  1.00 20.00     0.003 A 
HETATM    4  C4  UNL     1     -34.837  15.095  -7.695  1.00 20.00     0.118 A 
HETATM    5  C5  UNL     1     -34.369  15.843  -5.689  1.00 20.00    -0.008 A 
HETATM    6  C6  UNL     1     -34.145  15.782  -3.291  1.00 20.00     0.031 A 
HETATM    7  C7  UNL     1     -34.854  14.451  -5.668  1.00 20.00     0.048 A 
HETATM    8  C8  UNL     1     -34.993  13.679  -4.388  1.00 20.00     0.088 A 
HETATM    9  N9  UNL     1     -35.130  14.015  -6.872  1.00 20.00    -0.264 NA
HETATM   10 CL10 UNL     1     -33.695  16.652  -1.869  1.00 20.00    -0.085 Cl
ENDROOT
TORSDOF 0
ENDMDL
MODEL 8
REMARK VINA RESULT:      -4.2      9.763     10.795
REMARK  0 active torsions:
REMARK  status: ('A' for Active; 'I' for Inactive)
ROOT
HETATM    1  C1  UNL     1     -40.589   5.882  -0.574  1.00 20.00     0.032 A 
HETATM    2  C2  UNL     1     -41.227   3.769  -1.842  1.00 20.00     0.037 A 
HETATM    3  C3  UNL     1     -43.094   4.002  -3.402  1.00 20.00     0.003 A 
HETATM    4  C4  UNL     1     -41.176   7.085  -0.684  1.00 20.00     0.118 A 
HETATM    5  C5  UNL     1     -41.303   5.048  -1.481  1.00 20.00    -0.008 A 
HETATM    6  C6  UNL     1     -42.147   3.238  -2.827  1.00 20.00     0.031 A 
HETATM    7  C7  UNL     1     -42.317   5.943  -2.068  1.00 20.00     0.048 A 
HETATM    8  C8  UNL     1     -43.301   5.461  -3.093  1.00 20.00     0.088 A 
HETATM    9  N9  UNL     1     -42.231   7.158  -1.586  1.00 20.00    -0.264 NA
HETATM   10 CL10 UNL     1     -41.992   1.571  -3.252  1.00 20.00    -0.085 Cl
ENDROOT
TORSDOF 0
ENDMDL
MODEL 9
REMARK VINA RESULT:      -4.1     12.254     13.356
REMARK  0 active torsions:
REMARK  status: ('A' for Active; 'I' for Inactive)
ROOT
HETATM    1  C1  UNL     1     -34.184  15.026  -3.333  1.00 20.00     0.032 A 
HETATM    2  C2  UNL     1     -34.640  16.259  -1.153  1.00 20.00     0.037 A 
HETATM    3  C3  UNL     1     -34.125  18.648  -1.169  1.00 20.00     0.003 A 
HETATM    4  C4  UNL     1     -33.696  15.561  -4.464  1.00 20.00     0.118 A 
HETATM    5  C5  UNL     1     -34.253  16.116  -2.419  1.00 20.00    -0.008 A 
HETATM    6  C6  UNL     1     -34.572  17.559  -0.518  1.00 20.00     0.031 A 
HETATM    7  C7  UNL     1     -33.752  17.265  -3.193  1.00 20.00     0.048 A 
HETATM    8  C8  UNL     1     -33.655  18.640  -2.599  1.00 20.00     0.088 A 
HETATM    9  N9  UNL     1     -33.423  16.922  -4.414  1.00 20.00    -0.264 NA
HETATM   10 CL10 UNL     1     -35.091  17.675   1.126  1.00 20.00    -0.085 Cl
ENDROOT
TORSDOF 0
ENDMDL
