MODEL 1
REMARK VINA RESULT:      -4.8      0.000      0.000
REMARK  1 active torsions:
REMARK  status: ('A' for Active; 'I' for Inactive)
REMARK    1  A    between atoms: C1_1  and  C3_3 
ROOT
HETATM    1  C2  UNL     1     -33.727   6.803   3.686  1.00 20.00     0.098 A 
HETATM    2  C3  UNL     1     -33.692   5.546   4.532  1.00 20.00     0.133 A 
HETATM    3  C4  UNL     1     -34.527   5.616   3.302  1.00 20.00     0.255 A 
HETATM    4  F7  UNL     1     -35.901   5.646   3.376  1.00 20.00    -0.205 F 
HETATM    5  F8  UNL     1     -34.193   4.881   2.188  1.00 20.00    -0.205 F 
ENDROOT
BRANCH   2   6
HETATM    6  C1  UNL     1     -34.335   5.553   5.849  1.00 20.00     0.133 C 
HETATM    7  C5  UNL     1     -35.147   4.340   6.211  1.00 20.00     0.091 C 
HETATM    8  O6  UNL     1     -34.215   6.503   6.620  1.00 20.00    -0.298 OA
ENDBRANCH   2   6
TORSDOF 1
ENDMDL
MODEL 2
REMARK VINA RESULT:      -4.8      2.087      2.335
REMARK  1 active torsions:
REMARK  status: ('A' for Active; 'I' for Inactive)
REMARK    1  A    between atoms: C1_1  and  C3_3 
ROOT
HETATM    1  C2  UNL     1     -34.250   5.247   2.576  1.00 20.00     0.098 A 
HETATM    2  C3  UNL     1     -34.734   5.789   3.905  1.00 20.00     0.133 A 
HETATM    3  C4  UNL     1     -33.399   6.166   3.368  1.00 20.00     0.255 A 
HETATM    4  F7  UNL     1     -32.241   5.712   3.957  1.00 20.00    -0.205 F 
HETATM    5  F8  UNL     1     -33.160   7.448   2.929  1.00 20.00    -0.205 F 
ENDROOT
BRANCH   2   6
HETATM    6  C1  UNL     1     -34.826   4.884   5.054  1.00 20.00     0.133 C 
HETATM    7  C5  UNL     1     -34.500   5.466   6.402  1.00 20.00     0.091 C 
HETATM    8  O6  UNL     1     -35.154   3.705   4.923  1.00 20.00    -0.298 OA
ENDBRANCH   2   6
TORSDOF 1
ENDMDL
MODEL 3
REMARK VINA RESULT:      -4.7      1.791      2.024
REMARK  1 active torsions:
REMARK  status: ('A' for Active; 'I' for Inactive)
REMARK    1  A    between atoms: C1_1  and  C3_3 
ROOT
HETATM    1  C2  UNL     1     -34.145   5.393   2.884  1.00 20.00     0.098 A 
HETATM    2  C3  UNL     1     -34.257   6.373   4.034  1.00 20.00     0.133 A 
HETATM    3  C4  UNL     1     -33.023   6.308   3.204  1.00 20.00     0.255 A 
HETATM    4  F7  UNL     1     -31.846   5.815   3.718  1.00 20.00    -0.205 F 
HETATM    5  F8  UNL     1     -32.699   7.338   2.352  1.00 20.00    -0.205 F 
ENDROOT
BRANCH   2   6
HETATM    6  C1  UNL     1     -34.236   5.867   5.409  1.00 20.00     0.133 C 
HETATM    7  C5  UNL     1     -34.874   4.525   5.645  1.00 20.00     0.091 C 
HETATM    8  O6  UNL     1     -33.721   6.507   6.324  1.00 20.00    -0.298 OA
ENDBRANCH   2   6
TORSDOF 1
ENDMDL
MODEL 4
REMARK VINA RESULT:      -4.7      2.401      3.387
REMARK  1 active torsions:
REMARK  status: ('A' for Active; 'I' for Inactive)
REMARK    1  A    between atoms: C1_1  and  C3_3 
ROOT
HETATM    1  C2  UNL     1     -33.911   6.331   6.243  1.00 20.00     0.098 A 
HETATM    2  C3  UNL     1     -34.636   6.087   4.935  1.00 20.00     0.133 A 
HETATM    3  C4  UNL     1     -34.591   5.038   5.991  1.00 20.00     0.255 A 
HETATM    4  F7  UNL     1     -33.859   3.886   5.819  1.00 20.00    -0.205 F 
HETATM    5  F8  UNL     1     -35.729   4.702   6.688  1.00 20.00    -0.205 F 
ENDROOT
BRANCH   2   6
HETATM    6  C1  UNL     1     -33.854   5.915   3.707  1.00 20.00     0.133 C 
HETATM    7  C5  UNL     1     -32.555   6.670   3.621  1.00 20.00     0.091 C 
HETATM    8  O6  UNL     1     -34.241   5.189   2.793  1.00 20.00    -0.298 OA
ENDBRANCH   2   6
TORSDOF 1
ENDMDL
MODEL 5
REMARK VINA RESULT:      -4.6      2.004      2.878
REMARK  1 active torsions:
REMARK  status: ('A' for Active; 'I' for Inactive)
REMARK    1  A    between atoms: C1_1  and  C3_3 
ROOT
HETATM    1  C2  UNL     1     -35.594   5.373   4.018  1.00 20.00     0.098 A 
HETATM    2  C3  UNL     1     -34.091   5.204   4.112  1.00 20.00     0.133 A 
HETATM    3  C4  UNL     1     -34.976   4.807   5.241  1.00 20.00     0.255 A 
HETATM    4  F7  UNL     1     -34.986   5.516   6.420  1.00 20.00    -0.205 F 
HETATM    5  F8  UNL     1     -35.149   3.479   5.559  1.00 20.00    -0.205 F 
ENDROOT
BRANCH   2   6
HETATM    6  C1  UNL     1     -33.245   6.394   4.236  1.00 20.00     0.133 C 
HETATM    7  C5  UNL     1     -32.555   6.867   2.985  1.00 20.00     0.091 C 
HETATM    8  O6  UNL     1     -33.106   6.978   5.309  1.00 20.00    -0.298 OA
ENDBRANCH   2   6
TORSDOF 1
ENDMDL
MODEL 6
REMARK VINA RESULT:      -4.4      2.223      2.498
REMARK  1 active torsions:
REMARK  status: ('A' for Active; 'I' for Inactive)
REMARK    1  A    between atoms: C1_1  and  C3_3 
ROOT
HETATM    1  C2  UNL     1     -32.388   5.570   3.040  1.00 20.00     0.098 A 
HETATM    2  C3  UNL     1     -33.644   6.226   3.578  1.00 20.00     0.133 A 
HETATM    3  C4  UNL     1     -32.408   7.021   3.344  1.00 20.00     0.255 A 
HETATM    4  F7  UNL     1     -31.676   7.523   4.396  1.00 20.00    -0.205 F 
HETATM    5  F8  UNL     1     -32.355   7.947   2.328  1.00 20.00    -0.205 F 
ENDROOT
BRANCH   2   6
HETATM    6  C1  UNL     1     -34.071   5.933   4.949  1.00 20.00     0.133 C 
HETATM    7  C5  UNL     1     -34.918   4.705   5.146  1.00 20.00     0.091 C 
HETATM    8  O6  UNL     1     -33.752   6.654   5.892  1.00 20.00    -0.298 OA
ENDBRANCH   2   6
TORSDOF 1
ENDMDL
MODEL 7
REMARK VINA RESULT:      -4.4      2.416      3.274
REMARK  1 active torsions:
REMARK  status: ('A' for Active; 'I' for Inactive)
REMARK    1  A    between atoms: C1_1  and  C3_3 
ROOT
HETATM    1  C2  UNL     1     -35.402   4.897   4.741  1.00 20.00     0.098 A 
HETATM    2  C3  UNL     1     -33.933   5.114   4.438  1.00 20.00     0.133 A 
HETATM    3  C4  UNL     1     -34.445   5.198   5.833  1.00 20.00     0.255 A 
HETATM    4  F7  UNL     1     -34.502   6.401   6.499  1.00 20.00    -0.205 F 
HETATM    5  F8  UNL     1     -34.116   4.232   6.756  1.00 20.00    -0.205 F 
ENDROOT
BRANCH   2   6
HETATM    6  C1  UNL     1     -33.521   6.335   3.740  1.00 20.00     0.133 C 
HETATM    7  C5  UNL     1     -32.122   6.359   3.187  1.00 20.00     0.091 C 
HETATM    8  O6  UNL     1     -34.281   7.294   3.613  1.00 20.00    -0.298 OA
ENDBRANCH   2   6
TORSDOF 1
ENDMDL
MODEL 8
REMARK VINA RESULT:      -4.3      1.786      3.154
REMARK  1 active torsions:
REMARK  status: ('A' for Active; 'I' for Inactive)
REMARK    1  A    between atoms: C1_1  and  C3_3 
ROOT
HETATM    1  C2  UNL     1     -34.159   5.670   4.972  1.00 20.00     0.098 A 
HETATM    2  C3  UNL     1     -33.888   6.686   3.881  1.00 20.00     0.133 A 
HETATM    3  C4  UNL     1     -34.820   5.549   3.650  1.00 20.00     0.255 A 
HETATM    4  F7  UNL     1     -34.491   4.520   2.797  1.00 20.00    -0.205 F 
HETATM    5  F8  UNL     1     -36.173   5.769   3.525  1.00 20.00    -0.205 F 
ENDROOT
BRANCH   2   6
HETATM    6  C1  UNL     1     -32.578   6.696   3.223  1.00 20.00     0.133 C 
HETATM    7  C5  UNL     1     -32.209   7.944   2.469  1.00 20.00     0.091 C 
HETATM    8  O6  UNL     1     -31.817   5.732   3.286  1.00 20.00    -0.298 OA
ENDBRANCH   2   6
TORSDOF 1
ENDMDL
MODEL 9
REMARK VINA RESULT:      -4.0      1.407      2.148
REMARK  1 active torsions:
REMARK  status: ('A' for Active; 'I' for Inactive)
REMARK    1  A    between atoms: C1_1  and  C3_3 
ROOT
HETATM    1  C2  UNL     1     -35.051   3.927   4.406  1.00 20.00     0.098 A 
HETATM    2  C3  UNL     1     -35.254   5.070   5.380  1.00 20.00     0.133 A 
HETATM    3  C4  UNL     1     -35.053   5.330   3.928  1.00 20.00     0.255 A 
HETATM    4  F7  UNL     1     -33.895   5.911   3.463  1.00 20.00    -0.205 F 
HETATM    5  F8  UNL     1     -36.089   5.801   3.153  1.00 20.00    -0.205 F 
ENDROOT
BRANCH   2   6
HETATM    6  C1  UNL     1     -34.188   5.396   6.331  1.00 20.00     0.133 C 
HETATM    7  C5  UNL     1     -33.868   6.855   6.515  1.00 20.00     0.091 C 
HETATM    8  O6  UNL     1     -33.585   4.521   6.949  1.00 20.00    -0.298 OA
ENDBRANCH   2   6
TORSDOF 1
ENDMDL
