MODEL 1
REMARK VINA RESULT:      -6.1      0.000      0.000
REMARK  0 active torsions:
REMARK  status: ('A' for Active; 'I' for Inactive)
ROOT
HETATM    1  C1  UNL     1     -34.548   5.630   6.843  1.00 20.00     0.047 C 
HETATM    2  C2  UNL     1     -34.983   4.477   6.069  1.00 20.00     0.042 C 
HETATM    3  C3  UNL     1     -33.677   5.597   2.798  1.00 20.00     0.010 C 
HETATM    4  C4  UNL     1     -32.583   6.343   2.987  1.00 20.00     0.114 C 
HETATM    5  C5  UNL     1     -33.843   6.616   6.277  1.00 20.00     0.142 C 
HETATM    6  C6  UNL     1     -34.965   4.498   4.725  1.00 20.00     0.107 C 
HETATM    7  C7  UNL     1     -33.558   6.495   4.840  1.00 20.00     0.087 C 
HETATM    8  C8  UNL     1     -34.561   5.731   3.986  1.00 20.00     0.127 C 
HETATM    9  N9  UNL     1     -32.494   6.918   4.229  1.00 20.00    -0.262 NA
HETATM   10  F10 UNL     1     -33.295   7.638   6.953  1.00 20.00    -0.204 F 
HETATM   11  F11 UNL     1     -35.372   3.406   4.042  1.00 20.00    -0.210 F 
ENDROOT
TORSDOF 0
ENDMDL
MODEL 2
REMARK VINA RESULT:      -5.2      1.628      3.967
REMARK  0 active torsions:
REMARK  status: ('A' for Active; 'I' for Inactive)
ROOT
HETATM    1  C1  UNL     1     -33.027   6.481   3.084  1.00 20.00     0.047 C 
HETATM    2  C2  UNL     1     -32.572   7.005   4.362  1.00 20.00     0.042 C 
HETATM    3  C3  UNL     1     -34.913   5.107   6.501  1.00 20.00     0.010 C 
HETATM    4  C4  UNL     1     -35.193   3.934   5.923  1.00 20.00     0.114 C 
HETATM    5  C5  UNL     1     -33.982   5.546   3.021  1.00 20.00     0.142 C 
HETATM    6  C6  UNL     1     -33.283   6.808   5.486  1.00 20.00     0.107 C 
HETATM    7  C7  UNL     1     -34.567   5.101   4.294  1.00 20.00     0.087 C 
HETATM    8  C8  UNL     1     -34.598   6.101   5.442  1.00 20.00     0.127 C 
HETATM    9  N9  UNL     1     -35.003   3.909   4.565  1.00 20.00    -0.262 NA
HETATM   10  F10 UNL     1     -34.356   4.922   1.893  1.00 20.00    -0.204 F 
HETATM   11  F11 UNL     1     -32.824   7.306   6.654  1.00 20.00    -0.210 F 
ENDROOT
TORSDOF 0
ENDMDL
MODEL 3
REMARK VINA RESULT:      -4.9     12.161     12.859
REMARK  0 active torsions:
REMARK  status: ('A' for Active; 'I' for Inactive)
ROOT
HETATM    1  C1  UNL     1     -35.192  13.385  -4.439  1.00 20.00     0.047 C 
HETATM    2  C2  UNL     1     -33.770  13.391  -4.131  1.00 20.00     0.042 C 
HETATM    3  C3  UNL     1     -33.705  16.605  -2.310  1.00 20.00     0.010 C 
HETATM    4  C4  UNL     1     -34.880  16.796  -1.699  1.00 20.00     0.114 C 
HETATM    5  C5  UNL     1     -35.999  14.358  -4.000  1.00 20.00     0.142 C 
HETATM    6  C6  UNL     1     -33.165  14.499  -3.670  1.00 20.00     0.107 C 
HETATM    7  C7  UNL     1     -35.378  15.442  -3.224  1.00 20.00     0.087 C 
HETATM    8  C8  UNL     1     -33.922  15.777  -3.524  1.00 20.00     0.127 C 
HETATM    9  N9  UNL     1     -35.926  16.103  -2.253  1.00 20.00    -0.262 NA
HETATM   10  F10 UNL     1     -37.334  14.350  -4.130  1.00 20.00    -0.204 F 
HETATM   11  F11 UNL     1     -31.844  14.463  -3.390  1.00 20.00    -0.210 F 
ENDROOT
TORSDOF 0
ENDMDL
MODEL 4
REMARK VINA RESULT:      -4.7     12.445     13.567
REMARK  0 active torsions:
REMARK  status: ('A' for Active; 'I' for Inactive)
ROOT
HETATM    1  C1  UNL     1     -33.949  13.476  -3.763  1.00 20.00     0.047 C 
HETATM    2  C2  UNL     1     -35.276  13.539  -4.355  1.00 20.00     0.042 C 
HETATM    3  C3  UNL     1     -35.167  17.092  -5.363  1.00 20.00     0.010 C 
HETATM    4  C4  UNL     1     -33.907  17.435  -5.652  1.00 20.00     0.114 C 
HETATM    5  C5  UNL     1     -33.130  14.535  -3.787  1.00 20.00     0.142 C 
HETATM    6  C6  UNL     1     -35.842  14.718  -4.666  1.00 20.00     0.107 C 
HETATM    7  C7  UNL     1     -33.646  15.765  -4.407  1.00 20.00     0.087 C 
HETATM    8  C8  UNL     1     -35.150  16.003  -4.352  1.00 20.00     0.127 C 
HETATM    9  N9  UNL     1     -32.954  16.643  -5.064  1.00 20.00    -0.262 NA
HETATM   10  F10 UNL     1     -31.850  14.511  -3.385  1.00 20.00    -0.204 F 
HETATM   11  F11 UNL     1     -37.074  14.734  -5.218  1.00 20.00    -0.210 F 
ENDROOT
TORSDOF 0
ENDMDL
MODEL 5
REMARK VINA RESULT:      -4.6      9.600     10.800
REMARK  0 active torsions:
REMARK  status: ('A' for Active; 'I' for Inactive)
ROOT
HETATM    1  C1  UNL     1     -41.518   3.942  -1.825  1.00 20.00     0.047 C 
HETATM    2  C2  UNL     1     -40.904   4.504  -0.632  1.00 20.00     0.042 C 
HETATM    3  C3  UNL     1     -41.980   7.999  -1.159  1.00 20.00     0.010 C 
HETATM    4  C4  UNL     1     -43.153   8.012  -1.802  1.00 20.00     0.114 C 
HETATM    5  C5  UNL     1     -42.255   4.700  -2.646  1.00 20.00     0.142 C 
HETATM    6  C6  UNL     1     -40.791   5.834  -0.471  1.00 20.00     0.107 C 
HETATM    7  C7  UNL     1     -42.384   6.125  -2.304  1.00 20.00     0.087 C 
HETATM    8  C8  UNL     1     -41.235   6.773  -1.544  1.00 20.00     0.127 C 
HETATM    9  N9  UNL     1     -43.417   6.877  -2.525  1.00 20.00    -0.262 NA
HETATM   10  F10 UNL     1     -42.959   4.226  -3.685  1.00 20.00    -0.204 F 
HETATM   11  F11 UNL     1     -40.218   6.317   0.653  1.00 20.00    -0.210 F 
ENDROOT
TORSDOF 0
ENDMDL
MODEL 6
REMARK VINA RESULT:      -4.6     12.908     14.290
REMARK  0 active torsions:
REMARK  status: ('A' for Active; 'I' for Inactive)
ROOT
HETATM    1  C1  UNL     1     -34.703  13.641  -4.711  1.00 20.00     0.047 C 
HETATM    2  C2  UNL     1     -34.313  14.297  -3.473  1.00 20.00     0.042 C 
HETATM    3  C3  UNL     1     -33.479  17.587  -4.933  1.00 20.00     0.010 C 
HETATM    4  C4  UNL     1     -34.251  17.808  -6.003  1.00 20.00     0.114 C 
HETATM    5  C5  UNL     1     -34.718  14.308  -5.871  1.00 20.00     0.142 C 
HETATM    6  C6  UNL     1     -33.673  15.479  -3.485  1.00 20.00     0.107 C 
HETATM    7  C7  UNL     1     -34.296  15.716  -5.839  1.00 20.00     0.087 C 
HETATM    8  C8  UNL     1     -33.284  16.123  -4.775  1.00 20.00     0.127 C 
HETATM    9  N9  UNL     1     -34.752  16.673  -6.586  1.00 20.00    -0.262 NA
HETATM   10  F10 UNL     1     -35.192  13.810  -7.024  1.00 20.00    -0.204 F 
HETATM   11  F11 UNL     1     -33.333  16.059  -2.313  1.00 20.00    -0.210 F 
ENDROOT
TORSDOF 0
ENDMDL
MODEL 7
REMARK VINA RESULT:      -4.6     12.816     14.139
REMARK  0 active torsions:
REMARK  status: ('A' for Active; 'I' for Inactive)
ROOT
HETATM    1  C1  UNL     1     -34.459  14.811  -6.485  1.00 20.00     0.047 C 
HETATM    2  C2  UNL     1     -34.613  13.900  -5.362  1.00 20.00     0.042 C 
HETATM    3  C3  UNL     1     -33.590  16.256  -2.707  1.00 20.00     0.010 C 
HETATM    4  C4  UNL     1     -33.928  17.501  -3.061  1.00 20.00     0.114 C 
HETATM    5  C5  UNL     1     -34.103  16.088  -6.295  1.00 20.00     0.142 C 
HETATM    6  C6  UNL     1     -34.120  14.203  -4.149  1.00 20.00     0.107 C 
HETATM    7  C7  UNL     1     -33.847  16.512  -4.911  1.00 20.00     0.087 C 
HETATM    8  C8  UNL     1     -33.340  15.458  -3.935  1.00 20.00     0.127 C 
HETATM    9  N9  UNL     1     -34.077  17.687  -4.411  1.00 20.00    -0.262 NA
HETATM   10  F10 UNL     1     -34.072  17.016  -7.264  1.00 20.00    -0.204 F 
HETATM   11  F11 UNL     1     -34.289  13.332  -3.131  1.00 20.00    -0.210 F 
ENDROOT
TORSDOF 0
ENDMDL
MODEL 8
REMARK VINA RESULT:      -4.6     12.749     13.856
REMARK  0 active torsions:
REMARK  status: ('A' for Active; 'I' for Inactive)
ROOT
HETATM    1  C1  UNL     1     -34.483  13.871  -3.608  1.00 20.00     0.047 C 
HETATM    2  C2  UNL     1     -34.624  13.471  -4.999  1.00 20.00     0.042 C 
HETATM    3  C3  UNL     1     -34.443  16.853  -6.477  1.00 20.00     0.010 C 
HETATM    4  C4  UNL     1     -33.665  17.631  -5.715  1.00 20.00     0.114 C 
HETATM    5  C5  UNL     1     -34.290  15.153  -3.274  1.00 20.00     0.142 C 
HETATM    6  C6  UNL     1     -34.871  14.377  -5.961  1.00 20.00     0.107 C 
HETATM    7  C7  UNL     1     -34.260  16.132  -4.370  1.00 20.00     0.087 C 
HETATM    8  C8  UNL     1     -35.073  15.816  -5.619  1.00 20.00     0.127 C 
HETATM    9  N9  UNL     1     -33.549  17.217  -4.413  1.00 20.00    -0.262 NA
HETATM   10  F10 UNL     1     -34.018  15.578  -2.030  1.00 20.00    -0.204 F 
HETATM   11  F11 UNL     1     -34.990  13.966  -7.242  1.00 20.00    -0.210 F 
ENDROOT
TORSDOF 0
ENDMDL
MODEL 9
REMARK VINA RESULT:      -4.5     12.895     14.033
REMARK  0 active torsions:
REMARK  status: ('A' for Active; 'I' for Inactive)
ROOT
HETATM    1  C1  UNL     1     -33.146  15.392  -3.788  1.00 20.00     0.047 C 
HETATM    2  C2  UNL     1     -33.560  14.006  -3.938  1.00 20.00     0.042 C 
HETATM    3  C3  UNL     1     -35.481  14.432  -7.066  1.00 20.00     0.010 C 
HETATM    4  C4  UNL     1     -34.938  15.416  -7.791  1.00 20.00     0.114 C 
HETATM    5  C5  UNL     1     -33.461  16.311  -4.708  1.00 20.00     0.142 C 
HETATM    6  C6  UNL     1     -34.513  13.658  -4.820  1.00 20.00     0.107 C 
HETATM    7  C7  UNL     1     -34.268  15.862  -5.853  1.00 20.00     0.087 C 
HETATM    8  C8  UNL     1     -35.221  14.696  -5.627  1.00 20.00     0.127 C 
HETATM    9  N9  UNL     1     -34.200  16.316  -7.066  1.00 20.00    -0.262 NA
HETATM   10  F10 UNL     1     -33.002  17.572  -4.706  1.00 20.00    -0.204 F 
HETATM   11  F11 UNL     1     -34.867  12.360  -4.933  1.00 20.00    -0.210 F 
ENDROOT
TORSDOF 0
ENDMDL
