MODEL 1
REMARK VINA RESULT:      -4.7      0.000      0.000
REMARK  2 active torsions:
REMARK  status: ('A' for Active; 'I' for Inactive)
REMARK    1  A    between atoms: C1_1  and  C3_3 
REMARK    2  A    between atoms: C1_1  and  C5_5 
ROOT
HETATM    1  C2  UNL     1     -34.386   6.184   5.980  1.00 20.00     0.098 A 
HETATM    2  C3  UNL     1     -33.551   5.405   4.984  1.00 20.00     0.134 A 
HETATM    3  C4  UNL     1     -34.946   4.994   5.293  1.00 20.00     0.255 A 
HETATM    4  F7  UNL     1     -35.193   3.836   5.996  1.00 20.00    -0.205 F 
HETATM    5  F8  UNL     1     -35.954   5.133   4.365  1.00 20.00    -0.205 F 
ENDROOT
BRANCH   2   6
HETATM    6  C1  UNL     1     -33.243   6.010   3.684  1.00 20.00     0.146 C 
HETATM    7  O6  UNL     1     -33.892   5.702   2.686  1.00 20.00    -0.297 OA
BRANCH   6   8
HETATM    8  C5  UNL     1     -32.107   7.005   3.684  1.00 20.00     0.164 C 
HETATM    9 BR9  UNL     1     -32.164   8.087   2.078  1.00 20.00    -0.089 Br
ENDBRANCH   6   8
ENDBRANCH   2   6
TORSDOF 2
ENDMDL
MODEL 2
REMARK VINA RESULT:      -4.6      1.231      1.518
REMARK  2 active torsions:
REMARK  status: ('A' for Active; 'I' for Inactive)
REMARK    1  A    between atoms: C1_1  and  C3_3 
REMARK    2  A    between atoms: C1_1  and  C5_5 
ROOT
HETATM    1  C2  UNL     1     -35.625   5.085   4.477  1.00 20.00     0.098 A 
HETATM    2  C3  UNL     1     -34.541   6.124   4.278  1.00 20.00     0.134 A 
HETATM    3  C4  UNL     1     -34.563   5.271   5.496  1.00 20.00     0.255 A 
HETATM    4  F7  UNL     1     -34.864   5.816   6.725  1.00 20.00    -0.205 F 
HETATM    5  F8  UNL     1     -33.614   4.295   5.702  1.00 20.00    -0.205 F 
ENDROOT
BRANCH   2   6
HETATM    6  C1  UNL     1     -33.516   5.900   3.253  1.00 20.00     0.146 C 
HETATM    7  O6  UNL     1     -33.740   5.152   2.304  1.00 20.00    -0.297 OA
BRANCH   6   8
HETATM    8  C5  UNL     1     -32.217   6.642   3.461  1.00 20.00     0.164 C 
HETATM    9 BR9  UNL     1     -32.073   8.105   2.199  1.00 20.00    -0.089 Br
ENDBRANCH   6   8
ENDBRANCH   2   6
TORSDOF 2
ENDMDL
MODEL 3
REMARK VINA RESULT:      -4.5      1.586      1.854
REMARK  2 active torsions:
REMARK  status: ('A' for Active; 'I' for Inactive)
REMARK    1  A    between atoms: C1_1  and  C3_3 
REMARK    2  A    between atoms: C1_1  and  C5_5 
ROOT
HETATM    1  C2  UNL     1     -34.669   3.749   5.386  1.00 20.00     0.098 A 
HETATM    2  C3  UNL     1     -35.240   4.949   4.659  1.00 20.00     0.134 A 
HETATM    3  C4  UNL     1     -34.806   5.054   6.078  1.00 20.00     0.255 A 
HETATM    4  F7  UNL     1     -35.734   5.216   7.082  1.00 20.00    -0.205 F 
HETATM    5  F8  UNL     1     -33.689   5.777   6.431  1.00 20.00    -0.205 F 
ENDROOT
BRANCH   2   6
HETATM    6  C1  UNL     1     -34.445   5.592   3.607  1.00 20.00     0.146 C 
HETATM    7  O6  UNL     1     -34.350   5.073   2.497  1.00 20.00    -0.297 OA
BRANCH   6   8
HETATM    8  C5  UNL     1     -33.786   6.894   3.996  1.00 20.00     0.164 C 
HETATM    9 BR9  UNL     1     -32.031   7.023   3.188  1.00 20.00    -0.089 Br
ENDBRANCH   6   8
ENDBRANCH   2   6
TORSDOF 2
ENDMDL
MODEL 4
REMARK VINA RESULT:      -4.5      1.884      2.050
REMARK  2 active torsions:
REMARK  status: ('A' for Active; 'I' for Inactive)
REMARK    1  A    between atoms: C1_1  and  C3_3 
REMARK    2  A    between atoms: C1_1  and  C5_5 
ROOT
HETATM    1  C2  UNL     1     -35.243   4.508   6.469  1.00 20.00     0.098 A 
HETATM    2  C3  UNL     1     -34.023   5.004   5.720  1.00 20.00     0.134 A 
HETATM    3  C4  UNL     1     -35.167   4.395   4.992  1.00 20.00     0.255 A 
HETATM    4  F7  UNL     1     -35.038   3.161   4.394  1.00 20.00    -0.205 F 
HETATM    5  F8  UNL     1     -35.989   5.154   4.191  1.00 20.00    -0.205 F 
ENDROOT
BRANCH   2   6
HETATM    6  C1  UNL     1     -33.784   6.447   5.620  1.00 20.00     0.146 C 
HETATM    7  O6  UNL     1     -33.598   7.118   6.634  1.00 20.00    -0.297 OA
BRANCH   6   8
HETATM    8  C5  UNL     1     -33.783   7.009   4.218  1.00 20.00     0.164 C 
HETATM    9 BR9  UNL     1     -32.301   6.282   3.206  1.00 20.00    -0.089 Br
ENDBRANCH   6   8
ENDBRANCH   2   6
TORSDOF 2
ENDMDL
MODEL 5
REMARK VINA RESULT:      -4.4      1.654      2.021
REMARK  2 active torsions:
REMARK  status: ('A' for Active; 'I' for Inactive)
REMARK    1  A    between atoms: C1_1  and  C3_3 
REMARK    2  A    between atoms: C1_1  and  C5_5 
ROOT
HETATM    1  C2  UNL     1     -34.893   3.892   4.658  1.00 20.00     0.098 A 
HETATM    2  C3  UNL     1     -34.913   5.385   4.912  1.00 20.00     0.134 A 
HETATM    3  C4  UNL     1     -34.838   4.422   6.042  1.00 20.00     0.255 A 
HETATM    4  F7  UNL     1     -35.908   4.260   6.894  1.00 20.00    -0.205 F 
HETATM    5  F8  UNL     1     -33.692   4.292   6.795  1.00 20.00    -0.205 F 
ENDROOT
BRANCH   2   6
HETATM    6  C1  UNL     1     -33.735   6.185   4.560  1.00 20.00     0.146 C 
HETATM    7  O6  UNL     1     -33.181   6.882   5.407  1.00 20.00    -0.297 OA
BRANCH   6   8
HETATM    8  C5  UNL     1     -33.282   6.075   3.123  1.00 20.00     0.164 C 
HETATM    9 BR9  UNL     1     -32.132   7.566   2.667  1.00 20.00    -0.089 Br
ENDBRANCH   6   8
ENDBRANCH   2   6
TORSDOF 2
ENDMDL
MODEL 6
REMARK VINA RESULT:      -4.1     12.317     12.879
REMARK  2 active torsions:
REMARK  status: ('A' for Active; 'I' for Inactive)
REMARK    1  A    between atoms: C1_1  and  C3_3 
REMARK    2  A    between atoms: C1_1  and  C5_5 
ROOT
HETATM    1  C2  UNL     1     -32.717  14.143  -3.471  1.00 20.00     0.098 A 
HETATM    2  C3  UNL     1     -34.223  14.289  -3.551  1.00 20.00     0.134 A 
HETATM    3  C4  UNL     1     -33.332  15.460  -3.768  1.00 20.00     0.255 A 
HETATM    4  F7  UNL     1     -33.279  16.478  -2.842  1.00 20.00    -0.205 F 
HETATM    5  F8  UNL     1     -33.192  16.031  -5.012  1.00 20.00    -0.205 F 
ENDROOT
BRANCH   2   6
HETATM    6  C1  UNL     1     -34.938  13.701  -4.689  1.00 20.00     0.146 C 
HETATM    7  O6  UNL     1     -34.816  12.506  -4.948  1.00 20.00    -0.297 OA
BRANCH   6   8
HETATM    8  C5  UNL     1     -35.802  14.657  -5.477  1.00 20.00     0.164 C 
HETATM    9 BR9  UNL     1     -35.316  14.611  -7.351  1.00 20.00    -0.089 Br
ENDBRANCH   6   8
ENDBRANCH   2   6
TORSDOF 2
ENDMDL
MODEL 7
REMARK VINA RESULT:      -4.1     11.998     12.599
REMARK  2 active torsions:
REMARK  status: ('A' for Active; 'I' for Inactive)
REMARK    1  A    between atoms: C1_1  and  C3_3 
REMARK    2  A    between atoms: C1_1  and  C5_5 
ROOT
HETATM    1  C2  UNL     1     -34.102  13.600  -4.321  1.00 20.00     0.098 A 
HETATM    2  C3  UNL     1     -34.462  14.481  -3.143  1.00 20.00     0.134 A 
HETATM    3  C4  UNL     1     -33.260  14.770  -3.968  1.00 20.00     0.255 A 
HETATM    4  F7  UNL     1     -31.997  14.589  -3.450  1.00 20.00    -0.205 F 
HETATM    5  F8  UNL     1     -33.209  15.868  -4.797  1.00 20.00    -0.205 F 
ENDROOT
BRANCH   2   6
HETATM    6  C1  UNL     1     -35.636  15.356  -3.239  1.00 20.00     0.146 C 
HETATM    7  O6  UNL     1     -36.689  14.933  -3.711  1.00 20.00    -0.297 OA
BRANCH   6   8
HETATM    8  C5  UNL     1     -35.441  16.762  -2.723  1.00 20.00     0.164 C 
HETATM    9 BR9  UNL     1     -34.579  16.727  -0.989  1.00 20.00    -0.089 Br
ENDBRANCH   6   8
ENDBRANCH   2   6
TORSDOF 2
ENDMDL
MODEL 8
REMARK VINA RESULT:      -4.0     12.123     12.868
REMARK  2 active torsions:
REMARK  status: ('A' for Active; 'I' for Inactive)
REMARK    1  A    between atoms: C1_1  and  C3_3 
REMARK    2  A    between atoms: C1_1  and  C5_5 
ROOT
HETATM    1  C2  UNL     1     -34.535  14.373  -5.849  1.00 20.00     0.098 A 
HETATM    2  C3  UNL     1     -34.763  15.249  -4.633  1.00 20.00     0.134 A 
HETATM    3  C4  UNL     1     -34.375  13.822  -4.481  1.00 20.00     0.255 A 
HETATM    4  F7  UNL     1     -35.275  12.902  -3.990  1.00 20.00    -0.205 F 
HETATM    5  F8  UNL     1     -33.130  13.466  -4.013  1.00 20.00    -0.205 F 
ENDROOT
BRANCH   2   6
HETATM    6  C1  UNL     1     -33.791  16.303  -4.322  1.00 20.00     0.146 C 
HETATM    7  O6  UNL     1     -32.712  16.346  -4.907  1.00 20.00    -0.297 OA
BRANCH   6   8
HETATM    8  C5  UNL     1     -34.222  17.290  -3.263  1.00 20.00     0.164 C 
HETATM    9 BR9  UNL     1     -34.590  16.369  -1.599  1.00 20.00    -0.089 Br
ENDBRANCH   6   8
ENDBRANCH   2   6
TORSDOF 2
ENDMDL
MODEL 9
REMARK VINA RESULT:      -4.0     12.040     12.549
REMARK  2 active torsions:
REMARK  status: ('A' for Active; 'I' for Inactive)
REMARK    1  A    between atoms: C1_1  and  C3_3 
REMARK    2  A    between atoms: C1_1  and  C5_5 
ROOT
HETATM    1  C2  UNL     1     -34.367  17.529  -2.583  1.00 20.00     0.098 A 
HETATM    2  C3  UNL     1     -33.419  16.347  -2.578  1.00 20.00     0.134 A 
HETATM    3  C4  UNL     1     -34.751  16.256  -1.924  1.00 20.00     0.255 A 
HETATM    4  F7  UNL     1     -34.853  16.185  -0.553  1.00 20.00    -0.205 F 
HETATM    5  F8  UNL     1     -35.753  15.473  -2.450  1.00 20.00    -0.205 F 
ENDROOT
BRANCH   2   6
HETATM    6  C1  UNL     1     -33.174  15.624  -3.830  1.00 20.00     0.146 C 
HETATM    7  O6  UNL     1     -32.872  16.235  -4.852  1.00 20.00    -0.297 OA
BRANCH   6   8
HETATM    8  C5  UNL     1     -33.316  14.122  -3.750  1.00 20.00     0.164 C 
HETATM    9 BR9  UNL     1     -34.693  13.514  -4.969  1.00 20.00    -0.089 Br
ENDBRANCH   6   8
ENDBRANCH   2   6
TORSDOF 2
ENDMDL
