MODEL 1
REMARK VINA RESULT:      -5.5      0.000      0.000
REMARK  2 active torsions:
REMARK  status: ('A' for Active; 'I' for Inactive)
REMARK    1  A    between atoms: C4_4  and  C6_6 
REMARK    2  A    between atoms: C6_6  and  O7_7 
ROOT
HETATM    1  C1  UNL     1     -34.552   5.346   3.254  1.00 20.00     0.013 C 
HETATM    2  C2  UNL     1     -35.456   5.086   4.463  1.00 20.00     0.079 C 
HETATM    3  C3  UNL     1     -33.565   6.319   5.248  1.00 20.00     0.085 C 
HETATM    4  C4  UNL     1     -33.234   5.910   3.813  1.00 20.00     0.015 C 
HETATM    5  C5  UNL     1     -34.550   5.250   5.664  1.00 20.00     0.244 C 
HETATM    6  F8  UNL     1     -35.232   5.589   6.772  1.00 20.00    -0.206 F 
HETATM    7  F9  UNL     1     -33.899   4.091   5.918  1.00 20.00    -0.206 F 
ENDROOT
BRANCH   4   8
HETATM    8  C6  UNL     1     -32.672   7.053   2.984  1.00 20.00     0.168 C 
BRANCH   8   9
HETATM    9  O7  UNL     1     -31.509   7.551   3.624  1.00 20.00    -0.400 OA
HETATM   10  H19 UNL     1     -30.745   7.135   3.187  1.00 20.00     0.209 HD
ENDBRANCH   8   9
ENDBRANCH   4   8
TORSDOF 2
ENDMDL
MODEL 2
REMARK VINA RESULT:      -5.3      1.338      2.064
REMARK  2 active torsions:
REMARK  status: ('A' for Active; 'I' for Inactive)
REMARK    1  A    between atoms: C4_4  and  C6_6 
REMARK    2  A    between atoms: C6_6  and  O7_7 
ROOT
HETATM    1  C1  UNL     1     -33.751   6.614   5.395  1.00 20.00     0.013 C 
HETATM    2  C2  UNL     1     -34.564   5.386   5.817  1.00 20.00     0.079 C 
HETATM    3  C3  UNL     1     -33.929   5.062   3.536  1.00 20.00     0.085 C 
HETATM    4  C4  UNL     1     -33.570   6.510   3.871  1.00 20.00     0.015 C 
HETATM    5  C5  UNL     1     -35.043   4.776   4.518  1.00 20.00     0.244 C 
HETATM    6  F8  UNL     1     -35.291   3.460   4.637  1.00 20.00    -0.206 F 
HETATM    7  F9  UNL     1     -36.186   5.377   4.114  1.00 20.00    -0.206 F 
ENDROOT
BRANCH   4   8
HETATM    8  C6  UNL     1     -32.176   6.899   3.405  1.00 20.00     0.168 C 
BRANCH   8   9
HETATM    9  O7  UNL     1     -32.291   7.917   2.425  1.00 20.00    -0.400 OA
HETATM   10  H19 UNL     1     -33.156   7.799   1.994  1.00 20.00     0.209 HD
ENDBRANCH   8   9
ENDBRANCH   4   8
TORSDOF 2
ENDMDL
MODEL 3
REMARK VINA RESULT:      -5.0      2.393      3.111
REMARK  2 active torsions:
REMARK  status: ('A' for Active; 'I' for Inactive)
REMARK    1  A    between atoms: C4_4  and  C6_6 
REMARK    2  A    between atoms: C6_6  and  O7_7 
ROOT
HETATM    1  C1  UNL     1     -34.800   4.895   6.062  1.00 20.00     0.013 C 
HETATM    2  C2  UNL     1     -34.952   4.172   4.720  1.00 20.00     0.079 C 
HETATM    3  C3  UNL     1     -33.933   6.287   4.272  1.00 20.00     0.085 C 
HETATM    4  C4  UNL     1     -34.383   6.338   5.732  1.00 20.00     0.015 C 
HETATM    5  C5  UNL     1     -34.884   5.271   3.681  1.00 20.00     0.244 C 
HETATM    6  F8  UNL     1     -34.466   4.815   2.488  1.00 20.00    -0.206 F 
HETATM    7  F9  UNL     1     -36.107   5.824   3.507  1.00 20.00    -0.206 F 
ENDROOT
BRANCH   4   8
HETATM    8  C6  UNL     1     -33.313   6.882   6.665  1.00 20.00     0.168 C 
BRANCH   8   9
HETATM    9  O7  UNL     1     -33.872   7.933   7.435  1.00 20.00    -0.400 OA
HETATM   10  H19 UNL     1     -33.128   8.461   7.775  1.00 20.00     0.209 HD
ENDBRANCH   8   9
ENDBRANCH   4   8
TORSDOF 2
ENDMDL
MODEL 4
REMARK VINA RESULT:      -4.8      2.941      3.674
REMARK  2 active torsions:
REMARK  status: ('A' for Active; 'I' for Inactive)
REMARK    1  A    between atoms: C4_4  and  C6_6 
REMARK    2  A    between atoms: C6_6  and  O7_7 
ROOT
HETATM    1  C1  UNL     1     -35.151   5.319   3.833  1.00 20.00     0.013 C 
HETATM    2  C2  UNL     1     -34.113   5.399   2.710  1.00 20.00     0.079 C 
HETATM    3  C3  UNL     1     -33.026   6.084   4.725  1.00 20.00     0.085 C 
HETATM    4  C4  UNL     1     -34.515   5.998   5.058  1.00 20.00     0.015 C 
HETATM    5  C5  UNL     1     -33.048   6.338   3.234  1.00 20.00     0.244 C 
HETATM    6  F8  UNL     1     -31.852   6.119   2.662  1.00 20.00    -0.206 F 
HETATM    7  F9  UNL     1     -33.396   7.622   2.986  1.00 20.00    -0.206 F 
ENDROOT
BRANCH   4   8
HETATM    8  C6  UNL     1     -34.791   5.264   6.361  1.00 20.00     0.168 C 
BRANCH   8   9
HETATM    9  O7  UNL     1     -35.417   4.028   6.064  1.00 20.00    -0.400 OA
HETATM   10  H19 UNL     1     -36.340   4.227   5.829  1.00 20.00     0.209 HD
ENDBRANCH   8   9
ENDBRANCH   4   8
TORSDOF 2
ENDMDL
MODEL 5
REMARK VINA RESULT:      -4.5      3.036      3.897
REMARK  2 active torsions:
REMARK  status: ('A' for Active; 'I' for Inactive)
REMARK    1  A    between atoms: C4_4  and  C6_6 
REMARK    2  A    between atoms: C6_6  and  O7_7 
ROOT
HETATM    1  C1  UNL     1     -33.612   6.373   5.319  1.00 20.00     0.013 C 
HETATM    2  C2  UNL     1     -32.768   7.320   4.460  1.00 20.00     0.079 C 
HETATM    3  C3  UNL     1     -33.816   5.766   2.976  1.00 20.00     0.085 C 
HETATM    4  C4  UNL     1     -34.070   5.238   4.388  1.00 20.00     0.015 C 
HETATM    5  C5  UNL     1     -32.549   6.571   3.163  1.00 20.00     0.244 C 
HETATM    6  F8  UNL     1     -32.317   7.402   2.131  1.00 20.00    -0.206 F 
HETATM    7  F9  UNL     1     -31.484   5.744   3.275  1.00 20.00    -0.206 F 
ENDROOT
BRANCH   4   8
HETATM    8  C6  UNL     1     -35.515   4.822   4.615  1.00 20.00     0.168 C 
BRANCH   8   9
HETATM    9  O7  UNL     1     -35.532   3.627   5.376  1.00 20.00    -0.400 OA
HETATM   10  H19 UNL     1     -36.026   3.817   6.192  1.00 20.00     0.209 HD
ENDBRANCH   8   9
ENDBRANCH   4   8
TORSDOF 2
ENDMDL
MODEL 6
REMARK VINA RESULT:      -4.3     11.915     12.630
REMARK  2 active torsions:
REMARK  status: ('A' for Active; 'I' for Inactive)
REMARK    1  A    between atoms: C4_4  and  C6_6 
REMARK    2  A    between atoms: C6_6  and  O7_7 
ROOT
HETATM    1  C1  UNL     1     -35.989  15.501  -3.286  1.00 20.00     0.013 C 
HETATM    2  C2  UNL     1     -35.633  16.875  -2.708  1.00 20.00     0.079 C 
HETATM    3  C3  UNL     1     -33.590  15.654  -2.935  1.00 20.00     0.085 C 
HETATM    4  C4  UNL     1     -34.713  14.647  -3.188  1.00 20.00     0.015 C 
HETATM    5  C5  UNL     1     -34.277  16.683  -2.064  1.00 20.00     0.244 C 
HETATM    6  F8  UNL     1     -33.583  17.832  -1.990  1.00 20.00    -0.206 F 
HETATM    7  F9  UNL     1     -34.421  16.206  -0.806  1.00 20.00    -0.206 F 
ENDROOT
BRANCH   4   8
HETATM    8  C6  UNL     1     -34.472  13.786  -4.417  1.00 20.00     0.168 C 
BRANCH   8   9
HETATM    9  O7  UNL     1     -35.141  12.548  -4.244  1.00 20.00    -0.400 OA
HETATM   10  H19 UNL     1     -35.054  12.308  -3.305  1.00 20.00     0.209 HD
ENDBRANCH   8   9
ENDBRANCH   4   8
TORSDOF 2
ENDMDL
MODEL 7
REMARK VINA RESULT:      -4.1     12.275     13.151
REMARK  2 active torsions:
REMARK  status: ('A' for Active; 'I' for Inactive)
REMARK    1  A    between atoms: C4_4  and  C6_6 
REMARK    2  A    between atoms: C6_6  and  O7_7 
ROOT
HETATM    1  C1  UNL     1     -33.968  15.776  -5.341  1.00 20.00     0.013 C 
HETATM    2  C2  UNL     1     -33.337  16.684  -4.281  1.00 20.00     0.079 C 
HETATM    3  C3  UNL     1     -34.458  14.919  -3.121  1.00 20.00     0.085 C 
HETATM    4  C4  UNL     1     -34.888  14.803  -4.584  1.00 20.00     0.015 C 
HETATM    5  C5  UNL     1     -34.105  16.386  -3.011  1.00 20.00     0.244 C 
HETATM    6  F8  UNL     1     -33.385  16.655  -1.908  1.00 20.00    -0.206 F 
HETATM    7  F9  UNL     1     -35.232  17.133  -2.961  1.00 20.00    -0.206 F 
ENDROOT
BRANCH   4   8
HETATM    8  C6  UNL     1     -34.817  13.378  -5.111  1.00 20.00     0.168 C 
BRANCH   8   9
HETATM    9  O7  UNL     1     -35.353  12.503  -4.133  1.00 20.00    -0.400 OA
HETATM   10  H19 UNL     1     -36.322  12.564  -4.198  1.00 20.00     0.209 HD
ENDBRANCH   8   9
ENDBRANCH   4   8
TORSDOF 2
ENDMDL
MODEL 8
REMARK VINA RESULT:      -4.1      9.284     10.092
REMARK  2 active torsions:
REMARK  status: ('A' for Active; 'I' for Inactive)
REMARK    1  A    between atoms: C4_4  and  C6_6 
REMARK    2  A    between atoms: C6_6  and  O7_7 
ROOT
HETATM    1  C1  UNL     1     -42.099   5.833  -2.380  1.00 20.00     0.013 C 
HETATM    2  C2  UNL     1     -41.374   6.784  -1.423  1.00 20.00     0.079 C 
HETATM    3  C3  UNL     1     -40.901   4.555  -0.698  1.00 20.00     0.085 C 
HETATM    4  C4  UNL     1     -41.996   4.430  -1.758  1.00 20.00     0.015 C 
HETATM    5  C5  UNL     1     -41.121   5.959  -0.179  1.00 20.00     0.244 C 
HETATM    6  F8  UNL     1     -40.070   6.412   0.525  1.00 20.00    -0.206 F 
HETATM    7  F9  UNL     1     -42.205   5.991   0.630  1.00 20.00    -0.206 F 
ENDROOT
BRANCH   4   8
HETATM    8  C6  UNL     1     -41.712   3.340  -2.779  1.00 20.00     0.168 C 
BRANCH   8   9
HETATM    9  O7  UNL     1     -42.356   2.148  -2.364  1.00 20.00    -0.400 OA
HETATM   10  H19 UNL     1     -42.757   1.752  -3.157  1.00 20.00     0.209 HD
ENDBRANCH   8   9
ENDBRANCH   4   8
TORSDOF 2
ENDMDL
MODEL 9
REMARK VINA RESULT:      -4.0     12.223     13.103
REMARK  2 active torsions:
REMARK  status: ('A' for Active; 'I' for Inactive)
REMARK    1  A    between atoms: C4_4  and  C6_6 
REMARK    2  A    between atoms: C6_6  and  O7_7 
ROOT
HETATM    1  C1  UNL     1     -35.206  16.385  -4.563  1.00 20.00     0.013 C 
HETATM    2  C2  UNL     1     -33.679  16.280  -4.597  1.00 20.00     0.079 C 
HETATM    3  C3  UNL     1     -34.487  14.408  -3.348  1.00 20.00     0.085 C 
HETATM    4  C4  UNL     1     -35.690  15.329  -3.554  1.00 20.00     0.015 C 
HETATM    5  C5  UNL     1     -33.328  15.376  -3.434  1.00 20.00     0.244 C 
HETATM    6  F8  UNL     1     -32.153  14.750  -3.615  1.00 20.00    -0.206 F 
HETATM    7  F9  UNL     1     -33.240  16.099  -2.293  1.00 20.00    -0.206 F 
ENDROOT
BRANCH   4   8
HETATM    8  C6  UNL     1     -36.934  14.586  -4.013  1.00 20.00     0.168 C 
BRANCH   8   9
HETATM    9  O7  UNL     1     -37.954  14.763  -3.044  1.00 20.00    -0.400 OA
HETATM   10  H19 UNL     1     -38.515  13.969  -3.076  1.00 20.00     0.209 HD
ENDBRANCH   8   9
ENDBRANCH   4   8
TORSDOF 2
ENDMDL
