MODEL 1
REMARK VINA RESULT:      -4.8      0.000      0.000
REMARK  0 active torsions:
REMARK  status: ('A' for Active; 'I' for Inactive)
ROOT
HETATM    1  C1  UNL     1     -34.660   5.515   6.293  1.00 20.00     0.116 A 
HETATM    2  C2  UNL     1     -33.236   7.089   5.109  1.00 20.00     0.084 A 
HETATM    3  C3  UNL     1     -33.957   6.654   6.277  1.00 20.00     0.124 A 
HETATM    4  C4  UNL     1     -33.276   6.328   4.011  1.00 20.00     0.109 A 
HETATM    5  C5  UNL     1     -34.700   4.667   5.064  1.00 20.00     0.249 A 
HETATM    6  N6  UNL     1     -33.983   5.153   3.980  1.00 20.00    -0.314 N 
HETATM    7  O7  UNL     1     -35.338   3.617   5.054  1.00 20.00    -0.268 OA
HETATM    8  F8  UNL     1     -33.906   7.434   7.376  1.00 20.00    -0.206 F 
HETATM    9 CL9  UNL     1     -32.474   6.715   2.553  1.00 20.00    -0.064 Cl
HETATM   10  H12 UNL     1     -33.972   4.621   3.116  1.00 20.00     0.170 HD
ENDROOT
TORSDOF 0
ENDMDL
MODEL 2
REMARK VINA RESULT:      -4.6      2.391      2.737
REMARK  0 active torsions:
REMARK  status: ('A' for Active; 'I' for Inactive)
ROOT
HETATM    1  C1  UNL     1     -34.635   5.467   6.056  1.00 20.00     0.116 A 
HETATM    2  C2  UNL     1     -34.032   5.283   3.708  1.00 20.00     0.084 A 
HETATM    3  C3  UNL     1     -34.729   4.829   4.883  1.00 20.00     0.124 A 
HETATM    4  C4  UNL     1     -33.268   6.377   3.800  1.00 20.00     0.109 A 
HETATM    5  C5  UNL     1     -33.781   6.689   6.153  1.00 20.00     0.249 A 
HETATM    6  N6  UNL     1     -33.141   7.064   4.980  1.00 20.00    -0.314 N 
HETATM    7  O7  UNL     1     -33.678   7.292   7.218  1.00 20.00    -0.268 OA
HETATM    8  F8  UNL     1     -35.496   3.725   4.772  1.00 20.00    -0.206 F 
HETATM    9 CL9  UNL     1     -32.382   7.032   2.495  1.00 20.00    -0.064 Cl
HETATM   10  H12 UNL     1     -32.546   7.886   4.983  1.00 20.00     0.170 HD
ENDROOT
TORSDOF 0
ENDMDL
MODEL 3
REMARK VINA RESULT:      -4.5      2.815      3.283
REMARK  0 active torsions:
REMARK  status: ('A' for Active; 'I' for Inactive)
ROOT
HETATM    1  C1  UNL     1     -34.392   4.913   3.967  1.00 20.00     0.116 A 
HETATM    2  C2  UNL     1     -34.596   5.521   6.312  1.00 20.00     0.084 A 
HETATM    3  C3  UNL     1     -34.881   4.667   5.189  1.00 20.00     0.124 A 
HETATM    4  C4  UNL     1     -33.819   6.593   6.121  1.00 20.00     0.109 A 
HETATM    5  C5  UNL     1     -33.524   6.111   3.759  1.00 20.00     0.249 A 
HETATM    6  N6  UNL     1     -33.296   6.885   4.887  1.00 20.00    -0.314 N 
HETATM    7  O7  UNL     1     -33.064   6.358   2.647  1.00 20.00    -0.268 OA
HETATM    8  F8  UNL     1     -35.666   3.590   5.400  1.00 20.00    -0.206 F 
HETATM    9 CL9  UNL     1     -33.396   7.696   7.354  1.00 20.00    -0.064 Cl
HETATM   10  H12 UNL     1     -32.714   7.713   4.809  1.00 20.00     0.170 HD
ENDROOT
TORSDOF 0
ENDMDL
MODEL 4
REMARK VINA RESULT:      -4.5      2.384      2.801
REMARK  0 active torsions:
REMARK  status: ('A' for Active; 'I' for Inactive)
ROOT
HETATM    1  C1  UNL     1     -34.516   5.517   6.733  1.00 20.00     0.116 A 
HETATM    2  C2  UNL     1     -35.009   4.518   4.572  1.00 20.00     0.084 A 
HETATM    3  C3  UNL     1     -35.120   4.569   6.006  1.00 20.00     0.124 A 
HETATM    4  C4  UNL     1     -34.277   5.451   3.953  1.00 20.00     0.109 A 
HETATM    5  C5  UNL     1     -33.701   6.558   6.036  1.00 20.00     0.249 A 
HETATM    6  N6  UNL     1     -33.641   6.442   4.655  1.00 20.00    -0.314 N 
HETATM    7  O7  UNL     1     -33.137   7.439   6.680  1.00 20.00    -0.268 OA
HETATM    8  F8  UNL     1     -35.862   3.621   6.614  1.00 20.00    -0.206 F 
HETATM    9 CL9  UNL     1     -34.054   5.519   2.261  1.00 20.00    -0.064 Cl
HETATM   10  H12 UNL     1     -33.101   7.120   4.125  1.00 20.00     0.170 HD
ENDROOT
TORSDOF 0
ENDMDL
MODEL 5
REMARK VINA RESULT:      -4.4     12.496     12.623
REMARK  0 active torsions:
REMARK  status: ('A' for Active; 'I' for Inactive)
ROOT
HETATM    1  C1  UNL     1     -35.603  13.677  -4.219  1.00 20.00     0.116 A 
HETATM    2  C2  UNL     1     -33.968  14.990  -2.990  1.00 20.00     0.084 A 
HETATM    3  C3  UNL     1     -34.330  13.922  -3.884  1.00 20.00     0.124 A 
HETATM    4  C4  UNL     1     -34.938  15.756  -2.481  1.00 20.00     0.109 A 
HETATM    5  C5  UNL     1     -36.683  14.537  -3.649  1.00 20.00     0.249 A 
HETATM    6  N6  UNL     1     -36.256  15.544  -2.796  1.00 20.00    -0.314 N 
HETATM    7  O7  UNL     1     -37.859  14.333  -3.941  1.00 20.00    -0.268 OA
HETATM    8  F8  UNL     1     -33.339  13.159  -4.388  1.00 20.00    -0.206 F 
HETATM    9 CL9  UNL     1     -34.662  17.057  -1.409  1.00 20.00    -0.064 Cl
HETATM   10  H12 UNL     1     -36.944  16.162  -2.376  1.00 20.00     0.170 HD
ENDROOT
TORSDOF 0
ENDMDL
MODEL 6
REMARK VINA RESULT:      -4.4     12.859     13.437
REMARK  0 active torsions:
REMARK  status: ('A' for Active; 'I' for Inactive)
ROOT
HETATM    1  C1  UNL     1     -33.980  14.278  -3.479  1.00 20.00     0.116 A 
HETATM    2  C2  UNL     1     -33.725  16.422  -4.597  1.00 20.00     0.084 A 
HETATM    3  C3  UNL     1     -33.674  15.581  -3.430  1.00 20.00     0.124 A 
HETATM    4  C4  UNL     1     -34.091  15.878  -5.763  1.00 20.00     0.109 A 
HETATM    5  C5  UNL     1     -34.387  13.676  -4.784  1.00 20.00     0.249 A 
HETATM    6  N6  UNL     1     -34.413  14.548  -5.862  1.00 20.00    -0.314 N 
HETATM    7  O7  UNL     1     -34.672  12.483  -4.855  1.00 20.00    -0.268 OA
HETATM    8  F8  UNL     1     -33.303  16.146  -2.263  1.00 20.00    -0.206 F 
HETATM    9 CL9  UNL     1     -34.199  16.748  -7.229  1.00 20.00    -0.064 Cl
HETATM   10  H12 UNL     1     -34.683  14.198  -6.776  1.00 20.00     0.170 HD
ENDROOT
TORSDOF 0
ENDMDL
MODEL 7
REMARK VINA RESULT:      -4.4     12.430     12.648
REMARK  0 active torsions:
REMARK  status: ('A' for Active; 'I' for Inactive)
ROOT
HETATM    1  C1  UNL     1     -33.979  14.333  -3.523  1.00 20.00     0.116 A 
HETATM    2  C2  UNL     1     -35.698  15.901  -2.819  1.00 20.00     0.084 A 
HETATM    3  C3  UNL     1     -34.334  15.441  -2.862  1.00 20.00     0.124 A 
HETATM    4  C4  UNL     1     -36.633  15.192  -3.459  1.00 20.00     0.109 A 
HETATM    5  C5  UNL     1     -35.028  13.545  -4.239  1.00 20.00     0.249 A 
HETATM    6  N6  UNL     1     -36.317  14.050  -4.150  1.00 20.00    -0.314 N 
HETATM    7  O7  UNL     1     -34.727  12.524  -4.852  1.00 20.00    -0.268 OA
HETATM    8  F8  UNL     1     -33.404  16.169  -2.211  1.00 20.00    -0.206 F 
HETATM    9 CL9  UNL     1     -38.289  15.611  -3.495  1.00 20.00    -0.064 Cl
HETATM   10  H12 UNL     1     -37.074  13.558  -4.615  1.00 20.00     0.170 HD
ENDROOT
TORSDOF 0
ENDMDL
MODEL 8
REMARK VINA RESULT:      -4.3      9.900     10.230
REMARK  0 active torsions:
REMARK  status: ('A' for Active; 'I' for Inactive)
ROOT
HETATM    1  C1  UNL     1     -40.913   4.787  -0.824  1.00 20.00     0.116 A 
HETATM    2  C2  UNL     1     -41.330   7.150  -1.212  1.00 20.00     0.084 A 
HETATM    3  C3  UNL     1     -40.762   6.065  -0.456  1.00 20.00     0.124 A 
HETATM    4  C4  UNL     1     -42.031   6.865  -2.314  1.00 20.00     0.109 A 
HETATM    5  C5  UNL     1     -41.697   4.474  -2.057  1.00 20.00     0.249 A 
HETATM    6  N6  UNL     1     -42.213   5.571  -2.730  1.00 20.00    -0.314 N 
HETATM    7  O7  UNL     1     -41.850   3.308  -2.416  1.00 20.00    -0.268 OA
HETATM    8  F8  UNL     1     -40.057   6.371   0.653  1.00 20.00    -0.206 F 
HETATM    9 CL9  UNL     1     -42.764   8.044  -3.309  1.00 20.00    -0.064 Cl
HETATM   10  H12 UNL     1     -42.755   5.422  -3.576  1.00 20.00     0.170 HD
ENDROOT
TORSDOF 0
ENDMDL
MODEL 9
REMARK VINA RESULT:      -4.3     12.846     13.461
REMARK  0 active torsions:
REMARK  status: ('A' for Active; 'I' for Inactive)
ROOT
HETATM    1  C1  UNL     1     -34.353  14.571  -5.627  1.00 20.00     0.116 A 
HETATM    2  C2  UNL     1     -34.082  16.466  -4.128  1.00 20.00     0.084 A 
HETATM    3  C3  UNL     1     -34.065  15.865  -5.435  1.00 20.00     0.124 A 
HETATM    4  C4  UNL     1     -34.395  15.702  -3.076  1.00 20.00     0.109 A 
HETATM    5  C5  UNL     1     -34.703  13.722  -4.448  1.00 20.00     0.249 A 
HETATM    6  N6  UNL     1     -34.697  14.372  -3.222  1.00 20.00    -0.314 N 
HETATM    7  O7  UNL     1     -34.971  12.533  -4.597  1.00 20.00    -0.268 OA
HETATM    8  F8  UNL     1     -33.748  16.650  -6.485  1.00 20.00    -0.206 F 
HETATM    9 CL9  UNL     1     -34.455  16.273  -1.467  1.00 20.00    -0.064 Cl
HETATM   10  H12 UNL     1     -34.926  13.848  -2.383  1.00 20.00     0.170 HD
ENDROOT
TORSDOF 0
ENDMDL
