MODEL 1
REMARK VINA RESULT:      -4.3      0.000      0.000
REMARK  1 active torsions:
REMARK  status: ('A' for Active; 'I' for Inactive)
REMARK    1  A    between atoms: C1_1  and  C2_2 
ROOT
HETATM    1  C2  UNL     1     -34.951   5.379   3.844  1.00 20.00     0.285 C 
HETATM    2  F3  UNL     1     -36.219   5.778   3.550  1.00 20.00    -0.204 F 
HETATM    3 CL6  UNL     1     -35.045   3.959   4.930  1.00 20.00    -0.063 Cl
HETATM    4 CL7  UNL     1     -34.161   4.850   2.328  1.00 20.00    -0.063 Cl
ENDROOT
BRANCH   1   5
HETATM    5  C1  UNL     1     -34.189   6.537   4.500  1.00 20.00     0.249 C 
HETATM    6 CL4  UNL     1     -32.529   6.691   3.841  1.00 20.00    -0.102 Cl
HETATM    7 CL5  UNL     1     -34.043   6.311   6.271  1.00 20.00    -0.102 Cl
ENDBRANCH   1   5
TORSDOF 1
ENDMDL
MODEL 2
REMARK VINA RESULT:      -4.2      1.150      2.400
REMARK  1 active torsions:
REMARK  status: ('A' for Active; 'I' for Inactive)
REMARK    1  A    between atoms: C1_1  and  C2_2 
ROOT
HETATM    1  C2  UNL     1     -33.753   6.174   3.841  1.00 20.00     0.285 C 
HETATM    2  F3  UNL     1     -34.503   7.309   3.876  1.00 20.00    -0.204 F 
HETATM    3 CL6  UNL     1     -34.385   5.121   2.539  1.00 20.00    -0.063 Cl
HETATM    4 CL7  UNL     1     -32.074   6.621   3.408  1.00 20.00    -0.063 Cl
ENDROOT
BRANCH   1   5
HETATM    5  C1  UNL     1     -33.814   5.477   5.205  1.00 20.00     0.249 C 
HETATM    6 CL4  UNL     1     -35.180   4.319   5.293  1.00 20.00    -0.102 Cl
HETATM    7 CL5  UNL     1     -34.027   6.655   6.538  1.00 20.00    -0.102 Cl
ENDBRANCH   1   5
TORSDOF 1
ENDMDL
MODEL 3
REMARK VINA RESULT:      -4.0      1.387      1.805
REMARK  1 active torsions:
REMARK  status: ('A' for Active; 'I' for Inactive)
REMARK    1  A    between atoms: C1_1  and  C2_2 
ROOT
HETATM    1  C2  UNL     1     -34.840   5.385   3.741  1.00 20.00     0.285 C 
HETATM    2  F3  UNL     1     -34.254   4.864   2.629  1.00 20.00    -0.204 F 
HETATM    3 CL6  UNL     1     -36.479   5.953   3.300  1.00 20.00    -0.063 Cl
HETATM    4 CL7  UNL     1     -35.028   4.075   4.946  1.00 20.00    -0.063 Cl
ENDROOT
BRANCH   1   5
HETATM    5  C1  UNL     1     -33.978   6.530   4.285  1.00 20.00     0.249 C 
HETATM    6 CL4  UNL     1     -32.316   6.480   3.614  1.00 20.00    -0.102 Cl
HETATM    7 CL5  UNL     1     -33.835   6.457   6.069  1.00 20.00    -0.102 Cl
ENDBRANCH   1   5
TORSDOF 1
ENDMDL
MODEL 4
REMARK VINA RESULT:      -3.7      0.916      2.535
REMARK  1 active torsions:
REMARK  status: ('A' for Active; 'I' for Inactive)
REMARK    1  A    between atoms: C1_1  and  C2_2 
ROOT
HETATM    1  C2  UNL     1     -34.541   5.461   5.019  1.00 20.00     0.285 C 
HETATM    2  F3  UNL     1     -35.729   5.876   4.500  1.00 20.00    -0.204 F 
HETATM    3 CL6  UNL     1     -34.066   6.596   6.319  1.00 20.00    -0.063 Cl
HETATM    4 CL7  UNL     1     -34.782   3.853   5.765  1.00 20.00    -0.063 Cl
ENDROOT
BRANCH   1   5
HETATM    5  C1  UNL     1     -33.487   5.412   3.906  1.00 20.00     0.249 C 
HETATM    6 CL4  UNL     1     -32.507   6.912   3.858  1.00 20.00    -0.102 Cl
HETATM    7 CL5  UNL     1     -34.240   5.215   2.292  1.00 20.00    -0.102 Cl
ENDBRANCH   1   5
TORSDOF 1
ENDMDL
MODEL 5
REMARK VINA RESULT:      -3.7      1.474      3.035
REMARK  1 active torsions:
REMARK  status: ('A' for Active; 'I' for Inactive)
REMARK    1  A    between atoms: C1_1  and  C2_2 
ROOT
HETATM    1  C2  UNL     1     -33.768   6.359   4.374  1.00 20.00     0.285 C 
HETATM    2  F3  UNL     1     -34.377   7.452   3.837  1.00 20.00    -0.204 F 
HETATM    3 CL6  UNL     1     -32.200   6.123   3.543  1.00 20.00    -0.063 Cl
HETATM    4 CL7  UNL     1     -33.422   6.696   6.097  1.00 20.00    -0.063 Cl
ENDROOT
BRANCH   1   5
HETATM    5  C1  UNL     1     -34.678   5.136   4.212  1.00 20.00     0.249 C 
HETATM    6 CL4  UNL     1     -36.278   5.588   3.543  1.00 20.00    -0.102 Cl
HETATM    7 CL5  UNL     1     -34.967   4.318   5.780  1.00 20.00    -0.102 Cl
ENDBRANCH   1   5
TORSDOF 1
ENDMDL
MODEL 6
REMARK VINA RESULT:      -3.6      1.598      2.656
REMARK  1 active torsions:
REMARK  status: ('A' for Active; 'I' for Inactive)
REMARK    1  A    between atoms: C1_1  and  C2_2 
ROOT
HETATM    1  C2  UNL     1     -34.285   5.626   3.730  1.00 20.00     0.285 C 
HETATM    2  F3  UNL     1     -33.950   4.642   2.852  1.00 20.00    -0.204 F 
HETATM    3 CL6  UNL     1     -33.371   7.103   3.297  1.00 20.00    -0.063 Cl
HETATM    4 CL7  UNL     1     -36.027   5.990   3.531  1.00 20.00    -0.063 Cl
ENDROOT
BRANCH   1   5
HETATM    5  C1  UNL     1     -33.967   5.168   5.158  1.00 20.00     0.249 C 
HETATM    6 CL4  UNL     1     -35.116   3.912   5.719  1.00 20.00    -0.102 Cl
HETATM    7 CL5  UNL     1     -34.053   6.528   6.321  1.00 20.00    -0.102 Cl
ENDBRANCH   1   5
TORSDOF 1
ENDMDL
MODEL 7
REMARK VINA RESULT:      -3.5      0.640      1.669
REMARK  1 active torsions:
REMARK  status: ('A' for Active; 'I' for Inactive)
REMARK    1  A    between atoms: C1_1  and  C2_2 
ROOT
HETATM    1  C2  UNL     1     -34.568   5.401   4.005  1.00 20.00     0.285 C 
HETATM    2  F3  UNL     1     -35.541   6.353   3.986  1.00 20.00    -0.204 F 
HETATM    3 CL6  UNL     1     -35.219   3.946   4.819  1.00 20.00    -0.063 Cl
HETATM    4 CL7  UNL     1     -34.187   4.951   2.315  1.00 20.00    -0.063 Cl
ENDROOT
BRANCH   1   5
HETATM    5  C1  UNL     1     -33.334   5.946   4.733  1.00 20.00     0.249 C 
HETATM    6 CL4  UNL     1     -33.785   6.836   6.222  1.00 20.00    -0.102 Cl
HETATM    7 CL5  UNL     1     -32.402   7.074   3.698  1.00 20.00    -0.102 Cl
ENDBRANCH   1   5
TORSDOF 1
ENDMDL
MODEL 8
REMARK VINA RESULT:      -3.5      2.278      3.557
REMARK  1 active torsions:
REMARK  status: ('A' for Active; 'I' for Inactive)
REMARK    1  A    between atoms: C1_1  and  C2_2 
ROOT
HETATM    1  C2  UNL     1     -32.318   6.941   3.289  1.00 20.00     0.285 C 
HETATM    2  F3  UNL     1     -31.767   5.734   2.983  1.00 20.00    -0.204 F 
HETATM    3 CL6  UNL     1     -31.274   7.746   4.499  1.00 20.00    -0.063 Cl
HETATM    4 CL7  UNL     1     -32.314   7.953   1.812  1.00 20.00    -0.063 Cl
ENDROOT
BRANCH   1   5
HETATM    5  C1  UNL     1     -33.740   6.734   3.823  1.00 20.00     0.249 C 
HETATM    6 CL4  UNL     1     -33.749   6.502   5.601  1.00 20.00    -0.102 Cl
HETATM    7 CL5  UNL     1     -34.516   5.294   3.093  1.00 20.00    -0.102 Cl
ENDBRANCH   1   5
TORSDOF 1
ENDMDL
MODEL 9
REMARK VINA RESULT:      -3.4     11.931     12.595
REMARK  1 active torsions:
REMARK  status: ('A' for Active; 'I' for Inactive)
REMARK    1  A    between atoms: C1_1  and  C2_2 
ROOT
HETATM    1  C2  UNL     1     -33.376  15.260  -3.568  1.00 20.00     0.285 C 
HETATM    2  F3  UNL     1     -32.152  14.683  -3.425  1.00 20.00    -0.204 F 
HETATM    3 CL6  UNL     1     -33.586  16.468  -2.264  1.00 20.00    -0.063 Cl
HETATM    4 CL7  UNL     1     -33.407  16.137  -5.128  1.00 20.00    -0.063 Cl
ENDROOT
BRANCH   1   5
HETATM    5  C1  UNL     1     -34.462  14.179  -3.511  1.00 20.00     0.249 C 
HETATM    6 CL4  UNL     1     -34.411  13.116  -4.953  1.00 20.00    -0.102 Cl
HETATM    7 CL5  UNL     1     -36.102  14.895  -3.433  1.00 20.00    -0.102 Cl
ENDBRANCH   1   5
TORSDOF 1
ENDMDL
