MODEL 1
REMARK VINA RESULT:      -4.7      0.000      0.000
REMARK  0 active torsions:
REMARK  status: ('A' for Active; 'I' for Inactive)
ROOT
HETATM    1  C1  UNL     1     -33.491   5.888   2.720  1.00 20.00     0.057 A 
HETATM    2  C2  UNL     1     -34.911   4.517   4.352  1.00 20.00     0.008 A 
HETATM    3  C3  UNL     1     -33.944   6.289   6.336  1.00 20.00     0.143 A 
HETATM    4  C4  UNL     1     -34.079   5.468   3.944  1.00 20.00    -0.005 A 
HETATM    5  C5  UNL     1     -32.733   6.947   3.060  1.00 20.00     0.127 A 
HETATM    6  C6  UNL     1     -33.554   6.405   4.925  1.00 20.00     0.085 A 
HETATM    7  C7  UNL     1     -35.315   4.392   5.794  1.00 20.00     0.176 A 
HETATM    8  N8  UNL     1     -34.746   5.373   6.738  1.00 20.00    -0.296 NA
HETATM    9  N9  UNL     1     -32.750   7.291   4.410  1.00 20.00    -0.235 NA
HETATM   10 CL10 UNL     1     -31.793   7.842   1.950  1.00 20.00    -0.062 Cl
ENDROOT
TORSDOF 0
ENDMDL
MODEL 2
REMARK VINA RESULT:      -4.4     12.256     13.718
REMARK  0 active torsions:
REMARK  status: ('A' for Active; 'I' for Inactive)
ROOT
HETATM    1  C1  UNL     1     -34.546  16.553  -6.589  1.00 20.00     0.057 A 
HETATM    2  C2  UNL     1     -34.914  14.122  -5.871  1.00 20.00     0.008 A 
HETATM    3  C3  UNL     1     -33.172  14.726  -3.723  1.00 20.00     0.143 A 
HETATM    4  C4  UNL     1     -34.435  15.360  -5.824  1.00 20.00    -0.005 A 
HETATM    5  C5  UNL     1     -33.766  17.438  -5.941  1.00 20.00     0.127 A 
HETATM    6  C6  UNL     1     -33.535  15.721  -4.740  1.00 20.00     0.085 A 
HETATM    7  C7  UNL     1     -34.548  13.099  -4.833  1.00 20.00     0.176 A 
HETATM    8  N8  UNL     1     -33.631  13.529  -3.761  1.00 20.00    -0.296 NA
HETATM    9  N9  UNL     1     -33.130  16.957  -4.799  1.00 20.00    -0.235 NA
HETATM   10 CL10 UNL     1     -33.538  19.054  -6.445  1.00 20.00    -0.062 Cl
ENDROOT
TORSDOF 0
ENDMDL
MODEL 3
REMARK VINA RESULT:      -4.2     11.821     12.647
REMARK  0 active torsions:
REMARK  status: ('A' for Active; 'I' for Inactive)
ROOT
HETATM    1  C1  UNL     1     -36.464  16.285  -3.102  1.00 20.00     0.057 A 
HETATM    2  C2  UNL     1     -34.013  15.558  -3.264  1.00 20.00     0.008 A 
HETATM    3  C3  UNL     1     -35.030  13.140  -4.328  1.00 20.00     0.143 A 
HETATM    4  C4  UNL     1     -35.333  15.468  -3.377  1.00 20.00    -0.005 A 
HETATM    5  C5  UNL     1     -37.516  15.532  -3.475  1.00 20.00     0.127 A 
HETATM    6  C6  UNL     1     -35.906  14.246  -3.918  1.00 20.00     0.085 A 
HETATM    7  C7  UNL     1     -33.110  14.431  -3.681  1.00 20.00     0.176 A 
HETATM    8  N8  UNL     1     -33.755  13.219  -4.221  1.00 20.00    -0.296 NA
HETATM    9  N9  UNL     1     -37.207  14.272  -3.982  1.00 20.00    -0.235 NA
HETATM   10 CL10 UNL     1     -39.141  16.043  -3.354  1.00 20.00    -0.062 Cl
ENDROOT
TORSDOF 0
ENDMDL
MODEL 4
REMARK VINA RESULT:      -4.1     10.588     11.197
REMARK  0 active torsions:
REMARK  status: ('A' for Active; 'I' for Inactive)
ROOT
HETATM    1  C1  UNL     1     -41.808   3.179  -2.519  1.00 20.00     0.057 A 
HETATM    2  C2  UNL     1     -40.773   4.809  -0.837  1.00 20.00     0.008 A 
HETATM    3  C3  UNL     1     -42.467   6.750  -2.012  1.00 20.00     0.143 A 
HETATM    4  C4  UNL     1     -41.555   4.395  -1.827  1.00 20.00    -0.005 A 
HETATM    5  C5  UNL     1     -42.746   3.503  -3.428  1.00 20.00     0.127 A 
HETATM    6  C6  UNL     1     -42.444   5.353  -2.464  1.00 20.00     0.085 A 
HETATM    7  C7  UNL     1     -40.792   6.237  -0.367  1.00 20.00     0.176 A 
HETATM    8  N8  UNL     1     -41.716   7.158  -1.056  1.00 20.00    -0.296 NA
HETATM    9  N9  UNL     1     -43.160   4.833  -3.421  1.00 20.00    -0.235 NA
HETATM   10 CL10 UNL     1     -43.417   2.393  -4.540  1.00 20.00    -0.062 Cl
ENDROOT
TORSDOF 0
ENDMDL
MODEL 5
REMARK VINA RESULT:      -4.1     12.223     13.250
REMARK  0 active torsions:
REMARK  status: ('A' for Active; 'I' for Inactive)
ROOT
HETATM    1  C1  UNL     1     -33.978  16.255  -2.204  1.00 20.00     0.057 A 
HETATM    2  C2  UNL     1     -34.467  14.074  -3.455  1.00 20.00     0.008 A 
HETATM    3  C3  UNL     1     -34.210  15.625  -5.808  1.00 20.00     0.143 A 
HETATM    4  C4  UNL     1     -34.194  15.362  -3.290  1.00 20.00    -0.005 A 
HETATM    5  C5  UNL     1     -33.749  17.444  -2.790  1.00 20.00     0.127 A 
HETATM    6  C6  UNL     1     -34.052  16.203  -4.468  1.00 20.00     0.085 A 
HETATM    7  C7  UNL     1     -34.629  13.474  -4.823  1.00 20.00     0.176 A 
HETATM    8  N8  UNL     1     -34.474  14.381  -5.976  1.00 20.00    -0.296 NA
HETATM    9  N9  UNL     1     -33.787  17.447  -4.183  1.00 20.00    -0.235 NA
HETATM   10 CL10 UNL     1     -33.428  18.884  -1.929  1.00 20.00    -0.062 Cl
ENDROOT
TORSDOF 0
ENDMDL
MODEL 6
REMARK VINA RESULT:      -4.1     12.282     13.791
REMARK  0 active torsions:
REMARK  status: ('A' for Active; 'I' for Inactive)
ROOT
HETATM    1  C1  UNL     1     -33.637  16.934  -5.539  1.00 20.00     0.057 A 
HETATM    2  C2  UNL     1     -33.466  15.082  -3.777  1.00 20.00     0.008 A 
HETATM    3  C3  UNL     1     -34.962  13.515  -5.600  1.00 20.00     0.143 A 
HETATM    4  C4  UNL     1     -33.810  15.665  -4.919  1.00 20.00    -0.005 A 
HETATM    5  C5  UNL     1     -34.269  16.815  -6.721  1.00 20.00     0.127 A 
HETATM    6  C6  UNL     1     -34.580  14.903  -5.890  1.00 20.00     0.085 A 
HETATM    7  C7  UNL     1     -33.853  13.661  -3.474  1.00 20.00     0.176 A 
HETATM    8  N8  UNL     1     -34.634  12.944  -4.500  1.00 20.00    -0.296 NA
HETATM    9  N9  UNL     1     -34.859  15.578  -6.969  1.00 20.00    -0.235 NA
HETATM   10 CL10 UNL     1     -34.368  18.069  -7.876  1.00 20.00    -0.062 Cl
ENDROOT
TORSDOF 0
ENDMDL
MODEL 7
REMARK VINA RESULT:      -4.1     12.440     13.258
REMARK  0 active torsions:
REMARK  status: ('A' for Active; 'I' for Inactive)
ROOT
HETATM    1  C1  UNL     1     -34.587  16.267  -1.284  1.00 20.00     0.057 A 
HETATM    2  C2  UNL     1     -34.674  14.800  -3.382  1.00 20.00     0.008 A 
HETATM    3  C3  UNL     1     -33.470  16.997  -4.699  1.00 20.00     0.143 A 
HETATM    4  C4  UNL     1     -34.420  15.871  -2.639  1.00 20.00    -0.005 A 
HETATM    5  C5  UNL     1     -34.094  17.518  -1.239  1.00 20.00     0.127 A 
HETATM    6  C6  UNL     1     -33.802  17.027  -3.268  1.00 20.00     0.085 A 
HETATM    7  C7  UNL     1     -34.336  14.761  -4.846  1.00 20.00     0.176 A 
HETATM    8  N8  UNL     1     -33.712  15.967  -5.423  1.00 20.00    -0.296 NA
HETATM    9  N9  UNL     1     -33.603  18.016  -2.444  1.00 20.00    -0.235 NA
HETATM   10 CL10 UNL     1     -34.052  18.474   0.175  1.00 20.00    -0.062 Cl
ENDROOT
TORSDOF 0
ENDMDL
MODEL 8
REMARK VINA RESULT:      -4.1     11.776     12.478
REMARK  0 active torsions:
REMARK  status: ('A' for Active; 'I' for Inactive)
ROOT
HETATM    1  C1  UNL     1     -34.149  16.602  -2.389  1.00 20.00     0.057 A 
HETATM    2  C2  UNL     1     -33.231  14.475  -3.480  1.00 20.00     0.008 A 
HETATM    3  C3  UNL     1     -35.933  13.886  -4.087  1.00 20.00     0.143 A 
HETATM    4  C4  UNL     1     -34.136  15.360  -3.081  1.00 20.00    -0.005 A 
HETATM    5  C5  UNL     1     -35.451  16.939  -2.335  1.00 20.00     0.127 A 
HETATM    6  C6  UNL     1     -35.539  15.104  -3.368  1.00 20.00     0.085 A 
HETATM    7  C7  UNL     1     -33.626  13.226  -4.217  1.00 20.00     0.176 A 
HETATM    8  N8  UNL     1     -35.065  13.026  -4.477  1.00 20.00    -0.296 NA
HETATM    9  N9  UNL     1     -36.333  16.039  -2.929  1.00 20.00    -0.235 NA
HETATM   10 CL10 UNL     1     -36.035  18.366  -1.598  1.00 20.00    -0.062 Cl
ENDROOT
TORSDOF 0
ENDMDL
MODEL 9
REMARK VINA RESULT:      -4.1     12.455     13.170
REMARK  0 active torsions:
REMARK  status: ('A' for Active; 'I' for Inactive)
ROOT
HETATM    1  C1  UNL     1     -34.670  15.223  -2.934  1.00 20.00     0.057 A 
HETATM    2  C2  UNL     1     -34.628  16.598  -0.773  1.00 20.00     0.008 A 
HETATM    3  C3  UNL     1     -33.559  18.673  -2.375  1.00 20.00     0.143 A 
HETATM    4  C4  UNL     1     -34.458  16.326  -2.062  1.00 20.00    -0.005 A 
HETATM    5  C5  UNL     1     -34.262  15.668  -4.137  1.00 20.00     0.127 A 
HETATM    6  C6  UNL     1     -33.912  17.359  -2.928  1.00 20.00     0.085 A 
HETATM    7  C7  UNL     1     -34.270  17.941  -0.200  1.00 20.00     0.176 A 
HETATM    8  N8  UNL     1     -33.720  18.943  -1.132  1.00 20.00    -0.296 NA
HETATM    9  N9  UNL     1     -33.791  16.978  -4.168  1.00 20.00    -0.235 NA
HETATM   10 CL10 UNL     1     -34.300  14.727  -5.562  1.00 20.00    -0.062 Cl
ENDROOT
TORSDOF 0
ENDMDL
