MODEL 1
REMARK VINA RESULT:      -3.8      0.000      0.000
REMARK  2 active torsions:
REMARK  status: ('A' for Active; 'I' for Inactive)
REMARK    1  A    between atoms: C7_7  and  P9_9 
REMARK    2  A    between atoms: C8_8  and  P9_9 
ROOT
HETATM    1  P9  UNL     1     -35.793  16.008  -4.512  1.00 20.00    -0.001 P 
HETATM    2 CL10 UNL     1     -37.269  14.721  -3.773  1.00 20.00    -0.094 Cl
ENDROOT
BRANCH   1   3
HETATM    3  C7  UNL     1     -35.390  15.102  -6.112  1.00 20.00    -0.014 C 
HETATM    4  C1  UNL     1     -36.631  15.110  -7.016  1.00 20.00     0.021 C 
HETATM    5  C2  UNL     1     -34.230  15.822  -6.814  1.00 20.00     0.021 C 
HETATM    6  C3  UNL     1     -34.987  13.654  -5.794  1.00 20.00     0.021 C 
ENDBRANCH   1   3
BRANCH   1   7
HETATM    7  C8  UNL     1     -34.346  15.464  -3.536  1.00 20.00    -0.014 C 
HETATM    8  C4  UNL     1     -34.466  16.023  -2.111  1.00 20.00     0.021 C 
HETATM    9  C5  UNL     1     -34.325  13.928  -3.491  1.00 20.00     0.021 C 
HETATM   10  C6  UNL     1     -33.059  15.982  -4.194  1.00 20.00     0.021 C 
ENDBRANCH   1   7
TORSDOF 2
ENDMDL
MODEL 2
REMARK VINA RESULT:      -3.8      0.092      1.361
REMARK  2 active torsions:
REMARK  status: ('A' for Active; 'I' for Inactive)
REMARK    1  A    between atoms: C7_7  and  P9_9 
REMARK    2  A    between atoms: C8_8  and  P9_9 
ROOT
HETATM    1  P9  UNL     1     -35.869  15.963  -4.545  1.00 20.00    -0.001 P 
HETATM    2 CL10 UNL     1     -37.312  14.618  -3.842  1.00 20.00    -0.094 Cl
ENDROOT
BRANCH   1   3
HETATM    3  C7  UNL     1     -35.392  15.074  -6.135  1.00 20.00    -0.014 C 
HETATM    4  C1  UNL     1     -36.593  15.086  -7.092  1.00 20.00     0.021 C 
HETATM    5  C2  UNL     1     -34.207  15.806  -6.779  1.00 20.00     0.021 C 
HETATM    6  C3  UNL     1     -34.997  13.625  -5.814  1.00 20.00     0.021 C 
ENDBRANCH   1   3
BRANCH   1   7
HETATM    7  C8  UNL     1     -34.426  15.473  -3.535  1.00 20.00    -0.014 C 
HETATM    8  C4  UNL     1     -33.156  16.070  -4.157  1.00 20.00     0.021 C 
HETATM    9  C5  UNL     1     -34.610  16.015  -2.109  1.00 20.00     0.021 C 
HETATM   10  C6  UNL     1     -34.320  13.942  -3.500  1.00 20.00     0.021 C 
ENDBRANCH   1   7
TORSDOF 2
ENDMDL
MODEL 3
REMARK VINA RESULT:      -3.8      0.094      1.929
REMARK  2 active torsions:
REMARK  status: ('A' for Active; 'I' for Inactive)
REMARK    1  A    between atoms: C7_7  and  P9_9 
REMARK    2  A    between atoms: C8_8  and  P9_9 
ROOT
HETATM    1  P9  UNL     1     -35.859  15.948  -4.557  1.00 20.00    -0.001 P 
HETATM    2 CL10 UNL     1     -37.296  14.604  -3.844  1.00 20.00    -0.094 Cl
ENDROOT
BRANCH   1   3
HETATM    3  C7  UNL     1     -35.384  15.052  -6.144  1.00 20.00    -0.014 C 
HETATM    4  C1  UNL     1     -35.008  13.602  -5.805  1.00 20.00     0.021 C 
HETATM    5  C2  UNL     1     -36.582  15.069  -7.103  1.00 20.00     0.021 C 
HETATM    6  C3  UNL     1     -34.187  15.761  -6.795  1.00 20.00     0.021 C 
ENDBRANCH   1   3
BRANCH   1   7
HETATM    7  C8  UNL     1     -34.412  15.467  -3.548  1.00 20.00    -0.014 C 
HETATM    8  C4  UNL     1     -33.144  16.060  -4.180  1.00 20.00     0.021 C 
HETATM    9  C5  UNL     1     -34.591  16.020  -2.126  1.00 20.00     0.021 C 
HETATM   10  C6  UNL     1     -34.306  13.936  -3.502  1.00 20.00     0.021 C 
ENDBRANCH   1   7
TORSDOF 2
ENDMDL
MODEL 4
REMARK VINA RESULT:      -3.6      2.126      2.699
REMARK  2 active torsions:
REMARK  status: ('A' for Active; 'I' for Inactive)
REMARK    1  A    between atoms: C7_7  and  P9_9 
REMARK    2  A    between atoms: C8_8  and  P9_9 
ROOT
HETATM    1  P9  UNL     1     -34.669  14.990  -3.528  1.00 20.00    -0.001 P 
HETATM    2 CL10 UNL     1     -32.585  14.791  -3.559  1.00 20.00    -0.094 Cl
ENDROOT
BRANCH   1   3
HETATM    3  C7  UNL     1     -34.934  15.558  -5.304  1.00 20.00    -0.014 C 
HETATM    4  C1  UNL     1     -33.806  16.525  -5.692  1.00 20.00     0.021 C 
HETATM    5  C2  UNL     1     -34.909  14.333  -6.228  1.00 20.00     0.021 C 
HETATM    6  C3  UNL     1     -36.290  16.269  -5.418  1.00 20.00     0.021 C 
ENDBRANCH   1   3
BRANCH   1   7
HETATM    7  C8  UNL     1     -34.844  16.615  -2.710  1.00 20.00    -0.014 C 
HETATM    8  C4  UNL     1     -36.261  17.151  -2.963  1.00 20.00     0.021 C 
HETATM    9  C5  UNL     1     -34.617  16.440  -1.200  1.00 20.00     0.021 C 
HETATM   10  C6  UNL     1     -33.807  17.592  -3.282  1.00 20.00     0.021 C 
ENDBRANCH   1   7
TORSDOF 2
ENDMDL
MODEL 5
REMARK VINA RESULT:      -3.6      1.349      1.526
REMARK  2 active torsions:
REMARK  status: ('A' for Active; 'I' for Inactive)
REMARK    1  A    between atoms: C7_7  and  P9_9 
REMARK    2  A    between atoms: C8_8  and  P9_9 
ROOT
HETATM    1  P9  UNL     1     -35.672  15.307  -3.991  1.00 20.00    -0.001 P 
HETATM    2 CL10 UNL     1     -35.131  13.295  -4.195  1.00 20.00    -0.094 Cl
ENDROOT
BRANCH   1   3
HETATM    3  C7  UNL     1     -35.563  15.823  -5.799  1.00 20.00    -0.014 C 
HETATM    4  C1  UNL     1     -36.748  15.215  -6.563  1.00 20.00     0.021 C 
HETATM    5  C2  UNL     1     -35.620  17.355  -5.884  1.00 20.00     0.021 C 
HETATM    6  C3  UNL     1     -34.243  15.318  -6.398  1.00 20.00     0.021 C 
ENDBRANCH   1   3
BRANCH   1   7
HETATM    7  C8  UNL     1     -34.091  16.028  -3.422  1.00 20.00    -0.014 C 
HETATM    8  C4  UNL     1     -34.195  16.338  -1.922  1.00 20.00     0.021 C 
HETATM    9  C5  UNL     1     -32.964  15.014  -3.667  1.00 20.00     0.021 C 
HETATM   10  C6  UNL     1     -33.807  17.320  -4.202  1.00 20.00     0.021 C 
ENDBRANCH   1   7
TORSDOF 2
ENDMDL
MODEL 6
REMARK VINA RESULT:      -3.6      2.016      3.809
REMARK  2 active torsions:
REMARK  status: ('A' for Active; 'I' for Inactive)
REMARK    1  A    between atoms: C7_7  and  P9_9 
REMARK    2  A    between atoms: C8_8  and  P9_9 
ROOT
HETATM    1  P9  UNL     1     -33.701  16.102  -4.611  1.00 20.00    -0.001 P 
HETATM    2 CL10 UNL     1     -32.509  14.642  -3.699  1.00 20.00    -0.094 Cl
ENDROOT
BRANCH   1   3
HETATM    3  C7  UNL     1     -34.909  16.415  -3.201  1.00 20.00    -0.014 C 
HETATM    4  C1  UNL     1     -34.118  16.572  -1.893  1.00 20.00     0.021 C 
HETATM    5  C2  UNL     1     -35.692  17.703  -3.493  1.00 20.00     0.021 C 
HETATM    6  C3  UNL     1     -35.879  15.231  -3.083  1.00 20.00     0.021 C 
ENDBRANCH   1   3
BRANCH   1   7
HETATM    7  C8  UNL     1     -34.784  15.057  -5.649  1.00 20.00    -0.014 C 
HETATM    8  C4  UNL     1     -34.256  15.068  -7.091  1.00 20.00     0.021 C 
HETATM    9  C5  UNL     1     -34.767  13.622  -5.100  1.00 20.00     0.021 C 
HETATM   10  C6  UNL     1     -36.216  15.610  -5.614  1.00 20.00     0.021 C 
ENDBRANCH   1   7
TORSDOF 2
ENDMDL
MODEL 7
REMARK VINA RESULT:      -3.6      2.245      3.256
REMARK  2 active torsions:
REMARK  status: ('A' for Active; 'I' for Inactive)
REMARK    1  A    between atoms: C7_7  and  P9_9 
REMARK    2  A    between atoms: C8_8  and  P9_9 
ROOT
HETATM    1  P9  UNL     1     -33.340  15.982  -4.319  1.00 20.00    -0.001 P 
HETATM    2 CL10 UNL     1     -33.778  16.420  -2.319  1.00 20.00    -0.094 Cl
ENDROOT
BRANCH   1   3
HETATM    3  C7  UNL     1     -34.315  17.368  -5.141  1.00 20.00    -0.014 C 
HETATM    4  C1  UNL     1     -33.542  18.685  -4.978  1.00 20.00     0.021 C 
HETATM    5  C2  UNL     1     -34.481  17.044  -6.632  1.00 20.00     0.021 C 
HETATM    6  C3  UNL     1     -35.694  17.489  -4.477  1.00 20.00     0.021 C 
ENDBRANCH   1   3
BRANCH   1   7
HETATM    7  C8  UNL     1     -34.517  14.619  -4.634  1.00 20.00    -0.014 C 
HETATM    8  C4  UNL     1     -34.746  14.499  -6.148  1.00 20.00     0.021 C 
HETATM    9  C5  UNL     1     -33.920  13.311  -4.094  1.00 20.00     0.021 C 
HETATM   10  C6  UNL     1     -35.847  14.915  -3.927  1.00 20.00     0.021 C 
ENDBRANCH   1   7
TORSDOF 2
ENDMDL
MODEL 8
REMARK VINA RESULT:      -3.6      2.112      3.315
REMARK  2 active torsions:
REMARK  status: ('A' for Active; 'I' for Inactive)
REMARK    1  A    between atoms: C7_7  and  P9_9 
REMARK    2  A    between atoms: C8_8  and  P9_9 
ROOT
HETATM    1  P9  UNL     1     -35.651  15.904  -3.408  1.00 20.00    -0.001 P 
HETATM    2 CL10 UNL     1     -34.645  16.142  -1.588  1.00 20.00    -0.094 Cl
ENDROOT
BRANCH   1   3
HETATM    3  C7  UNL     1     -34.387  14.830  -4.301  1.00 20.00    -0.014 C 
HETATM    4  C1  UNL     1     -32.999  15.086  -3.697  1.00 20.00     0.021 C 
HETATM    5  C2  UNL     1     -34.771  13.355  -4.119  1.00 20.00     0.021 C 
HETATM    6  C3  UNL     1     -34.378  15.184  -5.795  1.00 20.00     0.021 C 
ENDBRANCH   1   3
BRANCH   1   7
HETATM    7  C8  UNL     1     -35.259  17.493  -4.224  1.00 20.00    -0.014 C 
HETATM    8  C4  UNL     1     -35.769  17.448  -5.672  1.00 20.00     0.021 C 
HETATM    9  C5  UNL     1     -35.958  18.629  -3.462  1.00 20.00     0.021 C 
HETATM   10  C6  UNL     1     -33.741  17.715  -4.212  1.00 20.00     0.021 C 
ENDBRANCH   1   7
TORSDOF 2
ENDMDL
