MODEL 1
REMARK VINA RESULT:      -4.7      0.000      0.000
REMARK  0 active torsions:
REMARK  status: ('A' for Active; 'I' for Inactive)
ROOT
HETATM    1  C1  UNL     1     -32.783   6.866   4.093  1.00 20.00     0.124 C 
HETATM    2  C2  UNL     1     -34.444   5.414   4.022  1.00 20.00     0.044 C 
HETATM    3  C3  UNL     1     -35.394   4.466   4.644  1.00 20.00     0.057 C 
HETATM    4  C4  UNL     1     -35.130   4.788   6.127  1.00 20.00     0.007 C 
HETATM    5  C5  UNL     1     -33.853   5.656   6.172  1.00 20.00     0.016 C 
HETATM    6  C6  UNL     1     -33.959   6.487   4.914  1.00 20.00     0.077 C 
HETATM    7  N7  UNL     1     -32.764   6.293   2.931  1.00 20.00    -0.166 NA
HETATM    8  N8  UNL     1     -33.845   5.344   2.880  1.00 20.00    -0.159 NA
ENDROOT
TORSDOF 0
ENDMDL
MODEL 2
REMARK VINA RESULT:      -4.5      1.837      3.317
REMARK  0 active torsions:
REMARK  status: ('A' for Active; 'I' for Inactive)
ROOT
HETATM    1  C1  UNL     1     -35.421   4.634   4.728  1.00 20.00     0.124 C 
HETATM    2  C2  UNL     1     -33.898   6.225   4.871  1.00 20.00     0.044 C 
HETATM    3  C3  UNL     1     -32.764   7.016   4.344  1.00 20.00     0.057 C 
HETATM    4  C4  UNL     1     -32.766   6.512   2.889  1.00 20.00     0.007 C 
HETATM    5  C5  UNL     1     -33.698   5.281   2.847  1.00 20.00     0.016 C 
HETATM    6  C6  UNL     1     -34.779   5.634   3.842  1.00 20.00     0.077 C 
HETATM    7  N7  UNL     1     -35.125   4.794   5.980  1.00 20.00    -0.166 NA
HETATM    8  N8  UNL     1     -34.132   5.831   6.078  1.00 20.00    -0.159 NA
ENDROOT
TORSDOF 0
ENDMDL
MODEL 3
REMARK VINA RESULT:      -4.2     12.043     13.020
REMARK  0 active torsions:
REMARK  status: ('A' for Active; 'I' for Inactive)
ROOT
HETATM    1  C1  UNL     1     -35.009  13.646  -5.562  1.00 20.00     0.124 C 
HETATM    2  C2  UNL     1     -34.232  14.639  -3.749  1.00 20.00     0.044 C 
HETATM    3  C3  UNL     1     -33.555  15.746  -3.040  1.00 20.00     0.057 C 
HETATM    4  C4  UNL     1     -33.486  16.770  -4.188  1.00 20.00     0.007 C 
HETATM    5  C5  UNL     1     -33.855  16.011  -5.482  1.00 20.00     0.016 C 
HETATM    6  C6  UNL     1     -34.895  15.020  -5.014  1.00 20.00     0.077 C 
HETATM    7  N7  UNL     1     -34.690  12.725  -4.706  1.00 20.00    -0.166 NA
HETATM    8  N8  UNL     1     -34.183  13.368  -3.522  1.00 20.00    -0.159 NA
ENDROOT
TORSDOF 0
ENDMDL
MODEL 4
REMARK VINA RESULT:      -4.2      0.924      1.868
REMARK  0 active torsions:
REMARK  status: ('A' for Active; 'I' for Inactive)
ROOT
HETATM    1  C1  UNL     1     -33.565   5.755   2.799  1.00 20.00     0.124 C 
HETATM    2  C2  UNL     1     -33.514   6.114   4.977  1.00 20.00     0.044 C 
HETATM    3  C3  UNL     1     -34.066   6.003   6.345  1.00 20.00     0.057 C 
HETATM    4  C4  UNL     1     -35.203   5.000   6.072  1.00 20.00     0.007 C 
HETATM    5  C5  UNL     1     -35.348   4.901   4.537  1.00 20.00     0.016 C 
HETATM    6  C6  UNL     1     -33.925   5.041   4.048  1.00 20.00     0.077 C 
HETATM    7  N7  UNL     1     -32.911   6.855   3.008  1.00 20.00    -0.166 NA
HETATM    8  N8  UNL     1     -32.875   7.093   4.428  1.00 20.00    -0.159 NA
ENDROOT
TORSDOF 0
ENDMDL
MODEL 5
REMARK VINA RESULT:      -4.1     11.793     12.116
REMARK  0 active torsions:
REMARK  status: ('A' for Active; 'I' for Inactive)
ROOT
HETATM    1  C1  UNL     1     -33.123  14.178  -3.679  1.00 20.00     0.124 C 
HETATM    2  C2  UNL     1     -35.267  14.026  -4.182  1.00 20.00     0.044 C 
HETATM    3  C3  UNL     1     -36.686  14.424  -4.044  1.00 20.00     0.057 C 
HETATM    4  C4  UNL     1     -36.505  15.688  -3.184  1.00 20.00     0.007 C 
HETATM    5  C5  UNL     1     -35.042  15.683  -2.687  1.00 20.00     0.016 C 
HETATM    6  C6  UNL     1     -34.287  15.081  -3.850  1.00 20.00     0.077 C 
HETATM    7  N7  UNL     1     -33.362  12.959  -4.049  1.00 20.00    -0.166 NA
HETATM    8  N8  UNL     1     -34.760  12.854  -4.377  1.00 20.00    -0.159 NA
ENDROOT
TORSDOF 0
ENDMDL
MODEL 6
REMARK VINA RESULT:      -4.0     11.727     12.377
REMARK  0 active torsions:
REMARK  status: ('A' for Active; 'I' for Inactive)
ROOT
HETATM    1  C1  UNL     1     -36.548  15.153  -3.436  1.00 20.00     0.124 C 
HETATM    2  C2  UNL     1     -34.755  13.893  -3.699  1.00 20.00     0.044 C 
HETATM    3  C3  UNL     1     -33.301  13.691  -3.884  1.00 20.00     0.057 C 
HETATM    4  C4  UNL     1     -32.817  15.130  -3.629  1.00 20.00     0.007 C 
HETATM    5  C5  UNL     1     -34.074  16.029  -3.631  1.00 20.00     0.016 C 
HETATM    6  C6  UNL     1     -35.128  15.144  -3.008  1.00 20.00     0.077 C 
HETATM    7  N7  UNL     1     -36.912  14.058  -4.027  1.00 20.00    -0.166 NA
HETATM    8  N8  UNL     1     -35.745  13.233  -4.202  1.00 20.00    -0.159 NA
ENDROOT
TORSDOF 0
ENDMDL
MODEL 7
REMARK VINA RESULT:      -4.0     12.075     13.258
REMARK  0 active torsions:
REMARK  status: ('A' for Active; 'I' for Inactive)
ROOT
HETATM    1  C1  UNL     1     -33.929  14.394  -3.505  1.00 20.00     0.124 C 
HETATM    2  C2  UNL     1     -34.674  13.928  -5.530  1.00 20.00     0.044 C 
HETATM    3  C3  UNL     1     -35.333  14.282  -6.807  1.00 20.00     0.057 C 
HETATM    4  C4  UNL     1     -35.405  15.810  -6.633  1.00 20.00     0.007 C 
HETATM    5  C5  UNL     1     -35.059  16.105  -5.156  1.00 20.00     0.016 C 
HETATM    6  C6  UNL     1     -34.023  15.054  -4.830  1.00 20.00     0.077 C 
HETATM    7  N7  UNL     1     -34.246  13.138  -3.536  1.00 20.00    -0.166 NA
HETATM    8  N8  UNL     1     -34.733  12.829  -4.855  1.00 20.00    -0.159 NA
ENDROOT
TORSDOF 0
ENDMDL
MODEL 8
REMARK VINA RESULT:      -3.9     11.947     13.251
REMARK  0 active torsions:
REMARK  status: ('A' for Active; 'I' for Inactive)
ROOT
HETATM    1  C1  UNL     1     -34.213  13.513  -3.536  1.00 20.00     0.124 C 
HETATM    2  C2  UNL     1     -34.212  14.678  -5.411  1.00 20.00     0.044 C 
HETATM    3  C3  UNL     1     -34.034  15.924  -6.189  1.00 20.00     0.057 C 
HETATM    4  C4  UNL     1     -33.400  16.808  -5.100  1.00 20.00     0.007 C 
HETATM    5  C5  UNL     1     -33.575  16.057  -3.761  1.00 20.00     0.016 C 
HETATM    6  C6  UNL     1     -33.429  14.607  -4.160  1.00 20.00     0.077 C 
HETATM    7  N7  UNL     1     -35.070  12.972  -4.344  1.00 20.00    -0.166 NA
HETATM    8  N8  UNL     1     -35.073  13.729  -5.569  1.00 20.00    -0.159 NA
ENDROOT
TORSDOF 0
ENDMDL
MODEL 9
REMARK VINA RESULT:      -3.9      9.414     10.393
REMARK  0 active torsions:
REMARK  status: ('A' for Active; 'I' for Inactive)
ROOT
HETATM    1  C1  UNL     1     -42.668   4.158  -2.695  1.00 20.00     0.124 C 
HETATM    2  C2  UNL     1     -41.795   6.103  -2.119  1.00 20.00     0.044 C 
HETATM    3  C3  UNL     1     -41.145   7.025  -1.162  1.00 20.00     0.057 C 
HETATM    4  C4  UNL     1     -40.815   6.024  -0.040  1.00 20.00     0.007 C 
HETATM    5  C5  UNL     1     -41.585   4.724  -0.363  1.00 20.00     0.016 C 
HETATM    6  C6  UNL     1     -41.543   4.668  -1.872  1.00 20.00     0.077 C 
HETATM    7  N7  UNL     1     -43.248   5.081  -3.396  1.00 20.00    -0.166 NA
HETATM    8  N8  UNL     1     -42.682   6.351  -3.024  1.00 20.00    -0.159 NA
ENDROOT
TORSDOF 0
ENDMDL
