MODEL 1
REMARK VINA RESULT:      -4.4      0.000      0.000
REMARK  0 active torsions:
REMARK  status: ('A' for Active; 'I' for Inactive)
ROOT
HETATM    1  C1  UNL     1     -33.721   5.720   2.730  1.00 20.00     0.006 A 
HETATM    2  C2  UNL     1     -34.262   5.401   3.902  1.00 20.00    -0.008 A 
HETATM    3  C3  UNL     1     -33.532   6.255   4.838  1.00 20.00     0.038 A 
HETATM    4  C4  UNL     1     -32.689   6.785   2.891  1.00 20.00     0.177 A 
HETATM    5  C5  UNL     1     -35.298   4.444   4.343  1.00 20.00     0.310 C 
HETATM    6  C6  UNL     1     -33.803   6.121   6.310  1.00 20.00     0.089 C 
HETATM    7  C7  UNL     1     -35.099   5.350   6.580  1.00 20.00     0.276 C 
HETATM    8  N8  UNL     1     -32.635   7.063   4.346  1.00 20.00    -0.290 NA
HETATM    9  N9  UNL     1     -35.194   4.125   5.776  1.00 20.00     0.087 N 
HETATM   10  H19 UNL     1     -36.021   3.599   6.058  1.00 20.00     0.316 HD
ENDROOT
TORSDOF 0
ENDMDL
MODEL 2
REMARK VINA RESULT:      -4.3     12.069     12.671
REMARK  0 active torsions:
REMARK  status: ('A' for Active; 'I' for Inactive)
ROOT
HETATM    1  C1  UNL     1     -33.981  16.516  -2.341  1.00 20.00     0.006 A 
HETATM    2  C2  UNL     1     -33.914  15.428  -3.103  1.00 20.00    -0.008 A 
HETATM    3  C3  UNL     1     -35.321  15.140  -3.380  1.00 20.00     0.038 A 
HETATM    4  C4  UNL     1     -35.395  16.951  -2.157  1.00 20.00     0.177 A 
HETATM    5  C5  UNL     1     -32.816  14.576  -3.606  1.00 20.00     0.310 C 
HETATM    6  C6  UNL     1     -35.672  13.904  -4.160  1.00 20.00     0.089 C 
HETATM    7  C7  UNL     1     -34.450  13.318  -4.875  1.00 20.00     0.276 C 
HETATM    8  N8  UNL     1     -36.212  15.952  -2.887  1.00 20.00    -0.290 NA
HETATM    9  N9  UNL     1     -33.277  13.234  -3.994  1.00 20.00     0.087 N 
HETATM   10  H19 UNL     1     -32.523  12.753  -4.482  1.00 20.00     0.316 HD
ENDROOT
TORSDOF 0
ENDMDL
MODEL 3
REMARK VINA RESULT:      -4.1      1.198      2.064
REMARK  0 active torsions:
REMARK  status: ('A' for Active; 'I' for Inactive)
ROOT
HETATM    1  C1  UNL     1     -32.557   7.089   4.043  1.00 20.00     0.006 A 
HETATM    2  C2  UNL     1     -33.342   6.385   4.853  1.00 20.00    -0.008 A 
HETATM    3  C3  UNL     1     -34.048   5.498   3.929  1.00 20.00     0.038 A 
HETATM    4  C4  UNL     1     -32.717   6.645   2.628  1.00 20.00     0.177 A 
HETATM    5  C5  UNL     1     -33.601   6.383   6.308  1.00 20.00     0.310 C 
HETATM    6  C6  UNL     1     -35.114   4.584   4.467  1.00 20.00     0.089 C 
HETATM    7  C7  UNL     1     -35.038   4.460   5.991  1.00 20.00     0.276 C 
HETATM    8  N8  UNL     1     -33.748   5.581   2.664  1.00 20.00    -0.290 NA
HETATM    9  N9  UNL     1     -34.892   5.765   6.649  1.00 20.00     0.087 N 
HETATM   10  H19 UNL     1     -34.942   5.641   7.660  1.00 20.00     0.316 HD
ENDROOT
TORSDOF 0
ENDMDL
MODEL 4
REMARK VINA RESULT:      -4.0     12.195     13.860
REMARK  0 active torsions:
REMARK  status: ('A' for Active; 'I' for Inactive)
ROOT
HETATM    1  C1  UNL     1     -35.346  14.391  -7.083  1.00 20.00     0.006 A 
HETATM    2  C2  UNL     1     -34.718  14.322  -5.913  1.00 20.00    -0.008 A 
HETATM    3  C3  UNL     1     -34.096  15.641  -5.802  1.00 20.00     0.038 A 
HETATM    4  C4  UNL     1     -35.173  15.736  -7.703  1.00 20.00     0.177 A 
HETATM    5  C5  UNL     1     -34.545  13.274  -4.886  1.00 20.00     0.310 C 
HETATM    6  C6  UNL     1     -33.205  15.930  -4.627  1.00 20.00     0.089 C 
HETATM    7  C7  UNL     1     -33.383  14.895  -3.512  1.00 20.00     0.276 C 
HETATM    8  N8  UNL     1     -34.309  16.493  -6.765  1.00 20.00    -0.290 NA
HETATM    9  N9  UNL     1     -33.377  13.518  -4.025  1.00 20.00     0.087 N 
HETATM   10  H19 UNL     1     -33.402  12.866  -3.242  1.00 20.00     0.316 HD
ENDROOT
TORSDOF 0
ENDMDL
MODEL 5
REMARK VINA RESULT:      -4.0     12.119     13.769
REMARK  0 active torsions:
REMARK  status: ('A' for Active; 'I' for Inactive)
ROOT
HETATM    1  C1  UNL     1     -34.506  16.287  -6.674  1.00 20.00     0.006 A 
HETATM    2  C2  UNL     1     -34.352  15.324  -5.771  1.00 20.00    -0.008 A 
HETATM    3  C3  UNL     1     -33.526  15.968  -4.750  1.00 20.00     0.038 A 
HETATM    4  C4  UNL     1     -33.831  17.542  -6.236  1.00 20.00     0.177 A 
HETATM    5  C5  UNL     1     -34.785  13.914  -5.668  1.00 20.00     0.310 C 
HETATM    6  C6  UNL     1     -33.053  15.156  -3.576  1.00 20.00     0.089 C 
HETATM    7  C7  UNL     1     -33.834  13.845  -3.442  1.00 20.00     0.276 C 
HETATM    8  N8  UNL     1     -33.196  17.214  -4.937  1.00 20.00    -0.290 NA
HETATM    9  N9  UNL     1     -33.962  13.141  -4.726  1.00 20.00     0.087 N 
HETATM   10  H19 UNL     1     -34.402  12.234  -4.570  1.00 20.00     0.316 HD
ENDROOT
TORSDOF 0
ENDMDL
MODEL 6
REMARK VINA RESULT:      -3.9      9.962     10.994
REMARK  0 active torsions:
REMARK  status: ('A' for Active; 'I' for Inactive)
ROOT
HETATM    1  C1  UNL     1     -41.558   3.885  -2.015  1.00 20.00     0.006 A 
HETATM    2  C2  UNL     1     -41.638   5.188  -1.759  1.00 20.00    -0.008 A 
HETATM    3  C3  UNL     1     -42.678   5.636  -2.685  1.00 20.00     0.038 A 
HETATM    4  C4  UNL     1     -42.548   3.485  -3.055  1.00 20.00     0.177 A 
HETATM    5  C5  UNL     1     -40.929   6.116  -0.853  1.00 20.00     0.310 C 
HETATM    6  C6  UNL     1     -43.004   7.101  -2.761  1.00 20.00     0.089 C 
HETATM    7  C7  UNL     1     -42.439   7.870  -1.563  1.00 20.00     0.276 C 
HETATM    8  N8  UNL     1     -43.239   4.737  -3.443  1.00 20.00    -0.290 NA
HETATM    9  N9  UNL     1     -41.040   7.518  -1.285  1.00 20.00     0.087 N 
HETATM   10  H19 UNL     1     -40.681   8.120  -0.545  1.00 20.00     0.316 HD
ENDROOT
TORSDOF 0
ENDMDL
MODEL 7
REMARK VINA RESULT:      -3.9     12.202     13.985
REMARK  0 active torsions:
REMARK  status: ('A' for Active; 'I' for Inactive)
ROOT
HETATM    1  C1  UNL     1     -34.370  16.343  -6.893  1.00 20.00     0.006 A 
HETATM    2  C2  UNL     1     -34.023  15.709  -5.777  1.00 20.00    -0.008 A 
HETATM    3  C3  UNL     1     -34.671  14.406  -5.931  1.00 20.00     0.038 A 
HETATM    4  C4  UNL     1     -35.191  15.464  -7.773  1.00 20.00     0.177 A 
HETATM    5  C5  UNL     1     -33.239  16.068  -4.576  1.00 20.00     0.310 C 
HETATM    6  C6  UNL     1     -34.583  13.411  -4.808  1.00 20.00     0.089 C 
HETATM    7  C7  UNL     1     -33.493  13.788  -3.800  1.00 20.00     0.276 C 
HETATM    8  N8  UNL     1     -35.341  14.191  -7.027  1.00 20.00    -0.290 NA
HETATM    9  N9  UNL     1     -33.549  15.207  -3.424  1.00 20.00     0.087 N 
HETATM   10  H19 UNL     1     -32.871  15.388  -2.685  1.00 20.00     0.316 HD
ENDROOT
TORSDOF 0
ENDMDL
MODEL 8
REMARK VINA RESULT:      -3.8     10.192     11.150
REMARK  0 active torsions:
REMARK  status: ('A' for Active; 'I' for Inactive)
ROOT
HETATM    1  C1  UNL     1     -41.993   7.384  -1.906  1.00 20.00     0.006 A 
HETATM    2  C2  UNL     1     -41.855   6.062  -1.918  1.00 20.00    -0.008 A 
HETATM    3  C3  UNL     1     -42.771   5.650  -2.981  1.00 20.00     0.038 A 
HETATM    4  C4  UNL     1     -42.947   7.829  -2.962  1.00 20.00     0.177 A 
HETATM    5  C5  UNL     1     -41.071   5.090  -1.126  1.00 20.00     0.310 C 
HETATM    6  C6  UNL     1     -42.967   4.183  -3.247  1.00 20.00     0.089 C 
HETATM    7  C7  UNL     1     -41.871   3.337  -2.592  1.00 20.00     0.276 C 
HETATM    8  N8  UNL     1     -43.417   6.585  -3.617  1.00 20.00    -0.290 NA
HETATM    9  N9  UNL     1     -41.625   3.729  -1.197  1.00 20.00     0.087 N 
HETATM   10  H19 UNL     1     -40.961   3.080  -0.776  1.00 20.00     0.316 HD
ENDROOT
TORSDOF 0
ENDMDL
MODEL 9
REMARK VINA RESULT:      -3.8     11.970     12.603
REMARK  0 active torsions:
REMARK  status: ('A' for Active; 'I' for Inactive)
ROOT
HETATM    1  C1  UNL     1     -34.852  13.402  -4.238  1.00 20.00     0.006 A 
HETATM    2  C2  UNL     1     -35.695  14.371  -3.892  1.00 20.00    -0.008 A 
HETATM    3  C3  UNL     1     -34.815  15.351  -3.255  1.00 20.00     0.038 A 
HETATM    4  C4  UNL     1     -33.451  13.757  -3.871  1.00 20.00     0.177 A 
HETATM    5  C5  UNL     1     -37.156  14.568  -4.000  1.00 20.00     0.310 C 
HETATM    6  C6  UNL     1     -35.421  16.581  -2.638  1.00 20.00     0.089 C 
HETATM    7  C7  UNL     1     -36.863  16.800  -3.108  1.00 20.00     0.276 C 
HETATM    8  N8  UNL     1     -33.542  15.080  -3.208  1.00 20.00    -0.290 NA
HETATM    9  N9  UNL     1     -37.660  15.567  -3.046  1.00 20.00     0.087 N 
HETATM   10  H19 UNL     1     -38.630  15.782  -3.275  1.00 20.00     0.316 HD
ENDROOT
TORSDOF 0
ENDMDL
