MODEL 1
REMARK VINA RESULT:      -4.1      0.000      0.000
REMARK  1 active torsions:
REMARK  status: ('A' for Active; 'I' for Inactive)
REMARK    1  A    between atoms: C2_2  and  C4_4 
ROOT
HETATM    1  C1  UNL     1     -34.924   4.711   4.667  1.00 20.00     0.026 A 
HETATM    2  C2  UNL     1     -34.078   5.706   4.405  1.00 20.00     0.068 A 
HETATM    3  C3  UNL     1     -35.184   4.798   6.121  1.00 20.00     0.203 A 
HETATM    4  N5  UNL     1     -33.757   6.432   5.525  1.00 20.00    -0.159 NA
HETATM    5  N6  UNL     1     -34.358   5.961   6.533  1.00 20.00    -0.189 NA
ENDROOT
BRANCH   2   6
HETATM    6  C4  UNL     1     -33.494   6.065   3.089  1.00 20.00     0.175 C 
HETATM    7 CL7  UNL     1     -32.030   7.005   3.399  1.00 20.00    -0.124 Cl
ENDBRANCH   2   6
TORSDOF 1
ENDMDL
MODEL 2
REMARK VINA RESULT:      -3.7      1.974      2.791
REMARK  1 active torsions:
REMARK  status: ('A' for Active; 'I' for Inactive)
REMARK    1  A    between atoms: C2_2  and  C4_4 
ROOT
HETATM    1  C1  UNL     1     -34.989   5.154   4.106  1.00 20.00     0.026 A 
HETATM    2  C2  UNL     1     -34.183   5.800   4.947  1.00 20.00     0.068 A 
HETATM    3  C3  UNL     1     -34.375   5.327   2.771  1.00 20.00     0.203 A 
HETATM    4  N5  UNL     1     -33.113   6.377   4.309  1.00 20.00    -0.159 NA
HETATM    5  N6  UNL     1     -33.169   6.140   3.069  1.00 20.00    -0.189 NA
ENDROOT
BRANCH   2   6
HETATM    6  C4  UNL     1     -34.342   5.939   6.415  1.00 20.00     0.175 C 
HETATM    7 CL7  UNL     1     -33.403   7.350   6.917  1.00 20.00    -0.124 Cl
ENDBRANCH   2   6
TORSDOF 1
ENDMDL
MODEL 3
REMARK VINA RESULT:      -3.7     12.309     12.638
REMARK  1 active torsions:
REMARK  status: ('A' for Active; 'I' for Inactive)
REMARK    1  A    between atoms: C2_2  and  C4_4 
ROOT
HETATM    1  C1  UNL     1     -34.406  14.909  -5.260  1.00 20.00     0.026 A 
HETATM    2  C2  UNL     1     -34.062  14.740  -3.984  1.00 20.00     0.068 A 
HETATM    3  C3  UNL     1     -34.951  13.602  -5.690  1.00 20.00     0.203 A 
HETATM    4  N5  UNL     1     -34.321  13.470  -3.534  1.00 20.00    -0.159 NA
HETATM    5  N6  UNL     1     -34.828  12.777  -4.462  1.00 20.00    -0.189 NA
ENDROOT
BRANCH   2   6
HETATM    6  C4  UNL     1     -33.460  15.747  -3.075  1.00 20.00     0.175 C 
HETATM    7 CL7  UNL     1     -34.616  16.039  -1.771  1.00 20.00    -0.124 Cl
ENDBRANCH   2   6
TORSDOF 1
ENDMDL
MODEL 4
REMARK VINA RESULT:      -3.6      2.117      3.099
REMARK  1 active torsions:
REMARK  status: ('A' for Active; 'I' for Inactive)
REMARK    1  A    between atoms: C2_2  and  C4_4 
ROOT
HETATM    1  C1  UNL     1     -33.655   5.662   2.815  1.00 20.00     0.026 A 
HETATM    2  C2  UNL     1     -34.204   5.665   4.030  1.00 20.00     0.068 A 
HETATM    3  C3  UNL     1     -32.496   6.576   2.913  1.00 20.00     0.203 A 
HETATM    4  N5  UNL     1     -33.532   6.479   4.907  1.00 20.00    -0.159 NA
HETATM    5  N6  UNL     1     -32.550   7.024   4.327  1.00 20.00    -0.189 NA
ENDROOT
BRANCH   2   6
HETATM    6  C4  UNL     1     -35.403   4.913   4.476  1.00 20.00     0.175 C 
HETATM    7 CL7  UNL     1     -35.017   4.183   6.038  1.00 20.00    -0.124 Cl
ENDBRANCH   2   6
TORSDOF 1
ENDMDL
MODEL 5
REMARK VINA RESULT:      -3.6      2.544      3.456
REMARK  1 active torsions:
REMARK  status: ('A' for Active; 'I' for Inactive)
REMARK    1  A    between atoms: C2_2  and  C4_4 
ROOT
HETATM    1  C1  UNL     1     -32.879   6.572   4.295  1.00 20.00     0.026 A 
HETATM    2  C2  UNL     1     -33.951   5.934   4.763  1.00 20.00     0.068 A 
HETATM    3  C3  UNL     1     -32.885   6.319   2.837  1.00 20.00     0.203 A 
HETATM    4  N5  UNL     1     -34.655   5.294   3.774  1.00 20.00    -0.159 NA
HETATM    5  N6  UNL     1     -34.095   5.478   2.656  1.00 20.00    -0.189 NA
ENDROOT
BRANCH   2   6
HETATM    6  C4  UNL     1     -34.410   5.865   6.173  1.00 20.00     0.175 C 
HETATM    7 CL7  UNL     1     -35.216   4.307   6.389  1.00 20.00    -0.124 Cl
ENDBRANCH   2   6
TORSDOF 1
ENDMDL
MODEL 6
REMARK VINA RESULT:      -3.3     12.083     12.576
REMARK  1 active torsions:
REMARK  status: ('A' for Active; 'I' for Inactive)
REMARK    1  A    between atoms: C2_2  and  C4_4 
ROOT
HETATM    1  C1  UNL     1     -34.441  14.826  -3.332  1.00 20.00     0.026 A 
HETATM    2  C2  UNL     1     -35.715  14.660  -3.685  1.00 20.00     0.068 A 
HETATM    3  C3  UNL     1     -33.751  13.598  -3.785  1.00 20.00     0.203 A 
HETATM    4  N5  UNL     1     -35.933  13.462  -4.316  1.00 20.00    -0.159 NA
HETATM    5  N6  UNL     1     -34.851  12.814  -4.403  1.00 20.00    -0.189 NA
ENDROOT
BRANCH   2   6
HETATM    6  C4  UNL     1     -36.839  15.603  -3.461  1.00 20.00     0.175 C 
HETATM    7 CL7  UNL     1     -38.335  14.737  -3.826  1.00 20.00    -0.124 Cl
ENDBRANCH   2   6
TORSDOF 1
ENDMDL
MODEL 7
REMARK VINA RESULT:      -3.3     12.424     13.280
REMARK  1 active torsions:
REMARK  status: ('A' for Active; 'I' for Inactive)
REMARK    1  A    between atoms: C2_2  and  C4_4 
ROOT
HETATM    1  C1  UNL     1     -34.357  15.017  -4.759  1.00 20.00     0.026 A 
HETATM    2  C2  UNL     1     -34.818  14.079  -5.586  1.00 20.00     0.068 A 
HETATM    3  C3  UNL     1     -34.081  14.310  -3.489  1.00 20.00     0.203 A 
HETATM    4  N5  UNL     1     -34.874  12.841  -4.997  1.00 20.00    -0.159 NA
HETATM    5  N6  UNL     1     -34.466  12.911  -3.802  1.00 20.00    -0.189 NA
ENDROOT
BRANCH   2   6
HETATM    6  C4  UNL     1     -35.248  14.256  -6.995  1.00 20.00     0.175 C 
HETATM    7 CL7  UNL     1     -34.679  15.843  -7.525  1.00 20.00    -0.124 Cl
ENDBRANCH   2   6
TORSDOF 1
ENDMDL
MODEL 8
REMARK VINA RESULT:      -3.2      9.995     10.249
REMARK  1 active torsions:
REMARK  status: ('A' for Active; 'I' for Inactive)
REMARK    1  A    between atoms: C2_2  and  C4_4 
ROOT
HETATM    1  C1  UNL     1     -41.384   4.742  -0.611  1.00 20.00     0.026 A 
HETATM    2  C2  UNL     1     -41.799   4.989  -1.853  1.00 20.00     0.068 A 
HETATM    3  C3  UNL     1     -40.734   5.994  -0.165  1.00 20.00     0.203 A 
HETATM    4  N5  UNL     1     -41.491   6.261  -2.267  1.00 20.00    -0.159 NA
HETATM    5  N6  UNL     1     -40.884   6.880  -1.346  1.00 20.00    -0.189 NA
ENDROOT
BRANCH   2   6
HETATM    6  C4  UNL     1     -42.515   4.060  -2.762  1.00 20.00     0.175 C 
HETATM    7 CL7  UNL     1     -41.438   2.695  -3.077  1.00 20.00    -0.124 Cl
ENDBRANCH   2   6
TORSDOF 1
ENDMDL
MODEL 9
REMARK VINA RESULT:      -3.1     10.403     10.607
REMARK  1 active torsions:
REMARK  status: ('A' for Active; 'I' for Inactive)
REMARK    1  A    between atoms: C2_2  and  C4_4 
ROOT
HETATM    1  C1  UNL     1     -41.955   4.578  -2.178  1.00 20.00     0.026 A 
HETATM    2  C2  UNL     1     -42.086   5.880  -2.432  1.00 20.00     0.068 A 
HETATM    3  C3  UNL     1     -40.881   4.488  -1.166  1.00 20.00     0.203 A 
HETATM    4  N5  UNL     1     -41.216   6.648  -1.700  1.00 20.00    -0.159 NA
HETATM    5  N6  UNL     1     -40.504   5.909  -0.960  1.00 20.00    -0.189 NA
ENDROOT
BRANCH   2   6
HETATM    6  C4  UNL     1     -43.030   6.520  -3.382  1.00 20.00     0.175 C 
HETATM    7 CL7  UNL     1     -42.319   8.060  -3.877  1.00 20.00    -0.124 Cl
ENDBRANCH   2   6
TORSDOF 1
ENDMDL
