MODEL 1
REMARK VINA RESULT:      -4.2      0.000      0.000
REMARK  1 active torsions:
REMARK  status: ('A' for Active; 'I' for Inactive)
REMARK    1  A    between atoms: C1_1  and  C4_4 
ROOT
HETATM    1  C2  UNL     1     -34.063  13.812  -3.543  1.00 20.00     0.038 C 
HETATM    2  C3  UNL     1     -34.581  13.317  -4.879  1.00 20.00     0.169 C 
HETATM    3  C4  UNL     1     -35.710  15.298  -4.362  1.00 20.00     0.190 C 
HETATM    4  C5  UNL     1     -34.396  15.298  -3.573  1.00 20.00    -0.013 C 
HETATM    5  C6  UNL     1     -33.320  16.072  -4.361  1.00 20.00     0.018 C 
HETATM    6  C7  UNL     1     -34.493  15.901  -2.169  1.00 20.00     0.018 C 
HETATM    7  O9  UNL     1     -35.667  14.176  -5.257  1.00 20.00    -0.378 OA
ENDROOT
BRANCH   3   8
HETATM    8  C1  UNL     1     -36.941  15.065  -3.540  1.00 20.00     0.263 C 
HETATM    9  O8  UNL     1     -37.747  14.170  -3.768  1.00 20.00    -0.304 OA
ENDBRANCH   3   8
TORSDOF 1
ENDMDL
MODEL 2
REMARK VINA RESULT:      -4.0      1.556      2.574
REMARK  1 active torsions:
REMARK  status: ('A' for Active; 'I' for Inactive)
REMARK    1  A    between atoms: C1_1  and  C4_4 
ROOT
HETATM    1  C2  UNL     1     -33.309  16.494  -4.932  1.00 20.00     0.038 C 
HETATM    2  C3  UNL     1     -34.707  16.901  -5.351  1.00 20.00     0.169 C 
HETATM    3  C4  UNL     1     -34.870  14.887  -4.173  1.00 20.00     0.190 C 
HETATM    4  C5  UNL     1     -33.559  15.562  -3.753  1.00 20.00    -0.013 C 
HETATM    5  C6  UNL     1     -33.788  16.378  -2.465  1.00 20.00     0.018 C 
HETATM    6  C7  UNL     1     -32.393  14.599  -3.513  1.00 20.00     0.018 C 
HETATM    7  O9  UNL     1     -35.588  15.827  -4.987  1.00 20.00    -0.378 OA
ENDROOT
BRANCH   3   8
HETATM    8  C1  UNL     1     -34.708  13.686  -5.054  1.00 20.00     0.263 C 
HETATM    9  O8  UNL     1     -34.945  12.541  -4.687  1.00 20.00    -0.304 OA
ENDBRANCH   3   8
TORSDOF 1
ENDMDL
MODEL 3
REMARK VINA RESULT:      -3.9      1.353      1.871
REMARK  1 active torsions:
REMARK  status: ('A' for Active; 'I' for Inactive)
REMARK    1  A    between atoms: C1_1  and  C4_4 
ROOT
HETATM    1  C2  UNL     1     -33.779  14.964  -4.317  1.00 20.00     0.038 C 
HETATM    2  C3  UNL     1     -33.781  13.470  -4.059  1.00 20.00     0.169 C 
HETATM    3  C4  UNL     1     -35.890  14.059  -4.878  1.00 20.00     0.190 C 
HETATM    4  C5  UNL     1     -34.903  15.141  -5.330  1.00 20.00    -0.013 C 
HETATM    5  C6  UNL     1     -34.398  14.819  -6.751  1.00 20.00     0.018 C 
HETATM    6  C7  UNL     1     -35.469  16.563  -5.329  1.00 20.00     0.018 C 
HETATM    7  O9  UNL     1     -35.119  13.003  -4.283  1.00 20.00    -0.378 OA
ENDROOT
BRANCH   3   8
HETATM    8  C1  UNL     1     -36.836  14.479  -3.794  1.00 20.00     0.263 C 
HETATM    9  O8  UNL     1     -38.027  14.191  -3.787  1.00 20.00    -0.304 OA
ENDBRANCH   3   8
TORSDOF 1
ENDMDL
MODEL 4
REMARK VINA RESULT:      -3.9      1.298      2.593
REMARK  1 active torsions:
REMARK  status: ('A' for Active; 'I' for Inactive)
REMARK    1  A    between atoms: C1_1  and  C4_4 
ROOT
HETATM    1  C2  UNL     1     -34.945  16.821  -4.237  1.00 20.00     0.038 C 
HETATM    2  C3  UNL     1     -36.453  16.677  -4.177  1.00 20.00     0.169 C 
HETATM    3  C4  UNL     1     -35.511  14.649  -3.491  1.00 20.00     0.190 C 
HETATM    4  C5  UNL     1     -34.456  15.741  -3.280  1.00 20.00    -0.013 C 
HETATM    5  C6  UNL     1     -34.521  16.248  -1.825  1.00 20.00     0.018 C 
HETATM    6  C7  UNL     1     -33.018  15.308  -3.577  1.00 20.00     0.018 C 
HETATM    7  O9  UNL     1     -36.734  15.307  -3.854  1.00 20.00    -0.378 OA
ENDROOT
BRANCH   3   8
HETATM    8  C1  UNL     1     -35.238  13.721  -4.635  1.00 20.00     0.263 C 
HETATM    9  O8  UNL     1     -35.012  12.524  -4.496  1.00 20.00    -0.304 OA
ENDBRANCH   3   8
TORSDOF 1
ENDMDL
MODEL 5
REMARK VINA RESULT:      -3.9      1.631      2.899
REMARK  1 active torsions:
REMARK  status: ('A' for Active; 'I' for Inactive)
REMARK    1  A    between atoms: C1_1  and  C4_4 
ROOT
HETATM    1  C2  UNL     1     -35.722  16.199  -4.621  1.00 20.00     0.038 C 
HETATM    2  C3  UNL     1     -35.564  15.836  -3.158  1.00 20.00     0.169 C 
HETATM    3  C4  UNL     1     -33.910  14.702  -4.361  1.00 20.00     0.190 C 
HETATM    4  C5  UNL     1     -34.343  15.909  -5.201  1.00 20.00    -0.013 C 
HETATM    5  C6  UNL     1     -33.392  17.093  -4.934  1.00 20.00     0.018 C 
HETATM    6  C7  UNL     1     -34.387  15.656  -6.710  1.00 20.00     0.018 C 
HETATM    7  O9  UNL     1     -34.547  14.827  -3.080  1.00 20.00    -0.378 OA
ENDROOT
BRANCH   3   8
HETATM    8  C1  UNL     1     -34.376  13.375  -4.875  1.00 20.00     0.263 C 
HETATM    9  O8  UNL     1     -35.135  12.638  -4.256  1.00 20.00    -0.304 OA
ENDBRANCH   3   8
TORSDOF 1
ENDMDL
MODEL 6
REMARK VINA RESULT:      -3.8      1.466      2.215
REMARK  1 active torsions:
REMARK  status: ('A' for Active; 'I' for Inactive)
REMARK    1  A    between atoms: C1_1  and  C4_4 
ROOT
HETATM    1  C2  UNL     1     -33.334  16.340  -4.978  1.00 20.00     0.038 C 
HETATM    2  C3  UNL     1     -34.057  15.855  -6.218  1.00 20.00     0.169 C 
HETATM    3  C4  UNL     1     -35.219  15.055  -4.354  1.00 20.00     0.190 C 
HETATM    4  C5  UNL     1     -34.413  16.279  -3.904  1.00 20.00    -0.013 C 
HETATM    5  C6  UNL     1     -35.304  17.536  -3.968  1.00 20.00     0.018 C 
HETATM    6  C7  UNL     1     -33.826  16.175  -2.494  1.00 20.00     0.018 C 
HETATM    7  O9  UNL     1     -35.102  14.973  -5.782  1.00 20.00    -0.378 OA
ENDROOT
BRANCH   3   8
HETATM    8  C1  UNL     1     -34.695  13.739  -3.865  1.00 20.00     0.263 C 
HETATM    9  O8  UNL     1     -34.979  12.664  -4.382  1.00 20.00    -0.304 OA
ENDBRANCH   3   8
TORSDOF 1
ENDMDL
MODEL 7
REMARK VINA RESULT:      -3.7      1.333      2.149
REMARK  1 active torsions:
REMARK  status: ('A' for Active; 'I' for Inactive)
REMARK    1  A    between atoms: C1_1  and  C4_4 
ROOT
HETATM    1  C2  UNL     1     -34.322  15.946  -4.977  1.00 20.00     0.038 C 
HETATM    2  C3  UNL     1     -35.296  17.107  -5.019  1.00 20.00     0.169 C 
HETATM    3  C4  UNL     1     -36.092  15.561  -3.456  1.00 20.00     0.190 C 
HETATM    4  C5  UNL     1     -34.586  15.324  -3.611  1.00 20.00    -0.013 C 
HETATM    5  C6  UNL     1     -33.825  16.098  -2.516  1.00 20.00     0.018 C 
HETATM    6  C7  UNL     1     -34.160  13.855  -3.549  1.00 20.00     0.018 C 
HETATM    7  O9  UNL     1     -36.410  16.756  -4.186  1.00 20.00    -0.378 OA
ENDROOT
BRANCH   3   8
HETATM    8  C1  UNL     1     -36.964  14.510  -4.073  1.00 20.00     0.263 C 
HETATM    9  O8  UNL     1     -38.086  14.237  -3.664  1.00 20.00    -0.304 OA
ENDBRANCH   3   8
TORSDOF 1
ENDMDL
MODEL 8
REMARK VINA RESULT:      -3.7      1.565      2.861
REMARK  1 active torsions:
REMARK  status: ('A' for Active; 'I' for Inactive)
REMARK    1  A    between atoms: C1_1  and  C4_4 
ROOT
HETATM    1  C2  UNL     1     -35.173  16.077  -2.294  1.00 20.00     0.038 C 
HETATM    2  C3  UNL     1     -33.689  16.255  -2.547  1.00 20.00     0.169 C 
HETATM    3  C4  UNL     1     -34.559  14.946  -4.278  1.00 20.00     0.190 C 
HETATM    4  C5  UNL     1     -35.721  15.744  -3.676  1.00 20.00    -0.013 C 
HETATM    5  C6  UNL     1     -35.939  17.035  -4.490  1.00 20.00     0.018 C 
HETATM    6  C7  UNL     1     -37.050  14.986  -3.608  1.00 20.00     0.018 C 
HETATM    7  O9  UNL     1     -33.351  15.438  -3.677  1.00 20.00    -0.378 OA
ENDROOT
BRANCH   3   8
HETATM    8  C1  UNL     1     -34.562  13.483  -3.953  1.00 20.00     0.263 C 
HETATM    9  O8  UNL     1     -34.754  12.606  -4.787  1.00 20.00    -0.304 OA
ENDBRANCH   3   8
TORSDOF 1
ENDMDL
MODEL 9
REMARK VINA RESULT:      -3.7      1.384      2.480
REMARK  1 active torsions:
REMARK  status: ('A' for Active; 'I' for Inactive)
REMARK    1  A    between atoms: C1_1  and  C4_4 
ROOT
HETATM    1  C2  UNL     1     -33.969  16.005  -4.518  1.00 20.00     0.038 C 
HETATM    2  C3  UNL     1     -34.151  16.612  -3.142  1.00 20.00     0.169 C 
HETATM    3  C4  UNL     1     -35.510  14.714  -3.272  1.00 20.00     0.190 C 
HETATM    4  C5  UNL     1     -34.399  14.557  -4.317  1.00 20.00    -0.013 C 
HETATM    5  C6  UNL     1     -33.240  13.735  -3.719  1.00 20.00     0.018 C 
HETATM    6  C7  UNL     1     -34.839  13.893  -5.624  1.00 20.00     0.018 C 
HETATM    7  O9  UNL     1     -35.192  15.873  -2.486  1.00 20.00    -0.378 OA
ENDROOT
BRANCH   3   8
HETATM    8  C1  UNL     1     -36.867  15.011  -3.833  1.00 20.00     0.263 C 
HETATM    9  O8  UNL     1     -37.823  14.250  -3.728  1.00 20.00    -0.304 OA
ENDBRANCH   3   8
TORSDOF 1
ENDMDL
