MODEL 1
REMARK VINA RESULT:      -5.5      0.000      0.000
REMARK  1 active torsions:
REMARK  status: ('A' for Active; 'I' for Inactive)
REMARK    1  A    between atoms: C1_1  and  C4_4 
ROOT
HETATM    1  C2  UNL     1     -34.258   5.541   3.514  1.00 20.00     0.026 C 
HETATM    2  C3  UNL     1     -33.386   6.600   5.543  1.00 20.00     0.026 C 
HETATM    3  C4  UNL     1     -32.966   6.039   4.178  1.00 20.00     0.088 C 
HETATM    4  C5  UNL     1     -35.202   5.254   4.644  1.00 20.00     0.069 A 
HETATM    5  C6  UNL     1     -34.669   5.902   5.885  1.00 20.00     0.069 A 
HETATM    6  C7  UNL     1     -34.808   4.421   5.813  1.00 20.00     0.252 A 
HETATM    7  F10 UNL     1     -33.704   3.601   5.767  1.00 20.00    -0.205 F 
HETATM    8  F11 UNL     1     -35.767   3.776   6.561  1.00 20.00    -0.205 F 
ENDROOT
BRANCH   3   9
HETATM    9  C1  UNL     1     -32.299   7.106   3.335  1.00 20.00     0.177 C 
HETATM   10  O8  UNL     1     -32.850   7.335   2.222  1.00 20.00    -0.648 OA
HETATM   11  O9  UNL     1     -31.276   7.631   3.857  1.00 20.00    -0.648 OA
ENDBRANCH   3   9
TORSDOF 1
ENDMDL
MODEL 2
REMARK VINA RESULT:      -4.9      3.427      4.377
REMARK  1 active torsions:
REMARK  status: ('A' for Active; 'I' for Inactive)
REMARK    1  A    between atoms: C1_1  and  C4_4 
ROOT
HETATM    1  C2  UNL     1     -33.814   5.380   2.949  1.00 20.00     0.026 C 
HETATM    2  C3  UNL     1     -33.014   6.610   4.910  1.00 20.00     0.026 C 
HETATM    3  C4  UNL     1     -34.277   6.028   4.261  1.00 20.00     0.088 C 
HETATM    4  C5  UNL     1     -32.544   6.089   2.581  1.00 20.00     0.069 A 
HETATM    5  C6  UNL     1     -32.055   6.841   3.780  1.00 20.00     0.069 A 
HETATM    6  C7  UNL     1     -32.448   7.574   2.545  1.00 20.00     0.252 A 
HETATM    7  F10 UNL     1     -33.575   8.363   2.510  1.00 20.00    -0.205 F 
HETATM    8  F11 UNL     1     -31.492   8.189   1.769  1.00 20.00    -0.205 F 
ENDROOT
BRANCH   3   9
HETATM    9  C1  UNL     1     -34.932   5.007   5.169  1.00 20.00     0.177 C 
HETATM   10  O8  UNL     1     -35.288   3.935   4.605  1.00 20.00    -0.648 OA
HETATM   11  O9  UNL     1     -35.035   5.361   6.377  1.00 20.00    -0.648 OA
ENDBRANCH   3   9
TORSDOF 1
ENDMDL
MODEL 3
REMARK VINA RESULT:      -4.9     12.371     13.157
REMARK  1 active torsions:
REMARK  status: ('A' for Active; 'I' for Inactive)
REMARK    1  A    between atoms: C1_1  and  C4_4 
ROOT
HETATM    1  C2  UNL     1     -35.998  16.835  -3.151  1.00 20.00     0.026 C 
HETATM    2  C3  UNL     1     -34.499  14.898  -3.159  1.00 20.00     0.026 C 
HETATM    3  C4  UNL     1     -35.976  15.303  -3.054  1.00 20.00     0.088 C 
HETATM    4  C5  UNL     1     -34.639  17.282  -2.700  1.00 20.00     0.069 A 
HETATM    5  C6  UNL     1     -33.723  16.098  -2.705  1.00 20.00     0.069 A 
HETATM    6  C7  UNL     1     -34.029  16.802  -1.429  1.00 20.00     0.252 A 
HETATM    7  F10 UNL     1     -34.791  16.209  -0.449  1.00 20.00    -0.205 F 
HETATM    8  F11 UNL     1     -33.060  17.550  -0.799  1.00 20.00    -0.205 F 
ENDROOT
BRANCH   3   9
HETATM    9  C1  UNL     1     -36.791  14.677  -4.168  1.00 20.00     0.177 C 
HETATM   10  O8  UNL     1     -36.286  14.770  -5.322  1.00 20.00    -0.648 OA
HETATM   11  O9  UNL     1     -37.871  14.140  -3.796  1.00 20.00    -0.648 OA
ENDBRANCH   3   9
TORSDOF 1
ENDMDL
MODEL 4
REMARK VINA RESULT:      -4.8     12.110     12.973
REMARK  1 active torsions:
REMARK  status: ('A' for Active; 'I' for Inactive)
REMARK    1  A    between atoms: C1_1  and  C4_4 
ROOT
HETATM    1  C2  UNL     1     -35.787  15.781  -3.464  1.00 20.00     0.026 C 
HETATM    2  C3  UNL     1     -33.354  15.533  -3.329  1.00 20.00     0.026 C 
HETATM    3  C4  UNL     1     -34.666  14.737  -3.368  1.00 20.00     0.088 C 
HETATM    4  C5  UNL     1     -35.212  17.039  -2.882  1.00 20.00     0.069 A 
HETATM    5  C6  UNL     1     -33.725  16.887  -2.800  1.00 20.00     0.069 A 
HETATM    6  C7  UNL     1     -34.530  17.059  -1.559  1.00 20.00     0.252 A 
HETATM    7  F10 UNL     1     -34.685  16.030  -0.659  1.00 20.00    -0.205 F 
HETATM    8  F11 UNL     1     -34.452  18.228  -0.837  1.00 20.00    -0.205 F 
ENDROOT
BRANCH   3   9
HETATM    9  C1  UNL     1     -34.695  13.798  -4.556  1.00 20.00     0.177 C 
HETATM   10  O8  UNL     1     -35.046  12.613  -4.297  1.00 20.00    -0.648 OA
HETATM   11  O9  UNL     1     -34.366  14.324  -5.656  1.00 20.00    -0.648 OA
ENDBRANCH   3   9
TORSDOF 1
ENDMDL
MODEL 5
REMARK VINA RESULT:      -4.8     12.249     13.206
REMARK  1 active torsions:
REMARK  status: ('A' for Active; 'I' for Inactive)
REMARK    1  A    between atoms: C1_1  and  C4_4 
ROOT
HETATM    1  C2  UNL     1     -35.443  13.649  -4.489  1.00 20.00     0.026 C 
HETATM    2  C3  UNL     1     -35.639  15.736  -3.221  1.00 20.00     0.026 C 
HETATM    3  C4  UNL     1     -36.106  15.034  -4.504  1.00 20.00     0.088 C 
HETATM    4  C5  UNL     1     -34.222  13.801  -3.629  1.00 20.00     0.069 A 
HETATM    5  C6  UNL     1     -34.343  15.077  -2.854  1.00 20.00     0.069 A 
HETATM    6  C7  UNL     1     -33.239  14.899  -3.838  1.00 20.00     0.252 A 
HETATM    7  F10 UNL     1     -33.205  15.615  -5.012  1.00 20.00    -0.205 F 
HETATM    8  F11 UNL     1     -31.939  14.758  -3.406  1.00 20.00    -0.205 F 
ENDROOT
BRANCH   3   9
HETATM    9  C1  UNL     1     -37.616  14.912  -4.537  1.00 20.00     0.177 C 
HETATM   10  O8  UNL     1     -38.181  15.483  -5.512  1.00 20.00    -0.648 OA
HETATM   11  O9  UNL     1     -38.115  14.251  -3.584  1.00 20.00    -0.648 OA
ENDBRANCH   3   9
TORSDOF 1
ENDMDL
MODEL 6
REMARK VINA RESULT:      -4.7     13.174     14.450
REMARK  1 active torsions:
REMARK  status: ('A' for Active; 'I' for Inactive)
REMARK    1  A    between atoms: C1_1  and  C4_4 
ROOT
HETATM    1  C2  UNL     1     -34.594  14.942  -6.150  1.00 20.00     0.026 C 
HETATM    2  C3  UNL     1     -33.386  15.788  -4.195  1.00 20.00     0.026 C 
HETATM    3  C4  UNL     1     -34.506  14.829  -4.622  1.00 20.00     0.088 C 
HETATM    4  C5  UNL     1     -34.039  16.296  -6.482  1.00 20.00     0.069 A 
HETATM    5  C6  UNL     1     -33.300  16.813  -5.287  1.00 20.00     0.069 A 
HETATM    6  C7  UNL     1     -34.502  17.532  -5.794  1.00 20.00     0.252 A 
HETATM    7  F10 UNL     1     -35.676  17.555  -5.079  1.00 20.00    -0.205 F 
HETATM    8  F11 UNL     1     -34.370  18.758  -6.407  1.00 20.00    -0.205 F 
ENDROOT
BRANCH   3   9
HETATM    9  C1  UNL     1     -34.192  13.408  -4.200  1.00 20.00     0.177 C 
HETATM   10  O8  UNL     1     -35.106  12.566  -4.424  1.00 20.00    -0.648 OA
HETATM   11  O9  UNL     1     -33.053  13.249  -3.680  1.00 20.00    -0.648 OA
ENDBRANCH   3   9
TORSDOF 1
ENDMDL
MODEL 7
REMARK VINA RESULT:      -4.7     12.168     12.881
REMARK  1 active torsions:
REMARK  status: ('A' for Active; 'I' for Inactive)
REMARK    1  A    between atoms: C1_1  and  C4_4 
ROOT
HETATM    1  C2  UNL     1     -33.353  16.244  -4.184  1.00 20.00     0.026 C 
HETATM    2  C3  UNL     1     -34.920  15.383  -2.510  1.00 20.00     0.026 C 
HETATM    3  C4  UNL     1     -33.599  16.147  -2.672  1.00 20.00     0.088 C 
HETATM    4  C5  UNL     1     -34.109  15.095  -4.785  1.00 20.00     0.069 A 
HETATM    5  C6  UNL     1     -35.067  14.569  -3.761  1.00 20.00     0.069 A 
HETATM    6  C7  UNL     1     -33.970  13.703  -4.275  1.00 20.00     0.252 A 
HETATM    7  F10 UNL     1     -32.912  13.337  -3.475  1.00 20.00    -0.205 F 
HETATM    8  F11 UNL     1     -34.255  12.633  -5.093  1.00 20.00    -0.205 F 
ENDROOT
BRANCH   3   9
HETATM    9  C1  UNL     1     -33.689  17.525  -2.048  1.00 20.00     0.177 C 
HETATM   10  O8  UNL     1     -33.868  18.474  -2.861  1.00 20.00    -0.648 OA
HETATM   11  O9  UNL     1     -33.575  17.545  -0.790  1.00 20.00    -0.648 OA
ENDBRANCH   3   9
TORSDOF 1
ENDMDL
MODEL 8
REMARK VINA RESULT:      -4.7     12.332     13.159
REMARK  1 active torsions:
REMARK  status: ('A' for Active; 'I' for Inactive)
REMARK    1  A    between atoms: C1_1  and  C4_4 
ROOT
HETATM    1  C2  UNL     1     -35.507  15.235  -2.898  1.00 20.00     0.026 C 
HETATM    2  C3  UNL     1     -35.125  14.917  -5.296  1.00 20.00     0.026 C 
HETATM    3  C4  UNL     1     -36.016  14.471  -4.128  1.00 20.00     0.088 C 
HETATM    4  C5  UNL     1     -34.076  15.572  -3.201  1.00 20.00     0.069 A 
HETATM    5  C6  UNL     1     -33.843  15.377  -4.668  1.00 20.00     0.069 A 
HETATM    6  C7  UNL     1     -33.105  14.548  -3.675  1.00 20.00     0.252 A 
HETATM    7  F10 UNL     1     -33.360  13.203  -3.536  1.00 20.00    -0.205 F 
HETATM    8  F11 UNL     1     -31.754  14.732  -3.484  1.00 20.00    -0.205 F 
ENDROOT
BRANCH   3   9
HETATM    9  C1  UNL     1     -37.470  14.792  -4.403  1.00 20.00     0.177 C 
HETATM   10  O8  UNL     1     -38.295  14.299  -3.583  1.00 20.00    -0.648 OA
HETATM   11  O9  UNL     1     -37.671  15.515  -5.418  1.00 20.00    -0.648 OA
ENDBRANCH   3   9
TORSDOF 1
ENDMDL
MODEL 9
REMARK VINA RESULT:      -4.6      3.263      4.273
REMARK  1 active torsions:
REMARK  status: ('A' for Active; 'I' for Inactive)
REMARK    1  A    between atoms: C1_1  and  C4_4 
ROOT
HETATM    1  C2  UNL     1     -33.549   6.568   5.309  1.00 20.00     0.026 C 
HETATM    2  C3  UNL     1     -34.521   5.272   3.472  1.00 20.00     0.026 C 
HETATM    3  C4  UNL     1     -33.958   5.148   4.894  1.00 20.00     0.088 C 
HETATM    4  C5  UNL     1     -33.300   7.302   4.023  1.00 20.00     0.069 A 
HETATM    5  C6  UNL     1     -33.895   6.510   2.901  1.00 20.00     0.069 A 
HETATM    6  C7  UNL     1     -32.426   6.750   2.953  1.00 20.00     0.252 A 
HETATM    7  F10 UNL     1     -31.542   5.727   3.208  1.00 20.00    -0.205 F 
HETATM    8  F11 UNL     1     -31.828   7.592   2.042  1.00 20.00    -0.205 F 
ENDROOT
BRANCH   3   9
HETATM    9  C1  UNL     1     -34.996   4.584   5.842  1.00 20.00     0.177 C 
HETATM   10  O8  UNL     1     -35.452   3.449   5.528  1.00 20.00    -0.648 OA
HETATM   11  O9  UNL     1     -35.271   5.324   6.828  1.00 20.00    -0.648 OA
ENDBRANCH   3   9
TORSDOF 1
ENDMDL
