MODEL 1
REMARK VINA RESULT:      -4.5      0.000      0.000
REMARK  0 active torsions:
REMARK  status: ('A' for Active; 'I' for Inactive)
ROOT
HETATM    1  C1  UNL     1     -34.431  16.829  -0.827  1.00 20.00     0.013 C 
HETATM    2  C2  UNL     1     -34.522  16.250  -1.874  1.00 20.00    -0.107 C 
HETATM    3  C3  UNL     1     -36.059  14.956  -3.303  1.00 20.00     0.048 C 
HETATM    4  C4  UNL     1     -33.615  14.377  -3.195  1.00 20.00     0.048 C 
HETATM    5  C5  UNL     1     -36.171  13.954  -4.448  1.00 20.00     0.169 C 
HETATM    6  C6  UNL     1     -33.869  13.409  -4.347  1.00 20.00     0.169 C 
HETATM    7  C7  UNL     1     -34.635  15.534  -3.166  1.00 20.00     0.023 C 
HETATM    8  C8  UNL     1     -34.347  16.542  -4.295  1.00 20.00     0.029 C 
HETATM    9  O9  UNL     1     -35.206  12.914  -4.308  1.00 20.00    -0.391 OA
ENDROOT
TORSDOF 0
ENDMDL
MODEL 2
REMARK VINA RESULT:      -4.5      1.334      1.834
REMARK  0 active torsions:
REMARK  status: ('A' for Active; 'I' for Inactive)
ROOT
HETATM    1  C1  UNL     1     -34.663  16.411  -1.340  1.00 20.00     0.013 C 
HETATM    2  C2  UNL     1     -34.369  15.849  -2.359  1.00 20.00    -0.107 C 
HETATM    3  C3  UNL     1     -34.401  16.043  -4.816  1.00 20.00     0.048 C 
HETATM    4  C4  UNL     1     -34.780  13.823  -3.700  1.00 20.00     0.048 C 
HETATM    5  C5  UNL     1     -34.347  15.286  -6.140  1.00 20.00     0.169 C 
HETATM    6  C6  UNL     1     -34.705  13.195  -5.089  1.00 20.00     0.169 C 
HETATM    7  C7  UNL     1     -34.008  15.155  -3.616  1.00 20.00     0.023 C 
HETATM    8  C8  UNL     1     -32.489  14.903  -3.601  1.00 20.00     0.029 C 
HETATM    9  O9  UNL     1     -35.153  14.111  -6.085  1.00 20.00    -0.391 OA
ENDROOT
TORSDOF 0
ENDMDL
MODEL 3
REMARK VINA RESULT:      -4.3     11.253     12.996
REMARK  0 active torsions:
REMARK  status: ('A' for Active; 'I' for Inactive)
ROOT
HETATM    1  C1  UNL     1     -41.730   2.020  -3.479  1.00 20.00     0.013 C 
HETATM    2  C2  UNL     1     -41.855   2.984  -2.774  1.00 20.00    -0.107 C 
HETATM    3  C3  UNL     1     -42.355   5.398  -2.778  1.00 20.00     0.048 C 
HETATM    4  C4  UNL     1     -40.682   4.438  -1.166  1.00 20.00     0.048 C 
HETATM    5  C5  UNL     1     -42.231   6.711  -2.011  1.00 20.00     0.169 C 
HETATM    6  C6  UNL     1     -40.655   5.807  -0.493  1.00 20.00     0.169 C 
HETATM    7  C7  UNL     1     -42.010   4.173  -1.905  1.00 20.00     0.023 C 
HETATM    8  C8  UNL     1     -43.143   3.885  -0.902  1.00 20.00     0.029 C 
HETATM    9  O9  UNL     1     -40.934   6.841  -1.434  1.00 20.00    -0.391 OA
ENDROOT
TORSDOF 0
ENDMDL
MODEL 4
REMARK VINA RESULT:      -4.2      1.305      2.057
REMARK  0 active torsions:
REMARK  status: ('A' for Active; 'I' for Inactive)
ROOT
HETATM    1  C1  UNL     1     -34.520  16.466  -1.194  1.00 20.00     0.013 C 
HETATM    2  C2  UNL     1     -34.878  15.950  -2.217  1.00 20.00    -0.107 C 
HETATM    3  C3  UNL     1     -34.596  13.960  -3.643  1.00 20.00     0.048 C 
HETATM    4  C4  UNL     1     -34.953  16.228  -4.664  1.00 20.00     0.048 C 
HETATM    5  C5  UNL     1     -34.755  13.383  -5.047  1.00 20.00     0.169 C 
HETATM    6  C6  UNL     1     -35.092  15.520  -6.009  1.00 20.00     0.169 C 
HETATM    7  C7  UNL     1     -35.319  15.312  -3.478  1.00 20.00     0.023 C 
HETATM    8  C8  UNL     1     -36.844  15.107  -3.400  1.00 20.00     0.029 C 
HETATM    9  O9  UNL     1     -34.323  14.320  -6.031  1.00 20.00    -0.391 OA
ENDROOT
TORSDOF 0
ENDMDL
MODEL 5
REMARK VINA RESULT:      -4.0      1.147      2.555
REMARK  0 active torsions:
REMARK  status: ('A' for Active; 'I' for Inactive)
ROOT
HETATM    1  C1  UNL     1     -33.653  18.292  -4.633  1.00 20.00     0.013 C 
HETATM    2  C2  UNL     1     -33.872  17.191  -4.209  1.00 20.00    -0.107 C 
HETATM    3  C3  UNL     1     -32.852  14.990  -3.771  1.00 20.00     0.048 C 
HETATM    4  C4  UNL     1     -35.236  15.166  -4.548  1.00 20.00     0.048 C 
HETATM    5  C5  UNL     1     -33.112  13.505  -3.544  1.00 20.00     0.169 C 
HETATM    6  C6  UNL     1     -35.358  13.670  -4.276  1.00 20.00     0.169 C 
HETATM    7  C7  UNL     1     -34.143  15.832  -3.687  1.00 20.00     0.023 C 
HETATM    8  C8  UNL     1     -34.608  15.968  -2.225  1.00 20.00     0.029 C 
HETATM    9  O9  UNL     1     -34.101  13.019  -4.449  1.00 20.00    -0.391 OA
ENDROOT
TORSDOF 0
ENDMDL
MODEL 6
REMARK VINA RESULT:      -4.0      2.018      2.751
REMARK  0 active torsions:
REMARK  status: ('A' for Active; 'I' for Inactive)
ROOT
HETATM    1  C1  UNL     1     -34.786  17.018  -0.040  1.00 20.00     0.013 C 
HETATM    2  C2  UNL     1     -34.735  16.848  -1.227  1.00 20.00    -0.107 C 
HETATM    3  C3  UNL     1     -33.899  15.334  -2.984  1.00 20.00     0.048 C 
HETATM    4  C4  UNL     1     -33.924  17.822  -3.341  1.00 20.00     0.048 C 
HETATM    5  C5  UNL     1     -33.523  15.200  -4.456  1.00 20.00     0.169 C 
HETATM    6  C6  UNL     1     -33.546  17.543  -4.793  1.00 20.00     0.169 C 
HETATM    7  C7  UNL     1     -34.670  16.638  -2.692  1.00 20.00     0.023 C 
HETATM    8  C8  UNL     1     -36.113  16.547  -3.224  1.00 20.00     0.029 C 
HETATM    9  O9  UNL     1     -32.789  16.339  -4.898  1.00 20.00    -0.391 OA
ENDROOT
TORSDOF 0
ENDMDL
MODEL 7
REMARK VINA RESULT:      -4.0     12.192     13.665
REMARK  0 active torsions:
REMARK  status: ('A' for Active; 'I' for Inactive)
ROOT
HETATM    1  C1  UNL     1     -41.504   2.066  -3.606  1.00 20.00     0.013 C 
HETATM    2  C2  UNL     1     -41.789   2.986  -2.890  1.00 20.00    -0.107 C 
HETATM    3  C3  UNL     1     -40.883   4.567  -1.230  1.00 20.00     0.048 C 
HETATM    4  C4  UNL     1     -43.218   3.665  -1.001  1.00 20.00     0.048 C 
HETATM    5  C5  UNL     1     -41.216   5.516  -0.083  1.00 20.00     0.169 C 
HETATM    6  C6  UNL     1     -43.416   4.668   0.133  1.00 20.00     0.169 C 
HETATM    7  C7  UNL     1     -42.140   4.121  -2.006  1.00 20.00     0.023 C 
HETATM    8  C8  UNL     1     -42.668   5.266  -2.889  1.00 20.00     0.029 C 
HETATM    9  O9  UNL     1     -42.180   4.937   0.792  1.00 20.00    -0.391 OA
ENDROOT
TORSDOF 0
ENDMDL
MODEL 8
REMARK VINA RESULT:      -3.9      1.576      2.563
REMARK  0 active torsions:
REMARK  status: ('A' for Active; 'I' for Inactive)
ROOT
HETATM    1  C1  UNL     1     -34.581  16.453  -1.118  1.00 20.00     0.013 C 
HETATM    2  C2  UNL     1     -34.607  15.982  -2.222  1.00 20.00    -0.107 C 
HETATM    3  C3  UNL     1     -33.764  16.257  -4.521  1.00 20.00     0.048 C 
HETATM    4  C4  UNL     1     -36.093  15.409  -4.103  1.00 20.00     0.048 C 
HETATM    5  C5  UNL     1     -33.982  15.915  -5.992  1.00 20.00     0.169 C 
HETATM    6  C6  UNL     1     -36.176  15.116  -5.599  1.00 20.00     0.169 C 
HETATM    7  C7  UNL     1     -34.640  15.401  -3.583  1.00 20.00     0.023 C 
HETATM    8  C8  UNL     1     -34.100  13.961  -3.500  1.00 20.00     0.029 C 
HETATM    9  O9  UNL     1     -35.361  16.022  -6.339  1.00 20.00    -0.391 OA
ENDROOT
TORSDOF 0
ENDMDL
MODEL 9
REMARK VINA RESULT:      -3.9      2.091      3.862
REMARK  0 active torsions:
REMARK  status: ('A' for Active; 'I' for Inactive)
ROOT
HETATM    1  C1  UNL     1     -35.878  14.469  -7.918  1.00 20.00     0.013 C 
HETATM    2  C2  UNL     1     -35.499  14.636  -6.791  1.00 20.00    -0.107 C 
HETATM    3  C3  UNL     1     -33.899  15.888  -5.396  1.00 20.00     0.048 C 
HETATM    4  C4  UNL     1     -34.490  13.507  -4.846  1.00 20.00     0.048 C 
HETATM    5  C5  UNL     1     -33.158  15.935  -4.063  1.00 20.00     0.169 C 
HETATM    6  C6  UNL     1     -33.715  13.693  -3.545  1.00 20.00     0.169 C 
HETATM    7  C7  UNL     1     -35.033  14.841  -5.401  1.00 20.00     0.023 C 
HETATM    8  C8  UNL     1     -36.229  15.332  -4.564  1.00 20.00     0.029 C 
HETATM    9  O9  UNL     1     -32.666  14.644  -3.710  1.00 20.00    -0.391 OA
ENDROOT
TORSDOF 0
ENDMDL
