MODEL 1
REMARK VINA RESULT:      -4.8      0.000      0.000
REMARK  2 active torsions:
REMARK  status: ('A' for Active; 'I' for Inactive)
REMARK    1  A    between atoms: C7_7  and  O10_10 
REMARK    2  A    between atoms: C9_9  and  O10_10 
ROOT
HETATM    1  C1  UNL     1     -34.847  13.361  -4.101  1.00 20.00     0.000 C 
HETATM    2  C2  UNL     1     -34.889  13.555  -5.531  1.00 20.00     0.022 C 
HETATM    3  C3  UNL     1     -34.195  14.220  -3.304  1.00 20.00     0.008 C 
HETATM    4  C4  UNL     1     -34.523  14.727  -6.071  1.00 20.00     0.048 C 
HETATM    5  C7  UNL     1     -33.492  15.430  -3.863  1.00 20.00     0.184 C 
HETATM    6  C8  UNL     1     -34.049  15.878  -5.229  1.00 20.00     0.247 C 
HETATM    7  F11 UNL     1     -35.103  16.722  -5.013  1.00 20.00    -0.240 F 
HETATM    8 CL12 UNL     1     -34.593  14.989  -7.772  1.00 20.00    -0.086 Cl
ENDROOT
BRANCH   5   9
HETATM    9  O10 UNL     1     -33.588  16.520  -2.952  1.00 20.00    -0.373 OA
BRANCH   9  10
HETATM   10  C9  UNL     1     -34.507  16.240  -1.907  1.00 20.00     0.122 A 
HETATM   11  C5  UNL     1     -34.317  17.013  -0.634  1.00 20.00     0.034 A 
HETATM   12  C6  UNL     1     -35.458  17.347  -1.551  1.00 20.00     0.034 A 
ENDBRANCH   9  10
ENDBRANCH   5   9
TORSDOF 2
ENDMDL
MODEL 2
REMARK VINA RESULT:      -4.6     11.601     12.544
REMARK  2 active torsions:
REMARK  status: ('A' for Active; 'I' for Inactive)
REMARK    1  A    between atoms: C7_7  and  O10_10 
REMARK    2  A    between atoms: C9_9  and  O10_10 
ROOT
HETATM    1  C1  UNL     1     -33.465   7.107   6.131  1.00 20.00     0.000 C 
HETATM    2  C2  UNL     1     -34.142   5.853   6.360  1.00 20.00     0.022 C 
HETATM    3  C3  UNL     1     -32.917   7.392   4.940  1.00 20.00     0.008 C 
HETATM    4  C4  UNL     1     -34.483   5.064   5.331  1.00 20.00     0.048 C 
HETATM    5  C7  UNL     1     -32.999   6.424   3.788  1.00 20.00     0.184 C 
HETATM    6  C8  UNL     1     -34.176   5.436   3.907  1.00 20.00     0.247 C 
HETATM    7  F11 UNL     1     -35.287   6.016   3.360  1.00 20.00    -0.240 F 
HETATM    8 CL12 UNL     1     -35.317   3.578   5.580  1.00 20.00    -0.086 Cl
ENDROOT
BRANCH   5   9
HETATM    9  O10 UNL     1     -33.120   7.132   2.558  1.00 20.00    -0.373 OA
BRANCH   9  10
HETATM   10  C9  UNL     1     -32.089   8.096   2.414  1.00 20.00     0.122 A 
HETATM   11  C5  UNL     1     -31.704   8.448   1.005  1.00 20.00     0.034 A 
HETATM   12  C6  UNL     1     -32.499   9.418   1.830  1.00 20.00     0.034 A 
ENDBRANCH   9  10
ENDBRANCH   5   9
TORSDOF 2
ENDMDL
MODEL 3
REMARK VINA RESULT:      -4.5      1.255      1.308
REMARK  2 active torsions:
REMARK  status: ('A' for Active; 'I' for Inactive)
REMARK    1  A    between atoms: C7_7  and  O10_10 
REMARK    2  A    between atoms: C9_9  and  O10_10 
ROOT
HETATM    1  C1  UNL     1     -34.196  13.560  -4.148  1.00 20.00     0.000 C 
HETATM    2  C2  UNL     1     -34.837  13.623  -5.440  1.00 20.00     0.022 C 
HETATM    3  C3  UNL     1     -34.079  14.652  -3.378  1.00 20.00     0.008 C 
HETATM    4  C4  UNL     1     -35.569  14.691  -5.787  1.00 20.00     0.048 C 
HETATM    5  C7  UNL     1     -34.623  15.986  -3.822  1.00 20.00     0.184 C 
HETATM    6  C8  UNL     1     -35.752  15.865  -4.865  1.00 20.00     0.247 C 
HETATM    7  F11 UNL     1     -36.940  15.719  -4.205  1.00 20.00    -0.240 F 
HETATM    8 CL12 UNL     1     -36.366  14.775  -7.312  1.00 20.00    -0.086 Cl
ENDROOT
BRANCH   5   9
HETATM    9  O10 UNL     1     -35.115  16.714  -2.701  1.00 20.00    -0.373 OA
BRANCH   9  10
HETATM   10  C9  UNL     1     -34.372  16.421  -1.528  1.00 20.00     0.122 A 
HETATM   11  C5  UNL     1     -33.615  17.566  -0.920  1.00 20.00     0.034 A 
HETATM   12  C6  UNL     1     -34.863  17.057  -0.259  1.00 20.00     0.034 A 
ENDBRANCH   9  10
ENDBRANCH   5   9
TORSDOF 2
ENDMDL
MODEL 4
REMARK VINA RESULT:      -4.4      1.735      2.453
REMARK  2 active torsions:
REMARK  status: ('A' for Active; 'I' for Inactive)
REMARK    1  A    between atoms: C7_7  and  O10_10 
REMARK    2  A    between atoms: C9_9  and  O10_10 
ROOT
HETATM    1  C1  UNL     1     -33.994  16.727  -6.102  1.00 20.00     0.000 C 
HETATM    2  C2  UNL     1     -34.289  15.313  -6.116  1.00 20.00     0.022 C 
HETATM    3  C3  UNL     1     -34.001  17.424  -4.956  1.00 20.00     0.008 C 
HETATM    4  C4  UNL     1     -34.304  14.608  -4.976  1.00 20.00     0.048 C 
HETATM    5  C7  UNL     1     -34.300  16.762  -3.636  1.00 20.00     0.184 C 
HETATM    6  C8  UNL     1     -34.027  15.244  -3.642  1.00 20.00     0.247 C 
HETATM    7  F11 UNL     1     -32.713  15.038  -3.327  1.00 20.00    -0.240 F 
HETATM    8 CL12 UNL     1     -34.625  12.916  -4.974  1.00 20.00    -0.086 Cl
ENDROOT
BRANCH   5   9
HETATM    9  O10 UNL     1     -33.528  17.359  -2.599  1.00 20.00    -0.373 OA
BRANCH   9  10
HETATM   10  C9  UNL     1     -34.358  17.869  -1.567  1.00 20.00     0.122 A 
HETATM   11  C5  UNL     1     -34.676  16.922  -0.445  1.00 20.00     0.034 A 
HETATM   12  C6  UNL     1     -33.707  18.048  -0.225  1.00 20.00     0.034 A 
ENDBRANCH   9  10
ENDBRANCH   5   9
TORSDOF 2
ENDMDL
MODEL 5
REMARK VINA RESULT:      -4.3     12.415     14.005
REMARK  2 active torsions:
REMARK  status: ('A' for Active; 'I' for Inactive)
REMARK    1  A    between atoms: C7_7  and  O10_10 
REMARK    2  A    between atoms: C9_9  and  O10_10 
ROOT
HETATM    1  C1  UNL     1     -40.508   5.364  -0.684  1.00 20.00     0.000 C 
HETATM    2  C2  UNL     1     -41.281   6.563  -0.462  1.00 20.00     0.022 C 
HETATM    3  C3  UNL     1     -41.016   4.329  -1.369  1.00 20.00     0.008 C 
HETATM    4  C4  UNL     1     -42.405   6.788  -1.157  1.00 20.00     0.048 C 
HETATM    5  C7  UNL     1     -42.406   4.379  -1.949  1.00 20.00     0.184 C 
HETATM    6  C8  UNL     1     -42.916   5.815  -2.183  1.00 20.00     0.247 C 
HETATM    7  F11 UNL     1     -42.501   6.227  -3.418  1.00 20.00    -0.240 F 
HETATM    8 CL12 UNL     1     -43.326   8.226  -0.929  1.00 20.00    -0.086 Cl
ENDROOT
BRANCH   5   9
HETATM    9  O10 UNL     1     -42.451   3.672  -3.185  1.00 20.00    -0.373 OA
BRANCH   9  10
HETATM   10  C9  UNL     1     -41.685   2.480  -3.125  1.00 20.00     0.122 A 
HETATM   11  C5  UNL     1     -42.458   1.193  -3.169  1.00 20.00     0.034 A 
HETATM   12  C6  UNL     1     -41.675   1.639  -4.370  1.00 20.00     0.034 A 
ENDBRANCH   9  10
ENDBRANCH   5   9
TORSDOF 2
ENDMDL
MODEL 6
REMARK VINA RESULT:      -4.2      2.725      4.674
REMARK  2 active torsions:
REMARK  status: ('A' for Active; 'I' for Inactive)
REMARK    1  A    between atoms: C7_7  and  O10_10 
REMARK    2  A    between atoms: C9_9  and  O10_10 
ROOT
HETATM    1  C1  UNL     1     -33.623  17.960  -4.189  1.00 20.00     0.000 C 
HETATM    2  C2  UNL     1     -33.880  17.884  -2.770  1.00 20.00     0.022 C 
HETATM    3  C3  UNL     1     -33.485  16.849  -4.928  1.00 20.00     0.008 C 
HETATM    4  C4  UNL     1     -34.260  16.728  -2.207  1.00 20.00     0.048 C 
HETATM    5  C7  UNL     1     -33.607  15.478  -4.315  1.00 20.00     0.184 C 
HETATM    6  C8  UNL     1     -34.427  15.468  -3.009  1.00 20.00     0.247 C 
HETATM    7  F11 UNL     1     -35.749  15.328  -3.328  1.00 20.00    -0.240 F 
HETATM    8 CL12 UNL     1     -34.600  16.623  -0.521  1.00 20.00    -0.086 Cl
ENDROOT
BRANCH   5   9
HETATM    9  O10 UNL     1     -34.210  14.577  -5.239  1.00 20.00    -0.373 OA
BRANCH   9  10
HETATM   10  C9  UNL     1     -34.754  15.268  -6.352  1.00 20.00     0.122 A 
HETATM   11  C5  UNL     1     -35.138  14.422  -7.532  1.00 20.00     0.034 A 
HETATM   12  C6  UNL     1     -36.203  15.004  -6.649  1.00 20.00     0.034 A 
ENDBRANCH   9  10
ENDBRANCH   5   9
TORSDOF 2
ENDMDL
MODEL 7
REMARK VINA RESULT:      -4.1      1.448      1.588
REMARK  2 active torsions:
REMARK  status: ('A' for Active; 'I' for Inactive)
REMARK    1  A    between atoms: C7_7  and  O10_10 
REMARK    2  A    between atoms: C9_9  and  O10_10 
ROOT
HETATM    1  C1  UNL     1     -36.890  15.611  -4.376  1.00 20.00     0.000 C 
HETATM    2  C2  UNL     1     -36.381  15.295  -5.690  1.00 20.00     0.022 C 
HETATM    3  C3  UNL     1     -36.115  15.498  -3.287  1.00 20.00     0.008 C 
HETATM    4  C4  UNL     1     -35.064  15.151  -5.895  1.00 20.00     0.048 C 
HETATM    5  C7  UNL     1     -34.679  15.053  -3.390  1.00 20.00     0.184 C 
HETATM    6  C8  UNL     1     -34.064  15.300  -4.782  1.00 20.00     0.247 C 
HETATM    7  F11 UNL     1     -33.562  16.572  -4.815  1.00 20.00    -0.240 F 
HETATM    8 CL12 UNL     1     -34.433  14.804  -7.460  1.00 20.00    -0.086 Cl
ENDROOT
BRANCH   5   9
HETATM    9  O10 UNL     1     -33.885  15.724  -2.415  1.00 20.00    -0.373 OA
BRANCH   9  10
HETATM   10  C9  UNL     1     -34.581  16.824  -1.851  1.00 20.00     0.122 A 
HETATM   11  C5  UNL     1     -34.643  16.870  -0.351  1.00 20.00     0.034 A 
HETATM   12  C6  UNL     1     -33.745  17.816  -1.094  1.00 20.00     0.034 A 
ENDBRANCH   9  10
ENDBRANCH   5   9
TORSDOF 2
ENDMDL
MODEL 8
REMARK VINA RESULT:      -4.1      3.207      3.986
REMARK  2 active torsions:
REMARK  status: ('A' for Active; 'I' for Inactive)
REMARK    1  A    between atoms: C7_7  and  O10_10 
REMARK    2  A    between atoms: C9_9  and  O10_10 
ROOT
HETATM    1  C1  UNL     1     -35.176  16.033  -5.932  1.00 20.00     0.000 C 
HETATM    2  C2  UNL     1     -33.877  15.790  -5.349  1.00 20.00     0.022 C 
HETATM    3  C3  UNL     1     -36.245  15.308  -5.570  1.00 20.00     0.008 C 
HETATM    4  C4  UNL     1     -33.755  15.036  -4.247  1.00 20.00     0.048 C 
HETATM    5  C7  UNL     1     -36.140  14.222  -4.531  1.00 20.00     0.184 C 
HETATM    6  C8  UNL     1     -34.944  14.408  -3.575  1.00 20.00     0.247 C 
HETATM    7  F11 UNL     1     -35.336  15.213  -2.542  1.00 20.00    -0.240 F 
HETATM    8 CL12 UNL     1     -32.219  14.758  -3.519  1.00 20.00    -0.086 Cl
ENDROOT
BRANCH   5   9
HETATM    9  O10 UNL     1     -37.335  14.162  -3.759  1.00 20.00    -0.373 OA
BRANCH   9  10
HETATM   10  C9  UNL     1     -38.295  15.100  -4.220  1.00 20.00     0.122 A 
HETATM   11  C5  UNL     1     -39.682  14.570  -4.447  1.00 20.00     0.034 A 
HETATM   12  C6  UNL     1     -39.398  15.443  -3.259  1.00 20.00     0.034 A 
ENDBRANCH   9  10
ENDBRANCH   5   9
TORSDOF 2
ENDMDL
MODEL 9
REMARK VINA RESULT:      -4.0     12.888     14.481
REMARK  2 active torsions:
REMARK  status: ('A' for Active; 'I' for Inactive)
REMARK    1  A    between atoms: C7_7  and  O10_10 
REMARK    2  A    between atoms: C9_9  and  O10_10 
ROOT
HETATM    1  C1  UNL     1     -42.827   6.368  -2.810  1.00 20.00     0.000 C 
HETATM    2  C2  UNL     1     -41.903   6.821  -1.797  1.00 20.00     0.022 C 
HETATM    3  C3  UNL     1     -42.899   5.073  -3.153  1.00 20.00     0.008 C 
HETATM    4  C4  UNL     1     -41.297   5.944  -0.985  1.00 20.00     0.048 C 
HETATM    5  C7  UNL     1     -42.033   4.036  -2.486  1.00 20.00     0.184 C 
HETATM    6  C8  UNL     1     -41.539   4.464  -1.089  1.00 20.00     0.247 C 
HETATM    7  F11 UNL     1     -42.486   4.111  -0.168  1.00 20.00    -0.240 F 
HETATM    8 CL12 UNL     1     -40.214   6.465   0.249  1.00 20.00    -0.086 Cl
ENDROOT
BRANCH   5   9
HETATM    9  O10 UNL     1     -42.742   2.807  -2.363  1.00 20.00    -0.373 OA
BRANCH   9  10
HETATM   10  C9  UNL     1     -42.705   2.067  -3.572  1.00 20.00     0.122 A 
HETATM   11  C5  UNL     1     -41.349   1.614  -4.031  1.00 20.00     0.034 A 
HETATM   12  C6  UNL     1     -42.314   0.621  -3.450  1.00 20.00     0.034 A 
ENDBRANCH   9  10
ENDBRANCH   5   9
TORSDOF 2
ENDMDL
