MODEL 1
REMARK VINA RESULT:      -4.8      0.000      0.000
REMARK  1 active torsions:
REMARK  status: ('A' for Active; 'I' for Inactive)
REMARK    1  A    between atoms: C6_6  and  C8_8 
ROOT
HETATM    1  C1  UNL     1     -34.522  13.787  -4.522  1.00 20.00     0.099 C 
HETATM    2  C2  UNL     1     -34.072  15.645  -2.997  1.00 20.00     0.031 A 
HETATM    3  C3  UNL     1     -34.109  16.040  -5.380  1.00 20.00     0.046 A 
HETATM    4  C4  UNL     1     -33.668  17.866  -3.860  1.00 20.00     0.032 A 
HETATM    5  C5  UNL     1     -34.232  15.168  -4.298  1.00 20.00     0.046 A 
HETATM    6  C6  UNL     1     -33.791  16.994  -2.778  1.00 20.00    -0.041 A 
HETATM    7  C7  UNL     1     -33.828  17.388  -5.162  1.00 20.00     0.036 A 
HETATM    8  N9  UNL     1     -34.758  12.666  -4.704  1.00 20.00    -0.191 NA
HETATM    9 CL10 UNL     1     -33.680  18.465  -6.497  1.00 20.00    -0.084 Cl
ENDROOT
BRANCH   6  10
HETATM   10  C8  UNL     1     -33.622  17.505  -1.387  1.00 20.00     0.153 C 
HETATM   11 CL11 UNL     1     -34.798  16.744  -0.292  1.00 20.00    -0.126 Cl
ENDBRANCH   6  10
TORSDOF 1
ENDMDL
MODEL 2
REMARK VINA RESULT:      -4.7      0.682      3.413
REMARK  1 active torsions:
REMARK  status: ('A' for Active; 'I' for Inactive)
REMARK    1  A    between atoms: C6_6  and  C8_8 
ROOT
HETATM    1  C1  UNL     1     -34.605  13.723  -4.432  1.00 20.00     0.099 C 
HETATM    2  C2  UNL     1     -34.046  16.076  -4.796  1.00 20.00     0.031 A 
HETATM    3  C3  UNL     1     -34.544  15.300  -2.563  1.00 20.00     0.046 A 
HETATM    4  C4  UNL     1     -33.988  17.621  -2.939  1.00 20.00     0.032 A 
HETATM    5  C5  UNL     1     -34.397  15.043  -3.927  1.00 20.00     0.046 A 
HETATM    6  C6  UNL     1     -33.840  17.364  -4.303  1.00 20.00    -0.041 A 
HETATM    7  C7  UNL     1     -34.339  16.588  -2.070  1.00 20.00     0.036 A 
HETATM    8  N9  UNL     1     -34.774  12.651  -4.843  1.00 20.00    -0.191 NA
HETATM    9 CL10 UNL     1     -34.517  16.904  -0.387  1.00 20.00    -0.084 Cl
ENDROOT
BRANCH   6  10
HETATM   10  C8  UNL     1     -33.463  18.468  -5.232  1.00 20.00     0.153 C 
HETATM   11 CL11 UNL     1     -34.106  18.164  -6.862  1.00 20.00    -0.126 Cl
ENDBRANCH   6  10
TORSDOF 1
ENDMDL
MODEL 3
REMARK VINA RESULT:      -4.4      2.420      2.546
REMARK  1 active torsions:
REMARK  status: ('A' for Active; 'I' for Inactive)
REMARK    1  A    between atoms: C6_6  and  C8_8 
ROOT
HETATM    1  C1  UNL     1     -35.093  13.700  -4.188  1.00 20.00     0.099 C 
HETATM    2  C2  UNL     1     -34.637  15.432  -2.523  1.00 20.00     0.031 A 
HETATM    3  C3  UNL     1     -36.630  15.578  -3.881  1.00 20.00     0.046 A 
HETATM    4  C4  UNL     1     -36.166  17.280  -2.229  1.00 20.00     0.032 A 
HETATM    5  C5  UNL     1     -35.456  14.913  -3.526  1.00 20.00     0.046 A 
HETATM    6  C6  UNL     1     -34.992  16.615  -1.875  1.00 20.00    -0.041 A 
HETATM    7  C7  UNL     1     -36.985  16.761  -3.233  1.00 20.00     0.036 A 
HETATM    8  N9  UNL     1     -34.798  12.716  -4.727  1.00 20.00    -0.191 NA
HETATM    9 CL10 UNL     1     -38.436  17.580  -3.667  1.00 20.00    -0.084 Cl
ENDROOT
BRANCH   6  10
HETATM   10  C8  UNL     1     -34.117  17.169  -0.801  1.00 20.00     0.153 C 
HETATM   11 CL11 UNL     1     -35.032  17.381   0.708  1.00 20.00    -0.126 Cl
ENDBRANCH   6  10
TORSDOF 1
ENDMDL
MODEL 4
REMARK VINA RESULT:      -4.4      2.868      3.802
REMARK  1 active torsions:
REMARK  status: ('A' for Active; 'I' for Inactive)
REMARK    1  A    between atoms: C6_6  and  C8_8 
ROOT
HETATM    1  C1  UNL     1     -34.770  17.145  -0.395  1.00 20.00     0.099 C 
HETATM    2  C2  UNL     1     -34.212  15.619  -2.221  1.00 20.00     0.031 A 
HETATM    3  C3  UNL     1     -34.095  18.005  -2.583  1.00 20.00     0.046 A 
HETATM    4  C4  UNL     1     -33.544  16.483  -4.377  1.00 20.00     0.032 A 
HETATM    5  C5  UNL     1     -34.356  16.921  -1.744  1.00 20.00     0.046 A 
HETATM    6  C6  UNL     1     -33.805  15.399  -3.538  1.00 20.00    -0.041 A 
HETATM    7  C7  UNL     1     -33.689  17.786  -3.899  1.00 20.00     0.036 A 
HETATM    8  N9  UNL     1     -35.107  17.328   0.701  1.00 20.00    -0.191 NA
HETATM    9 CL10 UNL     1     -33.362  19.122  -4.934  1.00 20.00    -0.084 Cl
ENDROOT
BRANCH   6  10
HETATM   10  C8  UNL     1     -33.649  14.007  -4.048  1.00 20.00     0.153 C 
HETATM   11 CL11 UNL     1     -35.236  13.234  -4.261  1.00 20.00    -0.126 Cl
ENDBRANCH   6  10
TORSDOF 1
ENDMDL
MODEL 5
REMARK VINA RESULT:      -4.4      2.781      3.415
REMARK  1 active torsions:
REMARK  status: ('A' for Active; 'I' for Inactive)
REMARK    1  A    between atoms: C6_6  and  C8_8 
ROOT
HETATM    1  C1  UNL     1     -33.666  18.137  -5.687  1.00 20.00     0.099 C 
HETATM    2  C2  UNL     1     -34.087  17.357  -3.408  1.00 20.00     0.031 A 
HETATM    3  C3  UNL     1     -34.001  15.760  -5.219  1.00 20.00     0.046 A 
HETATM    4  C4  UNL     1     -34.413  15.005  -2.961  1.00 20.00     0.032 A 
HETATM    5  C5  UNL     1     -33.920  17.077  -4.764  1.00 20.00     0.046 A 
HETATM    6  C6  UNL     1     -34.333  16.322  -2.506  1.00 20.00    -0.041 A 
HETATM    7  C7  UNL     1     -34.247  14.725  -4.318  1.00 20.00     0.036 A 
HETATM    8  N9  UNL     1     -33.460  18.999  -6.437  1.00 20.00    -0.191 NA
HETATM    9 CL10 UNL     1     -34.342  13.099  -4.877  1.00 20.00    -0.084 Cl
ENDROOT
BRANCH   6  10
HETATM   10  C8  UNL     1     -34.509  16.622  -1.056  1.00 20.00     0.153 C 
HETATM   11 CL11 UNL     1     -33.381  17.894  -0.536  1.00 20.00    -0.126 Cl
ENDBRANCH   6  10
TORSDOF 1
ENDMDL
MODEL 6
REMARK VINA RESULT:      -4.3      2.420      2.642
REMARK  1 active torsions:
REMARK  status: ('A' for Active; 'I' for Inactive)
REMARK    1  A    between atoms: C6_6  and  C8_8 
ROOT
HETATM    1  C1  UNL     1     -38.001  14.676  -3.954  1.00 20.00     0.099 C 
HETATM    2  C2  UNL     1     -35.871  15.558  -3.140  1.00 20.00     0.031 A 
HETATM    3  C3  UNL     1     -36.088  14.916  -5.459  1.00 20.00     0.046 A 
HETATM    4  C4  UNL     1     -33.991  15.792  -4.639  1.00 20.00     0.032 A 
HETATM    5  C5  UNL     1     -36.643  15.052  -4.186  1.00 20.00     0.046 A 
HETATM    6  C6  UNL     1     -34.545  15.928  -3.366  1.00 20.00    -0.041 A 
HETATM    7  C7  UNL     1     -34.763  15.286  -5.685  1.00 20.00     0.036 A 
HETATM    8  N9  UNL     1     -39.105  14.369  -3.766  1.00 20.00    -0.191 NA
HETATM    9 CL10 UNL     1     -34.079  15.122  -7.256  1.00 20.00    -0.084 Cl
ENDROOT
BRANCH   6  10
HETATM   10  C8  UNL     1     -33.721  16.470  -2.248  1.00 20.00     0.153 C 
HETATM   11 CL11 UNL     1     -34.673  16.554  -0.749  1.00 20.00    -0.126 Cl
ENDBRANCH   6  10
TORSDOF 1
ENDMDL
MODEL 7
REMARK VINA RESULT:      -4.3      2.707      4.206
REMARK  1 active torsions:
REMARK  status: ('A' for Active; 'I' for Inactive)
REMARK    1  A    between atoms: C6_6  and  C8_8 
ROOT
HETATM    1  C1  UNL     1     -34.577  16.695  -1.121  1.00 20.00     0.099 C 
HETATM    2  C2  UNL     1     -34.073  17.412  -3.404  1.00 20.00     0.031 A 
HETATM    3  C3  UNL     1     -34.434  15.068  -2.942  1.00 20.00     0.046 A 
HETATM    4  C4  UNL     1     -33.938  15.793  -5.193  1.00 20.00     0.032 A 
HETATM    5  C5  UNL     1     -34.359  16.389  -2.500  1.00 20.00     0.046 A 
HETATM    6  C6  UNL     1     -33.862  17.114  -4.751  1.00 20.00    -0.041 A 
HETATM    7  C7  UNL     1     -34.224  14.770  -4.288  1.00 20.00     0.036 A 
HETATM    8  N9  UNL     1     -34.753  16.943  -0.001  1.00 20.00    -0.191 NA
HETATM    9 CL10 UNL     1     -34.320  13.141  -4.835  1.00 20.00    -0.084 Cl
ENDROOT
BRANCH   6  10
HETATM   10  C8  UNL     1     -33.558  18.208  -5.718  1.00 20.00     0.153 C 
HETATM   11 CL11 UNL     1     -34.315  17.881  -7.293  1.00 20.00    -0.126 Cl
ENDBRANCH   6  10
TORSDOF 1
ENDMDL
MODEL 8
REMARK VINA RESULT:      -4.3      2.740      3.158
REMARK  1 active torsions:
REMARK  status: ('A' for Active; 'I' for Inactive)
REMARK    1  A    between atoms: C6_6  and  C8_8 
ROOT
HETATM    1  C1  UNL     1     -37.956  14.727  -4.000  1.00 20.00     0.099 C 
HETATM    2  C2  UNL     1     -36.430  16.265  -2.867  1.00 20.00     0.031 A 
HETATM    3  C3  UNL     1     -35.570  14.221  -3.825  1.00 20.00     0.046 A 
HETATM    4  C4  UNL     1     -34.074  15.753  -2.703  1.00 20.00     0.032 A 
HETATM    5  C5  UNL     1     -36.642  15.074  -3.560  1.00 20.00     0.046 A 
HETATM    6  C6  UNL     1     -35.146  16.605  -2.439  1.00 20.00    -0.041 A 
HETATM    7  C7  UNL     1     -34.286  14.560  -3.397  1.00 20.00     0.036 A 
HETATM    8  N9  UNL     1     -39.024  14.445  -4.358  1.00 20.00    -0.191 NA
HETATM    9 CL10 UNL     1     -32.962  13.511  -3.726  1.00 20.00    -0.084 Cl
ENDROOT
BRANCH   6  10
HETATM   10  C8  UNL     1     -34.920  17.880  -1.700  1.00 20.00     0.153 C 
HETATM   11 CL11 UNL     1     -34.217  17.561  -0.098  1.00 20.00    -0.126 Cl
ENDBRANCH   6  10
TORSDOF 1
ENDMDL
MODEL 9
REMARK VINA RESULT:      -4.2      2.837      4.145
REMARK  1 active torsions:
REMARK  status: ('A' for Active; 'I' for Inactive)
REMARK    1  A    between atoms: C6_6  and  C8_8 
ROOT
HETATM    1  C1  UNL     1     -33.600  18.474  -5.897  1.00 20.00     0.099 C 
HETATM    2  C2  UNL     1     -33.557  16.245  -4.892  1.00 20.00     0.031 A 
HETATM    3  C3  UNL     1     -33.818  18.187  -3.478  1.00 20.00     0.046 A 
HETATM    4  C4  UNL     1     -33.776  15.977  -2.501  1.00 20.00     0.032 A 
HETATM    5  C5  UNL     1     -33.659  17.629  -4.747  1.00 20.00     0.046 A 
HETATM    6  C6  UNL     1     -33.616  15.419  -3.769  1.00 20.00    -0.041 A 
HETATM    7  C7  UNL     1     -33.877  17.362  -2.355  1.00 20.00     0.036 A 
HETATM    8  N9  UNL     1     -33.553  19.160  -6.832  1.00 20.00    -0.191 NA
HETATM    9 CL10 UNL     1     -34.077  18.049  -0.790  1.00 20.00    -0.084 Cl
ENDROOT
BRANCH   6  10
HETATM   10  C8  UNL     1     -33.510  13.940  -3.924  1.00 20.00     0.153 C 
HETATM   11 CL11 UNL     1     -35.105  13.227  -4.254  1.00 20.00    -0.126 Cl
ENDBRANCH   6  10
TORSDOF 1
ENDMDL
