MODEL 1
REMARK VINA RESULT:      -4.6      0.000      0.000
REMARK  1 active torsions:
REMARK  status: ('A' for Active; 'I' for Inactive)
REMARK    1  A    between atoms: C5_5  and  C7_7 
ROOT
HETATM    1  C1  UNL     1     -32.762   7.184   4.591  1.00 20.00     0.071 A 
HETATM    2  C2  UNL     1     -34.323   5.169   3.616  1.00 20.00     0.126 A 
HETATM    3  C3  UNL     1     -34.370   5.436   4.975  1.00 20.00    -0.006 A 
HETATM    4  C4  UNL     1     -33.571   6.463   5.463  1.00 20.00     0.125 A 
HETATM    5  C5  UNL     1     -32.789   6.838   3.249  1.00 20.00     0.051 A 
HETATM    6  C6  UNL     1     -35.246   4.645   5.879  1.00 20.00     0.053 C 
HETATM    7  N8  UNL     1     -33.551   5.846   2.738  1.00 20.00    -0.264 NA
HETATM    8  F9  UNL     1     -33.574   6.767   6.769  1.00 20.00    -0.205 F 
ENDROOT
BRANCH   5   9
HETATM    9  C7  UNL     1     -31.932   7.590   2.285  1.00 20.00     0.173 C 
HETATM   10 CL10 UNL     1     -32.623   9.194   1.951  1.00 20.00    -0.124 Cl
ENDBRANCH   5   9
TORSDOF 1
ENDMDL
MODEL 2
REMARK VINA RESULT:      -4.2     10.395     11.270
REMARK  1 active torsions:
REMARK  status: ('A' for Active; 'I' for Inactive)
REMARK    1  A    between atoms: C5_5  and  C7_7 
ROOT
HETATM    1  C1  UNL     1     -41.456   3.976  -1.952  1.00 20.00     0.071 A 
HETATM    2  C2  UNL     1     -42.938   6.109  -2.789  1.00 20.00     0.126 A 
HETATM    3  C3  UNL     1     -41.966   6.324  -1.824  1.00 20.00    -0.006 A 
HETATM    4  C4  UNL     1     -41.216   5.232  -1.403  1.00 20.00     0.125 A 
HETATM    5  C5  UNL     1     -42.450   3.868  -2.910  1.00 20.00     0.051 A 
HETATM    6  C6  UNL     1     -41.737   7.680  -1.259  1.00 20.00     0.053 C 
HETATM    7  N8  UNL     1     -43.200   4.905  -3.344  1.00 20.00    -0.264 NA
HETATM    8  F9  UNL     1     -40.262   5.379  -0.473  1.00 20.00    -0.205 F 
ENDROOT
BRANCH   5   9
HETATM    9  C7  UNL     1     -42.735   2.534  -3.519  1.00 20.00     0.173 C 
HETATM   10 CL10 UNL     1     -41.224   1.736  -4.012  1.00 20.00    -0.124 Cl
ENDBRANCH   5   9
TORSDOF 1
ENDMDL
MODEL 3
REMARK VINA RESULT:      -4.2     11.562     11.888
REMARK  1 active torsions:
REMARK  status: ('A' for Active; 'I' for Inactive)
REMARK    1  A    between atoms: C5_5  and  C7_7 
ROOT
HETATM    1  C1  UNL     1     -33.790  16.071  -2.524  1.00 20.00     0.071 A 
HETATM    2  C2  UNL     1     -35.917  14.798  -3.665  1.00 20.00     0.126 A 
HETATM    3  C3  UNL     1     -34.643  14.338  -3.957  1.00 20.00    -0.006 A 
HETATM    4  C4  UNL     1     -33.566  14.992  -3.372  1.00 20.00     0.125 A 
HETATM    5  C5  UNL     1     -35.102  16.453  -2.296  1.00 20.00     0.051 A 
HETATM    6  C6  UNL     1     -34.439  13.181  -4.869  1.00 20.00     0.053 C 
HETATM    7  N8  UNL     1     -36.175  15.842  -2.846  1.00 20.00    -0.264 NA
HETATM    8  F9  UNL     1     -32.310  14.592  -3.618  1.00 20.00    -0.205 F 
ENDROOT
BRANCH   5   9
HETATM    9  C7  UNL     1     -35.380  17.608  -1.391  1.00 20.00     0.173 C 
HETATM   10 CL10 UNL     1     -34.941  17.210   0.286  1.00 20.00    -0.124 Cl
ENDBRANCH   5   9
TORSDOF 1
ENDMDL
MODEL 4
REMARK VINA RESULT:      -4.2     11.703     12.602
REMARK  1 active torsions:
REMARK  status: ('A' for Active; 'I' for Inactive)
REMARK    1  A    between atoms: C5_5  and  C7_7 
ROOT
HETATM    1  C1  UNL     1     -34.567  15.136  -3.005  1.00 20.00     0.071 A 
HETATM    2  C2  UNL     1     -33.825  16.296  -5.361  1.00 20.00     0.126 A 
HETATM    3  C3  UNL     1     -34.475  15.073  -5.408  1.00 20.00    -0.006 A 
HETATM    4  C4  UNL     1     -34.849  14.489  -4.203  1.00 20.00     0.125 A 
HETATM    5  C5  UNL     1     -33.913  16.355  -3.066  1.00 20.00     0.051 A 
HETATM    6  C6  UNL     1     -34.760  14.409  -6.708  1.00 20.00     0.053 C 
HETATM    7  N8  UNL     1     -33.533  16.954  -4.217  1.00 20.00    -0.264 NA
HETATM    8  F9  UNL     1     -35.481  13.307  -4.187  1.00 20.00    -0.205 F 
ENDROOT
BRANCH   5   9
HETATM    9  C7  UNL     1     -33.593  17.077  -1.799  1.00 20.00     0.173 C 
HETATM   10 CL10 UNL     1     -34.741  16.629  -0.517  1.00 20.00    -0.124 Cl
ENDBRANCH   5   9
TORSDOF 1
ENDMDL
MODEL 5
REMARK VINA RESULT:      -4.1      1.655      2.050
REMARK  1 active torsions:
REMARK  status: ('A' for Active; 'I' for Inactive)
REMARK    1  A    between atoms: C5_5  and  C7_7 
ROOT
HETATM    1  C1  UNL     1     -33.664   5.865   3.015  1.00 20.00     0.071 A 
HETATM    2  C2  UNL     1     -33.309   6.726   5.580  1.00 20.00     0.126 A 
HETATM    3  C3  UNL     1     -34.224   5.711   5.350  1.00 20.00    -0.006 A 
HETATM    4  C4  UNL     1     -34.399   5.279   4.040  1.00 20.00     0.125 A 
HETATM    5  C5  UNL     1     -32.775   6.873   3.351  1.00 20.00     0.051 A 
HETATM    6  C6  UNL     1     -34.992   5.107   6.470  1.00 20.00     0.053 C 
HETATM    7  N8  UNL     1     -32.577   7.320   4.611  1.00 20.00    -0.264 NA
HETATM    8  F9  UNL     1     -35.270   4.300   3.757  1.00 20.00    -0.205 F 
ENDROOT
BRANCH   5   9
HETATM    9  C7  UNL     1     -31.971   7.525   2.275  1.00 20.00     0.173 C 
HETATM   10 CL10 UNL     1     -32.549   9.181   1.979  1.00 20.00    -0.124 Cl
ENDBRANCH   5   9
TORSDOF 1
ENDMDL
MODEL 6
REMARK VINA RESULT:      -4.1     11.215     11.944
REMARK  1 active torsions:
REMARK  status: ('A' for Active; 'I' for Inactive)
REMARK    1  A    between atoms: C5_5  and  C7_7 
ROOT
HETATM    1  C1  UNL     1     -35.906  15.887  -2.848  1.00 20.00     0.071 A 
HETATM    2  C2  UNL     1     -35.347  13.583  -4.199  1.00 20.00     0.126 A 
HETATM    3  C3  UNL     1     -34.311  14.224  -3.540  1.00 20.00    -0.006 A 
HETATM    4  C4  UNL     1     -34.605  15.398  -2.854  1.00 20.00     0.125 A 
HETATM    5  C5  UNL     1     -36.870  15.170  -3.538  1.00 20.00     0.051 A 
HETATM    6  C6  UNL     1     -32.931  13.673  -3.567  1.00 20.00     0.053 C 
HETATM    7  N8  UNL     1     -36.624  14.027  -4.216  1.00 20.00    -0.264 NA
HETATM    8  F9  UNL     1     -33.643  16.062  -2.198  1.00 20.00    -0.205 F 
ENDROOT
BRANCH   5   9
HETATM    9  C7  UNL     1     -38.278  15.668  -3.554  1.00 20.00     0.173 C 
HETATM   10 CL10 UNL     1     -39.344  14.505  -4.374  1.00 20.00    -0.124 Cl
ENDBRANCH   5   9
TORSDOF 1
ENDMDL
MODEL 7
REMARK VINA RESULT:      -4.0     11.622     12.511
REMARK  1 active torsions:
REMARK  status: ('A' for Active; 'I' for Inactive)
REMARK    1  A    between atoms: C5_5  and  C7_7 
ROOT
HETATM    1  C1  UNL     1     -34.577  15.495  -2.615  1.00 20.00     0.071 A 
HETATM    2  C2  UNL     1     -33.657  17.937  -3.415  1.00 20.00     0.126 A 
HETATM    3  C3  UNL     1     -33.932  17.748  -2.070  1.00 20.00    -0.006 A 
HETATM    4  C4  UNL     1     -34.400  16.502  -1.671  1.00 20.00     0.125 A 
HETATM    5  C5  UNL     1     -34.273  15.786  -3.935  1.00 20.00     0.051 A 
HETATM    6  C6  UNL     1     -33.731  18.846  -1.088  1.00 20.00     0.053 C 
HETATM    7  N8  UNL     1     -33.816  16.984  -4.361  1.00 20.00    -0.264 NA
HETATM    8  F9  UNL     1     -34.682  16.261  -0.383  1.00 20.00    -0.205 F 
ENDROOT
BRANCH   5   9
HETATM    9  C7  UNL     1     -34.453  14.729  -4.974  1.00 20.00     0.173 C 
HETATM   10 CL10 UNL     1     -35.077  13.232  -4.245  1.00 20.00    -0.124 Cl
ENDBRANCH   5   9
TORSDOF 1
ENDMDL
MODEL 8
REMARK VINA RESULT:      -4.0     11.928     12.681
REMARK  1 active torsions:
REMARK  status: ('A' for Active; 'I' for Inactive)
REMARK    1  A    between atoms: C5_5  and  C7_7 
ROOT
HETATM    1  C1  UNL     1     -33.645  16.442  -3.278  1.00 20.00     0.071 A 
HETATM    2  C2  UNL     1     -35.672  14.824  -4.126  1.00 20.00     0.126 A 
HETATM    3  C3  UNL     1     -34.686  15.172  -5.036  1.00 20.00    -0.006 A 
HETATM    4  C4  UNL     1     -33.657  15.997  -4.596  1.00 20.00     0.125 A 
HETATM    5  C5  UNL     1     -34.677  16.037  -2.448  1.00 20.00     0.051 A 
HETATM    6  C6  UNL     1     -34.731  14.678  -6.437  1.00 20.00     0.053 C 
HETATM    7  N8  UNL     1     -35.694  15.236  -2.839  1.00 20.00    -0.264 NA
HETATM    8  F9  UNL     1     -32.676  16.367  -5.431  1.00 20.00    -0.205 F 
ENDROOT
BRANCH   5   9
HETATM    9  C7  UNL     1     -34.696  16.497  -1.028  1.00 20.00     0.173 C 
HETATM   10 CL10 UNL     1     -33.434  17.720  -0.750  1.00 20.00    -0.124 Cl
ENDBRANCH   5   9
TORSDOF 1
ENDMDL
MODEL 9
REMARK VINA RESULT:      -3.9     12.041     12.924
REMARK  1 active torsions:
REMARK  status: ('A' for Active; 'I' for Inactive)
REMARK    1  A    between atoms: C5_5  and  C7_7 
ROOT
HETATM    1  C1  UNL     1     -33.690  17.116  -4.622  1.00 20.00     0.071 A 
HETATM    2  C2  UNL     1     -34.847  15.208  -3.052  1.00 20.00     0.126 A 
HETATM    3  C3  UNL     1     -34.397  16.371  -2.447  1.00 20.00    -0.006 A 
HETATM    4  C4  UNL     1     -33.809  17.338  -3.255  1.00 20.00     0.125 A 
HETATM    5  C5  UNL     1     -34.171  15.920  -5.129  1.00 20.00     0.051 A 
HETATM    6  C6  UNL     1     -34.541  16.575  -0.981  1.00 20.00     0.053 C 
HETATM    7  N8  UNL     1     -34.748  14.957  -4.376  1.00 20.00    -0.264 NA
HETATM    8  F9  UNL     1     -33.356  18.483  -2.726  1.00 20.00    -0.205 F 
ENDROOT
BRANCH   5   9
HETATM    9  C7  UNL     1     -34.057  15.648  -6.592  1.00 20.00     0.173 C 
HETATM   10 CL10 UNL     1     -35.252  14.431  -7.098  1.00 20.00    -0.124 Cl
ENDBRANCH   5   9
TORSDOF 1
ENDMDL
