MODEL 1
REMARK VINA RESULT:      -4.4      0.000      0.000
REMARK  2 active torsions:
REMARK  status: ('A' for Active; 'I' for Inactive)
REMARK    1  A    between atoms: C7_7  and  O10_10 
REMARK    2  A    between atoms: C8_8  and  O10_10 
ROOT
HETATM    1  C1  UNL     1     -34.865  13.730  -5.080  1.00 20.00     0.155 C 
HETATM    2  C2  UNL     1     -35.253  14.353  -6.432  1.00 20.00     0.084 C 
HETATM    3  C3  UNL     1     -35.153  15.732  -5.741  1.00 20.00     0.047 C 
HETATM    4  C7  UNL     1     -34.477  15.101  -4.497  1.00 20.00     0.191 C 
HETATM    5  O9  UNL     1     -34.870  12.598  -4.644  1.00 20.00    -0.295 OA
ENDROOT
BRANCH   4   6
HETATM    6  O10 UNL     1     -35.076  15.377  -3.245  1.00 20.00    -0.373 OA
BRANCH   6   7
HETATM    7  C8  UNL     1     -34.131  15.971  -2.341  1.00 20.00     0.122 C 
HETATM    8  C5  UNL     1     -33.739  17.437  -2.640  1.00 20.00     0.032 C 
HETATM    9  C4  UNL     1     -33.741  17.681  -1.119  1.00 20.00     0.005 C 
HETATM   10  C6  UNL     1     -34.701  16.482  -0.997  1.00 20.00     0.032 C 
ENDBRANCH   6   7
ENDBRANCH   4   6
TORSDOF 2
ENDMDL
MODEL 2
REMARK VINA RESULT:      -4.4      1.555      1.901
REMARK  2 active torsions:
REMARK  status: ('A' for Active; 'I' for Inactive)
REMARK    1  A    between atoms: C7_7  and  O10_10 
REMARK    2  A    between atoms: C8_8  and  O10_10 
ROOT
HETATM    1  C1  UNL     1     -35.971  14.142  -3.910  1.00 20.00     0.155 C 
HETATM    2  C2  UNL     1     -34.851  13.308  -4.553  1.00 20.00     0.084 C 
HETATM    3  C3  UNL     1     -33.880  14.443  -4.156  1.00 20.00     0.047 C 
HETATM    4  C7  UNL     1     -34.959  15.105  -3.262  1.00 20.00     0.191 C 
HETATM    5  O9  UNL     1     -37.182  14.071  -3.917  1.00 20.00    -0.295 OA
ENDROOT
BRANCH   4   6
HETATM    6  O10 UNL     1     -35.233  16.471  -3.511  1.00 20.00    -0.373 OA
BRANCH   6   7
HETATM    7  C8  UNL     1     -35.069  17.254  -2.318  1.00 20.00     0.122 C 
HETATM    8  C5  UNL     1     -34.631  16.478  -1.054  1.00 20.00     0.032 C 
HETATM    9  C4  UNL     1     -33.743  17.684  -0.697  1.00 20.00     0.005 C 
HETATM   10  C6  UNL     1     -33.741  18.039  -2.196  1.00 20.00     0.032 C 
ENDBRANCH   6   7
ENDBRANCH   4   6
TORSDOF 2
ENDMDL
MODEL 3
REMARK VINA RESULT:      -4.3     11.635     12.611
REMARK  2 active torsions:
REMARK  status: ('A' for Active; 'I' for Inactive)
REMARK    1  A    between atoms: C7_7  and  O10_10 
REMARK    2  A    between atoms: C8_8  and  O10_10 
ROOT
HETATM    1  C1  UNL     1     -34.255   5.973   6.096  1.00 20.00     0.155 C 
HETATM    2  C2  UNL     1     -35.168   4.755   6.318  1.00 20.00     0.084 C 
HETATM    3  C3  UNL     1     -35.080   4.506   4.795  1.00 20.00     0.047 C 
HETATM    4  C7  UNL     1     -33.936   5.541   4.653  1.00 20.00     0.191 C 
HETATM    5  O9  UNL     1     -33.925   6.912   6.789  1.00 20.00    -0.295 OA
ENDROOT
BRANCH   4   6
HETATM    6  O10 UNL     1     -34.127   6.566   3.696  1.00 20.00    -0.373 OA
BRANCH   6   7
HETATM    7  C8  UNL     1     -32.932   6.783   2.928  1.00 20.00     0.122 C 
HETATM    8  C5  UNL     1     -32.888   8.088   2.100  1.00 20.00     0.032 C 
HETATM    9  C4  UNL     1     -31.398   8.201   2.473  1.00 20.00     0.005 C 
HETATM   10  C6  UNL     1     -31.712   7.332   3.706  1.00 20.00     0.032 C 
ENDBRANCH   6   7
ENDBRANCH   4   6
TORSDOF 2
ENDMDL
MODEL 4
REMARK VINA RESULT:      -4.2     11.788     12.826
REMARK  2 active torsions:
REMARK  status: ('A' for Active; 'I' for Inactive)
REMARK    1  A    between atoms: C7_7  and  O10_10 
REMARK    2  A    between atoms: C8_8  and  O10_10 
ROOT
HETATM    1  C1  UNL     1     -34.794   4.629   5.232  1.00 20.00     0.155 C 
HETATM    2  C2  UNL     1     -35.073   5.314   6.581  1.00 20.00     0.084 C 
HETATM    3  C3  UNL     1     -33.999   6.354   6.190  1.00 20.00     0.047 C 
HETATM    4  C7  UNL     1     -33.962   5.824   4.733  1.00 20.00     0.191 C 
HETATM    5  O9  UNL     1     -35.104   3.558   4.753  1.00 20.00    -0.295 OA
ENDROOT
BRANCH   4   6
HETATM    6  O10 UNL     1     -32.691   5.462   4.226  1.00 20.00    -0.373 OA
BRANCH   6   7
HETATM    7  C8  UNL     1     -32.350   6.256   3.078  1.00 20.00     0.122 C 
HETATM    8  C5  UNL     1     -33.412   7.286   2.629  1.00 20.00     0.032 C 
HETATM    9  C4  UNL     1     -32.253   8.253   2.320  1.00 20.00     0.005 C 
HETATM   10  C6  UNL     1     -31.411   7.458   3.337  1.00 20.00     0.032 C 
ENDBRANCH   6   7
ENDBRANCH   4   6
TORSDOF 2
ENDMDL
MODEL 5
REMARK VINA RESULT:      -4.2      1.070      1.469
REMARK  2 active torsions:
REMARK  status: ('A' for Active; 'I' for Inactive)
REMARK    1  A    between atoms: C7_7  and  O10_10 
REMARK    2  A    between atoms: C8_8  and  O10_10 
ROOT
HETATM    1  C1  UNL     1     -34.069  13.776  -4.150  1.00 20.00     0.155 C 
HETATM    2  C2  UNL     1     -34.870  13.428  -5.416  1.00 20.00     0.084 C 
HETATM    3  C3  UNL     1     -35.827  14.581  -5.036  1.00 20.00     0.047 C 
HETATM    4  C7  UNL     1     -34.843  15.092  -3.954  1.00 20.00     0.191 C 
HETATM    5  O9  UNL     1     -33.178  13.221  -3.541  1.00 20.00    -0.295 OA
ENDROOT
BRANCH   4   6
HETATM    6  O10 UNL     1     -35.368  15.254  -2.649  1.00 20.00    -0.373 OA
BRANCH   6   7
HETATM    7  C8  UNL     1     -35.076  16.564  -2.137  1.00 20.00     0.122 C 
HETATM    8  C5  UNL     1     -34.667  16.631  -0.647  1.00 20.00     0.032 C 
HETATM    9  C4  UNL     1     -33.647  17.717  -1.040  1.00 20.00     0.005 C 
HETATM   10  C6  UNL     1     -33.672  17.126  -2.463  1.00 20.00     0.032 C 
ENDBRANCH   6   7
ENDBRANCH   4   6
TORSDOF 2
ENDMDL
MODEL 6
REMARK VINA RESULT:      -4.2      1.402      4.373
REMARK  2 active torsions:
REMARK  status: ('A' for Active; 'I' for Inactive)
REMARK    1  A    between atoms: C7_7  and  O10_10 
REMARK    2  A    between atoms: C8_8  and  O10_10 
ROOT
HETATM    1  C1  UNL     1     -33.883  17.189  -2.770  1.00 20.00     0.155 C 
HETATM    2  C2  UNL     1     -33.657  17.645  -1.318  1.00 20.00     0.084 C 
HETATM    3  C3  UNL     1     -34.648  16.537  -0.895  1.00 20.00     0.047 C 
HETATM    4  C7  UNL     1     -34.618  15.915  -2.314  1.00 20.00     0.191 C 
HETATM    5  O9  UNL     1     -33.598  17.658  -3.851  1.00 20.00    -0.295 OA
ENDROOT
BRANCH   4   6
HETATM    6  O10 UNL     1     -35.870  15.724  -2.947  1.00 20.00    -0.373 OA
BRANCH   6   7
HETATM    7  C8  UNL     1     -35.853  14.551  -3.777  1.00 20.00     0.122 C 
HETATM    8  C5  UNL     1     -35.519  14.784  -5.269  1.00 20.00     0.032 C 
HETATM    9  C4  UNL     1     -34.712  13.472  -5.228  1.00 20.00     0.005 C 
HETATM   10  C6  UNL     1     -34.571  13.687  -3.709  1.00 20.00     0.032 C 
ENDBRANCH   6   7
ENDBRANCH   4   6
TORSDOF 2
ENDMDL
MODEL 7
REMARK VINA RESULT:      -4.2      1.942      4.764
REMARK  2 active torsions:
REMARK  status: ('A' for Active; 'I' for Inactive)
REMARK    1  A    between atoms: C7_7  and  O10_10 
REMARK    2  A    between atoms: C8_8  and  O10_10 
ROOT
HETATM    1  C1  UNL     1     -33.600  18.302  -1.670  1.00 20.00     0.155 C 
HETATM    2  C2  UNL     1     -34.034  18.080  -0.211  1.00 20.00     0.084 C 
HETATM    3  C3  UNL     1     -34.610  16.721  -0.667  1.00 20.00     0.047 C 
HETATM    4  C7  UNL     1     -33.901  16.838  -2.041  1.00 20.00     0.191 C 
HETATM    5  O9  UNL     1     -33.189  19.261  -2.287  1.00 20.00    -0.295 OA
ENDROOT
BRANCH   4   6
HETATM    6  O10 UNL     1     -34.719  16.698  -3.187  1.00 20.00    -0.373 OA
BRANCH   6   7
HETATM    7  C8  UNL     1     -34.291  15.587  -3.991  1.00 20.00     0.122 C 
HETATM    8  C5  UNL     1     -32.941  14.945  -3.594  1.00 20.00     0.032 C 
HETATM    9  C4  UNL     1     -33.567  13.576  -3.923  1.00 20.00     0.005 C 
HETATM   10  C6  UNL     1     -34.943  14.221  -3.667  1.00 20.00     0.032 C 
ENDBRANCH   6   7
ENDBRANCH   4   6
TORSDOF 2
ENDMDL
MODEL 8
REMARK VINA RESULT:      -3.9      1.475      1.783
REMARK  2 active torsions:
REMARK  status: ('A' for Active; 'I' for Inactive)
REMARK    1  A    between atoms: C7_7  and  O10_10 
REMARK    2  A    between atoms: C8_8  and  O10_10 
ROOT
HETATM    1  C1  UNL     1     -35.443  14.637  -4.487  1.00 20.00     0.155 C 
HETATM    2  C2  UNL     1     -34.665  13.336  -4.750  1.00 20.00     0.084 C 
HETATM    3  C3  UNL     1     -33.621  13.843  -3.729  1.00 20.00     0.047 C 
HETATM    4  C7  UNL     1     -34.567  14.981  -3.268  1.00 20.00     0.191 C 
HETATM    5  O9  UNL     1     -36.378  15.182  -5.035  1.00 20.00    -0.295 OA
ENDROOT
BRANCH   4   6
HETATM    6  O10 UNL     1     -34.038  16.293  -3.299  1.00 20.00    -0.373 OA
BRANCH   6   7
HETATM    7  C8  UNL     1     -33.677  16.733  -1.980  1.00 20.00     0.122 C 
HETATM    8  C5  UNL     1     -33.853  18.244  -1.700  1.00 20.00     0.032 C 
HETATM    9  C4  UNL     1     -34.337  17.862  -0.289  1.00 20.00     0.005 C 
HETATM   10  C6  UNL     1     -34.725  16.488  -0.869  1.00 20.00     0.032 C 
ENDBRANCH   6   7
ENDBRANCH   4   6
TORSDOF 2
ENDMDL
MODEL 9
REMARK VINA RESULT:      -3.8     12.417     14.361
REMARK  2 active torsions:
REMARK  status: ('A' for Active; 'I' for Inactive)
REMARK    1  A    between atoms: C7_7  and  O10_10 
REMARK    2  A    between atoms: C8_8  and  O10_10 
ROOT
HETATM    1  C1  UNL     1     -41.599   6.119  -1.885  1.00 20.00     0.155 C 
HETATM    2  C2  UNL     1     -40.912   6.220  -0.513  1.00 20.00     0.084 C 
HETATM    3  C3  UNL     1     -41.246   4.724  -0.318  1.00 20.00     0.047 C 
HETATM    4  C7  UNL     1     -41.653   4.583  -1.807  1.00 20.00     0.191 C 
HETATM    5  O9  UNL     1     -41.963   6.936  -2.704  1.00 20.00    -0.295 OA
ENDROOT
BRANCH   4   6
HETATM    6  O10 UNL     1     -42.937   4.045  -2.063  1.00 20.00    -0.373 OA
BRANCH   6   7
HETATM    7  C8  UNL     1     -42.872   3.002  -3.049  1.00 20.00     0.122 C 
HETATM    8  C5  UNL     1     -41.464   2.427  -3.332  1.00 20.00     0.032 C 
HETATM    9  C4  UNL     1     -42.124   1.040  -3.448  1.00 20.00     0.005 C 
HETATM   10  C6  UNL     1     -43.266   1.585  -2.569  1.00 20.00     0.032 C 
ENDBRANCH   6   7
ENDBRANCH   4   6
TORSDOF 2
ENDMDL
