MODEL 1
REMARK VINA RESULT:      -4.5      0.000      0.000
REMARK  0 active torsions:
REMARK  status: ('A' for Active; 'I' for Inactive)
ROOT
HETATM    1  C1  UNL     1     -35.351   4.688   5.817  1.00 20.00     0.002 C 
HETATM    2  C2  UNL     1     -35.438   4.651   4.479  1.00 20.00     0.028 C 
HETATM    3  C3  UNL     1     -34.292   5.400   6.511  1.00 20.00    -0.003 C 
HETATM    4  C4  UNL     1     -33.535   6.312   5.877  1.00 20.00    -0.011 C 
HETATM    5  C5  UNL     1     -32.800   5.931   2.495  1.00 20.00     0.132 C 
HETATM    6  C6  UNL     1     -32.667   6.798   3.503  1.00 20.00     0.020 C 
HETATM    7  C7  UNL     1     -34.386   5.409   3.772  1.00 20.00     0.046 C 
HETATM    8  C8  UNL     1     -33.809   6.652   4.447  1.00 20.00     0.102 C 
HETATM    9  N9  UNL     1     -33.861   5.076   2.633  1.00 20.00    -0.263 NA
HETATM   10 BR10 UNL     1     -31.409   8.118   3.701  1.00 20.00    -0.053 Br
ENDROOT
TORSDOF 0
ENDMDL
MODEL 2
REMARK VINA RESULT:      -4.4     12.242     13.537
REMARK  0 active torsions:
REMARK  status: ('A' for Active; 'I' for Inactive)
ROOT
HETATM    1  C1  UNL     1     -34.424  13.288  -4.874  1.00 20.00     0.002 C 
HETATM    2  C2  UNL     1     -33.827  13.793  -3.784  1.00 20.00     0.028 C 
HETATM    3  C3  UNL     1     -34.904  14.127  -5.960  1.00 20.00    -0.003 C 
HETATM    4  C4  UNL     1     -34.500  15.403  -6.084  1.00 20.00    -0.011 C 
HETATM    5  C5  UNL     1     -33.771  17.293  -3.253  1.00 20.00     0.132 C 
HETATM    6  C6  UNL     1     -33.709  17.340  -4.586  1.00 20.00     0.020 C 
HETATM    7  C7  UNL     1     -33.677  15.262  -3.788  1.00 20.00     0.046 C 
HETATM    8  C8  UNL     1     -33.499  15.970  -5.129  1.00 20.00     0.102 C 
HETATM    9  N9  UNL     1     -33.739  16.024  -2.739  1.00 20.00    -0.263 NA
HETATM   10 BR10 UNL     1     -33.698  18.822  -5.666  1.00 20.00    -0.053 Br
ENDROOT
TORSDOF 0
ENDMDL
MODEL 3
REMARK VINA RESULT:      -4.4     12.006     13.223
REMARK  0 active torsions:
REMARK  status: ('A' for Active; 'I' for Inactive)
ROOT
HETATM    1  C1  UNL     1     -34.783  13.818  -5.991  1.00 20.00     0.002 C 
HETATM    2  C2  UNL     1     -34.622  15.118  -6.279  1.00 20.00     0.028 C 
HETATM    3  C3  UNL     1     -34.739  13.308  -4.632  1.00 20.00    -0.003 C 
HETATM    4  C4  UNL     1     -34.856  14.131  -3.575  1.00 20.00    -0.011 C 
HETATM    5  C5  UNL     1     -33.626  17.383  -3.747  1.00 20.00     0.132 C 
HETATM    6  C6  UNL     1     -34.336  16.575  -2.957  1.00 20.00     0.020 C 
HETATM    7  C7  UNL     1     -34.424  15.989  -5.102  1.00 20.00     0.046 C 
HETATM    8  C8  UNL     1     -35.088  15.593  -3.785  1.00 20.00     0.102 C 
HETATM    9  N9  UNL     1     -33.677  17.050  -5.074  1.00 20.00    -0.263 NA
HETATM   10 BR10 UNL     1     -34.557  16.678  -1.138  1.00 20.00    -0.053 Br
ENDROOT
TORSDOF 0
ENDMDL
MODEL 4
REMARK VINA RESULT:      -4.4     12.123     13.132
REMARK  0 active torsions:
REMARK  status: ('A' for Active; 'I' for Inactive)
ROOT
HETATM    1  C1  UNL     1     -33.897  16.864  -2.546  1.00 20.00     0.002 C 
HETATM    2  C2  UNL     1     -34.338  15.620  -2.300  1.00 20.00     0.028 C 
HETATM    3  C3  UNL     1     -33.700  17.370  -3.893  1.00 20.00    -0.003 C 
HETATM    4  C4  UNL     1     -34.240  16.749  -4.956  1.00 20.00    -0.011 C 
HETATM    5  C5  UNL     1     -34.636  13.290  -4.949  1.00 20.00     0.132 C 
HETATM    6  C6  UNL     1     -34.938  14.376  -5.666  1.00 20.00     0.020 C 
HETATM    7  C7  UNL     1     -34.627  14.820  -3.507  1.00 20.00     0.046 C 
HETATM    8  C8  UNL     1     -35.107  15.546  -4.763  1.00 20.00     0.102 C 
HETATM    9  N9  UNL     1     -34.455  13.538  -3.615  1.00 20.00    -0.263 NA
HETATM   10 BR10 UNL     1     -35.282  14.483  -7.465  1.00 20.00    -0.053 Br
ENDROOT
TORSDOF 0
ENDMDL
MODEL 5
REMARK VINA RESULT:      -4.3     12.612     13.782
REMARK  0 active torsions:
REMARK  status: ('A' for Active; 'I' for Inactive)
ROOT
HETATM    1  C1  UNL     1     -33.530  13.720  -3.780  1.00 20.00     0.002 C 
HETATM    2  C2  UNL     1     -34.430  13.454  -4.739  1.00 20.00     0.028 C 
HETATM    3  C3  UNL     1     -32.796  14.973  -3.725  1.00 20.00    -0.003 C 
HETATM    4  C4  UNL     1     -33.197  16.047  -4.427  1.00 20.00    -0.011 C 
HETATM    5  C5  UNL     1     -34.770  15.637  -7.506  1.00 20.00     0.132 C 
HETATM    6  C6  UNL     1     -34.455  16.575  -6.609  1.00 20.00     0.020 C 
HETATM    7  C7  UNL     1     -34.630  14.544  -5.716  1.00 20.00     0.046 C 
HETATM    8  C8  UNL     1     -34.449  15.985  -5.243  1.00 20.00     0.102 C 
HETATM    9  N9  UNL     1     -34.897  14.381  -6.975  1.00 20.00    -0.263 NA
HETATM   10 BR10 UNL     1     -34.217  18.372  -6.889  1.00 20.00    -0.053 Br
ENDROOT
TORSDOF 0
ENDMDL
MODEL 6
REMARK VINA RESULT:      -4.3     12.706     13.947
REMARK  0 active torsions:
REMARK  status: ('A' for Active; 'I' for Inactive)
ROOT
HETATM    1  C1  UNL     1     -33.662  13.671  -3.788  1.00 20.00     0.002 C 
HETATM    2  C2  UNL     1     -32.884  14.764  -3.764  1.00 20.00     0.028 C 
HETATM    3  C3  UNL     1     -34.815  13.552  -4.663  1.00 20.00    -0.003 C 
HETATM    4  C4  UNL     1     -34.982  14.378  -5.711  1.00 20.00    -0.011 C 
HETATM    5  C5  UNL     1     -33.854  17.668  -5.542  1.00 20.00     0.132 C 
HETATM    6  C6  UNL     1     -34.378  16.784  -6.396  1.00 20.00     0.020 C 
HETATM    7  C7  UNL     1     -33.281  15.822  -4.715  1.00 20.00     0.046 C 
HETATM    8  C8  UNL     1     -33.945  15.409  -6.026  1.00 20.00     0.102 C 
HETATM    9  N9  UNL     1     -33.162  17.098  -4.507  1.00 20.00    -0.263 NA
HETATM   10 BR10 UNL     1     -35.347  17.119  -7.917  1.00 20.00    -0.053 Br
ENDROOT
TORSDOF 0
ENDMDL
MODEL 7
REMARK VINA RESULT:      -4.2     11.943     12.635
REMARK  0 active torsions:
REMARK  status: ('A' for Active; 'I' for Inactive)
ROOT
HETATM    1  C1  UNL     1     -33.684  13.626  -4.090  1.00 20.00     0.002 C 
HETATM    2  C2  UNL     1     -35.019  13.494  -4.092  1.00 20.00     0.028 C 
HETATM    3  C3  UNL     1     -33.023  14.862  -3.707  1.00 20.00    -0.003 C 
HETATM    4  C4  UNL     1     -33.680  15.824  -3.036  1.00 20.00    -0.011 C 
HETATM    5  C5  UNL     1     -37.081  16.326  -3.580  1.00 20.00     0.132 C 
HETATM    6  C6  UNL     1     -36.078  16.724  -2.793  1.00 20.00     0.020 C 
HETATM    7  C7  UNL     1     -35.757  14.695  -3.651  1.00 20.00     0.046 C 
HETATM    8  C8  UNL     1     -35.101  15.614  -2.623  1.00 20.00     0.102 C 
HETATM    9  N9  UNL     1     -36.912  15.074  -4.108  1.00 20.00    -0.263 NA
HETATM   10 BR10 UNL     1     -35.919  18.304  -1.876  1.00 20.00    -0.053 Br
ENDROOT
TORSDOF 0
ENDMDL
MODEL 8
REMARK VINA RESULT:      -4.2     12.259     13.358
REMARK  0 active torsions:
REMARK  status: ('A' for Active; 'I' for Inactive)
ROOT
HETATM    1  C1  UNL     1     -34.129  18.202  -1.343  1.00 20.00     0.002 C 
HETATM    2  C2  UNL     1     -33.581  18.474  -2.537  1.00 20.00     0.028 C 
HETATM    3  C3  UNL     1     -34.796  16.943  -1.060  1.00 20.00    -0.003 C 
HETATM    4  C4  UNL     1     -34.628  15.872  -1.854  1.00 20.00    -0.011 C 
HETATM    5  C5  UNL     1     -34.113  16.290  -5.272  1.00 20.00     0.132 C 
HETATM    6  C6  UNL     1     -34.120  15.350  -4.323  1.00 20.00     0.020 C 
HETATM    7  C7  UNL     1     -33.690  17.385  -3.528  1.00 20.00     0.046 C 
HETATM    8  C8  UNL     1     -33.699  15.943  -3.024  1.00 20.00     0.102 C 
HETATM    9  N9  UNL     1     -33.836  17.548  -4.807  1.00 20.00    -0.263 NA
HETATM   10 BR10 UNL     1     -34.418  13.551  -4.515  1.00 20.00    -0.053 Br
ENDROOT
TORSDOF 0
ENDMDL
MODEL 9
REMARK VINA RESULT:      -4.2     12.083     12.562
REMARK  0 active torsions:
REMARK  status: ('A' for Active; 'I' for Inactive)
ROOT
HETATM    1  C1  UNL     1     -35.170  13.558  -4.497  1.00 20.00     0.002 C 
HETATM    2  C2  UNL     1     -36.288  14.187  -4.103  1.00 20.00     0.028 C 
HETATM    3  C3  UNL     1     -33.843  14.051  -4.173  1.00 20.00    -0.003 C 
HETATM    4  C4  UNL     1     -33.657  14.968  -3.208  1.00 20.00    -0.011 C 
HETATM    5  C5  UNL     1     -36.087  17.386  -2.600  1.00 20.00     0.132 C 
HETATM    6  C6  UNL     1     -34.934  16.917  -2.115  1.00 20.00     0.020 C 
HETATM    7  C7  UNL     1     -36.059  15.403  -3.297  1.00 20.00     0.046 C 
HETATM    8  C8  UNL     1     -34.819  15.462  -2.408  1.00 20.00     0.102 C 
HETATM    9  N9  UNL     1     -36.803  16.466  -3.318  1.00 20.00    -0.263 NA
HETATM   10 BR10 UNL     1     -33.697  17.799  -1.088  1.00 20.00    -0.053 Br
ENDROOT
TORSDOF 0
ENDMDL
