MODEL 1
REMARK VINA RESULT:      -4.7      0.000      0.000
REMARK  0 active torsions:
REMARK  status: ('A' for Active; 'I' for Inactive)
ROOT
HETATM    1  C1  UNL     1     -32.605   6.597   2.695  1.00 20.00     0.004 A 
HETATM    2  C2  UNL     1     -33.469   6.021   3.527  1.00 20.00    -0.036 A 
HETATM    3  C3  UNL     1     -33.143   6.647   4.812  1.00 20.00     0.035 A 
HETATM    4  C4  UNL     1     -31.716   7.549   3.418  1.00 20.00     0.177 A 
HETATM    5  C5  UNL     1     -34.541   5.021   3.345  1.00 20.00     0.040 C 
HETATM    6  C6  UNL     1     -33.963   6.331   6.032  1.00 20.00     0.059 C 
HETATM    7  C7  UNL     1     -35.535   5.054   4.509  1.00 20.00     0.005 C 
HETATM    8  C8  UNL     1     -34.808   5.071   5.858  1.00 20.00     0.006 C 
HETATM    9  N9  UNL     1     -32.168   7.511   4.828  1.00 20.00    -0.290 NA
ENDROOT
TORSDOF 0
ENDMDL
MODEL 2
REMARK VINA RESULT:      -4.6      1.138      2.129
REMARK  0 active torsions:
REMARK  status: ('A' for Active; 'I' for Inactive)
ROOT
HETATM    1  C1  UNL     1     -32.377   7.434   4.373  1.00 20.00     0.004 A 
HETATM    2  C2  UNL     1     -33.297   6.627   4.896  1.00 20.00    -0.036 A 
HETATM    3  C3  UNL     1     -33.678   5.792   3.754  1.00 20.00     0.035 A 
HETATM    4  C4  UNL     1     -32.184   7.159   2.921  1.00 20.00     0.177 A 
HETATM    5  C5  UNL     1     -33.866   6.481   6.252  1.00 20.00     0.040 C 
HETATM    6  C6  UNL     1     -34.656   4.665   3.939  1.00 20.00     0.059 C 
HETATM    7  C7  UNL     1     -34.532   5.114   6.430  1.00 20.00     0.005 C 
HETATM    8  C8  UNL     1     -35.442   4.782   5.244  1.00 20.00     0.006 C 
HETATM    9  N9  UNL     1     -33.098   6.034   2.612  1.00 20.00    -0.290 NA
ENDROOT
TORSDOF 0
ENDMDL
MODEL 3
REMARK VINA RESULT:      -4.5      9.785     11.061
REMARK  0 active torsions:
REMARK  status: ('A' for Active; 'I' for Inactive)
ROOT
HETATM    1  C1  UNL     1     -42.066   3.297  -2.551  1.00 20.00     0.004 A 
HETATM    2  C2  UNL     1     -41.645   4.400  -1.936  1.00 20.00    -0.036 A 
HETATM    3  C3  UNL     1     -42.508   5.436  -2.509  1.00 20.00     0.035 A 
HETATM    4  C4  UNL     1     -43.150   3.606  -3.525  1.00 20.00     0.177 A 
HETATM    5  C5  UNL     1     -40.613   4.659  -0.910  1.00 20.00     0.040 C 
HETATM    6  C6  UNL     1     -42.416   6.852  -2.011  1.00 20.00     0.059 C 
HETATM    7  C7  UNL     1     -40.851   5.999  -0.210  1.00 20.00     0.005 C 
HETATM    8  C8  UNL     1     -41.134   7.112  -1.223  1.00 20.00     0.006 C 
HETATM    9  N9  UNL     1     -43.374   5.066  -3.410  1.00 20.00    -0.290 NA
ENDROOT
TORSDOF 0
ENDMDL
MODEL 4
REMARK VINA RESULT:      -4.5      1.246      3.122
REMARK  0 active torsions:
REMARK  status: ('A' for Active; 'I' for Inactive)
ROOT
HETATM    1  C1  UNL     1     -35.219   4.627   4.924  1.00 20.00     0.004 A 
HETATM    2  C2  UNL     1     -34.383   5.311   4.148  1.00 20.00    -0.036 A 
HETATM    3  C3  UNL     1     -33.734   6.219   5.098  1.00 20.00     0.035 A 
HETATM    4  C4  UNL     1     -35.145   5.094   6.337  1.00 20.00     0.177 A 
HETATM    5  C5  UNL     1     -34.068   5.263   2.705  1.00 20.00     0.040 C 
HETATM    6  C6  UNL     1     -32.631   7.130   4.634  1.00 20.00     0.059 C 
HETATM    7  C7  UNL     1     -32.717   5.919   2.410  1.00 20.00     0.005 C 
HETATM    8  C8  UNL     1     -32.592   7.274   3.114  1.00 20.00     0.006 C 
HETATM    9  N9  UNL     1     -34.113   6.157   6.343  1.00 20.00    -0.290 NA
ENDROOT
TORSDOF 0
ENDMDL
MODEL 5
REMARK VINA RESULT:      -4.3     11.271     12.325
REMARK  0 active torsions:
REMARK  status: ('A' for Active; 'I' for Inactive)
ROOT
HETATM    1  C1  UNL     1     -36.573  16.132  -3.020  1.00 20.00     0.004 A 
HETATM    2  C2  UNL     1     -35.397  15.535  -3.197  1.00 20.00    -0.036 A 
HETATM    3  C3  UNL     1     -35.767  14.294  -3.883  1.00 20.00     0.035 A 
HETATM    4  C4  UNL     1     -37.687  15.292  -3.545  1.00 20.00     0.177 A 
HETATM    5  C5  UNL     1     -34.008  15.913  -2.866  1.00 20.00     0.040 C 
HETATM    6  C6  UNL     1     -34.698  13.347  -4.352  1.00 20.00     0.059 C 
HETATM    7  C7  UNL     1     -33.002  15.111  -3.695  1.00 20.00     0.005 C 
HETATM    8  C8  UNL     1     -33.346  13.618  -3.694  1.00 20.00     0.006 C 
HETATM    9  N9  UNL     1     -37.034  14.087  -4.109  1.00 20.00    -0.290 NA
ENDROOT
TORSDOF 0
ENDMDL
MODEL 6
REMARK VINA RESULT:      -4.3      1.639      3.664
REMARK  0 active torsions:
REMARK  status: ('A' for Active; 'I' for Inactive)
ROOT
HETATM    1  C1  UNL     1     -34.161   6.085   6.317  1.00 20.00     0.004 A 
HETATM    2  C2  UNL     1     -33.607   6.265   5.121  1.00 20.00    -0.036 A 
HETATM    3  C3  UNL     1     -34.337   5.310   4.283  1.00 20.00     0.035 A 
HETATM    4  C4  UNL     1     -35.201   5.019   6.273  1.00 20.00     0.177 A 
HETATM    5  C5  UNL     1     -32.549   7.165   4.618  1.00 20.00     0.040 C 
HETATM    6  C6  UNL     1     -34.072   5.251   2.804  1.00 20.00     0.059 C 
HETATM    7  C7  UNL     1     -32.619   7.307   3.095  1.00 20.00     0.005 C 
HETATM    8  C8  UNL     1     -32.765   5.942   2.416  1.00 20.00     0.006 C 
HETATM    9  N9  UNL     1     -35.244   4.574   4.861  1.00 20.00    -0.290 NA
ENDROOT
TORSDOF 0
ENDMDL
MODEL 7
REMARK VINA RESULT:      -4.3     12.073     13.302
REMARK  0 active torsions:
REMARK  status: ('A' for Active; 'I' for Inactive)
ROOT
HETATM    1  C1  UNL     1     -34.565  16.469  -6.650  1.00 20.00     0.004 A 
HETATM    2  C2  UNL     1     -34.388  15.442  -5.823  1.00 20.00    -0.036 A 
HETATM    3  C3  UNL     1     -33.538  16.015  -4.776  1.00 20.00     0.035 A 
HETATM    4  C4  UNL     1     -33.825  17.673  -6.177  1.00 20.00     0.177 A 
HETATM    5  C5  UNL     1     -34.875  14.047  -5.819  1.00 20.00     0.040 C 
HETATM    6  C6  UNL     1     -33.165  15.191  -3.575  1.00 20.00     0.059 C 
HETATM    7  C7  UNL     1     -34.775  13.428  -4.422  1.00 20.00     0.005 C 
HETATM    8  C8  UNL     1     -33.406  13.699  -3.792  1.00 20.00     0.006 C 
HETATM    9  N9  UNL     1     -33.179  17.261  -4.909  1.00 20.00    -0.290 NA
ENDROOT
TORSDOF 0
ENDMDL
MODEL 8
REMARK VINA RESULT:      -4.2     12.129     13.485
REMARK  0 active torsions:
REMARK  status: ('A' for Active; 'I' for Inactive)
ROOT
HETATM    1  C1  UNL     1     -34.299  16.280  -6.944  1.00 20.00     0.004 A 
HETATM    2  C2  UNL     1     -34.070  15.670  -5.784  1.00 20.00    -0.036 A 
HETATM    3  C3  UNL     1     -34.748  14.383  -5.959  1.00 20.00     0.035 A 
HETATM    4  C4  UNL     1     -35.132  15.431  -7.842  1.00 20.00     0.177 A 
HETATM    5  C5  UNL     1     -33.329  16.054  -4.565  1.00 20.00     0.040 C 
HETATM    6  C6  UNL     1     -34.659  13.334  -4.885  1.00 20.00     0.059 C 
HETATM    7  C7  UNL     1     -32.974  14.827  -3.721  1.00 20.00     0.005 C 
HETATM    8  C8  UNL     1     -34.184  13.903  -3.549  1.00 20.00     0.006 C 
HETATM    9  N9  UNL     1     -35.368  14.179  -7.087  1.00 20.00    -0.290 NA
ENDROOT
TORSDOF 0
ENDMDL
MODEL 9
REMARK VINA RESULT:      -4.2     12.155     13.449
REMARK  0 active torsions:
REMARK  status: ('A' for Active; 'I' for Inactive)
ROOT
HETATM    1  C1  UNL     1     -35.330  14.395  -7.109  1.00 20.00     0.004 A 
HETATM    2  C2  UNL     1     -34.711  14.352  -5.932  1.00 20.00    -0.036 A 
HETATM    3  C3  UNL     1     -34.096  15.680  -5.845  1.00 20.00     0.035 A 
HETATM    4  C4  UNL     1     -35.101  15.700  -7.790  1.00 20.00     0.177 A 
HETATM    5  C5  UNL     1     -34.603  13.323  -4.878  1.00 20.00     0.040 C 
HETATM    6  C6  UNL     1     -33.354  16.085  -4.602  1.00 20.00     0.059 C 
HETATM    7  C7  UNL     1     -34.182  13.938  -3.541  1.00 20.00     0.005 C 
HETATM    8  C8  UNL     1     -32.996  14.891  -3.719  1.00 20.00     0.006 C 
HETATM    9  N9  UNL     1     -34.269  16.489  -6.852  1.00 20.00    -0.290 NA
ENDROOT
TORSDOF 0
ENDMDL
