MODEL 1
REMARK VINA RESULT:      -4.6      0.000      0.000
REMARK  1 active torsions:
REMARK  status: ('A' for Active; 'I' for Inactive)
REMARK    1  A    between atoms: C2_2  and  C7_7 
ROOT
HETATM    1  C1  UNL     1     -33.581   5.812   2.541  1.00 20.00     0.149 A 
HETATM    2  C2  UNL     1     -32.882   6.611   3.491  1.00 20.00    -0.001 A 
HETATM    3  C3  UNL     1     -33.446   6.251   4.682  1.00 20.00     0.039 A 
HETATM    4  C4  UNL     1     -33.399   6.500   6.133  1.00 20.00     0.061 C 
HETATM    5  C5  UNL     1     -34.718   5.826   6.611  1.00 20.00     0.028 C 
HETATM    6  C6  UNL     1     -35.108   4.806   5.524  1.00 20.00     0.151 C 
HETATM    7  N8  UNL     1     -34.510   5.013   3.097  1.00 20.00    -0.184 NA
HETATM    8  N9  UNL     1     -34.383   5.321   4.382  1.00 20.00    -0.274 N 
ENDROOT
BRANCH   2   9
HETATM    9  C7  UNL     1     -31.811   7.586   3.243  1.00 20.00     0.156 C 
HETATM   10 CL10 UNL     1     -32.048   8.432   1.689  1.00 20.00    -0.125 Cl
ENDBRANCH   2   9
TORSDOF 1
ENDMDL
MODEL 2
REMARK VINA RESULT:      -4.4     11.427     12.878
REMARK  1 active torsions:
REMARK  status: ('A' for Active; 'I' for Inactive)
REMARK    1  A    between atoms: C2_2  and  C7_7 
ROOT
HETATM    1  C1  UNL     1     -34.340  13.652  -3.539  1.00 20.00     0.149 A 
HETATM    2  C2  UNL     1     -34.061  15.034  -3.741  1.00 20.00    -0.001 A 
HETATM    3  C3  UNL     1     -34.364  15.227  -5.059  1.00 20.00     0.039 A 
HETATM    4  C4  UNL     1     -34.406  16.244  -6.124  1.00 20.00     0.061 C 
HETATM    5  C5  UNL     1     -34.568  15.363  -7.396  1.00 20.00     0.028 C 
HETATM    6  C6  UNL     1     -35.146  14.014  -6.924  1.00 20.00     0.151 C 
HETATM    7  N8  UNL     1     -34.784  13.029  -4.645  1.00 20.00    -0.184 NA
HETATM    8  N9  UNL     1     -34.776  14.024  -5.525  1.00 20.00    -0.274 N 
ENDROOT
BRANCH   2   9
HETATM    9  C7  UNL     1     -33.567  16.012  -2.762  1.00 20.00     0.156 C 
HETATM   10 CL10 UNL     1     -34.707  16.205  -1.402  1.00 20.00    -0.125 Cl
ENDBRANCH   2   9
TORSDOF 1
ENDMDL
MODEL 3
REMARK VINA RESULT:      -4.3     11.314     11.999
REMARK  1 active torsions:
REMARK  status: ('A' for Active; 'I' for Inactive)
REMARK    1  A    between atoms: C2_2  and  C7_7 
ROOT
HETATM    1  C1  UNL     1     -37.160  15.387  -3.228  1.00 20.00     0.149 A 
HETATM    2  C2  UNL     1     -35.926  15.981  -2.835  1.00 20.00    -0.001 A 
HETATM    3  C3  UNL     1     -34.989  15.137  -3.360  1.00 20.00     0.039 A 
HETATM    4  C4  UNL     1     -33.538  14.916  -3.487  1.00 20.00     0.061 C 
HETATM    5  C5  UNL     1     -33.485  13.445  -3.991  1.00 20.00     0.028 C 
HETATM    6  C6  UNL     1     -34.861  13.147  -4.620  1.00 20.00     0.151 C 
HETATM    7  N8  UNL     1     -37.005  14.259  -3.944  1.00 20.00    -0.184 NA
HETATM    8  N9  UNL     1     -35.682  14.159  -3.990  1.00 20.00    -0.274 N 
ENDROOT
BRANCH   2   9
HETATM    9  C7  UNL     1     -35.717  17.207  -2.053  1.00 20.00     0.156 C 
HETATM   10 CL10 UNL     1     -34.766  16.885  -0.578  1.00 20.00    -0.125 Cl
ENDBRANCH   2   9
TORSDOF 1
ENDMDL
MODEL 4
REMARK VINA RESULT:      -4.3     11.895     12.855
REMARK  1 active torsions:
REMARK  status: ('A' for Active; 'I' for Inactive)
REMARK    1  A    between atoms: C2_2  and  C7_7 
ROOT
HETATM    1  C1  UNL     1     -33.245  16.272  -4.908  1.00 20.00     0.149 A 
HETATM    2  C2  UNL     1     -33.594  15.398  -3.840  1.00 20.00    -0.001 A 
HETATM    3  C3  UNL     1     -33.962  16.253  -2.840  1.00 20.00     0.039 A 
HETATM    4  C4  UNL     1     -34.450  16.305  -1.451  1.00 20.00     0.061 C 
HETATM    5  C5  UNL     1     -34.226  17.802  -1.093  1.00 20.00     0.028 C 
HETATM    6  C6  UNL     1     -34.158  18.567  -2.430  1.00 20.00     0.151 C 
HETATM    7  N8  UNL     1     -33.385  17.574  -4.600  1.00 20.00    -0.184 NA
HETATM    8  N9  UNL     1     -33.817  17.500  -3.346  1.00 20.00    -0.274 N 
ENDROOT
BRANCH   2   9
HETATM    9  C7  UNL     1     -33.565  13.929  -3.823  1.00 20.00     0.156 C 
HETATM   10 CL10 UNL     1     -35.161  13.241  -4.232  1.00 20.00    -0.125 Cl
ENDBRANCH   2   9
TORSDOF 1
ENDMDL
MODEL 5
REMARK VINA RESULT:      -4.1     11.640     12.811
REMARK  1 active torsions:
REMARK  status: ('A' for Active; 'I' for Inactive)
REMARK    1  A    between atoms: C2_2  and  C7_7 
ROOT
HETATM    1  C1  UNL     1     -34.366  17.412  -4.457  1.00 20.00     0.149 A 
HETATM    2  C2  UNL     1     -34.010  16.570  -3.365  1.00 20.00    -0.001 A 
HETATM    3  C3  UNL     1     -34.168  15.312  -3.873  1.00 20.00     0.039 A 
HETATM    4  C4  UNL     1     -34.049  13.881  -3.541  1.00 20.00     0.061 C 
HETATM    5  C5  UNL     1     -34.810  13.219  -4.725  1.00 20.00     0.028 C 
HETATM    6  C6  UNL     1     -34.811  14.245  -5.875  1.00 20.00     0.151 C 
HETATM    7  N8  UNL     1     -34.718  16.732  -5.562  1.00 20.00    -0.184 NA
HETATM    8  N9  UNL     1     -34.580  15.477  -5.151  1.00 20.00    -0.274 N 
ENDROOT
BRANCH   2   9
HETATM    9  C7  UNL     1     -33.577  16.966  -2.017  1.00 20.00     0.156 C 
HETATM   10 CL10 UNL     1     -34.760  16.460  -0.779  1.00 20.00    -0.125 Cl
ENDBRANCH   2   9
TORSDOF 1
ENDMDL
MODEL 6
REMARK VINA RESULT:      -4.0      9.867     10.953
REMARK  1 active torsions:
REMARK  status: ('A' for Active; 'I' for Inactive)
REMARK    1  A    between atoms: C2_2  and  C7_7 
ROOT
HETATM    1  C1  UNL     1     -40.806   4.226  -1.377  1.00 20.00     0.149 A 
HETATM    2  C2  UNL     1     -41.881   4.271  -2.311  1.00 20.00    -0.001 A 
HETATM    3  C3  UNL     1     -42.233   5.591  -2.322  1.00 20.00     0.039 A 
HETATM    4  C4  UNL     1     -43.164   6.558  -2.928  1.00 20.00     0.061 C 
HETATM    5  C5  UNL     1     -42.984   7.793  -1.998  1.00 20.00     0.028 C 
HETATM    6  C6  UNL     1     -41.613   7.629  -1.312  1.00 20.00     0.151 C 
HETATM    7  N8  UNL     1     -40.510   5.425  -0.846  1.00 20.00    -0.184 NA
HETATM    8  N9  UNL     1     -41.399   6.205  -1.450  1.00 20.00    -0.274 N 
ENDROOT
BRANCH   2   9
HETATM    9  C7  UNL     1     -42.465   3.161  -3.076  1.00 20.00     0.156 C 
HETATM   10 CL10 UNL     1     -41.203   2.052  -3.681  1.00 20.00    -0.125 Cl
ENDBRANCH   2   9
TORSDOF 1
ENDMDL
MODEL 7
REMARK VINA RESULT:      -4.0     12.362     13.607
REMARK  1 active torsions:
REMARK  status: ('A' for Active; 'I' for Inactive)
REMARK    1  A    between atoms: C2_2  and  C7_7 
ROOT
HETATM    1  C1  UNL     1     -34.179  16.623  -6.644  1.00 20.00     0.149 A 
HETATM    2  C2  UNL     1     -34.709  15.309  -6.779  1.00 20.00    -0.001 A 
HETATM    3  C3  UNL     1     -34.372  14.710  -5.599  1.00 20.00     0.039 A 
HETATM    4  C4  UNL     1     -34.473  13.449  -4.844  1.00 20.00     0.061 C 
HETATM    5  C5  UNL     1     -33.439  13.679  -3.705  1.00 20.00     0.028 C 
HETATM    6  C6  UNL     1     -33.253  15.204  -3.584  1.00 20.00     0.151 C 
HETATM    7  N8  UNL     1     -33.558  16.830  -5.469  1.00 20.00    -0.184 NA
HETATM    8  N9  UNL     1     -33.705  15.647  -4.885  1.00 20.00    -0.274 N 
ENDROOT
BRANCH   2   9
HETATM    9  C7  UNL     1     -35.444  14.739  -7.918  1.00 20.00     0.156 C 
HETATM   10 CL10 UNL     1     -37.207  14.927  -7.715  1.00 20.00    -0.125 Cl
ENDBRANCH   2   9
TORSDOF 1
ENDMDL
MODEL 8
REMARK VINA RESULT:      -4.0      9.841     10.691
REMARK  1 active torsions:
REMARK  status: ('A' for Active; 'I' for Inactive)
REMARK    1  A    between atoms: C2_2  and  C7_7 
ROOT
HETATM    1  C1  UNL     1     -43.068   5.564  -3.379  1.00 20.00     0.149 A 
HETATM    2  C2  UNL     1     -42.711   6.861  -2.914  1.00 20.00    -0.001 A 
HETATM    3  C3  UNL     1     -41.835   6.601  -1.898  1.00 20.00     0.039 A 
HETATM    4  C4  UNL     1     -40.981   7.242  -0.883  1.00 20.00     0.061 C 
HETATM    5  C5  UNL     1     -40.633   6.039   0.041  1.00 20.00     0.028 C 
HETATM    6  C6  UNL     1     -40.844   4.765  -0.801  1.00 20.00     0.151 C 
HETATM    7  N8  UNL     1     -42.462   4.569  -2.707  1.00 20.00    -0.184 NA
HETATM    8  N9  UNL     1     -41.735   5.253  -1.830  1.00 20.00    -0.274 N 
ENDROOT
BRANCH   2   9
HETATM    9  C7  UNL     1     -43.176   8.164  -3.411  1.00 20.00     0.156 C 
HETATM   10 CL10 UNL     1     -42.175   8.735  -4.774  1.00 20.00    -0.125 Cl
ENDBRANCH   2   9
TORSDOF 1
ENDMDL
MODEL 9
REMARK VINA RESULT:      -3.9     11.929     13.047
REMARK  1 active torsions:
REMARK  status: ('A' for Active; 'I' for Inactive)
REMARK    1  A    between atoms: C2_2  and  C7_7 
ROOT
HETATM    1  C1  UNL     1     -34.765  13.166  -5.000  1.00 20.00     0.149 A 
HETATM    2  C2  UNL     1     -34.801  14.264  -5.907  1.00 20.00    -0.001 A 
HETATM    3  C3  UNL     1     -34.268  15.290  -5.181  1.00 20.00     0.039 A 
HETATM    4  C4  UNL     1     -33.908  16.717  -5.244  1.00 20.00     0.061 C 
HETATM    5  C5  UNL     1     -33.677  17.051  -3.742  1.00 20.00     0.028 C 
HETATM    6  C6  UNL     1     -33.386  15.712  -3.036  1.00 20.00     0.151 C 
HETATM    7  N8  UNL     1     -34.248  13.484  -3.799  1.00 20.00    -0.184 NA
HETATM    8  N9  UNL     1     -33.968  14.771  -3.968  1.00 20.00    -0.274 N 
ENDROOT
BRANCH   2   9
HETATM    9  C7  UNL     1     -35.295  14.280  -7.291  1.00 20.00     0.156 C 
HETATM   10 CL10 UNL     1     -36.914  15.026  -7.396  1.00 20.00    -0.125 Cl
ENDBRANCH   2   9
TORSDOF 1
ENDMDL
