MODEL 1
REMARK VINA RESULT:      -5.3      0.000      0.000
REMARK  0 active torsions:
REMARK  status: ('A' for Active; 'I' for Inactive)
ROOT
HETATM    1  C1  UNL     1     -32.530   7.252   4.447  1.00 20.00     0.047 C 
HETATM    2  C2  UNL     1     -32.761   6.485   3.232  1.00 20.00     0.042 C 
HETATM    3  C3  UNL     1     -35.376   4.251   4.587  1.00 20.00     0.010 C 
HETATM    4  C4  UNL     1     -35.159   4.050   5.890  1.00 20.00     0.114 C 
HETATM    5  C5  UNL     1     -33.173   6.959   5.583  1.00 20.00     0.142 C 
HETATM    6  C6  UNL     1     -33.827   5.672   3.117  1.00 20.00     0.107 C 
HETATM    7  C7  UNL     1     -34.143   5.852   5.536  1.00 20.00     0.087 C 
HETATM    8  C8  UNL     1     -34.841   5.585   4.209  1.00 20.00     0.127 C 
HETATM    9  N9  UNL     1     -34.416   5.029   6.500  1.00 20.00    -0.262 NA
HETATM   10  F10 UNL     1     -32.916   7.531   6.769  1.00 20.00    -0.204 F 
HETATM   11  F11 UNL     1     -34.004   4.973   1.975  1.00 20.00    -0.210 F 
ENDROOT
TORSDOF 0
ENDMDL
MODEL 2
REMARK VINA RESULT:      -5.0      1.557      3.949
REMARK  0 active torsions:
REMARK  status: ('A' for Active; 'I' for Inactive)
ROOT
HETATM    1  C1  UNL     1     -35.136   4.764   5.992  1.00 20.00     0.047 C 
HETATM    2  C2  UNL     1     -34.350   5.696   6.785  1.00 20.00     0.042 C 
HETATM    3  C3  UNL     1     -32.501   7.242   3.983  1.00 20.00     0.010 C 
HETATM    4  C4  UNL     1     -32.332   6.342   3.009  1.00 20.00     0.114 C 
HETATM    5  C5  UNL     1     -34.969   4.671   4.667  1.00 20.00     0.142 C 
HETATM    6  C6  UNL     1     -33.664   6.696   6.203  1.00 20.00     0.107 C 
HETATM    7  C7  UNL     1     -33.984   5.575   4.053  1.00 20.00     0.087 C 
HETATM    8  C8  UNL     1     -33.745   6.919   4.729  1.00 20.00     0.127 C 
HETATM    9  N9  UNL     1     -33.241   5.315   3.022  1.00 20.00    -0.262 NA
HETATM   10  F10 UNL     1     -35.558   3.748   3.893  1.00 20.00    -0.204 F 
HETATM   11  F11 UNL     1     -32.943   7.539   6.973  1.00 20.00    -0.210 F 
ENDROOT
TORSDOF 0
ENDMDL
MODEL 3
REMARK VINA RESULT:      -4.8     12.270     13.012
REMARK  0 active torsions:
REMARK  status: ('A' for Active; 'I' for Inactive)
ROOT
HETATM    1  C1  UNL     1     -35.342  13.384  -4.347  1.00 20.00     0.047 C 
HETATM    2  C2  UNL     1     -33.899  13.559  -4.289  1.00 20.00     0.042 C 
HETATM    3  C3  UNL     1     -33.900  16.896  -2.701  1.00 20.00     0.010 C 
HETATM    4  C4  UNL     1     -34.992  17.569  -3.078  1.00 20.00     0.114 C 
HETATM    5  C5  UNL     1     -36.173  14.350  -3.936  1.00 20.00     0.142 C 
HETATM    6  C6  UNL     1     -33.348  14.541  -3.554  1.00 20.00     0.107 C 
HETATM    7  C7  UNL     1     -35.559  15.574  -3.395  1.00 20.00     0.087 C 
HETATM    8  C8  UNL     1     -34.200  15.441  -2.722  1.00 20.00     0.127 C 
HETATM    9  N9  UNL     1     -36.031  16.778  -3.495  1.00 20.00    -0.262 NA
HETATM   10  F10 UNL     1     -37.506  14.315  -4.082  1.00 20.00    -0.204 F 
HETATM   11  F11 UNL     1     -32.004  14.674  -3.530  1.00 20.00    -0.210 F 
ENDROOT
TORSDOF 0
ENDMDL
MODEL 4
REMARK VINA RESULT:      -4.8     12.629     13.825
REMARK  0 active torsions:
REMARK  status: ('A' for Active; 'I' for Inactive)
ROOT
HETATM    1  C1  UNL     1     -33.727  17.405  -5.332  1.00 20.00     0.047 C 
HETATM    2  C2  UNL     1     -33.741  17.363  -3.878  1.00 20.00     0.042 C 
HETATM    3  C3  UNL     1     -34.271  13.722  -3.524  1.00 20.00     0.010 C 
HETATM    4  C4  UNL     1     -34.985  13.273  -4.561  1.00 20.00     0.114 C 
HETATM    5  C5  UNL     1     -33.941  16.301  -6.058  1.00 20.00     0.142 C 
HETATM    6  C6  UNL     1     -33.662  16.195  -3.216  1.00 20.00     0.107 C 
HETATM    7  C7  UNL     1     -34.155  15.046  -5.318  1.00 20.00     0.087 C 
HETATM    8  C8  UNL     1     -33.489  14.910  -3.956  1.00 20.00     0.127 C 
HETATM    9  N9  UNL     1     -34.918  14.062  -5.681  1.00 20.00    -0.262 NA
HETATM   10  F10 UNL     1     -34.075  16.286  -7.392  1.00 20.00    -0.204 F 
HETATM   11  F11 UNL     1     -33.682  16.197  -1.866  1.00 20.00    -0.210 F 
ENDROOT
TORSDOF 0
ENDMDL
MODEL 5
REMARK VINA RESULT:      -4.8      9.946     11.328
REMARK  0 active torsions:
REMARK  status: ('A' for Active; 'I' for Inactive)
ROOT
HETATM    1  C1  UNL     1     -41.582   3.771  -2.103  1.00 20.00     0.047 C 
HETATM    2  C2  UNL     1     -40.808   4.567  -1.162  1.00 20.00     0.042 C 
HETATM    3  C3  UNL     1     -42.449   7.809  -1.839  1.00 20.00     0.010 C 
HETATM    4  C4  UNL     1     -42.852   7.847  -3.113  1.00 20.00     0.114 C 
HETATM    5  C5  UNL     1     -42.501   4.337  -2.895  1.00 20.00     0.142 C 
HETATM    6  C6  UNL     1     -41.186   5.815  -0.834  1.00 20.00     0.107 C 
HETATM    7  C7  UNL     1     -42.712   5.785  -2.745  1.00 20.00     0.087 C 
HETATM    8  C8  UNL     1     -42.449   6.397  -1.375  1.00 20.00     0.127 C 
HETATM    9  N9  UNL     1     -43.035   6.616  -3.688  1.00 20.00    -0.262 NA
HETATM   10  F10 UNL     1     -43.155   3.695  -3.874  1.00 20.00    -0.204 F 
HETATM   11  F11 UNL     1     -40.438   6.523   0.040  1.00 20.00    -0.210 F 
ENDROOT
TORSDOF 0
ENDMDL
MODEL 6
REMARK VINA RESULT:      -4.7     12.054     12.674
REMARK  0 active torsions:
REMARK  status: ('A' for Active; 'I' for Inactive)
ROOT
HETATM    1  C1  UNL     1     -33.833  13.483  -4.214  1.00 20.00     0.047 C 
HETATM    2  C2  UNL     1     -35.283  13.373  -4.240  1.00 20.00     0.042 C 
HETATM    3  C3  UNL     1     -36.022  16.649  -2.695  1.00 20.00     0.010 C 
HETATM    4  C4  UNL     1     -35.042  16.972  -1.846  1.00 20.00     0.114 C 
HETATM    5  C5  UNL     1     -33.228  14.544  -3.665  1.00 20.00     0.142 C 
HETATM    6  C6  UNL     1     -36.064  14.443  -4.003  1.00 20.00     0.107 C 
HETATM    7  C7  UNL     1     -34.097  15.601  -3.124  1.00 20.00     0.087 C 
HETATM    8  C8  UNL     1     -35.463  15.789  -3.772  1.00 20.00     0.127 C 
HETATM    9  N9  UNL     1     -33.845  16.353  -2.098  1.00 20.00    -0.262 NA
HETATM   10  F10 UNL     1     -31.904  14.652  -3.485  1.00 20.00    -0.204 F 
HETATM   11  F11 UNL     1     -37.407  14.300  -4.033  1.00 20.00    -0.210 F 
ENDROOT
TORSDOF 0
ENDMDL
MODEL 7
REMARK VINA RESULT:      -4.7     12.682     13.890
REMARK  0 active torsions:
REMARK  status: ('A' for Active; 'I' for Inactive)
ROOT
HETATM    1  C1  UNL     1     -34.260  13.687  -3.677  1.00 20.00     0.047 C 
HETATM    2  C2  UNL     1     -35.577  13.874  -4.267  1.00 20.00     0.042 C 
HETATM    3  C3  UNL     1     -34.743  16.824  -6.333  1.00 20.00     0.010 C 
HETATM    4  C4  UNL     1     -33.790  17.538  -5.726  1.00 20.00     0.114 C 
HETATM    5  C5  UNL     1     -33.258  14.535  -3.940  1.00 20.00     0.142 C 
HETATM    6  C6  UNL     1     -35.757  14.700  -5.314  1.00 20.00     0.107 C 
HETATM    7  C7  UNL     1     -33.542  15.636  -4.874  1.00 20.00     0.087 C 
HETATM    8  C8  UNL     1     -34.598  15.397  -5.944  1.00 20.00     0.127 C 
HETATM    9  N9  UNL     1     -33.028  16.826  -4.835  1.00 20.00    -0.262 NA
HETATM   10  F10 UNL     1     -32.062  14.504  -3.333  1.00 20.00    -0.204 F 
HETATM   11  F11 UNL     1     -36.996  14.850  -5.831  1.00 20.00    -0.210 F 
ENDROOT
TORSDOF 0
ENDMDL
MODEL 8
REMARK VINA RESULT:      -4.6      9.562     10.572
REMARK  0 active torsions:
REMARK  status: ('A' for Active; 'I' for Inactive)
ROOT
HETATM    1  C1  UNL     1     -40.771   4.660  -0.885  1.00 20.00     0.047 C 
HETATM    2  C2  UNL     1     -41.664   4.108  -1.892  1.00 20.00     0.042 C 
HETATM    3  C3  UNL     1     -43.372   7.265  -2.774  1.00 20.00     0.010 C 
HETATM    4  C4  UNL     1     -43.417   8.062  -1.702  1.00 20.00     0.114 C 
HETATM    5  C5  UNL     1     -40.830   5.952  -0.541  1.00 20.00     0.142 C 
HETATM    6  C6  UNL     1     -42.355   4.911  -2.721  1.00 20.00     0.107 C 
HETATM    7  C7  UNL     1     -41.811   6.788  -1.251  1.00 20.00     0.087 C 
HETATM    8  C8  UNL     1     -42.173   6.391  -2.676  1.00 20.00     0.127 C 
HETATM    9  N9  UNL     1     -42.458   7.798  -0.758  1.00 20.00    -0.262 NA
HETATM   10  F10 UNL     1     -40.136   6.500   0.467  1.00 20.00    -0.204 F 
HETATM   11  F11 UNL     1     -43.177   4.361  -3.641  1.00 20.00    -0.210 F 
ENDROOT
TORSDOF 0
ENDMDL
MODEL 9
REMARK VINA RESULT:      -4.6     12.692     13.958
REMARK  0 active torsions:
REMARK  status: ('A' for Active; 'I' for Inactive)
ROOT
HETATM    1  C1  UNL     1     -34.427  14.864  -6.638  1.00 20.00     0.047 C 
HETATM    2  C2  UNL     1     -34.084  16.278  -6.645  1.00 20.00     0.042 C 
HETATM    3  C3  UNL     1     -33.691  16.674  -2.991  1.00 20.00     0.010 C 
HETATM    4  C4  UNL     1     -34.514  15.830  -2.360  1.00 20.00     0.114 C 
HETATM    5  C5  UNL     1     -34.557  14.188  -5.490  1.00 20.00     0.142 C 
HETATM    6  C6  UNL     1     -33.591  16.877  -5.546  1.00 20.00     0.107 C 
HETATM    7  C7  UNL     1     -34.304  14.932  -4.246  1.00 20.00     0.087 C 
HETATM    8  C8  UNL     1     -33.318  16.091  -4.306  1.00 20.00     0.127 C 
HETATM    9  N9  UNL     1     -34.892  14.743  -3.105  1.00 20.00    -0.262 NA
HETATM   10  F10 UNL     1     -34.998  12.925  -5.400  1.00 20.00    -0.204 F 
HETATM   11  F11 UNL     1     -33.288  18.192  -5.590  1.00 20.00    -0.210 F 
ENDROOT
TORSDOF 0
ENDMDL
