MODEL 1
REMARK VINA RESULT:      -3.8      0.000      0.000
REMARK  0 active torsions:
REMARK  status: ('A' for Active; 'I' for Inactive)
ROOT
HETATM    1  C1  UNL     1     -34.175  15.949  -4.718  1.00 20.00     0.029 C 
HETATM    2  C2  UNL     1     -34.540  15.585  -2.618  1.00 20.00     0.029 C 
HETATM    3  C3  UNL     1     -33.741  13.509  -3.951  1.00 20.00     0.179 A 
HETATM    4  C4  UNL     1     -35.756  13.939  -4.228  1.00 20.00     0.179 A 
HETATM    5  C5  UNL     1     -33.639  16.586  -3.402  1.00 20.00     0.059 C 
HETATM    6  C6  UNL     1     -34.562  14.761  -3.878  1.00 20.00     0.005 A 
HETATM    7  O7  UNL     1     -34.933  12.737  -4.284  1.00 20.00    -0.389 OA
HETATM    8 BR8  UNL     1     -34.039  18.458  -3.148  1.00 20.00    -0.091 Br
ENDROOT
TORSDOF 0
ENDMDL
MODEL 2
REMARK VINA RESULT:      -3.7      0.464      1.569
REMARK  0 active torsions:
REMARK  status: ('A' for Active; 'I' for Inactive)
ROOT
HETATM    1  C1  UNL     1     -34.657  15.625  -2.532  1.00 20.00     0.029 C 
HETATM    2  C2  UNL     1     -34.259  16.022  -4.620  1.00 20.00     0.029 C 
HETATM    3  C3  UNL     1     -35.754  13.949  -4.181  1.00 20.00     0.179 A 
HETATM    4  C4  UNL     1     -33.732  13.587  -3.864  1.00 20.00     0.179 A 
HETATM    5  C5  UNL     1     -34.870  16.860  -3.457  1.00 20.00     0.059 C 
HETATM    6  C6  UNL     1     -34.588  14.807  -3.795  1.00 20.00     0.005 A 
HETATM    7  O7  UNL     1     -34.884  12.780  -4.246  1.00 20.00    -0.389 OA
HETATM    8 BR8  UNL     1     -33.899  18.456  -2.967  1.00 20.00    -0.091 Br
ENDROOT
TORSDOF 0
ENDMDL
MODEL 3
REMARK VINA RESULT:      -3.7      1.495      1.827
REMARK  0 active torsions:
REMARK  status: ('A' for Active; 'I' for Inactive)
ROOT
HETATM    1  C1  UNL     1     -35.833  15.487  -3.056  1.00 20.00     0.029 C 
HETATM    2  C2  UNL     1     -33.675  15.382  -3.152  1.00 20.00     0.029 C 
HETATM    3  C3  UNL     1     -34.875  15.053  -5.428  1.00 20.00     0.179 A 
HETATM    4  C4  UNL     1     -34.905  13.356  -4.229  1.00 20.00     0.179 A 
HETATM    5  C5  UNL     1     -34.684  16.452  -2.637  1.00 20.00     0.059 C 
HETATM    6  C6  UNL     1     -34.821  14.818  -3.949  1.00 20.00     0.005 A 
HETATM    7  O7  UNL     1     -34.948  13.616  -5.663  1.00 20.00    -0.389 OA
HETATM    8 BR8  UNL     1     -34.580  16.871  -0.755  1.00 20.00    -0.091 Br
ENDROOT
TORSDOF 0
ENDMDL
MODEL 4
REMARK VINA RESULT:      -3.6     11.503     12.161
REMARK  0 active torsions:
REMARK  status: ('A' for Active; 'I' for Inactive)
ROOT
HETATM    1  C1  UNL     1     -33.292   5.516   2.941  1.00 20.00     0.029 C 
HETATM    2  C2  UNL     1     -33.842   7.133   4.266  1.00 20.00     0.029 C 
HETATM    3  C3  UNL     1     -34.076   4.765   5.297  1.00 20.00     0.179 A 
HETATM    4  C4  UNL     1     -35.644   5.269   4.030  1.00 20.00     0.179 A 
HETATM    5  C5  UNL     1     -32.556   6.787   3.458  1.00 20.00     0.059 C 
HETATM    6  C6  UNL     1     -34.214   5.682   4.120  1.00 20.00     0.005 A 
HETATM    7  O7  UNL     1     -35.481   4.392   5.183  1.00 20.00    -0.389 OA
HETATM    8 BR8  UNL     1     -32.037   8.068   2.109  1.00 20.00    -0.091 Br
ENDROOT
TORSDOF 0
ENDMDL
MODEL 5
REMARK VINA RESULT:      -3.5      1.894      2.306
REMARK  0 active torsions:
REMARK  status: ('A' for Active; 'I' for Inactive)
ROOT
HETATM    1  C1  UNL     1     -33.360  15.487  -3.640  1.00 20.00     0.029 C 
HETATM    2  C2  UNL     1     -35.436  16.022  -3.924  1.00 20.00     0.029 C 
HETATM    3  C3  UNL     1     -34.555  14.209  -5.556  1.00 20.00     0.179 A 
HETATM    4  C4  UNL     1     -33.985  16.137  -6.083  1.00 20.00     0.179 A 
HETATM    5  C5  UNL     1     -34.609  15.503  -2.709  1.00 20.00     0.059 C 
HETATM    6  C6  UNL     1     -34.332  15.478  -4.791  1.00 20.00     0.005 A 
HETATM    7  O7  UNL     1     -34.218  14.891  -6.801  1.00 20.00    -0.389 OA
HETATM    8 BR8  UNL     1     -34.510  16.689  -1.188  1.00 20.00    -0.091 Br
ENDROOT
TORSDOF 0
ENDMDL
MODEL 6
REMARK VINA RESULT:      -3.4      3.117      3.908
REMARK  0 active torsions:
REMARK  status: ('A' for Active; 'I' for Inactive)
ROOT
HETATM    1  C1  UNL     1     -35.372  15.698  -3.142  1.00 20.00     0.029 C 
HETATM    2  C2  UNL     1     -33.239  15.477  -3.425  1.00 20.00     0.029 C 
HETATM    3  C3  UNL     1     -33.914  16.881  -1.351  1.00 20.00     0.179 A 
HETATM    4  C4  UNL     1     -34.042  17.937  -3.136  1.00 20.00     0.179 A 
HETATM    5  C5  UNL     1     -34.421  14.472  -3.280  1.00 20.00     0.059 C 
HETATM    6  C6  UNL     1     -34.145  16.493  -2.780  1.00 20.00     0.005 A 
HETATM    7  O7  UNL     1     -33.812  18.283  -1.739  1.00 20.00    -0.389 OA
HETATM    8 BR8  UNL     1     -34.742  13.324  -4.799  1.00 20.00    -0.091 Br
ENDROOT
TORSDOF 0
ENDMDL
MODEL 7
REMARK VINA RESULT:      -3.4      2.125      2.982
REMARK  0 active torsions:
REMARK  status: ('A' for Active; 'I' for Inactive)
ROOT
HETATM    1  C1  UNL     1     -34.584  16.617  -0.811  1.00 20.00     0.029 C 
HETATM    2  C2  UNL     1     -33.795  17.609  -2.563  1.00 20.00     0.029 C 
HETATM    3  C3  UNL     1     -36.050  16.382  -2.938  1.00 20.00     0.179 A 
HETATM    4  C4  UNL     1     -34.411  15.104  -2.923  1.00 20.00     0.179 A 
HETATM    5  C5  UNL     1     -34.153  18.081  -1.122  1.00 20.00     0.059 C 
HETATM    6  C6  UNL     1     -34.694  16.430  -2.301  1.00 20.00     0.005 A 
HETATM    7  O7  UNL     1     -35.733  15.091  -3.537  1.00 20.00    -0.389 OA
HETATM    8 BR8  UNL     1     -32.686  18.769  -0.071  1.00 20.00    -0.091 Br
ENDROOT
TORSDOF 0
ENDMDL
MODEL 8
REMARK VINA RESULT:      -3.3      2.388      2.620
REMARK  0 active torsions:
REMARK  status: ('A' for Active; 'I' for Inactive)
ROOT
HETATM    1  C1  UNL     1     -34.069  17.781  -2.837  1.00 20.00     0.029 C 
HETATM    2  C2  UNL     1     -34.621  15.720  -2.483  1.00 20.00     0.029 C 
HETATM    3  C3  UNL     1     -33.126  16.095  -4.569  1.00 20.00     0.179 A 
HETATM    4  C4  UNL     1     -35.123  16.575  -4.891  1.00 20.00     0.179 A 
HETATM    5  C5  UNL     1     -33.910  16.812  -1.627  1.00 20.00     0.059 C 
HETATM    6  C6  UNL     1     -34.247  16.548  -3.684  1.00 20.00     0.005 A 
HETATM    7  O7  UNL     1     -34.015  16.125  -5.725  1.00 20.00    -0.389 OA
HETATM    8 BR8  UNL     1     -34.818  17.335  -0.005  1.00 20.00    -0.091 Br
ENDROOT
TORSDOF 0
ENDMDL
MODEL 9
REMARK VINA RESULT:      -3.3     12.014     13.270
REMARK  0 active torsions:
REMARK  status: ('A' for Active; 'I' for Inactive)
ROOT
HETATM    1  C1  UNL     1     -42.821   4.879  -2.806  1.00 20.00     0.029 C 
HETATM    2  C2  UNL     1     -41.151   4.418  -1.513  1.00 20.00     0.029 C 
HETATM    3  C3  UNL     1     -42.798   6.181  -0.562  1.00 20.00     0.179 A 
HETATM    4  C4  UNL     1     -41.489   6.958  -1.977  1.00 20.00     0.179 A 
HETATM    5  C5  UNL     1     -42.265   3.562  -2.187  1.00 20.00     0.059 C 
HETATM    6  C6  UNL     1     -42.057   5.601  -1.728  1.00 20.00     0.005 A 
HETATM    7  O7  UNL     1     -42.217   7.491  -0.833  1.00 20.00    -0.389 OA
HETATM    8 BR8  UNL     1     -41.659   2.230  -3.447  1.00 20.00    -0.091 Br
ENDROOT
TORSDOF 0
ENDMDL
