MODEL 1
REMARK VINA RESULT:      -4.5      0.000      0.000
REMARK  1 active torsions:
REMARK  status: ('A' for Active; 'I' for Inactive)
REMARK    1  A    between atoms: C3_3  and  C6_6 
ROOT
HETATM    1  C1  UNL     1     -34.336  14.667  -3.243  1.00 20.00     0.068 A 
HETATM    2  C2  UNL     1     -34.115  16.667  -4.510  1.00 20.00     0.126 A 
HETATM    3  C3  UNL     1     -34.022  16.020  -3.288  1.00 20.00    -0.023 A 
HETATM    4  C4  UNL     1     -34.725  14.010  -4.405  1.00 20.00     0.212 A 
HETATM    5  C5  UNL     1     -34.787  14.747  -5.576  1.00 20.00     0.175 A 
HETATM    6  N7  UNL     1     -34.490  16.063  -5.660  1.00 20.00    -0.244 NA
HETATM    7  O8  UNL     1     -35.013  12.761  -4.358  1.00 20.00    -0.285 OA
HETATM    8 CL9  UNL     1     -35.253  14.086  -7.105  1.00 20.00    -0.058 Cl
ENDROOT
BRANCH   3   9
HETATM    9  C6  UNL     1     -33.601  16.752  -2.064  1.00 20.00     0.154 C 
HETATM   10 CL10 UNL     1     -34.753  16.478  -0.735  1.00 20.00    -0.126 Cl
ENDBRANCH   3   9
TORSDOF 1
ENDMDL
MODEL 2
REMARK VINA RESULT:      -4.2      1.060      1.060
REMARK  1 active torsions:
REMARK  status: ('A' for Active; 'I' for Inactive)
REMARK    1  A    between atoms: C3_3  and  C6_6 
ROOT
HETATM    1  C1  UNL     1     -35.290  15.461  -2.781  1.00 20.00     0.068 A 
HETATM    2  C2  UNL     1     -33.480  16.347  -4.045  1.00 20.00     0.126 A 
HETATM    3  C3  UNL     1     -34.165  16.276  -2.842  1.00 20.00    -0.023 A 
HETATM    4  C4  UNL     1     -35.690  14.751  -3.907  1.00 20.00     0.212 A 
HETATM    5  C5  UNL     1     -34.937  14.891  -5.062  1.00 20.00     0.175 A 
HETATM    6  N7  UNL     1     -33.838  15.672  -5.161  1.00 20.00    -0.244 NA
HETATM    7  O8  UNL     1     -36.728  14.001  -3.846  1.00 20.00    -0.285 OA
HETATM    8 CL9  UNL     1     -35.296  14.082  -6.549  1.00 20.00    -0.058 Cl
ENDROOT
BRANCH   3   9
HETATM    9  C6  UNL     1     -33.710  17.047  -1.655  1.00 20.00     0.154 C 
HETATM   10 CL10 UNL     1     -34.801  16.784  -0.273  1.00 20.00    -0.126 Cl
ENDBRANCH   3   9
TORSDOF 1
ENDMDL
MODEL 3
REMARK VINA RESULT:      -4.1     11.515     12.444
REMARK  1 active torsions:
REMARK  status: ('A' for Active; 'I' for Inactive)
REMARK    1  A    between atoms: C3_3  and  C6_6 
ROOT
HETATM    1  C1  UNL     1     -32.818   7.212   4.527  1.00 20.00     0.068 A 
HETATM    2  C2  UNL     1     -33.499   5.856   2.697  1.00 20.00     0.126 A 
HETATM    3  C3  UNL     1     -32.744   6.917   3.171  1.00 20.00    -0.023 A 
HETATM    4  C4  UNL     1     -33.630   6.448   5.357  1.00 20.00     0.212 A 
HETATM    5  C5  UNL     1     -34.345   5.409   4.784  1.00 20.00     0.175 A 
HETATM    6  N7  UNL     1     -34.300   5.091   3.472  1.00 20.00    -0.244 NA
HETATM    7  O8  UNL     1     -33.695   6.724   6.607  1.00 20.00    -0.285 OA
HETATM    8 CL9  UNL     1     -35.402   4.364   5.671  1.00 20.00    -0.058 Cl
ENDROOT
BRANCH   3   9
HETATM    9  C6  UNL     1     -31.883   7.714   2.257  1.00 20.00     0.154 C 
HETATM   10 CL10 UNL     1     -32.652   9.269   1.860  1.00 20.00    -0.126 Cl
ENDBRANCH   3   9
TORSDOF 1
ENDMDL
MODEL 4
REMARK VINA RESULT:      -4.1      2.012      2.265
REMARK  1 active torsions:
REMARK  status: ('A' for Active; 'I' for Inactive)
REMARK    1  A    between atoms: C3_3  and  C6_6 
ROOT
HETATM    1  C1  UNL     1     -33.775  16.129  -2.518  1.00 20.00     0.068 A 
HETATM    2  C2  UNL     1     -36.107  15.779  -2.828  1.00 20.00     0.126 A 
HETATM    3  C3  UNL     1     -35.084  16.503  -2.236  1.00 20.00    -0.023 A 
HETATM    4  C4  UNL     1     -33.532  15.059  -3.373  1.00 20.00     0.212 A 
HETATM    5  C5  UNL     1     -34.625  14.401  -3.913  1.00 20.00     0.175 A 
HETATM    6  N7  UNL     1     -35.911  14.734  -3.663  1.00 20.00    -0.244 NA
HETATM    7  O8  UNL     1     -32.324  14.718  -3.631  1.00 20.00    -0.285 OA
HETATM    8 CL9  UNL     1     -34.500  13.053  -4.990  1.00 20.00    -0.058 Cl
ENDROOT
BRANCH   3   9
HETATM    9  C6  UNL     1     -35.378  17.642  -1.327  1.00 20.00     0.154 C 
HETATM   10 CL10 UNL     1     -34.969  17.232   0.356  1.00 20.00    -0.126 Cl
ENDBRANCH   3   9
TORSDOF 1
ENDMDL
MODEL 5
REMARK VINA RESULT:      -4.1      2.871      3.296
REMARK  1 active torsions:
REMARK  status: ('A' for Active; 'I' for Inactive)
REMARK    1  A    between atoms: C3_3  and  C6_6 
ROOT
HETATM    1  C1  UNL     1     -36.423  14.240  -4.160  1.00 20.00     0.068 A 
HETATM    2  C2  UNL     1     -35.607  16.043  -2.841  1.00 20.00     0.126 A 
HETATM    3  C3  UNL     1     -36.668  15.435  -3.493  1.00 20.00    -0.023 A 
HETATM    4  C4  UNL     1     -35.143  13.696  -4.153  1.00 20.00     0.212 A 
HETATM    5  C5  UNL     1     -34.151  14.383  -3.472  1.00 20.00     0.175 A 
HETATM    6  N7  UNL     1     -34.350  15.546  -2.813  1.00 20.00    -0.244 NA
HETATM    7  O8  UNL     1     -34.921  12.594  -4.769  1.00 20.00    -0.285 OA
HETATM    8 CL9  UNL     1     -32.509  13.848  -3.366  1.00 20.00    -0.058 Cl
ENDROOT
BRANCH   3   9
HETATM    9  C6  UNL     1     -38.025  16.042  -3.481  1.00 20.00     0.154 C 
HETATM   10 CL10 UNL     1     -39.266  14.828  -3.872  1.00 20.00    -0.126 Cl
ENDBRANCH   3   9
TORSDOF 1
ENDMDL
MODEL 6
REMARK VINA RESULT:      -3.9      1.898      1.898
REMARK  1 active torsions:
REMARK  status: ('A' for Active; 'I' for Inactive)
REMARK    1  A    between atoms: C3_3  and  C6_6 
ROOT
HETATM    1  C1  UNL     1     -35.997  15.205  -3.118  1.00 20.00     0.068 A 
HETATM    2  C2  UNL     1     -34.812  16.489  -4.732  1.00 20.00     0.126 A 
HETATM    3  C3  UNL     1     -34.903  16.002  -3.438  1.00 20.00    -0.023 A 
HETATM    4  C4  UNL     1     -36.952  14.922  -4.089  1.00 20.00     0.212 A 
HETATM    5  C5  UNL     1     -36.768  15.458  -5.353  1.00 20.00     0.175 A 
HETATM    6  N7  UNL     1     -35.720  16.236  -5.702  1.00 20.00    -0.244 NA
HETATM    7  O8  UNL     1     -37.958  14.187  -3.790  1.00 20.00    -0.285 OA
HETATM    8 CL9  UNL     1     -37.859  15.207  -6.672  1.00 20.00    -0.058 Cl
ENDROOT
BRANCH   3   9
HETATM    9  C6  UNL     1     -33.864  16.322  -2.423  1.00 20.00     0.154 C 
HETATM   10 CL10 UNL     1     -34.594  16.526  -0.813  1.00 20.00    -0.126 Cl
ENDBRANCH   3   9
TORSDOF 1
ENDMDL
MODEL 7
REMARK VINA RESULT:      -3.8      6.891      8.257
REMARK  1 active torsions:
REMARK  status: ('A' for Active; 'I' for Inactive)
REMARK    1  A    between atoms: C3_3  and  C6_6 
ROOT
HETATM    1  C1  UNL     1     -31.110  19.173   2.422  1.00 20.00     0.068 A 
HETATM    2  C2  UNL     1     -33.005  18.657   3.764  1.00 20.00     0.126 A 
HETATM    3  C3  UNL     1     -31.671  19.028   3.686  1.00 20.00    -0.023 A 
HETATM    4  C4  UNL     1     -31.888  18.948   1.291  1.00 20.00     0.212 A 
HETATM    5  C5  UNL     1     -33.211  18.582   1.478  1.00 20.00     0.175 A 
HETATM    6  N7  UNL     1     -33.792  18.430   2.688  1.00 20.00    -0.244 NA
HETATM    7  O8  UNL     1     -31.366  19.084   0.128  1.00 20.00    -0.285 OA
HETATM    8 CL9  UNL     1     -34.313  18.264   0.182  1.00 20.00    -0.058 Cl
ENDROOT
BRANCH   3   9
HETATM    9  C6  UNL     1     -30.867  19.261   4.914  1.00 20.00     0.154 C 
HETATM   10 CL10 UNL     1     -29.127  19.262   4.541  1.00 20.00    -0.126 Cl
ENDBRANCH   3   9
TORSDOF 1
ENDMDL
MODEL 8
REMARK VINA RESULT:      -3.8      2.159      4.443
REMARK  1 active torsions:
REMARK  status: ('A' for Active; 'I' for Inactive)
REMARK    1  A    between atoms: C3_3  and  C6_6 
ROOT
HETATM    1  C1  UNL     1     -33.884  16.765  -5.146  1.00 20.00     0.068 A 
HETATM    2  C2  UNL     1     -34.667  14.578  -4.635  1.00 20.00     0.126 A 
HETATM    3  C3  UNL     1     -34.241  15.495  -5.584  1.00 20.00    -0.023 A 
HETATM    4  C4  UNL     1     -33.962  17.076  -3.793  1.00 20.00     0.212 A 
HETATM    5  C5  UNL     1     -34.400  16.089  -2.926  1.00 20.00     0.175 A 
HETATM    6  N7  UNL     1     -34.756  14.843  -3.312  1.00 20.00    -0.244 NA
HETATM    7  O8  UNL     1     -33.632  18.249  -3.394  1.00 20.00    -0.285 OA
HETATM    8 CL9  UNL     1     -34.557  16.309  -1.217  1.00 20.00    -0.058 Cl
ENDROOT
BRANCH   3   9
HETATM    9  C6  UNL     1     -34.169  15.130  -7.023  1.00 20.00     0.154 C 
HETATM   10 CL10 UNL     1     -35.676  14.348  -7.555  1.00 20.00    -0.126 Cl
ENDBRANCH   3   9
TORSDOF 1
ENDMDL
MODEL 9
REMARK VINA RESULT:      -3.7      2.381      4.107
REMARK  1 active torsions:
REMARK  status: ('A' for Active; 'I' for Inactive)
REMARK    1  A    between atoms: C3_3  and  C6_6 
ROOT
HETATM    1  C1  UNL     1     -34.467  15.596  -2.968  1.00 20.00     0.068 A 
HETATM    2  C2  UNL     1     -33.762  17.002  -4.753  1.00 20.00     0.126 A 
HETATM    3  C3  UNL     1     -34.221  15.765  -4.326  1.00 20.00    -0.023 A 
HETATM    4  C4  UNL     1     -34.252  16.653  -2.091  1.00 20.00     0.212 A 
HETATM    5  C5  UNL     1     -33.792  17.849  -2.618  1.00 20.00     0.175 A 
HETATM    6  N7  UNL     1     -33.541  18.052  -3.930  1.00 20.00    -0.244 NA
HETATM    7  O8  UNL     1     -34.481  16.492  -0.840  1.00 20.00    -0.285 OA
HETATM    8 CL9  UNL     1     -33.471  19.258  -1.667  1.00 20.00    -0.058 Cl
ENDROOT
BRANCH   3   9
HETATM    9  C6  UNL     1     -34.442  14.656  -5.291  1.00 20.00     0.154 C 
HETATM   10 CL10 UNL     1     -34.825  13.142  -4.437  1.00 20.00    -0.126 Cl
ENDBRANCH   3   9
TORSDOF 1
ENDMDL
