MODEL 1
REMARK VINA RESULT:      -3.9      0.000      0.000
REMARK  0 active torsions:
REMARK  status: ('A' for Active; 'I' for Inactive)
ROOT
HETATM    1  C1  UNL     1     -33.219   6.757   3.957  1.00 20.00     0.050 C 
HETATM    2  C2  UNL     1     -33.641   5.750   2.905  1.00 20.00     0.171 C 
HETATM    3  C3  UNL     1     -33.566   6.014   5.227  1.00 20.00     0.128 C 
HETATM    4  C4  UNL     1     -34.877   5.353   4.839  1.00 20.00     0.235 C 
HETATM    5  O5  UNL     1     -34.779   5.053   3.437  1.00 20.00    -0.369 OA
HETATM    6 CL6  UNL     1     -33.718   7.088   6.623  1.00 20.00    -0.121 Cl
HETATM    7 CL7  UNL     1     -35.177   3.871   5.760  1.00 20.00    -0.094 Cl
ENDROOT
TORSDOF 0
ENDMDL
MODEL 2
REMARK VINA RESULT:      -3.8      1.260      2.517
REMARK  0 active torsions:
REMARK  status: ('A' for Active; 'I' for Inactive)
ROOT
HETATM    1  C1  UNL     1     -33.969   5.440   2.969  1.00 20.00     0.050 C 
HETATM    2  C2  UNL     1     -33.069   6.660   2.956  1.00 20.00     0.171 C 
HETATM    3  C3  UNL     1     -34.591   5.552   4.343  1.00 20.00     0.128 C 
HETATM    4  C4  UNL     1     -33.407   6.021   5.171  1.00 20.00     0.235 C 
HETATM    5  O5  UNL     1     -32.611   6.846   4.305  1.00 20.00    -0.369 OA
HETATM    6 CL6  UNL     1     -35.269   4.020   4.908  1.00 20.00    -0.121 Cl
HETATM    7 CL7  UNL     1     -33.911   6.941   6.597  1.00 20.00    -0.094 Cl
ENDROOT
TORSDOF 0
ENDMDL
MODEL 3
REMARK VINA RESULT:      -3.7      2.116      2.866
REMARK  0 active torsions:
REMARK  status: ('A' for Active; 'I' for Inactive)
ROOT
HETATM    1  C1  UNL     1     -34.628   4.710   4.188  1.00 20.00     0.050 C 
HETATM    2  C2  UNL     1     -35.043   4.222   5.562  1.00 20.00     0.171 C 
HETATM    3  C3  UNL     1     -33.647   5.801   4.550  1.00 20.00     0.128 C 
HETATM    4  C4  UNL     1     -34.329   6.432   5.752  1.00 20.00     0.235 C 
HETATM    5  O5  UNL     1     -35.018   5.368   6.428  1.00 20.00    -0.369 OA
HETATM    6 CL6  UNL     1     -33.381   6.943   3.226  1.00 20.00    -0.121 Cl
HETATM    7 CL7  UNL     1     -33.174   7.205   6.848  1.00 20.00    -0.094 Cl
ENDROOT
TORSDOF 0
ENDMDL
MODEL 4
REMARK VINA RESULT:      -3.7      1.696      2.473
REMARK  0 active torsions:
REMARK  status: ('A' for Active; 'I' for Inactive)
ROOT
HETATM    1  C1  UNL     1     -34.941   5.213   5.826  1.00 20.00     0.050 C 
HETATM    2  C2  UNL     1     -35.278   4.624   4.471  1.00 20.00     0.171 C 
HETATM    3  C3  UNL     1     -34.183   6.457   5.424  1.00 20.00     0.128 C 
HETATM    4  C4  UNL     1     -33.372   5.946   4.245  1.00 20.00     0.235 C 
HETATM    5  O5  UNL     1     -34.184   4.952   3.598  1.00 20.00    -0.369 OA
HETATM    6 CL6  UNL     1     -33.178   7.093   6.731  1.00 20.00    -0.121 Cl
HETATM    7 CL7  UNL     1     -32.965   7.237   3.104  1.00 20.00    -0.094 Cl
ENDROOT
TORSDOF 0
ENDMDL
MODEL 5
REMARK VINA RESULT:      -3.5      2.308      3.418
REMARK  0 active torsions:
REMARK  status: ('A' for Active; 'I' for Inactive)
ROOT
HETATM    1  C1  UNL     1     -35.103   4.841   5.004  1.00 20.00     0.050 C 
HETATM    2  C2  UNL     1     -34.514   5.451   6.260  1.00 20.00     0.171 C 
HETATM    3  C3  UNL     1     -34.058   5.219   3.979  1.00 20.00     0.128 C 
HETATM    4  C4  UNL     1     -33.698   6.627   4.422  1.00 20.00     0.235 C 
HETATM    5  O5  UNL     1     -33.824   6.643   5.853  1.00 20.00    -0.369 OA
HETATM    6 CL6  UNL     1     -34.674   5.150   2.323  1.00 20.00    -0.121 Cl
HETATM    7 CL7  UNL     1     -32.053   7.077   3.949  1.00 20.00    -0.094 Cl
ENDROOT
TORSDOF 0
ENDMDL
MODEL 6
REMARK VINA RESULT:      -3.3      2.213      3.219
REMARK  0 active torsions:
REMARK  status: ('A' for Active; 'I' for Inactive)
ROOT
HETATM    1  C1  UNL     1     -34.549   5.758   6.463  1.00 20.00     0.050 C 
HETATM    2  C2  UNL     1     -33.508   6.853   6.580  1.00 20.00     0.171 C 
HETATM    3  C3  UNL     1     -34.123   5.087   5.177  1.00 20.00     0.128 C 
HETATM    4  C4  UNL     1     -33.725   6.284   4.331  1.00 20.00     0.235 C 
HETATM    5  O5  UNL     1     -33.186   7.258   5.240  1.00 20.00    -0.369 OA
HETATM    6 CL6  UNL     1     -35.416   4.125   4.451  1.00 20.00    -0.121 Cl
HETATM    7 CL7  UNL     1     -32.521   5.865   3.102  1.00 20.00    -0.094 Cl
ENDROOT
TORSDOF 0
ENDMDL
MODEL 7
REMARK VINA RESULT:      -3.3     12.096     12.483
REMARK  0 active torsions:
REMARK  status: ('A' for Active; 'I' for Inactive)
ROOT
HETATM    1  C1  UNL     1     -35.157  13.871  -4.421  1.00 20.00     0.050 C 
HETATM    2  C2  UNL     1     -36.525  14.392  -4.028  1.00 20.00     0.171 C 
HETATM    3  C3  UNL     1     -34.317  14.352  -3.260  1.00 20.00     0.128 C 
HETATM    4  C4  UNL     1     -34.910  15.727  -3.009  1.00 20.00     0.235 C 
HETATM    5  O5  UNL     1     -36.307  15.628  -3.329  1.00 20.00    -0.369 OA
HETATM    6 CL6  UNL     1     -32.592  14.399  -3.642  1.00 20.00    -0.121 Cl
HETATM    7 CL7  UNL     1     -34.703  16.249  -1.330  1.00 20.00    -0.094 Cl
ENDROOT
TORSDOF 0
ENDMDL
MODEL 8
REMARK VINA RESULT:      -3.2     13.030     13.693
REMARK  0 active torsions:
REMARK  status: ('A' for Active; 'I' for Inactive)
ROOT
HETATM    1  C1  UNL     1     -34.387  15.113  -6.080  1.00 20.00     0.050 C 
HETATM    2  C2  UNL     1     -33.704  16.466  -6.117  1.00 20.00     0.171 C 
HETATM    3  C3  UNL     1     -34.672  14.971  -4.603  1.00 20.00     0.128 C 
HETATM    4  C4  UNL     1     -33.407  15.550  -3.995  1.00 20.00     0.235 C 
HETATM    5  O5  UNL     1     -32.970  16.588  -4.888  1.00 20.00    -0.369 OA
HETATM    6 CL6  UNL     1     -34.966  13.294  -4.125  1.00 20.00    -0.121 Cl
HETATM    7 CL7  UNL     1     -33.686  16.215  -2.377  1.00 20.00    -0.094 Cl
ENDROOT
TORSDOF 0
ENDMDL
MODEL 9
REMARK VINA RESULT:      -3.2     12.951     13.546
REMARK  0 active torsions:
REMARK  status: ('A' for Active; 'I' for Inactive)
ROOT
HETATM    1  C1  UNL     1     -33.360  16.178  -5.093  1.00 20.00     0.050 C 
HETATM    2  C2  UNL     1     -33.659  17.614  -4.711  1.00 20.00     0.171 C 
HETATM    3  C3  UNL     1     -33.971  15.433  -3.929  1.00 20.00     0.128 C 
HETATM    4  C4  UNL     1     -33.596  16.334  -2.765  1.00 20.00     0.235 C 
HETATM    5  O5  UNL     1     -33.603  17.676  -3.277  1.00 20.00    -0.369 OA
HETATM    6 CL6  UNL     1     -33.340  13.790  -3.766  1.00 20.00    -0.121 Cl
HETATM    7 CL7  UNL     1     -34.732  16.190  -1.415  1.00 20.00    -0.094 Cl
ENDROOT
TORSDOF 0
ENDMDL
