MODEL 1
REMARK VINA RESULT:      -3.2      0.000      0.000
REMARK  2 active torsions:
REMARK  status: ('A' for Active; 'I' for Inactive)
REMARK    1  A    between atoms: C1_1  and  O4_4 
REMARK    2  A    between atoms: C1_1  and  S5_5 
ROOT
HETATM    1  C1  UNL     1     -34.065   6.203   5.826  1.00 20.00     0.337 C 
HETATM    2  O3  UNL     1     -33.417   7.020   6.469  1.00 20.00    -0.251 OA
ENDROOT
BRANCH   1   3
HETATM    3  O4  UNL     1     -34.855   5.236   6.384  1.00 20.00    -0.317 OA
HETATM    4  C2  UNL     1     -34.978   4.022   5.635  1.00 20.00     0.214 C 
ENDBRANCH   1   3
BRANCH   1   5
HETATM    5  S5  UNL     1     -34.055   6.178   4.055  1.00 20.00     0.050 SA
HETATM    6 CL6  UNL     1     -32.173   6.846   3.670  1.00 20.00    -0.033 Cl
ENDBRANCH   1   5
TORSDOF 2
ENDMDL
MODEL 2
REMARK VINA RESULT:      -3.2      2.857      3.378
REMARK  2 active torsions:
REMARK  status: ('A' for Active; 'I' for Inactive)
REMARK    1  A    between atoms: C1_1  and  O4_4 
REMARK    2  A    between atoms: C1_1  and  S5_5 
ROOT
HETATM    1  C1  UNL     1     -34.297   5.698   3.902  1.00 20.00     0.337 C 
HETATM    2  O3  UNL     1     -34.728   5.122   2.911  1.00 20.00    -0.251 OA
ENDROOT
BRANCH   1   3
HETATM    3  O4  UNL     1     -33.482   6.797   3.861  1.00 20.00    -0.317 OA
HETATM    4  C2  UNL     1     -32.215   6.611   3.220  1.00 20.00     0.214 C 
ENDBRANCH   1   3
BRANCH   1   5
HETATM    5  S5  UNL     1     -34.687   5.164   5.545  1.00 20.00     0.050 SA
HETATM    6 CL6  UNL     1     -33.952   6.714   6.639  1.00 20.00    -0.033 Cl
ENDBRANCH   1   5
TORSDOF 2
ENDMDL
MODEL 3
REMARK VINA RESULT:      -3.2      3.197      3.725
REMARK  2 active torsions:
REMARK  status: ('A' for Active; 'I' for Inactive)
REMARK    1  A    between atoms: C1_1  and  O4_4 
REMARK    2  A    between atoms: C1_1  and  S5_5 
ROOT
HETATM    1  C1  UNL     1     -33.692   5.869   3.897  1.00 20.00     0.337 C 
HETATM    2  O3  UNL     1     -34.511   5.399   3.116  1.00 20.00    -0.251 OA
ENDROOT
BRANCH   1   3
HETATM    3  O4  UNL     1     -32.414   6.220   3.555  1.00 20.00    -0.317 OA
HETATM    4  C2  UNL     1     -32.285   7.393   2.745  1.00 20.00     0.214 C 
ENDBRANCH   1   3
BRANCH   1   5
HETATM    5  S5  UNL     1     -34.075   6.158   5.601  1.00 20.00     0.050 SA
HETATM    6 CL6  UNL     1     -35.077   4.450   6.067  1.00 20.00    -0.033 Cl
ENDBRANCH   1   5
TORSDOF 2
ENDMDL
MODEL 4
REMARK VINA RESULT:      -3.2      3.008      3.398
REMARK  2 active torsions:
REMARK  status: ('A' for Active; 'I' for Inactive)
REMARK    1  A    between atoms: C1_1  and  O4_4 
REMARK    2  A    between atoms: C1_1  and  S5_5 
ROOT
HETATM    1  C1  UNL     1     -33.761   6.094   4.213  1.00 20.00     0.337 C 
HETATM    2  O3  UNL     1     -33.376   6.670   5.223  1.00 20.00    -0.251 OA
ENDROOT
BRANCH   1   3
HETATM    3  O4  UNL     1     -33.153   6.192   2.991  1.00 20.00    -0.317 OA
HETATM    4  C2  UNL     1     -32.226   7.272   2.840  1.00 20.00     0.214 C 
ENDBRANCH   1   3
BRANCH   1   5
HETATM    5  S5  UNL     1     -35.184   5.041   4.215  1.00 20.00     0.050 SA
HETATM    6 CL6  UNL     1     -35.078   4.251   6.087  1.00 20.00    -0.033 Cl
ENDBRANCH   1   5
TORSDOF 2
ENDMDL
MODEL 5
REMARK VINA RESULT:      -3.1      1.178      2.257
REMARK  2 active torsions:
REMARK  status: ('A' for Active; 'I' for Inactive)
REMARK    1  A    between atoms: C1_1  and  O4_4 
REMARK    2  A    between atoms: C1_1  and  S5_5 
ROOT
HETATM    1  C1  UNL     1     -34.751   4.697   5.187  1.00 20.00     0.337 C 
HETATM    2  O3  UNL     1     -35.071   3.531   4.989  1.00 20.00    -0.251 OA
ENDROOT
BRANCH   1   3
HETATM    3  O4  UNL     1     -34.401   5.203   6.410  1.00 20.00    -0.317 OA
HETATM    4  C2  UNL     1     -34.025   6.584   6.429  1.00 20.00     0.214 C 
ENDBRANCH   1   3
BRANCH   1   5
HETATM    5  S5  UNL     1     -34.703   5.895   3.884  1.00 20.00     0.050 SA
HETATM    6 CL6  UNL     1     -32.739   5.816   3.360  1.00 20.00    -0.033 Cl
ENDBRANCH   1   5
TORSDOF 2
ENDMDL
MODEL 6
REMARK VINA RESULT:      -3.1     12.987     13.140
REMARK  2 active torsions:
REMARK  status: ('A' for Active; 'I' for Inactive)
REMARK    1  A    between atoms: C1_1  and  O4_4 
REMARK    2  A    between atoms: C1_1  and  S5_5 
ROOT
HETATM    1  C1  UNL     1     -34.382  13.494  -4.393  1.00 20.00     0.337 C 
HETATM    2  O3  UNL     1     -35.119  12.527  -4.545  1.00 20.00    -0.251 OA
ENDROOT
BRANCH   1   3
HETATM    3  O4  UNL     1     -33.178  13.451  -3.744  1.00 20.00    -0.317 OA
HETATM    4  C2  UNL     1     -32.497  14.703  -3.610  1.00 20.00     0.214 C 
ENDBRANCH   1   3
BRANCH   1   5
HETATM    5  S5  UNL     1     -34.798  15.100  -5.012  1.00 20.00     0.050 SA
HETATM    6 CL6  UNL     1     -34.357  14.879  -6.986  1.00 20.00    -0.033 Cl
ENDBRANCH   1   5
TORSDOF 2
ENDMDL
MODEL 7
REMARK VINA RESULT:      -3.0     12.667     12.883
REMARK  2 active torsions:
REMARK  status: ('A' for Active; 'I' for Inactive)
REMARK    1  A    between atoms: C1_1  and  O4_4 
REMARK    2  A    between atoms: C1_1  and  S5_5 
ROOT
HETATM    1  C1  UNL     1     -35.448  13.675  -4.370  1.00 20.00     0.337 C 
HETATM    2  O3  UNL     1     -34.927  12.572  -4.478  1.00 20.00    -0.251 OA
ENDROOT
BRANCH   1   3
HETATM    3  O4  UNL     1     -36.704  13.889  -3.872  1.00 20.00    -0.317 OA
HETATM    4  C2  UNL     1     -37.032  15.249  -3.568  1.00 20.00     0.214 C 
ENDBRANCH   1   3
BRANCH   1   5
HETATM    5  S5  UNL     1     -34.616  15.160  -4.858  1.00 20.00     0.050 SA
HETATM    6 CL6  UNL     1     -33.097  15.214  -3.507  1.00 20.00    -0.033 Cl
ENDBRANCH   1   5
TORSDOF 2
ENDMDL
MODEL 8
REMARK VINA RESULT:      -2.9      1.887      2.235
REMARK  2 active torsions:
REMARK  status: ('A' for Active; 'I' for Inactive)
REMARK    1  A    between atoms: C1_1  and  O4_4 
REMARK    2  A    between atoms: C1_1  and  S5_5 
ROOT
HETATM    1  C1  UNL     1     -33.851   6.028   4.032  1.00 20.00     0.337 C 
HETATM    2  O3  UNL     1     -34.844   5.608   3.452  1.00 20.00    -0.251 OA
ENDROOT
BRANCH   1   3
HETATM    3  O4  UNL     1     -33.840   6.455   5.332  1.00 20.00    -0.317 OA
HETATM    4  C2  UNL     1     -34.500   5.604   6.274  1.00 20.00     0.214 C 
ENDBRANCH   1   3
BRANCH   1   5
HETATM    5  S5  UNL     1     -32.271   6.133   3.238  1.00 20.00     0.050 SA
HETATM    6 CL6  UNL     1     -32.378   7.987   2.410  1.00 20.00    -0.033 Cl
ENDBRANCH   1   5
TORSDOF 2
ENDMDL
MODEL 9
REMARK VINA RESULT:      -2.9     13.044     13.265
REMARK  2 active torsions:
REMARK  status: ('A' for Active; 'I' for Inactive)
REMARK    1  A    between atoms: C1_1  and  O4_4 
REMARK    2  A    between atoms: C1_1  and  S5_5 
ROOT
HETATM    1  C1  UNL     1     -35.509  13.697  -4.355  1.00 20.00     0.337 C 
HETATM    2  O3  UNL     1     -34.974  12.604  -4.495  1.00 20.00    -0.251 OA
ENDROOT
BRANCH   1   3
HETATM    3  O4  UNL     1     -36.774  13.878  -3.864  1.00 20.00    -0.317 OA
HETATM    4  C2  UNL     1     -37.190  15.237  -3.699  1.00 20.00     0.214 C 
ENDBRANCH   1   3
BRANCH   1   5
HETATM    5  S5  UNL     1     -34.691  15.208  -4.781  1.00 20.00     0.050 SA
HETATM    6 CL6  UNL     1     -34.352  14.918  -6.765  1.00 20.00    -0.033 Cl
ENDBRANCH   1   5
TORSDOF 2
ENDMDL
