MODEL 1
REMARK VINA RESULT:      -4.6      0.000      0.000
REMARK  0 active torsions:
REMARK  status: ('A' for Active; 'I' for Inactive)
ROOT
HETATM    1  C1  UNL     1     -34.801  13.562  -3.909  1.00 20.00     0.032 A 
HETATM    2  C2  UNL     1     -34.248  15.598  -2.361  1.00 20.00     0.040 A 
HETATM    3  C3  UNL     1     -33.729  17.508  -3.707  1.00 20.00     0.142 A 
HETATM    4  C4  UNL     1     -34.822  13.485  -5.285  1.00 20.00     0.093 A 
HETATM    5  C5  UNL     1     -34.441  14.890  -3.558  1.00 20.00     0.013 A 
HETATM    6  C6  UNL     1     -33.884  16.940  -2.450  1.00 20.00     0.052 A 
HETATM    7  C7  UNL     1     -34.252  15.584  -4.750  1.00 20.00     0.139 A 
HETATM    8  C8  UNL     1     -34.399  15.040  -7.191  1.00 20.00     0.157 C 
HETATM    9  N9  UNL     1     -33.901  16.876  -4.892  1.00 20.00    -0.241 NA
HETATM   10  N10 UNL     1     -34.487  14.717  -5.785  1.00 20.00    -0.345 N 
HETATM   11 CL11 UNL     1     -33.632  17.871  -1.030  1.00 20.00    -0.083 Cl
ENDROOT
TORSDOF 0
ENDMDL
MODEL 2
REMARK VINA RESULT:      -4.4      1.801      2.540
REMARK  0 active torsions:
REMARK  status: ('A' for Active; 'I' for Inactive)
ROOT
HETATM    1  C1  UNL     1     -34.757  15.213  -2.925  1.00 20.00     0.032 A 
HETATM    2  C2  UNL     1     -34.586  16.593  -0.709  1.00 20.00     0.040 A 
HETATM    3  C3  UNL     1     -33.681  18.758  -1.182  1.00 20.00     0.142 A 
HETATM    4  C4  UNL     1     -34.413  15.571  -4.211  1.00 20.00     0.093 A 
HETATM    5  C5  UNL     1     -34.471  16.318  -2.081  1.00 20.00     0.013 A 
HETATM    6  C6  UNL     1     -34.179  17.848  -0.259  1.00 20.00     0.052 A 
HETATM    7  C7  UNL     1     -33.954  17.323  -2.894  1.00 20.00     0.139 A 
HETATM    8  C8  UNL     1     -33.459  17.585  -5.336  1.00 20.00     0.157 C 
HETATM    9  N9  UNL     1     -33.546  18.549  -2.512  1.00 20.00    -0.241 NA
HETATM   10  N10 UNL     1     -33.927  16.852  -4.180  1.00 20.00    -0.345 N 
HETATM   11 CL11 UNL     1     -34.292  18.258   1.404  1.00 20.00    -0.083 Cl
ENDROOT
TORSDOF 0
ENDMDL
MODEL 3
REMARK VINA RESULT:      -4.4      2.378      4.057
REMARK  0 active torsions:
REMARK  status: ('A' for Active; 'I' for Inactive)
ROOT
HETATM    1  C1  UNL     1     -34.763  16.331  -1.051  1.00 20.00     0.032 A 
HETATM    2  C2  UNL     1     -34.805  14.679  -3.079  1.00 20.00     0.040 A 
HETATM    3  C3  UNL     1     -33.872  15.752  -5.005  1.00 20.00     0.142 A 
HETATM    4  C4  UNL     1     -34.303  17.628  -0.985  1.00 20.00     0.093 A 
HETATM    5  C5  UNL     1     -34.561  15.871  -2.379  1.00 20.00     0.013 A 
HETATM    6  C6  UNL     1     -34.447  14.629  -4.425  1.00 20.00     0.052 A 
HETATM    7  C7  UNL     1     -33.978  16.920  -3.084  1.00 20.00     0.139 A 
HETATM    8  C8  UNL     1     -33.263  19.263  -2.559  1.00 20.00     0.157 C 
HETATM    9  N9  UNL     1     -33.614  16.925  -4.381  1.00 20.00    -0.241 NA
HETATM   10  N10 UNL     1     -33.830  17.976  -2.224  1.00 20.00    -0.345 N 
HETATM   11 CL11 UNL     1     -34.713  13.205  -5.346  1.00 20.00    -0.083 Cl
ENDROOT
TORSDOF 0
ENDMDL
MODEL 4
REMARK VINA RESULT:      -4.4     12.411     13.816
REMARK  0 active torsions:
REMARK  status: ('A' for Active; 'I' for Inactive)
ROOT
HETATM    1  C1  UNL     1     -40.865   6.069  -0.852  1.00 20.00     0.032 A 
HETATM    2  C2  UNL     1     -41.328   3.732  -1.934  1.00 20.00     0.040 A 
HETATM    3  C3  UNL     1     -43.111   3.923  -3.519  1.00 20.00     0.142 A 
HETATM    4  C4  UNL     1     -41.483   7.279  -1.080  1.00 20.00     0.093 A 
HETATM    5  C5  UNL     1     -41.484   5.106  -1.692  1.00 20.00     0.013 A 
HETATM    6  C6  UNL     1     -42.167   3.136  -2.874  1.00 20.00     0.052 A 
HETATM    7  C7  UNL     1     -42.472   5.774  -2.411  1.00 20.00     0.139 A 
HETATM    8  C8  UNL     1     -43.327   8.126  -2.534  1.00 20.00     0.157 C 
HETATM    9  N9  UNL     1     -43.307   5.248  -3.327  1.00 20.00    -0.241 NA
HETATM   10  N10 UNL     1     -42.456   7.089  -2.026  1.00 20.00    -0.345 N 
HETATM   11 CL11 UNL     1     -42.034   1.461  -3.224  1.00 20.00    -0.083 Cl
ENDROOT
TORSDOF 0
ENDMDL
MODEL 5
REMARK VINA RESULT:      -4.1      1.536      1.588
REMARK  0 active torsions:
REMARK  status: ('A' for Active; 'I' for Inactive)
ROOT
HETATM    1  C1  UNL     1     -34.124  13.853  -4.336  1.00 20.00     0.032 A 
HETATM    2  C2  UNL     1     -34.302  15.476  -2.291  1.00 20.00     0.040 A 
HETATM    3  C3  UNL     1     -36.019  17.093  -2.699  1.00 20.00     0.142 A 
HETATM    4  C4  UNL     1     -34.847  13.837  -5.509  1.00 20.00     0.093 A 
HETATM    5  C5  UNL     1     -34.605  14.934  -3.550  1.00 20.00     0.013 A 
HETATM    6  C6  UNL     1     -35.034  16.583  -1.864  1.00 20.00     0.052 A 
HETATM    7  C7  UNL     1     -35.618  15.546  -4.283  1.00 20.00     0.139 A 
HETATM    8  C8  UNL     1     -36.693  15.182  -6.517  1.00 20.00     0.157 C 
HETATM    9  N9  UNL     1     -36.353  16.614  -3.920  1.00 20.00    -0.241 NA
HETATM   10  N10 UNL     1     -35.750  14.868  -5.467  1.00 20.00    -0.345 N 
HETATM   11 CL11 UNL     1     -34.721  17.299  -0.336  1.00 20.00    -0.083 Cl
ENDROOT
TORSDOF 0
ENDMDL
MODEL 6
REMARK VINA RESULT:      -4.1      2.978      4.432
REMARK  0 active torsions:
REMARK  status: ('A' for Active; 'I' for Inactive)
ROOT
HETATM    1  C1  UNL     1     -34.457  16.659  -1.060  1.00 20.00     0.032 A 
HETATM    2  C2  UNL     1     -34.462  14.881  -2.979  1.00 20.00     0.040 A 
HETATM    3  C3  UNL     1     -36.280  15.320  -4.473  1.00 20.00     0.142 A 
HETATM    4  C4  UNL     1     -35.311  17.719  -0.843  1.00 20.00     0.093 A 
HETATM    5  C5  UNL     1     -34.887  15.996  -2.239  1.00 20.00     0.013 A 
HETATM    6  C6  UNL     1     -35.183  14.544  -4.123  1.00 20.00     0.052 A 
HETATM    7  C7  UNL     1     -36.003  16.685  -2.705  1.00 20.00     0.139 A 
HETATM    8  C8  UNL     1     -37.317  18.687  -1.969  1.00 20.00     0.157 C 
HETATM    9  N9  UNL     1     -36.735  16.403  -3.799  1.00 20.00    -0.241 NA
HETATM   10  N10 UNL     1     -36.245  17.725  -1.846  1.00 20.00    -0.345 N 
HETATM   11 CL11 UNL     1     -34.723  13.195  -5.079  1.00 20.00    -0.083 Cl
ENDROOT
TORSDOF 0
ENDMDL
MODEL 7
REMARK VINA RESULT:      -4.0      1.202      2.257
REMARK  0 active torsions:
REMARK  status: ('A' for Active; 'I' for Inactive)
ROOT
HETATM    1  C1  UNL     1     -34.063  16.317  -6.374  1.00 20.00     0.032 A 
HETATM    2  C2  UNL     1     -33.734  17.890  -4.309  1.00 20.00     0.040 A 
HETATM    3  C3  UNL     1     -33.964  16.622  -2.293  1.00 20.00     0.142 A 
HETATM    4  C4  UNL     1     -34.329  14.966  -6.415  1.00 20.00     0.093 A 
HETATM    5  C5  UNL     1     -33.975  16.697  -5.009  1.00 20.00     0.013 A 
HETATM    6  C6  UNL     1     -33.730  17.839  -2.917  1.00 20.00     0.052 A 
HETATM    7  C7  UNL     1     -34.195  15.546  -4.256  1.00 20.00     0.139 A 
HETATM    8  C8  UNL     1     -34.674  13.138  -4.750  1.00 20.00     0.157 C 
HETATM    9  N9  UNL     1     -34.202  15.443  -2.914  1.00 20.00    -0.241 NA
HETATM   10  N10 UNL     1     -34.407  14.508  -5.125  1.00 20.00    -0.345 N 
HETATM   11 CL11 UNL     1     -33.441  19.257  -1.993  1.00 20.00    -0.083 Cl
ENDROOT
TORSDOF 0
ENDMDL
MODEL 8
REMARK VINA RESULT:      -4.0      2.478      4.319
REMARK  0 active torsions:
REMARK  status: ('A' for Active; 'I' for Inactive)
ROOT
HETATM    1  C1  UNL     1     -33.634  18.217  -5.808  1.00 20.00     0.032 A 
HETATM    2  C2  UNL     1     -34.061  15.649  -5.543  1.00 20.00     0.040 A 
HETATM    3  C3  UNL     1     -34.145  15.088  -3.218  1.00 20.00     0.142 A 
HETATM    4  C4  UNL     1     -33.469  19.184  -4.840  1.00 20.00     0.093 A 
HETATM    5  C5  UNL     1     -33.838  16.978  -5.146  1.00 20.00     0.013 A 
HETATM    6  C6  UNL     1     -34.218  14.689  -4.545  1.00 20.00     0.052 A 
HETATM    7  C7  UNL     1     -33.789  17.238  -3.779  1.00 20.00     0.139 A 
HETATM    8  C8  UNL     1     -33.444  19.263  -2.345  1.00 20.00     0.157 C 
HETATM    9  N9  UNL     1     -33.932  16.350  -2.777  1.00 20.00    -0.241 NA
HETATM   10  N10 UNL     1     -33.564  18.579  -3.614  1.00 20.00    -0.345 N 
HETATM   11 CL11 UNL     1     -34.495  13.045  -4.953  1.00 20.00    -0.083 Cl
ENDROOT
TORSDOF 0
ENDMDL
MODEL 9
REMARK VINA RESULT:      -3.9      1.666      1.822
REMARK  0 active torsions:
REMARK  status: ('A' for Active; 'I' for Inactive)
ROOT
HETATM    1  C1  UNL     1     -37.240  15.479  -5.123  1.00 20.00     0.032 A 
HETATM    2  C2  UNL     1     -36.056  16.035  -2.857  1.00 20.00     0.040 A 
HETATM    3  C3  UNL     1     -33.682  15.988  -3.161  1.00 20.00     0.142 A 
HETATM    4  C4  UNL     1     -36.690  15.190  -6.353  1.00 20.00     0.093 A 
HETATM    5  C5  UNL     1     -36.171  15.708  -4.217  1.00 20.00     0.013 A 
HETATM    6  C6  UNL     1     -34.775  16.177  -2.326  1.00 20.00     0.052 A 
HETATM    7  C7  UNL     1     -34.991  15.547  -4.939  1.00 20.00     0.139 A 
HETATM    8  C8  UNL     1     -34.392  14.986  -7.306  1.00 20.00     0.157 C 
HETATM    9  N9  UNL     1     -33.732  15.672  -4.477  1.00 20.00    -0.241 NA
HETATM   10  N10 UNL     1     -35.326  15.234  -6.230  1.00 20.00    -0.345 N 
HETATM   11 CL11 UNL     1     -34.556  16.576  -0.672  1.00 20.00    -0.083 Cl
ENDROOT
TORSDOF 0
ENDMDL
