MODEL 1
REMARK VINA RESULT:      -4.7      0.000      0.000
REMARK  1 active torsions:
REMARK  status: ('A' for Active; 'I' for Inactive)
REMARK    1  A    between atoms: C4_4  and  C8_8 
ROOT
HETATM    1  C1  UNL     1     -34.618  14.452  -5.922  1.00 20.00     0.079 A 
HETATM    2  C2  UNL     1     -34.980  14.743  -3.452  1.00 20.00     0.088 A 
HETATM    3  C3  UNL     1     -34.468  15.777  -5.961  1.00 20.00     0.146 A 
HETATM    4  C4  UNL     1     -34.809  16.066  -3.619  1.00 20.00     0.064 A 
HETATM    5  C5  UNL     1     -34.894  13.830  -4.614  1.00 20.00     0.176 A 
HETATM    6  O10 UNL     1     -35.044  12.620  -4.494  1.00 20.00    -0.288 OA
HETATM    7  O11 UNL     1     -34.551  16.615  -4.876  1.00 20.00    -0.326 OA
ENDROOT
BRANCH   4   8
HETATM    8  C8  UNL     1     -34.886  17.024  -2.493  1.00 20.00     0.006 A 
HETATM    9  C6  UNL     1     -33.615  17.250  -1.709  1.00 20.00     0.017 A 
HETATM   10  C7  UNL     1     -34.730  16.451  -1.106  1.00 20.00     0.017 A 
HETATM   11  C9  UNL     1     -35.821  18.181  -2.685  1.00 20.00     0.022 C 
ENDBRANCH   4   8
TORSDOF 1
ENDMDL
MODEL 2
REMARK VINA RESULT:      -4.6      1.704      1.900
REMARK  1 active torsions:
REMARK  status: ('A' for Active; 'I' for Inactive)
REMARK    1  A    between atoms: C4_4  and  C8_8 
ROOT
HETATM    1  C1  UNL     1     -35.579  13.709  -4.176  1.00 20.00     0.079 A 
HETATM    2  C2  UNL     1     -33.888  15.076  -2.915  1.00 20.00     0.088 A 
HETATM    3  C3  UNL     1     -36.461  14.643  -3.819  1.00 20.00     0.146 A 
HETATM    4  C4  UNL     1     -34.867  15.950  -2.621  1.00 20.00     0.064 A 
HETATM    5  C5  UNL     1     -34.184  13.875  -3.728  1.00 20.00     0.176 A 
HETATM    6  O10 UNL     1     -33.314  13.061  -4.014  1.00 20.00    -0.288 OA
HETATM    7  O11 UNL     1     -36.175  15.753  -3.063  1.00 20.00    -0.326 OA
ENDROOT
BRANCH   4   8
HETATM    8  C8  UNL     1     -34.627  17.166  -1.811  1.00 20.00     0.006 A 
HETATM    9  C6  UNL     1     -34.698  17.005  -0.311  1.00 20.00     0.017 A 
HETATM   10  C7  UNL     1     -35.804  17.707  -1.038  1.00 20.00     0.017 A 
HETATM   11  C9  UNL     1     -33.637  18.140  -2.377  1.00 20.00     0.022 C 
ENDBRANCH   4   8
TORSDOF 1
ENDMDL
MODEL 3
REMARK VINA RESULT:      -4.4      1.762      1.960
REMARK  1 active torsions:
REMARK  status: ('A' for Active; 'I' for Inactive)
REMARK    1  A    between atoms: C4_4  and  C8_8 
ROOT
HETATM    1  C1  UNL     1     -35.199  13.630  -4.171  1.00 20.00     0.079 A 
HETATM    2  C2  UNL     1     -36.116  15.650  -2.989  1.00 20.00     0.088 A 
HETATM    3  C3  UNL     1     -33.996  14.083  -3.812  1.00 20.00     0.146 A 
HETATM    4  C4  UNL     1     -34.854  16.002  -2.687  1.00 20.00     0.064 A 
HETATM    5  C5  UNL     1     -36.378  14.417  -3.766  1.00 20.00     0.176 A 
HETATM    6  O10 UNL     1     -37.516  14.069  -4.056  1.00 20.00    -0.288 OA
HETATM    7  O11 UNL     1     -33.765  15.229  -3.092  1.00 20.00    -0.326 OA
ENDROOT
BRANCH   4   8
HETATM    8  C8  UNL     1     -34.535  17.224  -1.914  1.00 20.00     0.006 A 
HETATM    9  C6  UNL     1     -34.390  17.062  -0.420  1.00 20.00     0.017 A 
HETATM   10  C7  UNL     1     -35.606  17.733  -0.981  1.00 20.00     0.017 A 
HETATM   11  C9  UNL     1     -33.662  18.226  -2.611  1.00 20.00     0.022 C 
ENDBRANCH   4   8
TORSDOF 1
ENDMDL
MODEL 4
REMARK VINA RESULT:      -4.4      2.426      4.550
REMARK  1 active torsions:
REMARK  status: ('A' for Active; 'I' for Inactive)
REMARK    1  A    between atoms: C4_4  and  C8_8 
ROOT
HETATM    1  C1  UNL     1     -33.994  18.761  -0.303  1.00 20.00     0.079 A 
HETATM    2  C2  UNL     1     -34.675  16.451  -1.021  1.00 20.00     0.088 A 
HETATM    3  C3  UNL     1     -33.465  18.882  -1.522  1.00 20.00     0.146 A 
HETATM    4  C4  UNL     1     -34.107  16.693  -2.215  1.00 20.00     0.064 A 
HETATM    5  C5  UNL     1     -34.656  17.488   0.034  1.00 20.00     0.176 A 
HETATM    6  O10 UNL     1     -35.167  17.298   1.132  1.00 20.00    -0.288 OA
HETATM    7  O11 UNL     1     -33.487  17.912  -2.493  1.00 20.00    -0.326 OA
ENDROOT
BRANCH   4   8
HETATM    8  C8  UNL     1     -34.095  15.691  -3.306  1.00 20.00     0.006 A 
HETATM    9  C6  UNL     1     -32.771  15.027  -3.600  1.00 20.00     0.017 A 
HETATM   10  C7  UNL     1     -33.316  16.052  -4.547  1.00 20.00     0.017 A 
HETATM   11  C9  UNL     1     -35.349  14.883  -3.461  1.00 20.00     0.022 C 
ENDBRANCH   4   8
TORSDOF 1
ENDMDL
MODEL 5
REMARK VINA RESULT:      -4.4      2.118      3.171
REMARK  1 active torsions:
REMARK  status: ('A' for Active; 'I' for Inactive)
REMARK    1  A    between atoms: C4_4  and  C8_8 
ROOT
HETATM    1  C1  UNL     1     -33.323  13.920  -3.699  1.00 20.00     0.079 A 
HETATM    2  C2  UNL     1     -35.089  14.772  -5.271  1.00 20.00     0.088 A 
HETATM    3  C3  UNL     1     -32.804  15.148  -3.766  1.00 20.00     0.146 A 
HETATM    4  C4  UNL     1     -34.475  15.968  -5.256  1.00 20.00     0.064 A 
HETATM    5  C5  UNL     1     -34.544  13.647  -4.478  1.00 20.00     0.176 A 
HETATM    6  O10 UNL     1     -35.081  12.546  -4.470  1.00 20.00    -0.288 OA
HETATM    7  O11 UNL     1     -33.318  16.184  -4.506  1.00 20.00    -0.326 OA
ENDROOT
BRANCH   4   8
HETATM    8  C8  UNL     1     -34.975  17.126  -6.031  1.00 20.00     0.006 A 
HETATM    9  C6  UNL     1     -34.458  17.271  -7.442  1.00 20.00     0.017 A 
HETATM   10  C7  UNL     1     -33.970  18.198  -6.371  1.00 20.00     0.017 A 
HETATM   11  C9  UNL     1     -36.388  17.540  -5.744  1.00 20.00     0.022 C 
ENDBRANCH   4   8
TORSDOF 1
ENDMDL
MODEL 6
REMARK VINA RESULT:      -4.2      2.346      3.067
REMARK  1 active torsions:
REMARK  status: ('A' for Active; 'I' for Inactive)
REMARK    1  A    between atoms: C4_4  and  C8_8 
ROOT
HETATM    1  C1  UNL     1     -38.004  15.532  -5.578  1.00 20.00     0.079 A 
HETATM    2  C2  UNL     1     -36.492  14.591  -3.805  1.00 20.00     0.088 A 
HETATM    3  C3  UNL     1     -36.896  16.033  -6.125  1.00 20.00     0.146 A 
HETATM    4  C4  UNL     1     -35.450  15.144  -4.451  1.00 20.00     0.064 A 
HETATM    5  C5  UNL     1     -37.864  14.751  -4.335  1.00 20.00     0.176 A 
HETATM    6  O10 UNL     1     -38.834  14.258  -3.771  1.00 20.00    -0.288 OA
HETATM    7  O11 UNL     1     -35.627  15.879  -5.623  1.00 20.00    -0.326 OA
ENDROOT
BRANCH   4   8
HETATM    8  C8  UNL     1     -34.058  15.017  -3.964  1.00 20.00     0.006 A 
HETATM    9  C6  UNL     1     -33.593  16.049  -2.964  1.00 20.00     0.017 A 
HETATM   10  C7  UNL     1     -33.095  16.103  -4.376  1.00 20.00     0.017 A 
HETATM   11  C9  UNL     1     -33.538  13.616  -3.835  1.00 20.00     0.022 C 
ENDBRANCH   4   8
TORSDOF 1
ENDMDL
MODEL 7
REMARK VINA RESULT:      -4.2     12.221     14.252
REMARK  1 active torsions:
REMARK  status: ('A' for Active; 'I' for Inactive)
REMARK    1  A    between atoms: C4_4  and  C8_8 
ROOT
HETATM    1  C1  UNL     1     -41.863   6.730  -2.037  1.00 20.00     0.079 A 
HETATM    2  C2  UNL     1     -41.453   4.287  -1.613  1.00 20.00     0.088 A 
HETATM    3  C3  UNL     1     -42.668   6.327  -3.022  1.00 20.00     0.146 A 
HETATM    4  C4  UNL     1     -42.288   4.007  -2.629  1.00 20.00     0.064 A 
HETATM    5  C5  UNL     1     -41.180   5.693  -1.242  1.00 20.00     0.176 A 
HETATM    6  O10 UNL     1     -40.425   5.980  -0.320  1.00 20.00    -0.288 OA
HETATM    7  O11 UNL     1     -42.913   5.019  -3.358  1.00 20.00    -0.326 OA
ENDROOT
BRANCH   4   8
HETATM    8  C8  UNL     1     -42.595   2.619  -3.043  1.00 20.00     0.006 A 
HETATM    9  C6  UNL     1     -41.539   1.904  -3.851  1.00 20.00     0.017 A 
HETATM   10  C7  UNL     1     -42.792   2.382  -4.520  1.00 20.00     0.017 A 
HETATM   11  C9  UNL     1     -43.417   1.818  -2.078  1.00 20.00     0.022 C 
ENDBRANCH   4   8
TORSDOF 1
ENDMDL
MODEL 8
REMARK VINA RESULT:      -4.2      1.762      4.076
REMARK  1 active torsions:
REMARK  status: ('A' for Active; 'I' for Inactive)
REMARK    1  A    between atoms: C4_4  and  C8_8 
ROOT
HETATM    1  C1  UNL     1     -36.032  17.776  -1.728  1.00 20.00     0.079 A 
HETATM    2  C2  UNL     1     -34.402  15.919  -2.191  1.00 20.00     0.088 A 
HETATM    3  C3  UNL     1     -36.492  17.552  -2.960  1.00 20.00     0.146 A 
HETATM    4  C4  UNL     1     -34.953  15.788  -3.411  1.00 20.00     0.064 A 
HETATM    5  C5  UNL     1     -34.914  16.941  -1.251  1.00 20.00     0.176 A 
HETATM    6  O10 UNL     1     -34.434  17.084  -0.132  1.00 20.00    -0.288 OA
HETATM    7  O11 UNL     1     -36.008  16.602  -3.825  1.00 20.00    -0.326 OA
ENDROOT
BRANCH   4   8
HETATM    8  C8  UNL     1     -34.479  14.785  -4.391  1.00 20.00     0.006 A 
HETATM    9  C6  UNL     1     -34.984  13.373  -4.213  1.00 20.00     0.017 A 
HETATM   10  C7  UNL     1     -33.565  13.705  -3.866  1.00 20.00     0.017 A 
HETATM   11  C9  UNL     1     -34.256  15.291  -5.785  1.00 20.00     0.022 C 
ENDBRANCH   4   8
TORSDOF 1
ENDMDL
MODEL 9
REMARK VINA RESULT:      -4.2      1.793      4.022
REMARK  1 active torsions:
REMARK  status: ('A' for Active; 'I' for Inactive)
REMARK    1  A    between atoms: C4_4  and  C8_8 
ROOT
HETATM    1  C1  UNL     1     -33.729  18.154  -2.056  1.00 20.00     0.079 A 
HETATM    2  C2  UNL     1     -34.804  15.883  -1.999  1.00 20.00     0.088 A 
HETATM    3  C3  UNL     1     -33.668  17.988  -3.378  1.00 20.00     0.146 A 
HETATM    4  C4  UNL     1     -34.688  15.833  -3.337  1.00 20.00     0.064 A 
HETATM    5  C5  UNL     1     -34.324  17.068  -1.254  1.00 20.00     0.176 A 
HETATM    6  O10 UNL     1     -34.418  17.144  -0.035  1.00 20.00    -0.288 OA
HETATM    7  O11 UNL     1     -34.115  16.882  -4.058  1.00 20.00    -0.326 OA
ENDROOT
BRANCH   4   8
HETATM    8  C8  UNL     1     -35.150  14.672  -4.131  1.00 20.00     0.006 A 
HETATM    9  C6  UNL     1     -34.198  13.505  -4.240  1.00 20.00     0.017 A 
HETATM   10  C7  UNL     1     -34.418  14.400  -5.422  1.00 20.00     0.017 A 
HETATM   11  C9  UNL     1     -36.622  14.388  -4.074  1.00 20.00     0.022 C 
ENDBRANCH   4   8
TORSDOF 1
ENDMDL
