MODEL 1
REMARK VINA RESULT:      -5.1      0.000      0.000
REMARK  0 active torsions:
REMARK  status: ('A' for Active; 'I' for Inactive)
ROOT
HETATM    1  C1  UNL     1     -35.230  17.386   0.637  1.00 20.00     0.008 C 
HETATM    2  C2  UNL     1     -34.959  17.995   1.801  1.00 20.00     0.028 C 
HETATM    3  C3  UNL     1     -33.177  18.094  -0.468  1.00 20.00    -0.005 C 
HETATM    4  C4  UNL     1     -31.605  19.262   1.177  1.00 20.00     0.015 C 
HETATM    5  C5  UNL     1     -34.266  17.299  -0.458  1.00 20.00    -0.065 C 
HETATM    6  C6  UNL     1     -31.650  19.059   2.501  1.00 20.00     0.028 C 
HETATM    7  C7  UNL     1     -33.611  18.587   1.886  1.00 20.00     0.046 C 
HETATM    8  C8  UNL     1     -32.971  19.107   0.609  1.00 20.00     0.085 C 
HETATM    9  C9  UNL     1     -34.560  16.309  -1.543  1.00 20.00     0.048 C 
HETATM   10  C10 UNL     1     -30.514  19.175   3.452  1.00 20.00     0.070 C 
HETATM   11  N11 UNL     1     -32.883  18.658   2.958  1.00 20.00    -0.258 NA
ENDROOT
TORSDOF 0
ENDMDL
MODEL 2
REMARK VINA RESULT:      -5.0      4.201      6.607
REMARK  0 active torsions:
REMARK  status: ('A' for Active; 'I' for Inactive)
ROOT
HETATM    1  C1  UNL     1     -34.086  16.391  -6.686  1.00 20.00     0.008 C 
HETATM    2  C2  UNL     1     -33.622  17.164  -5.693  1.00 20.00     0.028 C 
HETATM    3  C3  UNL     1     -34.486  14.441  -5.282  1.00 20.00    -0.005 C 
HETATM    4  C4  UNL     1     -34.120  14.996  -2.813  1.00 20.00     0.015 C 
HETATM    5  C5  UNL     1     -34.672  15.071  -6.460  1.00 20.00    -0.065 C 
HETATM    6  C6  UNL     1     -34.214  16.240  -2.322  1.00 20.00     0.028 C 
HETATM    7  C7  UNL     1     -33.733  16.569  -4.348  1.00 20.00     0.046 C 
HETATM    8  C8  UNL     1     -33.639  15.058  -4.219  1.00 20.00     0.085 C 
HETATM    9  C9  UNL     1     -35.457  14.474  -7.587  1.00 20.00     0.048 C 
HETATM   10  C10 UNL     1     -34.601  16.617  -0.938  1.00 20.00     0.070 C 
HETATM   11  N11 UNL     1     -33.962  17.222  -3.251  1.00 20.00    -0.258 NA
ENDROOT
TORSDOF 0
ENDMDL
MODEL 3
REMARK VINA RESULT:      -4.9      1.533      4.426
REMARK  0 active torsions:
REMARK  status: ('A' for Active; 'I' for Inactive)
ROOT
HETATM    1  C1  UNL     1     -31.708  19.263   1.699  1.00 20.00     0.008 C 
HETATM    2  C2  UNL     1     -31.864  19.150   0.371  1.00 20.00     0.028 C 
HETATM    3  C3  UNL     1     -33.875  18.300   2.258  1.00 20.00    -0.005 C 
HETATM    4  C4  UNL     1     -35.039  17.385   0.173  1.00 20.00     0.015 C 
HETATM    5  C5  UNL     1     -32.649  18.692   2.661  1.00 20.00    -0.065 C 
HETATM    6  C6  UNL     1     -34.376  17.015  -0.931  1.00 20.00     0.028 C 
HETATM    7  C7  UNL     1     -33.072  18.416  -0.047  1.00 20.00     0.046 C 
HETATM    8  C8  UNL     1     -34.303  18.491   0.841  1.00 20.00     0.085 C 
HETATM    9  C9  UNL     1     -32.186  18.585   4.081  1.00 20.00     0.048 C 
HETATM   10  C10 UNL     1     -34.801  15.984  -1.914  1.00 20.00     0.070 C 
HETATM   11  N11 UNL     1     -33.168  17.653  -1.091  1.00 20.00    -0.258 NA
ENDROOT
TORSDOF 0
ENDMDL
MODEL 4
REMARK VINA RESULT:      -4.5      4.827      7.656
REMARK  0 active torsions:
REMARK  status: ('A' for Active; 'I' for Inactive)
ROOT
HETATM    1  C1  UNL     1     -34.028  15.898  -2.541  1.00 20.00     0.008 C 
HETATM    2  C2  UNL     1     -34.210  14.766  -3.237  1.00 20.00     0.028 C 
HETATM    3  C3  UNL     1     -33.627  17.299  -4.493  1.00 20.00    -0.005 C 
HETATM    4  C4  UNL     1     -34.049  16.002  -6.656  1.00 20.00     0.015 C 
HETATM    5  C5  UNL     1     -33.891  17.208  -3.174  1.00 20.00    -0.065 C 
HETATM    6  C6  UNL     1     -34.849  14.928  -6.721  1.00 20.00     0.028 C 
HETATM    7  C7  UNL     1     -34.244  14.944  -4.701  1.00 20.00     0.046 C 
HETATM    8  C8  UNL     1     -33.421  16.067  -5.309  1.00 20.00     0.085 C 
HETATM    9  C9  UNL     1     -34.044  18.408  -2.291  1.00 20.00     0.048 C 
HETATM   10  C10 UNL     1     -35.617  14.468  -7.907  1.00 20.00     0.070 C 
HETATM   11  N11 UNL     1     -34.968  14.255  -5.528  1.00 20.00    -0.258 NA
ENDROOT
TORSDOF 0
ENDMDL
MODEL 5
REMARK VINA RESULT:      -4.5      4.526      7.177
REMARK  0 active torsions:
REMARK  status: ('A' for Active; 'I' for Inactive)
ROOT
HETATM    1  C1  UNL     1     -34.282  14.867  -2.698  1.00 20.00     0.008 C 
HETATM    2  C2  UNL     1     -34.267  14.448  -3.973  1.00 20.00     0.028 C 
HETATM    3  C3  UNL     1     -33.712  17.178  -3.216  1.00 20.00    -0.005 C 
HETATM    4  C4  UNL     1     -33.705  17.578  -5.742  1.00 20.00     0.015 C 
HETATM    5  C5  UNL     1     -34.159  16.273  -2.322  1.00 20.00    -0.065 C 
HETATM    6  C6  UNL     1     -34.397  16.821  -6.604  1.00 20.00     0.028 C 
HETATM    7  C7  UNL     1     -34.100  15.522  -4.970  1.00 20.00     0.046 C 
HETATM    8  C8  UNL     1     -33.289  16.746  -4.581  1.00 20.00     0.085 C 
HETATM    9  C9  UNL     1     -34.538  16.635  -0.919  1.00 20.00     0.048 C 
HETATM   10  C10 UNL     1     -34.942  17.251  -7.918  1.00 20.00     0.070 C 
HETATM   11  N11 UNL     1     -34.636  15.545  -6.152  1.00 20.00    -0.258 NA
ENDROOT
TORSDOF 0
ENDMDL
MODEL 6
REMARK VINA RESULT:      -4.5      3.249      6.095
REMARK  0 active torsions:
REMARK  status: ('A' for Active; 'I' for Inactive)
ROOT
HETATM    1  C1  UNL     1     -33.523  18.729  -2.427  1.00 20.00     0.008 C 
HETATM    2  C2  UNL     1     -33.834  18.238  -3.635  1.00 20.00     0.028 C 
HETATM    3  C3  UNL     1     -34.297  16.780  -1.187  1.00 20.00    -0.005 C 
HETATM    4  C4  UNL     1     -34.943  14.881  -2.773  1.00 20.00     0.015 C 
HETATM    5  C5  UNL     1     -33.606  17.938  -1.200  1.00 20.00    -0.065 C 
HETATM    6  C6  UNL     1     -34.454  14.768  -4.016  1.00 20.00     0.028 C 
HETATM    7  C7  UNL     1     -34.286  16.834  -3.630  1.00 20.00     0.046 C 
HETATM    8  C8  UNL     1     -35.025  16.320  -2.406  1.00 20.00     0.085 C 
HETATM    9  C9  UNL     1     -32.909  18.483   0.007  1.00 20.00     0.048 C 
HETATM   10  C10 UNL     1     -34.267  13.508  -4.782  1.00 20.00     0.070 C 
HETATM   11  N11 UNL     1     -34.059  15.965  -4.566  1.00 20.00    -0.258 NA
ENDROOT
TORSDOF 0
ENDMDL
MODEL 7
REMARK VINA RESULT:      -4.5      3.806      5.534
REMARK  0 active torsions:
REMARK  status: ('A' for Active; 'I' for Inactive)
ROOT
HETATM    1  C1  UNL     1     -33.816  15.686  -5.414  1.00 20.00     0.008 C 
HETATM    2  C2  UNL     1     -33.562  16.939  -5.008  1.00 20.00     0.028 C 
HETATM    3  C3  UNL     1     -34.305  14.826  -3.188  1.00 20.00    -0.005 C 
HETATM    4  C4  UNL     1     -34.366  16.716  -1.466  1.00 20.00     0.015 C 
HETATM    5  C5  UNL     1     -34.345  14.653  -4.524  1.00 20.00    -0.065 C 
HETATM    6  C6  UNL     1     -34.613  17.992  -1.790  1.00 20.00     0.028 C 
HETATM    7  C7  UNL     1     -33.843  17.192  -3.583  1.00 20.00     0.046 C 
HETATM    8  C8  UNL     1     -33.676  16.045  -2.601  1.00 20.00     0.085 C 
HETATM    9  C9  UNL     1     -34.905  13.424  -5.170  1.00 20.00     0.048 C 
HETATM   10  C10 UNL     1     -35.235  19.022  -0.917  1.00 20.00     0.070 C 
HETATM   11  N11 UNL     1     -34.282  18.308  -3.087  1.00 20.00    -0.258 NA
ENDROOT
TORSDOF 0
ENDMDL
MODEL 8
REMARK VINA RESULT:      -4.4      2.562      5.142
REMARK  0 active torsions:
REMARK  status: ('A' for Active; 'I' for Inactive)
ROOT
HETATM    1  C1  UNL     1     -33.515  19.262  -0.619  1.00 20.00     0.008 C 
HETATM    2  C2  UNL     1     -33.470  19.021  -1.938  1.00 20.00     0.028 C 
HETATM    3  C3  UNL     1     -34.651  17.183  -0.051  1.00 20.00    -0.005 C 
HETATM    4  C4  UNL     1     -34.843  15.654  -2.092  1.00 20.00     0.015 C 
HETATM    5  C5  UNL     1     -33.965  18.270   0.356  1.00 20.00    -0.065 C 
HETATM    6  C6  UNL     1     -34.016  15.732  -3.144  1.00 20.00     0.028 C 
HETATM    7  C7  UNL     1     -33.929  17.676  -2.333  1.00 20.00     0.046 C 
HETATM    8  C8  UNL     1     -35.002  17.005  -1.491  1.00 20.00     0.085 C 
HETATM    9  C9  UNL     1     -33.640  18.536   1.793  1.00 20.00     0.048 C 
HETATM   10  C10 UNL     1     -33.637  14.621  -4.055  1.00 20.00     0.070 C 
HETATM   11  N11 UNL     1     -33.456  16.976  -3.317  1.00 20.00    -0.258 NA
ENDROOT
TORSDOF 0
ENDMDL
MODEL 9
REMARK VINA RESULT:      -4.4      4.108      6.675
REMARK  0 active torsions:
REMARK  status: ('A' for Active; 'I' for Inactive)
ROOT
HETATM    1  C1  UNL     1     -34.807  13.630  -5.686  1.00 20.00     0.008 C 
HETATM    2  C2  UNL     1     -34.230  13.554  -4.477  1.00 20.00     0.028 C 
HETATM    3  C3  UNL     1     -36.424  15.337  -5.052  1.00 20.00    -0.005 C 
HETATM    4  C4  UNL     1     -35.965  16.208  -2.692  1.00 20.00     0.015 C 
HETATM    5  C5  UNL     1     -35.808  14.638  -6.027  1.00 20.00    -0.065 C 
HETATM    6  C6  UNL     1     -34.760  16.138  -2.109  1.00 20.00     0.028 C 
HETATM    7  C7  UNL     1     -34.697  14.562  -3.508  1.00 20.00     0.046 C 
HETATM    8  C8  UNL     1     -36.131  15.054  -3.617  1.00 20.00     0.085 C 
HETATM    9  C9  UNL     1     -36.107  14.833  -7.481  1.00 20.00     0.048 C 
HETATM   10  C10 UNL     1     -34.222  17.063  -1.078  1.00 20.00     0.070 C 
HETATM   11  N11 UNL     1     -33.971  15.119  -2.588  1.00 20.00    -0.258 NA
ENDROOT
TORSDOF 0
ENDMDL
