MODEL 1
REMARK VINA RESULT:      -5.2      0.000      0.000
REMARK  0 active torsions:
REMARK  status: ('A' for Active; 'I' for Inactive)
ROOT
HETATM    1  C1  UNL     1     -34.471  14.058  -5.429  1.00 20.00    -0.025 C 
HETATM    2  C2  UNL     1     -34.522  13.500  -4.209  1.00 20.00    -0.025 C 
HETATM    3  C3  UNL     1     -33.786  17.646  -4.261  1.00 20.00    -0.024 C 
HETATM    4  C4  UNL     1     -33.817  17.912  -2.952  1.00 20.00    -0.025 C 
HETATM    5  C5  UNL     1     -35.833  15.389  -4.130  1.00 20.00     0.018 C 
HETATM    6  C6  UNL     1     -34.806  15.522  -5.262  1.00 20.00     0.016 C 
HETATM    7  C7  UNL     1     -34.883  14.597  -3.227  1.00 20.00     0.014 C 
HETATM    8  C8  UNL     1     -33.605  16.190  -4.543  1.00 20.00     0.021 C 
HETATM    9  C9  UNL     1     -33.652  16.688  -2.103  1.00 20.00     0.009 C 
HETATM   10  C10 UNL     1     -33.638  15.523  -3.119  1.00 20.00     0.009 C 
HETATM   11  C11 UNL     1     -34.691  16.588  -0.996  1.00 20.00     0.014 C 
ENDROOT
TORSDOF 0
ENDMDL
MODEL 2
REMARK VINA RESULT:      -4.9      0.935      3.751
REMARK  0 active torsions:
REMARK  status: ('A' for Active; 'I' for Inactive)
ROOT
HETATM    1  C1  UNL     1     -33.942  16.743  -1.966  1.00 20.00    -0.025 C 
HETATM    2  C2  UNL     1     -33.814  17.566  -3.018  1.00 20.00    -0.025 C 
HETATM    3  C3  UNL     1     -34.707  13.562  -3.966  1.00 20.00    -0.024 C 
HETATM    4  C4  UNL     1     -34.876  13.659  -5.287  1.00 20.00    -0.025 C 
HETATM    5  C5  UNL     1     -35.746  16.362  -3.349  1.00 20.00     0.018 C 
HETATM    6  C6  UNL     1     -34.813  15.589  -2.408  1.00 20.00     0.016 C 
HETATM    7  C7  UNL     1     -34.594  16.955  -4.166  1.00 20.00     0.014 C 
HETATM    8  C8  UNL     1     -33.979  14.734  -3.395  1.00 20.00     0.021 C 
HETATM    9  C9  UNL     1     -34.284  14.910  -5.861  1.00 20.00     0.009 C 
HETATM   10  C10 UNL     1     -33.798  15.700  -4.625  1.00 20.00     0.009 C 
HETATM   11  C11 UNL     1     -35.240  15.651  -6.785  1.00 20.00     0.014 C 
ENDROOT
TORSDOF 0
ENDMDL
MODEL 3
REMARK VINA RESULT:      -4.7      1.280      3.031
REMARK  0 active torsions:
REMARK  status: ('A' for Active; 'I' for Inactive)
ROOT
HETATM    1  C1  UNL     1     -36.152  15.253  -7.195  1.00 20.00    -0.025 C 
HETATM    2  C2  UNL     1     -36.370  16.328  -6.421  1.00 20.00    -0.025 C 
HETATM    3  C3  UNL     1     -34.111  13.255  -4.636  1.00 20.00    -0.024 C 
HETATM    4  C4  UNL     1     -33.778  13.840  -3.482  1.00 20.00    -0.025 C 
HETATM    5  C5  UNL     1     -34.129  15.837  -6.259  1.00 20.00     0.018 C 
HETATM    6  C6  UNL     1     -34.901  14.580  -6.678  1.00 20.00     0.016 C 
HETATM    7  C7  UNL     1     -35.267  16.365  -5.381  1.00 20.00     0.014 C 
HETATM    8  C8  UNL     1     -35.255  13.936  -5.313  1.00 20.00     0.021 C 
HETATM    9  C9  UNL     1     -34.641  15.021  -3.156  1.00 20.00     0.009 C 
HETATM   10  C10 UNL     1     -35.539  15.188  -4.402  1.00 20.00     0.009 C 
HETATM   11  C11 UNL     1     -33.839  16.249  -2.750  1.00 20.00     0.014 C 
ENDROOT
TORSDOF 0
ENDMDL
MODEL 4
REMARK VINA RESULT:      -4.7      0.927      2.390
REMARK  0 active torsions:
REMARK  status: ('A' for Active; 'I' for Inactive)
ROOT
HETATM    1  C1  UNL     1     -34.859  13.363  -4.529  1.00 20.00    -0.025 C 
HETATM    2  C2  UNL     1     -34.740  14.173  -5.593  1.00 20.00    -0.025 C 
HETATM    3  C3  UNL     1     -34.747  16.107  -1.853  1.00 20.00    -0.024 C 
HETATM    4  C4  UNL     1     -34.493  17.363  -2.231  1.00 20.00    -0.025 C 
HETATM    5  C5  UNL     1     -33.124  14.814  -4.087  1.00 20.00     0.018 C 
HETATM    6  C6  UNL     1     -34.256  14.089  -3.349  1.00 20.00     0.016 C 
HETATM    7  C7  UNL     1     -34.065  15.444  -5.118  1.00 20.00     0.014 C 
HETATM    8  C8  UNL     1     -35.214  15.253  -2.986  1.00 20.00     0.021 C 
HETATM    9  C9  UNL     1     -34.751  17.597  -3.689  1.00 20.00     0.009 C 
HETATM   10  C10 UNL     1     -35.104  16.197  -4.239  1.00 20.00     0.009 C 
HETATM   11  C11 UNL     1     -33.604  18.313  -4.388  1.00 20.00     0.014 C 
ENDROOT
TORSDOF 0
ENDMDL
MODEL 5
REMARK VINA RESULT:      -4.7      0.987      3.405
REMARK  0 active torsions:
REMARK  status: ('A' for Active; 'I' for Inactive)
ROOT
HETATM    1  C1  UNL     1     -34.294  17.377  -2.476  1.00 20.00    -0.025 C 
HETATM    2  C2  UNL     1     -34.838  16.243  -2.006  1.00 20.00    -0.025 C 
HETATM    3  C3  UNL     1     -34.135  16.312  -6.157  1.00 20.00    -0.024 C 
HETATM    4  C4  UNL     1     -34.461  15.056  -6.477  1.00 20.00    -0.025 C 
HETATM    5  C5  UNL     1     -33.095  15.625  -3.374  1.00 20.00     0.018 C 
HETATM    6  C6  UNL     1     -33.582  17.027  -3.763  1.00 20.00     0.016 C 
HETATM    7  C7  UNL     1     -34.494  15.138  -2.985  1.00 20.00     0.014 C 
HETATM    8  C8  UNL     1     -34.670  16.718  -4.823  1.00 20.00     0.021 C 
HETATM    9  C9  UNL     1     -35.286  14.381  -5.424  1.00 20.00     0.009 C 
HETATM   10  C10 UNL     1     -35.333  15.404  -4.267  1.00 20.00     0.009 C 
HETATM   11  C11 UNL     1     -34.769  12.996  -5.061  1.00 20.00     0.014 C 
ENDROOT
TORSDOF 0
ENDMDL
MODEL 6
REMARK VINA RESULT:      -4.7      1.420      2.355
REMARK  0 active torsions:
REMARK  status: ('A' for Active; 'I' for Inactive)
ROOT
HETATM    1  C1  UNL     1     -34.432  13.209  -4.767  1.00 20.00    -0.025 C 
HETATM    2  C2  UNL     1     -33.721  13.795  -3.791  1.00 20.00    -0.025 C 
HETATM    3  C3  UNL     1     -34.918  16.344  -6.921  1.00 20.00    -0.024 C 
HETATM    4  C4  UNL     1     -34.504  17.522  -6.445  1.00 20.00    -0.025 C 
HETATM    5  C5  UNL     1     -35.541  15.145  -4.187  1.00 20.00     0.018 C 
HETATM    6  C6  UNL     1     -35.253  14.292  -5.429  1.00 20.00     0.016 C 
HETATM    7  C7  UNL     1     -34.063  15.272  -3.809  1.00 20.00     0.014 C 
HETATM    8  C8  UNL     1     -34.273  15.189  -6.228  1.00 20.00     0.021 C 
HETATM    9  C9  UNL     1     -33.493  17.384  -5.347  1.00 20.00     0.009 C 
HETATM   10  C10 UNL     1     -33.414  15.862  -5.094  1.00 20.00     0.009 C 
HETATM   11  C11 UNL     1     -33.815  18.241  -4.131  1.00 20.00     0.014 C 
ENDROOT
TORSDOF 0
ENDMDL
MODEL 7
REMARK VINA RESULT:      -4.6      1.762      3.584
REMARK  0 active torsions:
REMARK  status: ('A' for Active; 'I' for Inactive)
ROOT
HETATM    1  C1  UNL     1     -33.469  14.301  -3.742  1.00 20.00    -0.025 C 
HETATM    2  C2  UNL     1     -34.354  15.053  -3.069  1.00 20.00    -0.025 C 
HETATM    3  C3  UNL     1     -35.281  14.383  -7.122  1.00 20.00    -0.024 C 
HETATM    4  C4  UNL     1     -36.488  14.952  -7.190  1.00 20.00    -0.025 C 
HETATM    5  C5  UNL     1     -35.567  13.476  -4.224  1.00 20.00     0.018 C 
HETATM    6  C6  UNL     1     -34.209  13.681  -4.906  1.00 20.00     0.016 C 
HETATM    7  C7  UNL     1     -35.682  14.941  -3.790  1.00 20.00     0.014 C 
HETATM    8  C8  UNL     1     -34.512  14.817  -5.916  1.00 20.00     0.021 C 
HETATM    9  C9  UNL     1     -36.758  15.886  -6.049  1.00 20.00     0.009 C 
HETATM   10  C10 UNL     1     -35.529  15.722  -5.127  1.00 20.00     0.009 C 
HETATM   11  C11 UNL     1     -38.112  15.649  -5.395  1.00 20.00     0.014 C 
ENDROOT
TORSDOF 0
ENDMDL
MODEL 8
REMARK VINA RESULT:      -4.6      1.209      2.160
REMARK  0 active torsions:
REMARK  status: ('A' for Active; 'I' for Inactive)
ROOT
HETATM    1  C1  UNL     1     -33.399  13.659  -3.770  1.00 20.00    -0.025 C 
HETATM    2  C2  UNL     1     -34.656  13.458  -4.196  1.00 20.00    -0.025 C 
HETATM    3  C3  UNL     1     -33.945  17.196  -2.392  1.00 20.00    -0.024 C 
HETATM    4  C4  UNL     1     -35.124  17.791  -2.597  1.00 20.00    -0.025 C 
HETATM    5  C5  UNL     1     -34.025  15.537  -4.950  1.00 20.00     0.018 C 
HETATM    6  C6  UNL     1     -33.178  15.154  -3.730  1.00 20.00     0.016 C 
HETATM    7  C7  UNL     1     -35.275  14.822  -4.432  1.00 20.00     0.014 C 
HETATM    8  C8  UNL     1     -34.018  15.713  -2.553  1.00 20.00     0.021 C 
HETATM    9  C9  UNL     1     -36.218  16.820  -2.925  1.00 20.00     0.009 C 
HETATM   10  C10 UNL     1     -35.496  15.458  -3.029  1.00 20.00     0.009 C 
HETATM   11  C11 UNL     1     -37.032  17.232  -4.143  1.00 20.00     0.014 C 
ENDROOT
TORSDOF 0
ENDMDL
MODEL 9
REMARK VINA RESULT:      -4.6      1.850      3.042
REMARK  0 active torsions:
REMARK  status: ('A' for Active; 'I' for Inactive)
ROOT
HETATM    1  C1  UNL     1     -35.523  14.472  -7.738  1.00 20.00    -0.025 C 
HETATM    2  C2  UNL     1     -36.624  15.111  -7.312  1.00 20.00    -0.025 C 
HETATM    3  C3  UNL     1     -33.877  14.056  -4.300  1.00 20.00    -0.024 C 
HETATM    4  C4  UNL     1     -34.443  14.643  -3.241  1.00 20.00    -0.025 C 
HETATM    5  C5  UNL     1     -34.828  16.143  -6.311  1.00 20.00     0.018 C 
HETATM    6  C6  UNL     1     -34.444  14.711  -6.708  1.00 20.00     0.016 C 
HETATM    7  C7  UNL     1     -36.279  15.770  -5.991  1.00 20.00     0.014 C 
HETATM    8  C8  UNL     1     -34.826  13.901  -5.443  1.00 20.00     0.021 C 
HETATM    9  C9  UNL     1     -35.885  14.985  -3.466  1.00 20.00     0.009 C 
HETATM   10  C10 UNL     1     -36.132  14.626  -4.948  1.00 20.00     0.009 C 
HETATM   11  C11 UNL     1     -36.227  16.413  -3.065  1.00 20.00     0.014 C 
ENDROOT
TORSDOF 0
ENDMDL
