MODEL 1
REMARK VINA RESULT:      -4.7      0.000      0.000
REMARK  0 active torsions:
REMARK  status: ('A' for Active; 'I' for Inactive)
ROOT
HETATM    1  C1  UNL     1     -35.225   4.049   5.564  1.00 20.00     0.002 C 
HETATM    2  C2  UNL     1     -35.185   4.397   4.269  1.00 20.00     0.030 C 
HETATM    3  C3  UNL     1     -34.457   4.741   6.587  1.00 20.00    -0.001 C 
HETATM    4  C4  UNL     1     -33.908   5.944   6.350  1.00 20.00     0.006 C 
HETATM    5  C5  UNL     1     -34.321   5.551   3.981  1.00 20.00     0.066 C 
HETATM    6  C6  UNL     1     -32.836   6.845   3.286  1.00 20.00     0.219 C 
HETATM    7  C7  UNL     1     -34.122   6.613   5.033  1.00 20.00     0.186 C 
HETATM    8  N8  UNL     1     -33.628   5.785   2.922  1.00 20.00    -0.221 NA
HETATM    9  N9  UNL     1     -32.962   7.337   4.485  1.00 20.00    -0.245 NA
HETATM   10 CL10 UNL     1     -31.672   7.429   2.199  1.00 20.00    -0.041 Cl
ENDROOT
TORSDOF 0
ENDMDL
MODEL 2
REMARK VINA RESULT:      -4.5     12.425     13.625
REMARK  0 active torsions:
REMARK  status: ('A' for Active; 'I' for Inactive)
ROOT
HETATM    1  C1  UNL     1     -34.563  14.749  -6.590  1.00 20.00     0.002 C 
HETATM    2  C2  UNL     1     -34.555  14.121  -5.404  1.00 20.00     0.030 C 
HETATM    3  C3  UNL     1     -34.291  16.171  -6.726  1.00 20.00    -0.001 C 
HETATM    4  C4  UNL     1     -33.722  16.870  -5.728  1.00 20.00     0.006 C 
HETATM    5  C5  UNL     1     -34.222  14.988  -4.264  1.00 20.00     0.066 C 
HETATM    6  C6  UNL     1     -34.226  16.090  -2.491  1.00 20.00     0.219 C 
HETATM    7  C7  UNL     1     -33.316  16.175  -4.472  1.00 20.00     0.186 C 
HETATM    8  N8  UNL     1     -34.649  14.911  -3.053  1.00 20.00    -0.221 NA
HETATM    9  N9  UNL     1     -33.544  16.922  -3.223  1.00 20.00    -0.245 NA
HETATM   10 CL10 UNL     1     -34.665  16.458  -0.893  1.00 20.00    -0.041 Cl
ENDROOT
TORSDOF 0
ENDMDL
MODEL 3
REMARK VINA RESULT:      -4.4      9.752     10.826
REMARK  0 active torsions:
REMARK  status: ('A' for Active; 'I' for Inactive)
ROOT
HETATM    1  C1  UNL     1     -41.172   7.271  -0.855  1.00 20.00     0.002 C 
HETATM    2  C2  UNL     1     -40.776   6.025  -0.554  1.00 20.00     0.030 C 
HETATM    3  C3  UNL     1     -42.098   7.559  -1.940  1.00 20.00    -0.001 C 
HETATM    4  C4  UNL     1     -42.840   6.588  -2.498  1.00 20.00     0.006 C 
HETATM    5  C5  UNL     1     -41.380   4.980  -1.394  1.00 20.00     0.066 C 
HETATM    6  C6  UNL     1     -41.744   3.411  -2.723  1.00 20.00     0.219 C 
HETATM    7  C7  UNL     1     -42.755   5.193  -1.974  1.00 20.00     0.186 C 
HETATM    8  N8  UNL     1     -40.863   3.864  -1.773  1.00 20.00    -0.221 NA
HETATM    9  N9  UNL     1     -42.801   4.123  -2.986  1.00 20.00    -0.245 NA
HETATM   10 CL10 UNL     1     -41.394   1.985  -3.573  1.00 20.00    -0.041 Cl
ENDROOT
TORSDOF 0
ENDMDL
MODEL 4
REMARK VINA RESULT:      -4.4      0.806      2.062
REMARK  0 active torsions:
REMARK  status: ('A' for Active; 'I' for Inactive)
ROOT
HETATM    1  C1  UNL     1     -34.709   5.568   6.316  1.00 20.00     0.002 C 
HETATM    2  C2  UNL     1     -33.606   6.322   6.182  1.00 20.00     0.030 C 
HETATM    3  C3  UNL     1     -35.382   4.954   5.181  1.00 20.00    -0.001 C 
HETATM    4  C4  UNL     1     -34.777   4.851   3.986  1.00 20.00     0.006 C 
HETATM    5  C5  UNL     1     -33.127   6.449   4.798  1.00 20.00     0.066 C 
HETATM    6  C6  UNL     1     -32.542   7.131   2.913  1.00 20.00     0.219 C 
HETATM    7  C7  UNL     1     -33.374   5.329   3.818  1.00 20.00     0.186 C 
HETATM    8  N8  UNL     1     -32.534   7.450   4.248  1.00 20.00    -0.221 NA
HETATM    9  N9  UNL     1     -33.072   6.002   2.543  1.00 20.00    -0.245 NA
HETATM   10 CL10 UNL     1     -31.935   8.245   1.785  1.00 20.00    -0.041 Cl
ENDROOT
TORSDOF 0
ENDMDL
MODEL 5
REMARK VINA RESULT:      -4.2     11.981     13.161
REMARK  0 active torsions:
REMARK  status: ('A' for Active; 'I' for Inactive)
ROOT
HETATM    1  C1  UNL     1     -34.426  14.656  -6.118  1.00 20.00     0.002 C 
HETATM    2  C2  UNL     1     -34.248  15.936  -5.758  1.00 20.00     0.030 C 
HETATM    3  C3  UNL     1     -34.705  13.601  -5.155  1.00 20.00    -0.001 C 
HETATM    4  C4  UNL     1     -35.100  13.889  -3.903  1.00 20.00     0.006 C 
HETATM    5  C5  UNL     1     -34.386  16.181  -4.314  1.00 20.00     0.066 C 
HETATM    6  C6  UNL     1     -34.088  16.677  -2.308  1.00 20.00     0.219 C 
HETATM    7  C7  UNL     1     -35.304  15.309  -3.496  1.00 20.00     0.186 C 
HETATM    8  N8  UNL     1     -33.770  17.049  -3.591  1.00 20.00    -0.221 NA
HETATM    9  N9  UNL     1     -34.872  15.654  -2.130  1.00 20.00    -0.245 NA
HETATM   10 CL10 UNL     1     -33.394  17.509  -1.002  1.00 20.00    -0.041 Cl
ENDROOT
TORSDOF 0
ENDMDL
MODEL 6
REMARK VINA RESULT:      -4.2     11.977     12.903
REMARK  0 active torsions:
REMARK  status: ('A' for Active; 'I' for Inactive)
ROOT
HETATM    1  C1  UNL     1     -33.140  15.184  -3.724  1.00 20.00     0.002 C 
HETATM    2  C2  UNL     1     -34.078  16.137  -3.839  1.00 20.00     0.030 C 
HETATM    3  C3  UNL     1     -33.464  13.767  -3.669  1.00 20.00    -0.001 C 
HETATM    4  C4  UNL     1     -34.677  13.316  -4.032  1.00 20.00     0.006 C 
HETATM    5  C5  UNL     1     -35.453  15.623  -3.930  1.00 20.00     0.066 C 
HETATM    6  C6  UNL     1     -37.465  15.160  -3.621  1.00 20.00     0.219 C 
HETATM    7  C7  UNL     1     -35.702  14.270  -4.547  1.00 20.00     0.186 C 
HETATM    8  N8  UNL     1     -36.536  16.163  -3.495  1.00 20.00    -0.221 NA
HETATM    9  N9  UNL     1     -37.088  14.017  -4.117  1.00 20.00    -0.245 NA
HETATM   10 CL10 UNL     1     -39.047  15.412  -3.060  1.00 20.00    -0.041 Cl
ENDROOT
TORSDOF 0
ENDMDL
MODEL 7
REMARK VINA RESULT:      -4.2     12.714     13.655
REMARK  0 active torsions:
REMARK  status: ('A' for Active; 'I' for Inactive)
ROOT
HETATM    1  C1  UNL     1     -34.721  13.382  -4.163  1.00 20.00     0.002 C 
HETATM    2  C2  UNL     1     -35.495  14.294  -4.772  1.00 20.00     0.030 C 
HETATM    3  C3  UNL     1     -33.352  13.660  -3.758  1.00 20.00    -0.001 C 
HETATM    4  C4  UNL     1     -32.889  14.920  -3.690  1.00 20.00     0.006 C 
HETATM    5  C5  UNL     1     -34.849  15.601  -4.967  1.00 20.00     0.066 C 
HETATM    6  C6  UNL     1     -34.005  17.345  -5.743  1.00 20.00     0.219 C 
HETATM    7  C7  UNL     1     -33.798  16.064  -3.990  1.00 20.00     0.186 C 
HETATM    8  N8  UNL     1     -35.019  16.439  -5.927  1.00 20.00    -0.221 NA
HETATM    9  N9  UNL     1     -33.198  17.184  -4.735  1.00 20.00    -0.245 NA
HETATM   10 CL10 UNL     1     -33.789  18.597  -6.868  1.00 20.00    -0.041 Cl
ENDROOT
TORSDOF 0
ENDMDL
MODEL 8
REMARK VINA RESULT:      -4.1     10.223     11.022
REMARK  0 active torsions:
REMARK  status: ('A' for Active; 'I' for Inactive)
ROOT
HETATM    1  C1  UNL     1     -41.632   3.757  -1.952  1.00 20.00     0.002 C 
HETATM    2  C2  UNL     1     -42.599   4.222  -2.758  1.00 20.00     0.030 C 
HETATM    3  C3  UNL     1     -40.765   4.633  -1.179  1.00 20.00    -0.001 C 
HETATM    4  C4  UNL     1     -41.075   5.927  -0.989  1.00 20.00     0.006 C 
HETATM    5  C5  UNL     1     -42.723   5.687  -2.768  1.00 20.00     0.066 C 
HETATM    6  C6  UNL     1     -42.779   7.709  -3.284  1.00 20.00     0.219 C 
HETATM    7  C7  UNL     1     -42.350   6.474  -1.537  1.00 20.00     0.186 C 
HETATM    8  N8  UNL     1     -43.076   6.450  -3.742  1.00 20.00    -0.221 NA
HETATM    9  N9  UNL     1     -42.279   7.839  -2.089  1.00 20.00    -0.245 NA
HETATM   10 CL10 UNL     1     -43.000   9.044  -4.308  1.00 20.00    -0.041 Cl
ENDROOT
TORSDOF 0
ENDMDL
MODEL 9
REMARK VINA RESULT:      -4.1     12.410     13.681
REMARK  0 active torsions:
REMARK  status: ('A' for Active; 'I' for Inactive)
ROOT
HETATM    1  C1  UNL     1     -33.883  17.151  -2.904  1.00 20.00     0.002 C 
HETATM    2  C2  UNL     1     -33.600  17.297  -4.207  1.00 20.00     0.030 C 
HETATM    3  C3  UNL     1     -34.501  15.949  -2.366  1.00 20.00    -0.001 C 
HETATM    4  C4  UNL     1     -34.543  14.810  -3.077  1.00 20.00     0.006 C 
HETATM    5  C5  UNL     1     -33.942  16.131  -5.034  1.00 20.00     0.066 C 
HETATM    6  C6  UNL     1     -34.745  14.812  -6.439  1.00 20.00     0.219 C 
HETATM    7  C7  UNL     1     -33.907  14.752  -4.426  1.00 20.00     0.186 C 
HETATM    8  N8  UNL     1     -34.336  16.109  -6.258  1.00 20.00    -0.221 NA
HETATM    9  N9  UNL     1     -34.635  13.978  -5.446  1.00 20.00    -0.245 NA
HETATM   10 CL10 UNL     1     -35.445  14.355  -7.916  1.00 20.00    -0.041 Cl
ENDROOT
TORSDOF 0
ENDMDL
