MODEL 1
REMARK VINA RESULT:      -4.9      0.000      0.000
REMARK  1 active torsions:
REMARK  status: ('A' for Active; 'I' for Inactive)
REMARK    1  A    between atoms: C3_3  and  C7_7 
ROOT
HETATM    1  C1  UNL     1     -34.591  15.259  -2.849  1.00 20.00     0.024 A 
HETATM    2  C2  UNL     1     -33.800  17.331  -3.708  1.00 20.00     0.131 A 
HETATM    3  C3  UNL     1     -34.202  16.575  -2.619  1.00 20.00     0.024 A 
HETATM    4  C4  UNL     1     -34.565  14.748  -4.142  1.00 20.00    -0.021 A 
HETATM    5  C5  UNL     1     -34.147  15.586  -5.162  1.00 20.00     0.131 A 
HETATM    6  C6  UNL     1     -34.983  13.337  -4.381  1.00 20.00     0.051 C 
HETATM    7  N8  UNL     1     -33.762  16.868  -4.979  1.00 20.00    -0.248 NA
HETATM    8 CL11 UNL     1     -34.074  15.070  -6.801  1.00 20.00    -0.062 Cl
ENDROOT
BRANCH   3   9
HETATM    9  C7  UNL     1     -34.219  17.151  -1.249  1.00 20.00     0.388 C 
HETATM   10  F9  UNL     1     -32.963  17.472  -0.838  1.00 20.00    -0.209 F 
HETATM   11  F10 UNL     1     -34.697  16.251  -0.347  1.00 20.00    -0.209 F 
ENDBRANCH   3   9
TORSDOF 1
ENDMDL
MODEL 2
REMARK VINA RESULT:      -4.9      3.045      4.011
REMARK  1 active torsions:
REMARK  status: ('A' for Active; 'I' for Inactive)
REMARK    1  A    between atoms: C3_3  and  C7_7 
ROOT
HETATM    1  C1  UNL     1     -34.475  15.148  -2.877  1.00 20.00     0.024 A 
HETATM    2  C2  UNL     1     -33.680  15.998  -4.951  1.00 20.00     0.131 A 
HETATM    3  C3  UNL     1     -34.175  14.932  -4.218  1.00 20.00     0.024 A 
HETATM    4  C4  UNL     1     -34.274  16.406  -2.319  1.00 20.00    -0.021 A 
HETATM    5  C5  UNL     1     -33.775  17.406  -3.137  1.00 20.00     0.131 A 
HETATM    6  C6  UNL     1     -34.597  16.631  -0.881  1.00 20.00     0.051 C 
HETATM    7  N8  UNL     1     -33.472  17.234  -4.444  1.00 20.00    -0.248 NA
HETATM    8 CL11 UNL     1     -33.482  19.000  -2.563  1.00 20.00    -0.062 Cl
ENDROOT
BRANCH   3   9
HETATM    9  C7  UNL     1     -34.379  13.599  -4.844  1.00 20.00     0.388 C 
HETATM   10  F9  UNL     1     -34.932  13.719  -6.080  1.00 20.00    -0.209 F 
HETATM   11  F10 UNL     1     -35.241  12.843  -4.112  1.00 20.00    -0.209 F 
ENDBRANCH   3   9
TORSDOF 1
ENDMDL
MODEL 3
REMARK VINA RESULT:      -4.6     11.801     12.563
REMARK  1 active torsions:
REMARK  status: ('A' for Active; 'I' for Inactive)
REMARK    1  A    between atoms: C3_3  and  C7_7 
ROOT
HETATM    1  C1  UNL     1     -33.059   7.070   4.583  1.00 20.00     0.024 A 
HETATM    2  C2  UNL     1     -33.555   5.757   2.663  1.00 20.00     0.131 A 
HETATM    3  C3  UNL     1     -32.892   6.838   3.222  1.00 20.00     0.024 A 
HETATM    4  C4  UNL     1     -33.871   6.226   5.333  1.00 20.00    -0.021 A 
HETATM    5  C5  UNL     1     -34.490   5.173   4.679  1.00 20.00     0.131 A 
HETATM    6  C6  UNL     1     -34.046   6.481   6.791  1.00 20.00     0.051 C 
HETATM    7  N8  UNL     1     -34.352   4.915   3.360  1.00 20.00    -0.248 NA
HETATM    8 CL11 UNL     1     -35.519   4.064   5.497  1.00 20.00    -0.062 Cl
ENDROOT
BRANCH   3   9
HETATM    9  C7  UNL     1     -32.030   7.722   2.393  1.00 20.00     0.388 C 
HETATM   10  F9  UNL     1     -30.943   8.141   3.095  1.00 20.00    -0.209 F 
HETATM   11  F10 UNL     1     -32.701   8.846   2.021  1.00 20.00    -0.209 F 
ENDBRANCH   3   9
TORSDOF 1
ENDMDL
MODEL 4
REMARK VINA RESULT:      -4.6      1.374      1.694
REMARK  1 active torsions:
REMARK  status: ('A' for Active; 'I' for Inactive)
REMARK    1  A    between atoms: C3_3  and  C7_7 
ROOT
HETATM    1  C1  UNL     1     -34.473  16.123  -1.659  1.00 20.00     0.024 A 
HETATM    2  C2  UNL     1     -33.821  18.346  -2.198  1.00 20.00     0.131 A 
HETATM    3  C3  UNL     1     -34.275  17.439  -1.254  1.00 20.00     0.024 A 
HETATM    4  C4  UNL     1     -34.215  15.760  -2.977  1.00 20.00    -0.021 A 
HETATM    5  C5  UNL     1     -33.765  16.743  -3.843  1.00 20.00     0.131 A 
HETATM    6  C6  UNL     1     -34.430  14.349  -3.405  1.00 20.00     0.051 C 
HETATM    7  N8  UNL     1     -33.560  18.030  -3.487  1.00 20.00    -0.248 NA
HETATM    8 CL11 UNL     1     -33.413  16.418  -5.495  1.00 20.00    -0.062 Cl
ENDROOT
BRANCH   3   9
HETATM    9  C7  UNL     1     -34.542  17.858   0.147  1.00 20.00     0.388 C 
HETATM   10  F9  UNL     1     -33.383  18.129   0.805  1.00 20.00    -0.209 F 
HETATM   11  F10 UNL     1     -35.153  16.863   0.846  1.00 20.00    -0.209 F 
ENDBRANCH   3   9
TORSDOF 1
ENDMDL
MODEL 5
REMARK VINA RESULT:      -4.5      2.994      4.020
REMARK  1 active torsions:
REMARK  status: ('A' for Active; 'I' for Inactive)
REMARK    1  A    between atoms: C3_3  and  C7_7 
ROOT
HETATM    1  C1  UNL     1     -34.355  15.362  -2.471  1.00 20.00     0.024 A 
HETATM    2  C2  UNL     1     -35.015  16.078  -4.640  1.00 20.00     0.131 A 
HETATM    3  C3  UNL     1     -34.482  15.090  -3.829  1.00 20.00     0.024 A 
HETATM    4  C4  UNL     1     -34.761  16.595  -1.973  1.00 20.00    -0.021 A 
HETATM    5  C5  UNL     1     -35.282  17.516  -2.867  1.00 20.00     0.131 A 
HETATM    6  C6  UNL     1     -34.622  16.880  -0.516  1.00 20.00     0.051 C 
HETATM    7  N8  UNL     1     -35.421  17.288  -4.192  1.00 20.00    -0.248 NA
HETATM    8 CL11 UNL     1     -35.815  19.074  -2.373  1.00 20.00    -0.062 Cl
ENDROOT
BRANCH   3   9
HETATM    9  C7  UNL     1     -34.056  13.782  -4.392  1.00 20.00     0.388 C 
HETATM   10  F9  UNL     1     -35.013  12.833  -4.200  1.00 20.00    -0.209 F 
HETATM   11  F10 UNL     1     -32.936  13.324  -3.770  1.00 20.00    -0.209 F 
ENDBRANCH   3   9
TORSDOF 1
ENDMDL
MODEL 6
REMARK VINA RESULT:      -4.4      2.835      3.562
REMARK  1 active torsions:
REMARK  status: ('A' for Active; 'I' for Inactive)
REMARK    1  A    between atoms: C3_3  and  C7_7 
ROOT
HETATM    1  C1  UNL     1     -34.500  15.065  -5.856  1.00 20.00     0.024 A 
HETATM    2  C2  UNL     1     -33.287  16.112  -4.098  1.00 20.00     0.131 A 
HETATM    3  C3  UNL     1     -33.915  14.982  -4.596  1.00 20.00     0.024 A 
HETATM    4  C4  UNL     1     -34.439  16.258  -6.567  1.00 20.00    -0.021 A 
HETATM    5  C5  UNL     1     -33.787  17.331  -5.980  1.00 20.00     0.131 A 
HETATM    6  C6  UNL     1     -35.068  16.341  -7.916  1.00 20.00     0.051 C 
HETATM    7  N8  UNL     1     -33.207  17.288  -4.761  1.00 20.00    -0.248 NA
HETATM    8 CL11 UNL     1     -33.646  18.857  -6.760  1.00 20.00    -0.062 Cl
ENDROOT
BRANCH   3   9
HETATM    9  C7  UNL     1     -33.965  13.721  -3.810  1.00 20.00     0.388 C 
HETATM   10  F9  UNL     1     -32.716  13.217  -3.617  1.00 20.00    -0.209 F 
HETATM   11  F10 UNL     1     -34.666  12.761  -4.472  1.00 20.00    -0.209 F 
ENDBRANCH   3   9
TORSDOF 1
ENDMDL
MODEL 7
REMARK VINA RESULT:      -4.4     13.360     14.419
REMARK  1 active torsions:
REMARK  status: ('A' for Active; 'I' for Inactive)
REMARK    1  A    between atoms: C3_3  and  C7_7 
ROOT
HETATM    1  C1  UNL     1     -42.807   4.805  -3.081  1.00 20.00     0.024 A 
HETATM    2  C2  UNL     1     -41.026   3.953  -1.754  1.00 20.00     0.131 A 
HETATM    3  C3  UNL     1     -42.026   3.724  -2.685  1.00 20.00     0.024 A 
HETATM    4  C4  UNL     1     -42.566   6.064  -2.541  1.00 20.00    -0.021 A 
HETATM    5  C5  UNL     1     -41.542   6.188  -1.616  1.00 20.00     0.131 A 
HETATM    6  C6  UNL     1     -43.406   7.219  -2.968  1.00 20.00     0.051 C 
HETATM    7  N8  UNL     1     -40.762   5.162  -1.208  1.00 20.00    -0.248 NA
HETATM    8 CL11 UNL     1     -41.149   7.691  -0.878  1.00 20.00    -0.062 Cl
ENDROOT
BRANCH   3   9
HETATM    9  C7  UNL     1     -42.259   2.366  -3.243  1.00 20.00     0.388 C 
HETATM   10  F9  UNL     1     -42.805   1.541  -2.309  1.00 20.00    -0.209 F 
HETATM   11  F10 UNL     1     -41.088   1.788  -3.625  1.00 20.00    -0.209 F 
ENDBRANCH   3   9
TORSDOF 1
ENDMDL
MODEL 8
REMARK VINA RESULT:      -4.3     13.269     14.431
REMARK  1 active torsions:
REMARK  status: ('A' for Active; 'I' for Inactive)
REMARK    1  A    between atoms: C3_3  and  C7_7 
ROOT
HETATM    1  C1  UNL     1     -41.232   4.255  -1.650  1.00 20.00     0.024 A 
HETATM    2  C2  UNL     1     -43.027   4.541  -3.184  1.00 20.00     0.131 A 
HETATM    3  C3  UNL     1     -42.034   3.730  -2.658  1.00 20.00     0.024 A 
HETATM    4  C4  UNL     1     -41.445   5.556  -1.206  1.00 20.00    -0.021 A 
HETATM    5  C5  UNL     1     -42.464   6.284  -1.797  1.00 20.00     0.131 A 
HETATM    6  C6  UNL     1     -40.582   6.113  -0.126  1.00 20.00     0.051 C 
HETATM    7  N8  UNL     1     -43.264   5.809  -2.777  1.00 20.00    -0.248 NA
HETATM    8 CL11 UNL     1     -42.823   7.901  -1.335  1.00 20.00    -0.062 Cl
ENDROOT
BRANCH   3   9
HETATM    9  C7  UNL     1     -41.831   2.344  -3.156  1.00 20.00     0.388 C 
HETATM   10  F9  UNL     1     -40.670   2.242  -3.856  1.00 20.00    -0.209 F 
HETATM   11  F10 UNL     1     -42.826   1.983  -4.011  1.00 20.00    -0.209 F 
ENDBRANCH   3   9
TORSDOF 1
ENDMDL
MODEL 9
REMARK VINA RESULT:      -4.3      1.127      2.128
REMARK  1 active torsions:
REMARK  status: ('A' for Active; 'I' for Inactive)
REMARK    1  A    between atoms: C3_3  and  C7_7 
ROOT
HETATM    1  C1  UNL     1     -34.072  17.548  -3.752  1.00 20.00     0.024 A 
HETATM    2  C2  UNL     1     -34.435  15.313  -3.022  1.00 20.00     0.131 A 
HETATM    3  C3  UNL     1     -34.268  16.652  -2.706  1.00 20.00     0.024 A 
HETATM    4  C4  UNL     1     -34.049  17.085  -5.062  1.00 20.00    -0.021 A 
HETATM    5  C5  UNL     1     -34.226  15.726  -5.273  1.00 20.00     0.131 A 
HETATM    6  C6  UNL     1     -33.838  18.050  -6.178  1.00 20.00     0.051 C 
HETATM    7  N8  UNL     1     -34.419  14.826  -4.284  1.00 20.00    -0.248 NA
HETATM    8 CL11 UNL     1     -34.216  15.034  -6.847  1.00 20.00    -0.062 Cl
ENDROOT
BRANCH   3   9
HETATM    9  C7  UNL     1     -34.297  17.116  -1.294  1.00 20.00     0.388 C 
HETATM   10  F9  UNL     1     -33.048  17.434  -0.859  1.00 20.00    -0.209 F 
HETATM   11  F10 UNL     1     -34.750  16.135  -0.467  1.00 20.00    -0.209 F 
ENDBRANCH   3   9
TORSDOF 1
ENDMDL
