MODEL 1
REMARK VINA RESULT:      -5.3      0.000      0.000
REMARK  1 active torsions:
REMARK  status: ('A' for Active; 'I' for Inactive)
REMARK    1  A    between atoms: C6_6  and  C8_8 
ROOT
HETATM    1  C1  UNL     1     -33.873  18.127  -2.391  1.00 20.00     0.008 C 
HETATM    2  C2  UNL     1     -33.688  18.229  -3.716  1.00 20.00     0.028 C 
HETATM    3  C3  UNL     1     -34.051  15.697  -2.380  1.00 20.00    -0.005 C 
HETATM    4  C4  UNL     1     -34.484  15.499  -5.825  1.00 20.00     0.128 C 
HETATM    5  C5  UNL     1     -34.216  16.868  -1.733  1.00 20.00    -0.065 C 
HETATM    6  C6  UNL     1     -34.083  14.780  -4.774  1.00 20.00     0.011 C 
HETATM    7  C7  UNL     1     -33.841  16.964  -4.458  1.00 20.00     0.046 C 
HETATM    8  C9  UNL     1     -33.466  15.665  -3.754  1.00 20.00     0.098 C 
HETATM    9  C10 UNL     1     -34.737  16.957  -0.331  1.00 20.00     0.048 C 
HETATM   10  N11 UNL     1     -34.326  16.850  -5.658  1.00 20.00    -0.264 NA
ENDROOT
BRANCH   6  11
HETATM   11  C8  UNL     1     -34.160  13.333  -4.704  1.00 20.00     0.268 C 
HETATM   12  O12 UNL     1     -35.160  12.730  -4.310  1.00 20.00    -0.302 OA
ENDBRANCH   6  11
TORSDOF 1
ENDMDL
MODEL 2
REMARK VINA RESULT:      -4.9      2.129      2.311
REMARK  1 active torsions:
REMARK  status: ('A' for Active; 'I' for Inactive)
REMARK    1  A    between atoms: C6_6  and  C8_8 
ROOT
HETATM    1  C1  UNL     1     -36.164  18.087  -1.509  1.00 20.00     0.008 C 
HETATM    2  C2  UNL     1     -36.949  17.806  -2.560  1.00 20.00     0.028 C 
HETATM    3  C3  UNL     1     -34.684  16.177  -1.820  1.00 20.00    -0.005 C 
HETATM    4  C4  UNL     1     -36.856  14.580  -4.017  1.00 20.00     0.128 C 
HETATM    5  C5  UNL     1     -35.118  17.183  -1.035  1.00 20.00    -0.065 C 
HETATM    6  C6  UNL     1     -35.568  14.638  -3.670  1.00 20.00     0.011 C 
HETATM    7  C7  UNL     1     -36.661  16.516  -3.214  1.00 20.00     0.046 C 
HETATM    8  C9  UNL     1     -35.226  16.004  -3.202  1.00 20.00     0.098 C 
HETATM    9  C10 UNL     1     -34.566  17.444   0.333  1.00 20.00     0.048 C 
HETATM   10  N11 UNL     1     -37.546  15.736  -3.761  1.00 20.00    -0.264 NA
ENDROOT
BRANCH   6  11
HETATM   11  C8  UNL     1     -34.635  13.540  -3.830  1.00 20.00     0.268 C 
HETATM   12  O12 UNL     1     -34.797  12.630  -4.646  1.00 20.00    -0.302 OA
ENDBRANCH   6  11
TORSDOF 1
ENDMDL
MODEL 3
REMARK VINA RESULT:      -4.7      2.040      2.457
REMARK  1 active torsions:
REMARK  status: ('A' for Active; 'I' for Inactive)
REMARK    1  A    between atoms: C6_6  and  C8_8 
ROOT
HETATM    1  C1  UNL     1     -33.299  15.895  -2.910  1.00 20.00     0.008 C 
HETATM    2  C2  UNL     1     -33.267  15.578  -4.213  1.00 20.00     0.028 C 
HETATM    3  C3  UNL     1     -35.705  15.595  -2.670  1.00 20.00    -0.005 C 
HETATM    4  C4  UNL     1     -36.260  15.570  -6.102  1.00 20.00     0.128 C 
HETATM    5  C5  UNL     1     -34.546  16.061  -2.164  1.00 20.00    -0.065 C 
HETATM    6  C6  UNL     1     -36.796  15.163  -4.949  1.00 20.00     0.011 C 
HETATM    7  C7  UNL     1     -34.590  15.392  -4.834  1.00 20.00     0.046 C 
HETATM    8  C9  UNL     1     -35.725  14.856  -3.969  1.00 20.00     0.098 C 
HETATM    9  C10 UNL     1     -34.455  16.752  -0.839  1.00 20.00     0.048 C 
HETATM   10  N11 UNL     1     -34.897  15.701  -6.059  1.00 20.00    -0.264 NA
ENDROOT
BRANCH   6  11
HETATM   11  C8  UNL     1     -38.217  14.963  -4.741  1.00 20.00     0.268 C 
HETATM   12  O12 UNL     1     -38.672  14.181  -3.903  1.00 20.00    -0.302 OA
ENDBRANCH   6  11
TORSDOF 1
ENDMDL
MODEL 4
REMARK VINA RESULT:      -4.7      4.889      7.065
REMARK  1 active torsions:
REMARK  status: ('A' for Active; 'I' for Inactive)
REMARK    1  A    between atoms: C6_6  and  C8_8 
ROOT
HETATM    1  C1  UNL     1     -33.135  18.100  -0.479  1.00 20.00     0.008 C 
HETATM    2  C2  UNL     1     -32.581  18.771   0.543  1.00 20.00     0.028 C 
HETATM    3  C3  UNL     1     -35.172  17.512   0.721  1.00 20.00    -0.005 C 
HETATM    4  C4  UNL     1     -33.838  18.338   3.824  1.00 20.00     0.128 C 
HETATM    5  C5  UNL     1     -34.368  17.328  -0.346  1.00 20.00    -0.065 C 
HETATM    6  C6  UNL     1     -35.002  18.197   3.185  1.00 20.00     0.011 C 
HETATM    7  C7  UNL     1     -33.326  18.682   1.812  1.00 20.00     0.046 C 
HETATM    8  C9  UNL     1     -34.842  18.543   1.751  1.00 20.00     0.098 C 
HETATM    9  C10 UNL     1     -34.679  16.355  -1.441  1.00 20.00     0.048 C 
HETATM   10  N11 UNL     1     -32.793  18.655   2.997  1.00 20.00    -0.264 NA
ENDROOT
BRANCH   6  11
HETATM   11  C8  UNL     1     -36.249  17.850   3.839  1.00 20.00     0.268 C 
HETATM   12  O12 UNL     1     -36.558  18.255   4.962  1.00 20.00    -0.302 OA
ENDBRANCH   6  11
TORSDOF 1
ENDMDL
MODEL 5
REMARK VINA RESULT:      -4.6     12.180     13.399
REMARK  1 active torsions:
REMARK  status: ('A' for Active; 'I' for Inactive)
REMARK    1  A    between atoms: C6_6  and  C8_8 
ROOT
HETATM    1  C1  UNL     1     -42.368   7.999  -1.934  1.00 20.00     0.008 C 
HETATM    2  C2  UNL     1     -41.707   7.358  -0.959  1.00 20.00     0.028 C 
HETATM    3  C3  UNL     1     -42.906   5.987  -3.197  1.00 20.00    -0.005 C 
HETATM    4  C4  UNL     1     -40.618   4.027  -1.461  1.00 20.00     0.128 C 
HETATM    5  C5  UNL     1     -42.836   7.332  -3.147  1.00 20.00    -0.065 C 
HETATM    6  C6  UNL     1     -41.736   3.942  -2.186  1.00 20.00     0.011 C 
HETATM    7  C7  UNL     1     -41.505   5.917  -1.197  1.00 20.00     0.046 C 
HETATM    8  C9  UNL     1     -42.559   5.163  -2.000  1.00 20.00     0.098 C 
HETATM    9  C10 UNL     1     -43.232   8.211  -4.293  1.00 20.00     0.048 C 
HETATM   10  N11 UNL     1     -40.464   5.232  -0.827  1.00 20.00    -0.264 NA
ENDROOT
BRANCH   6  11
HETATM   11  C8  UNL     1     -42.116   2.775  -2.958  1.00 20.00     0.268 C 
HETATM   12  O12 UNL     1     -41.300   2.053  -3.535  1.00 20.00    -0.302 OA
ENDBRANCH   6  11
TORSDOF 1
ENDMDL
MODEL 6
REMARK VINA RESULT:      -4.6      2.399      4.589
REMARK  1 active torsions:
REMARK  status: ('A' for Active; 'I' for Inactive)
REMARK    1  A    between atoms: C6_6  and  C8_8 
ROOT
HETATM    1  C1  UNL     1     -34.480  13.657  -5.012  1.00 20.00     0.008 C 
HETATM    2  C2  UNL     1     -34.312  13.836  -3.693  1.00 20.00     0.028 C 
HETATM    3  C3  UNL     1     -34.096  15.989  -5.602  1.00 20.00    -0.005 C 
HETATM    4  C4  UNL     1     -34.441  17.099  -2.324  1.00 20.00     0.128 C 
HETATM    5  C5  UNL     1     -34.531  14.766  -5.963  1.00 20.00    -0.065 C 
HETATM    6  C6  UNL     1     -33.895  17.436  -3.495  1.00 20.00     0.011 C 
HETATM    7  C7  UNL     1     -34.164  15.242  -3.277  1.00 20.00     0.046 C 
HETATM    8  C9  UNL     1     -33.507  16.217  -4.247  1.00 20.00     0.098 C 
HETATM    9  C10 UNL     1     -35.071  14.463  -7.326  1.00 20.00     0.048 C 
HETATM   10  N11 UNL     1     -34.600  15.747  -2.161  1.00 20.00    -0.264 NA
ENDROOT
BRANCH   6  11
HETATM   11  C8  UNL     1     -33.638  18.802  -3.906  1.00 20.00     0.268 C 
HETATM   12  O12 UNL     1     -33.279  19.107  -5.046  1.00 20.00    -0.302 OA
ENDBRANCH   6  11
TORSDOF 1
ENDMDL
MODEL 7
REMARK VINA RESULT:      -4.6      1.955      2.873
REMARK  1 active torsions:
REMARK  status: ('A' for Active; 'I' for Inactive)
REMARK    1  A    between atoms: C6_6  and  C8_8 
ROOT
HETATM    1  C1  UNL     1     -34.145  16.974  -2.497  1.00 20.00     0.008 C 
HETATM    2  C2  UNL     1     -34.360  15.679  -2.221  1.00 20.00     0.028 C 
HETATM    3  C3  UNL     1     -34.667  16.783  -4.869  1.00 20.00    -0.005 C 
HETATM    4  C4  UNL     1     -34.485  13.311  -4.850  1.00 20.00     0.128 C 
HETATM    5  C5  UNL     1     -34.142  17.505  -3.859  1.00 20.00    -0.065 C 
HETATM    6  C6  UNL     1     -35.020  14.330  -5.525  1.00 20.00     0.011 C 
HETATM    7  C7  UNL     1     -34.612  14.832  -3.401  1.00 20.00     0.046 C 
HETATM    8  C9  UNL     1     -35.306  15.459  -4.604  1.00 20.00     0.098 C 
HETATM    9  C10 UNL     1     -33.547  18.865  -4.054  1.00 20.00     0.048 C 
HETATM   10  N11 UNL     1     -34.241  13.593  -3.531  1.00 20.00    -0.264 NA
ENDROOT
BRANCH   6  11
HETATM   11  C8  UNL     1     -35.356  14.282  -6.935  1.00 20.00     0.268 C 
HETATM   12  O12 UNL     1     -34.626  14.739  -7.818  1.00 20.00    -0.302 OA
ENDBRANCH   6  11
TORSDOF 1
ENDMDL
MODEL 8
REMARK VINA RESULT:      -4.4      2.215      4.152
REMARK  1 active torsions:
REMARK  status: ('A' for Active; 'I' for Inactive)
REMARK    1  A    between atoms: C6_6  and  C8_8 
ROOT
HETATM    1  C1  UNL     1     -34.340  15.962  -7.251  1.00 20.00     0.008 C 
HETATM    2  C2  UNL     1     -34.532  14.794  -6.619  1.00 20.00     0.028 C 
HETATM    3  C3  UNL     1     -33.812  17.222  -5.234  1.00 20.00    -0.005 C 
HETATM    4  C4  UNL     1     -35.022  14.747  -3.113  1.00 20.00     0.128 C 
HETATM    5  C5  UNL     1     -34.135  17.224  -6.543  1.00 20.00    -0.065 C 
HETATM    6  C6  UNL     1     -34.182  15.784  -3.145  1.00 20.00     0.011 C 
HETATM    7  C7  UNL     1     -34.500  14.880  -5.147  1.00 20.00     0.046 C 
HETATM    8  C9  UNL     1     -33.607  15.934  -4.505  1.00 20.00     0.098 C 
HETATM    9  C10 UNL     1     -34.289  18.481  -7.341  1.00 20.00     0.048 C 
HETATM   10  N11 UNL     1     -35.219  14.162  -4.336  1.00 20.00    -0.264 NA
ENDROOT
BRANCH   6  11
HETATM   11  C8  UNL     1     -33.824  16.574  -1.982  1.00 20.00     0.268 C 
HETATM   12  O12 UNL     1     -34.426  16.505  -0.909  1.00 20.00    -0.302 OA
ENDBRANCH   6  11
TORSDOF 1
ENDMDL
MODEL 9
REMARK VINA RESULT:      -4.3      2.454      3.305
REMARK  1 active torsions:
REMARK  status: ('A' for Active; 'I' for Inactive)
REMARK    1  A    between atoms: C6_6  and  C8_8 
ROOT
HETATM    1  C1  UNL     1     -33.845  14.529  -3.082  1.00 20.00     0.008 C 
HETATM    2  C2  UNL     1     -33.848  13.906  -4.270  1.00 20.00     0.028 C 
HETATM    3  C3  UNL     1     -36.042  15.546  -3.361  1.00 20.00    -0.005 C 
HETATM    4  C4  UNL     1     -36.147  14.891  -6.775  1.00 20.00     0.128 C 
HETATM    5  C5  UNL     1     -34.877  15.486  -2.685  1.00 20.00    -0.065 C 
HETATM    6  C6  UNL     1     -36.938  15.129  -5.726  1.00 20.00     0.011 C 
HETATM    7  C7  UNL     1     -34.986  14.248  -5.141  1.00 20.00     0.046 C 
HETATM    8  C9  UNL     1     -36.316  14.601  -4.486  1.00 20.00     0.098 C 
HETATM    9  C10 UNL     1     -34.572  16.362  -1.510  1.00 20.00     0.048 C 
HETATM   10  N11 UNL     1     -34.943  14.330  -6.438  1.00 20.00    -0.264 NA
ENDROOT
BRANCH   6  11
HETATM   11  C8  UNL     1     -38.255  15.729  -5.823  1.00 20.00     0.268 C 
HETATM   12  O12 UNL     1     -39.281  15.074  -6.021  1.00 20.00    -0.302 OA
ENDBRANCH   6  11
TORSDOF 1
ENDMDL
