MODEL 1
REMARK VINA RESULT:      -3.3      0.000      0.000
REMARK  0 active torsions:
REMARK  status: ('A' for Active; 'I' for Inactive)
ROOT
HETATM    1  C1  UNL     1     -33.670   6.671   5.330  1.00 20.00     0.031 C 
HETATM    2  C2  UNL     1     -34.388   5.564   6.085  1.00 20.00     0.075 C 
HETATM    3  C3  UNL     1     -34.444   5.394   3.402  1.00 20.00     0.094 C 
HETATM    4  C4  UNL     1     -33.218   6.056   4.011  1.00 20.00     0.092 C 
HETATM    5  S5  UNL     1     -35.308   4.647   4.815  1.00 20.00    -0.168 SA
HETATM    6 CL6  UNL     1     -32.548   7.289   2.923  1.00 20.00    -0.124 Cl
ENDROOT
TORSDOF 0
ENDMDL
MODEL 2
REMARK VINA RESULT:      -3.3      1.855      2.209
REMARK  0 active torsions:
REMARK  status: ('A' for Active; 'I' for Inactive)
ROOT
HETATM    1  C1  UNL     1     -34.938   4.307   4.801  1.00 20.00     0.031 C 
HETATM    2  C2  UNL     1     -35.143   4.844   6.209  1.00 20.00     0.075 C 
HETATM    3  C3  UNL     1     -33.713   6.400   4.545  1.00 20.00     0.094 C 
HETATM    4  C4  UNL     1     -34.781   5.528   3.904  1.00 20.00     0.092 C 
HETATM    5  S5  UNL     1     -34.042   6.283   6.328  1.00 20.00    -0.168 SA
HETATM    6 CL6  UNL     1     -34.318   5.059   2.254  1.00 20.00    -0.124 Cl
ENDROOT
TORSDOF 0
ENDMDL
MODEL 3
REMARK VINA RESULT:      -3.3      0.959      1.794
REMARK  0 active torsions:
REMARK  status: ('A' for Active; 'I' for Inactive)
ROOT
HETATM    1  C1  UNL     1     -34.411   5.276   3.399  1.00 20.00     0.031 C 
HETATM    2  C2  UNL     1     -35.425   4.816   4.435  1.00 20.00     0.075 C 
HETATM    3  C3  UNL     1     -33.409   6.344   5.349  1.00 20.00     0.094 C 
HETATM    4  C4  UNL     1     -33.851   6.595   3.915  1.00 20.00     0.092 C 
HETATM    5  S5  UNL     1     -34.695   5.260   6.037  1.00 20.00    -0.168 SA
HETATM    6 CL6  UNL     1     -32.493   7.151   2.915  1.00 20.00    -0.124 Cl
ENDROOT
TORSDOF 0
ENDMDL
MODEL 4
REMARK VINA RESULT:      -3.2      1.991      2.317
REMARK  0 active torsions:
REMARK  status: ('A' for Active; 'I' for Inactive)
ROOT
HETATM    1  C1  UNL     1     -34.836   5.253   6.221  1.00 20.00     0.031 C 
HETATM    2  C2  UNL     1     -35.102   4.280   5.083  1.00 20.00     0.075 C 
HETATM    3  C3  UNL     1     -33.970   6.622   4.399  1.00 20.00     0.094 C 
HETATM    4  C4  UNL     1     -33.642   6.094   5.786  1.00 20.00     0.092 C 
HETATM    5  S5  UNL     1     -34.800   5.235   3.568  1.00 20.00    -0.168 SA
HETATM    6 CL6  UNL     1     -33.344   7.424   6.924  1.00 20.00    -0.124 Cl
ENDROOT
TORSDOF 0
ENDMDL
MODEL 5
REMARK VINA RESULT:      -3.0      2.587      3.236
REMARK  0 active torsions:
REMARK  status: ('A' for Active; 'I' for Inactive)
ROOT
HETATM    1  C1  UNL     1     -35.146   5.214   3.916  1.00 20.00     0.031 C 
HETATM    2  C2  UNL     1     -34.221   5.427   2.729  1.00 20.00     0.075 C 
HETATM    3  C3  UNL     1     -33.359   6.387   5.089  1.00 20.00     0.094 C 
HETATM    4  C4  UNL     1     -34.248   5.155   5.145  1.00 20.00     0.092 C 
HETATM    5  S5  UNL     1     -32.939   6.565   3.330  1.00 20.00    -0.168 SA
HETATM    6 CL6  UNL     1     -35.205   5.123   6.640  1.00 20.00    -0.124 Cl
ENDROOT
TORSDOF 0
ENDMDL
MODEL 6
REMARK VINA RESULT:      -2.9      9.282     10.039
REMARK  0 active torsions:
REMARK  status: ('A' for Active; 'I' for Inactive)
ROOT
HETATM    1  C1  UNL     1     -40.651   4.640  -0.989  1.00 20.00     0.031 C 
HETATM    2  C2  UNL     1     -40.821   5.950  -0.236  1.00 20.00     0.075 C 
HETATM    3  C3  UNL     1     -42.206   5.716  -2.530  1.00 20.00     0.094 C 
HETATM    4  C4  UNL     1     -41.947   4.429  -1.763  1.00 20.00     0.092 C 
HETATM    5  S5  UNL     1     -41.723   7.036  -1.378  1.00 20.00    -0.168 SA
HETATM    6 CL6  UNL     1     -41.819   3.042  -2.864  1.00 20.00    -0.124 Cl
ENDROOT
TORSDOF 0
ENDMDL
MODEL 7
REMARK VINA RESULT:      -2.9     12.264     12.679
REMARK  0 active torsions:
REMARK  status: ('A' for Active; 'I' for Inactive)
ROOT
HETATM    1  C1  UNL     1     -34.424  13.939  -3.535  1.00 20.00     0.031 C 
HETATM    2  C2  UNL     1     -34.506  13.228  -4.877  1.00 20.00     0.075 C 
HETATM    3  C3  UNL     1     -34.384  15.913  -4.965  1.00 20.00     0.094 C 
HETATM    4  C4  UNL     1     -33.682  15.243  -3.794  1.00 20.00     0.092 C 
HETATM    5  S5  UNL     1     -34.794  14.547  -6.091  1.00 20.00    -0.168 SA
HETATM    6 CL6  UNL     1     -33.696  16.287  -2.357  1.00 20.00    -0.124 Cl
ENDROOT
TORSDOF 0
ENDMDL
MODEL 8
REMARK VINA RESULT:      -2.8     12.679     13.094
REMARK  0 active torsions:
REMARK  status: ('A' for Active; 'I' for Inactive)
ROOT
HETATM    1  C1  UNL     1     -34.534  15.134  -3.081  1.00 20.00     0.031 C 
HETATM    2  C2  UNL     1     -33.852  15.054  -4.438  1.00 20.00     0.075 C 
HETATM    3  C3  UNL     1     -33.829  17.463  -3.242  1.00 20.00     0.094 C 
HETATM    4  C4  UNL     1     -33.831  16.253  -2.322  1.00 20.00     0.092 C 
HETATM    5  S5  UNL     1     -33.509  16.778  -4.894  1.00 20.00    -0.168 SA
HETATM    6 CL6  UNL     1     -34.660  16.611  -0.793  1.00 20.00    -0.124 Cl
ENDROOT
TORSDOF 0
ENDMDL
MODEL 9
REMARK VINA RESULT:      -2.7     11.933     12.188
REMARK  0 active torsions:
REMARK  status: ('A' for Active; 'I' for Inactive)
ROOT
HETATM    1  C1  UNL     1     -35.790  15.481  -3.509  1.00 20.00     0.031 C 
HETATM    2  C2  UNL     1     -36.241  14.198  -4.188  1.00 20.00     0.075 C 
HETATM    3  C3  UNL     1     -33.593  14.463  -3.800  1.00 20.00     0.094 C 
HETATM    4  C4  UNL     1     -34.496  15.139  -2.780  1.00 20.00     0.092 C 
HETATM    5  S5  UNL     1     -34.712  13.411  -4.771  1.00 20.00    -0.168 SA
HETATM    6 CL6  UNL     1     -33.730  16.595  -2.112  1.00 20.00    -0.124 Cl
ENDROOT
TORSDOF 0
ENDMDL
