MODEL 1
REMARK VINA RESULT:      -5.9      0.000      0.000
REMARK  0 active torsions:
REMARK  status: ('A' for Active; 'I' for Inactive)
ROOT
HETATM    1  C1  UNL     1     -32.684   7.162   3.130  1.00 20.00     0.104 C 
HETATM    2  C2  UNL     1     -35.076   4.651   4.473  1.00 20.00     0.107 A 
HETATM    3  C3  UNL     1     -33.460   6.648   5.391  1.00 20.00     0.145 A 
HETATM    4  C4  UNL     1     -33.483   6.396   4.029  1.00 20.00     0.100 A 
HETATM    5  C5  UNL     1     -34.310   5.377   3.569  1.00 20.00     0.142 A 
HETATM    6  C6  UNL     1     -34.981   4.980   5.816  1.00 20.00     0.212 A 
HETATM    7  N7  UNL     1     -32.034   7.785   2.398  1.00 20.00    -0.191 NA
HETATM    8  N8  UNL     1     -34.191   5.963   6.300  1.00 20.00    -0.231 NA
HETATM    9  F9  UNL     1     -34.376   5.084   2.263  1.00 20.00    -0.204 F 
HETATM   10  F10 UNL     1     -35.717   4.287   6.699  1.00 20.00    -0.184 F 
ENDROOT
TORSDOF 0
ENDMDL
MODEL 2
REMARK VINA RESULT:      -5.5      1.756      2.152
REMARK  0 active torsions:
REMARK  status: ('A' for Active; 'I' for Inactive)
ROOT
HETATM    1  C1  UNL     1     -32.802   7.009   3.287  1.00 20.00     0.104 C 
HETATM    2  C2  UNL     1     -34.287   5.671   6.424  1.00 20.00     0.107 A 
HETATM    3  C3  UNL     1     -34.432   5.241   3.733  1.00 20.00     0.145 A 
HETATM    4  C4  UNL     1     -33.582   6.233   4.194  1.00 20.00     0.100 A 
HETATM    5  C5  UNL     1     -33.513   6.446   5.566  1.00 20.00     0.142 A 
HETATM    6  C6  UNL     1     -35.106   4.705   5.862  1.00 20.00     0.212 A 
HETATM    7  N7  UNL     1     -32.167   7.640   2.548  1.00 20.00    -0.191 NA
HETATM    8  N8  UNL     1     -35.199   4.469   4.535  1.00 20.00    -0.231 NA
HETATM    9  F9  UNL     1     -32.711   7.391   6.075  1.00 20.00    -0.204 F 
HETATM   10  F10 UNL     1     -35.858   3.950   6.679  1.00 20.00    -0.184 F 
ENDROOT
TORSDOF 0
ENDMDL
MODEL 3
REMARK VINA RESULT:      -4.9     11.829     12.563
REMARK  0 active torsions:
REMARK  status: ('A' for Active; 'I' for Inactive)
ROOT
HETATM    1  C1  UNL     1     -37.295  14.449  -3.869  1.00 20.00     0.104 C 
HETATM    2  C2  UNL     1     -33.845  15.590  -3.075  1.00 20.00     0.107 A 
HETATM    3  C3  UNL     1     -35.093  13.436  -4.192  1.00 20.00     0.145 A 
HETATM    4  C4  UNL     1     -35.875  14.489  -3.746  1.00 20.00     0.100 A 
HETATM    5  C5  UNL     1     -35.231  15.583  -3.179  1.00 20.00     0.142 A 
HETATM    6  C6  UNL     1     -33.154  14.487  -3.551  1.00 20.00     0.212 A 
HETATM    7  N7  UNL     1     -38.451  14.417  -3.969  1.00 20.00    -0.191 NA
HETATM    8  N8  UNL     1     -33.743  13.406  -4.109  1.00 20.00    -0.231 NA
HETATM    9  F9  UNL     1     -35.931  16.633  -2.728  1.00 20.00    -0.204 F 
HETATM   10  F10 UNL     1     -31.814  14.480  -3.457  1.00 20.00    -0.184 F 
ENDROOT
TORSDOF 0
ENDMDL
MODEL 4
REMARK VINA RESULT:      -4.4      9.675     10.430
REMARK  0 active torsions:
REMARK  status: ('A' for Active; 'I' for Inactive)
ROOT
HETATM    1  C1  UNL     1     -41.962   3.164  -2.651  1.00 20.00     0.104 C 
HETATM    2  C2  UNL     1     -41.987   6.845  -2.122  1.00 20.00     0.107 A 
HETATM    3  C3  UNL     1     -40.774   4.628  -1.093  1.00 20.00     0.145 A 
HETATM    4  C4  UNL     1     -41.676   4.460  -2.132  1.00 20.00     0.100 A 
HETATM    5  C5  UNL     1     -42.289   5.595  -2.651  1.00 20.00     0.142 A 
HETATM    6  C6  UNL     1     -41.072   6.905  -1.083  1.00 20.00     0.212 A 
HETATM    7  N7  UNL     1     -42.195   2.108  -3.074  1.00 20.00    -0.191 NA
HETATM    8  N8  UNL     1     -40.456   5.826  -0.553  1.00 20.00    -0.231 NA
HETATM    9  F9  UNL     1     -43.172   5.500  -3.655  1.00 20.00    -0.204 F 
HETATM   10  F10 UNL     1     -40.771   8.106  -0.563  1.00 20.00    -0.184 F 
ENDROOT
TORSDOF 0
ENDMDL
MODEL 5
REMARK VINA RESULT:      -4.4     11.778     12.401
REMARK  0 active torsions:
REMARK  status: ('A' for Active; 'I' for Inactive)
ROOT
HETATM    1  C1  UNL     1     -37.129  14.583  -3.714  1.00 20.00     0.104 C 
HETATM    2  C2  UNL     1     -33.524  13.718  -4.012  1.00 20.00     0.107 A 
HETATM    3  C3  UNL     1     -35.077  15.820  -3.226  1.00 20.00     0.145 A 
HETATM    4  C4  UNL     1     -35.707  14.668  -3.670  1.00 20.00     0.100 A 
HETATM    5  C5  UNL     1     -34.908  13.602  -4.068  1.00 20.00     0.142 A 
HETATM    6  C6  UNL     1     -32.992  14.912  -3.553  1.00 20.00     0.212 A 
HETATM    7  N7  UNL     1     -38.287  14.513  -3.750  1.00 20.00    -0.191 NA
HETATM    8  N8  UNL     1     -33.735  15.970  -3.157  1.00 20.00    -0.231 NA
HETATM    9  F9  UNL     1     -35.457  12.461  -4.508  1.00 20.00    -0.204 F 
HETATM   10  F10 UNL     1     -31.657  15.038  -3.493  1.00 20.00    -0.184 F 
ENDROOT
TORSDOF 0
ENDMDL
MODEL 6
REMARK VINA RESULT:      -4.3     11.966     12.784
REMARK  0 active torsions:
REMARK  status: ('A' for Active; 'I' for Inactive)
ROOT
HETATM    1  C1  UNL     1     -34.832  13.665  -4.180  1.00 20.00     0.104 C 
HETATM    2  C2  UNL     1     -33.777  16.759  -2.406  1.00 20.00     0.107 A 
HETATM    3  C3  UNL     1     -36.077  15.543  -3.230  1.00 20.00     0.145 A 
HETATM    4  C4  UNL     1     -34.871  14.915  -3.496  1.00 20.00     0.100 A 
HETATM    5  C5  UNL     1     -33.704  15.540  -3.072  1.00 20.00     0.142 A 
HETATM    6  C6  UNL     1     -35.032  17.305  -2.191  1.00 20.00     0.212 A 
HETATM    7  N7  UNL     1     -34.800  12.647  -4.738  1.00 20.00    -0.191 NA
HETATM    8  N8  UNL     1     -36.188  16.727  -2.586  1.00 20.00    -0.231 NA
HETATM    9  F9  UNL     1     -32.506  14.984  -3.299  1.00 20.00    -0.204 F 
HETATM   10  F10 UNL     1     -35.118  18.480  -1.548  1.00 20.00    -0.184 F 
ENDROOT
TORSDOF 0
ENDMDL
MODEL 7
REMARK VINA RESULT:      -4.3      9.591     10.409
REMARK  0 active torsions:
REMARK  status: ('A' for Active; 'I' for Inactive)
ROOT
HETATM    1  C1  UNL     1     -41.928   3.182  -2.737  1.00 20.00     0.104 C 
HETATM    2  C2  UNL     1     -40.799   6.120  -0.754  1.00 20.00     0.107 A 
HETATM    3  C3  UNL     1     -42.658   5.515  -2.658  1.00 20.00     0.145 A 
HETATM    4  C4  UNL     1     -41.821   4.504  -2.214  1.00 20.00     0.100 A 
HETATM    5  C5  UNL     1     -40.877   4.821  -1.244  1.00 20.00     0.142 A 
HETATM    6  C6  UNL     1     -41.682   7.058  -1.264  1.00 20.00     0.212 A 
HETATM    7  N7  UNL     1     -42.015   2.106  -3.162  1.00 20.00    -0.191 NA
HETATM    8  N8  UNL     1     -42.613   6.789  -2.206  1.00 20.00    -0.231 NA
HETATM    9  F9  UNL     1     -40.036   3.888  -0.774  1.00 20.00    -0.204 F 
HETATM   10  F10 UNL     1     -41.619   8.316  -0.800  1.00 20.00    -0.184 F 
ENDROOT
TORSDOF 0
ENDMDL
MODEL 8
REMARK VINA RESULT:      -4.2     12.718     14.183
REMARK  0 active torsions:
REMARK  status: ('A' for Active; 'I' for Inactive)
ROOT
HETATM    1  C1  UNL     1     -34.571  13.796  -4.588  1.00 20.00     0.104 C 
HETATM    2  C2  UNL     1     -33.617  17.146  -5.892  1.00 20.00     0.107 A 
HETATM    3  C3  UNL     1     -34.056  15.921  -3.493  1.00 20.00     0.145 A 
HETATM    4  C4  UNL     1     -34.202  15.172  -4.650  1.00 20.00     0.100 A 
HETATM    5  C5  UNL     1     -33.976  15.803  -5.867  1.00 20.00     0.142 A 
HETATM    6  C6  UNL     1     -33.498  17.807  -4.680  1.00 20.00     0.212 A 
HETATM    7  N7  UNL     1     -34.871  12.676  -4.538  1.00 20.00    -0.191 NA
HETATM    8  N8  UNL     1     -33.709  17.228  -3.477  1.00 20.00    -0.231 NA
HETATM    9  F9  UNL     1     -34.102  15.133  -7.021  1.00 20.00    -0.204 F 
HETATM   10  F10 UNL     1     -33.151  19.104  -4.689  1.00 20.00    -0.184 F 
ENDROOT
TORSDOF 0
ENDMDL
MODEL 9
REMARK VINA RESULT:      -4.2     12.467     14.511
REMARK  0 active torsions:
REMARK  status: ('A' for Active; 'I' for Inactive)
ROOT
HETATM    1  C1  UNL     1     -34.595  13.742  -4.863  1.00 20.00     0.104 C 
HETATM    2  C2  UNL     1     -33.401  17.254  -4.593  1.00 20.00     0.107 A 
HETATM    3  C3  UNL     1     -34.546  15.607  -6.443  1.00 20.00     0.145 A 
HETATM    4  C4  UNL     1     -34.279  15.095  -5.184  1.00 20.00     0.100 A 
HETATM    5  C5  UNL     1     -33.696  15.940  -4.247  1.00 20.00     0.142 A 
HETATM    6  C6  UNL     1     -33.707  17.670  -5.879  1.00 20.00     0.212 A 
HETATM    7  N7  UNL     1     -34.853  12.641  -4.601  1.00 20.00    -0.191 NA
HETATM    8  N8  UNL     1     -34.274  16.878  -6.816  1.00 20.00    -0.231 NA
HETATM    9  F9  UNL     1     -33.412  15.504  -3.012  1.00 20.00    -0.204 F 
HETATM   10  F10 UNL     1     -33.428  18.936  -6.227  1.00 20.00    -0.184 F 
ENDROOT
TORSDOF 0
ENDMDL
