MODEL 1
REMARK VINA RESULT:      -4.9      0.000      0.000
REMARK  1 active torsions:
REMARK  status: ('A' for Active; 'I' for Inactive)
REMARK    1  A    between atoms: C4_4  and  C11_11 
ROOT
HETATM    1  C1  UNL     1     -33.438  17.493  -5.326  1.00 20.00     0.003 A 
HETATM    2  C2  UNL     1     -33.677  16.126  -5.113  1.00 20.00     0.008 A 
HETATM    3  C3  UNL     1     -33.533  18.406  -4.272  1.00 20.00     0.029 A 
HETATM    4  C4  UNL     1     -34.022  15.654  -3.846  1.00 20.00    -0.045 A 
HETATM    5  C5  UNL     1     -34.104  16.569  -2.812  1.00 20.00    -0.024 A 
HETATM    6  C6  UNL     1     -33.847  17.927  -3.013  1.00 20.00     0.035 A 
HETATM    7  C7  UNL     1     -34.504  16.347  -1.390  1.00 20.00     0.061 C 
HETATM    8  C10 UNL     1     -34.168  17.716  -0.759  1.00 20.00     0.124 C 
HETATM    9  N12 UNL     1     -34.044  18.673  -1.852  1.00 20.00    -0.389 N 
HETATM   10  H25 UNL     1     -33.654  19.597  -1.736  1.00 20.00     0.159 HD
ENDROOT
BRANCH   4  11
HETATM   11  C11 UNL     1     -34.301  14.208  -3.630  1.00 20.00     0.019 A 
HETATM   12  C8  UNL     1     -34.375  13.288  -4.823  1.00 20.00     0.010 A 
HETATM   13  C9  UNL     1     -35.625  13.640  -4.076  1.00 20.00     0.010 A 
ENDBRANCH   4  11
TORSDOF 1
ENDMDL
MODEL 2
REMARK VINA RESULT:      -4.9      1.905      3.824
REMARK  1 active torsions:
REMARK  status: ('A' for Active; 'I' for Inactive)
REMARK    1  A    between atoms: C4_4  and  C11_11 
ROOT
HETATM    1  C1  UNL     1     -33.815  17.728  -5.523  1.00 20.00     0.003 A 
HETATM    2  C2  UNL     1     -33.669  17.748  -4.127  1.00 20.00     0.008 A 
HETATM    3  C3  UNL     1     -34.078  16.532  -6.197  1.00 20.00     0.029 A 
HETATM    4  C4  UNL     1     -33.777  16.570  -3.385  1.00 20.00    -0.045 A 
HETATM    5  C5  UNL     1     -34.046  15.397  -4.066  1.00 20.00    -0.024 A 
HETATM    6  C6  UNL     1     -34.213  15.374  -5.452  1.00 20.00     0.035 A 
HETATM    7  C7  UNL     1     -34.153  14.004  -3.533  1.00 20.00     0.061 C 
HETATM    8  C10 UNL     1     -34.676  13.242  -4.770  1.00 20.00     0.124 C 
HETATM    9  N12 UNL     1     -34.416  14.082  -5.933  1.00 20.00    -0.389 N 
HETATM   10  H25 UNL     1     -34.818  13.906  -6.843  1.00 20.00     0.159 HD
ENDROOT
BRANCH   4  11
HETATM   11  C11 UNL     1     -33.596  16.590  -1.908  1.00 20.00     0.019 A 
HETATM   12  C8  UNL     1     -34.813  16.544  -1.018  1.00 20.00     0.010 A 
HETATM   13  C9  UNL     1     -34.023  17.811  -1.132  1.00 20.00     0.010 A 
ENDBRANCH   4  11
TORSDOF 1
ENDMDL
MODEL 3
REMARK VINA RESULT:      -4.8      2.479      4.313
REMARK  1 active torsions:
REMARK  status: ('A' for Active; 'I' for Inactive)
REMARK    1  A    between atoms: C4_4  and  C11_11 
ROOT
HETATM    1  C1  UNL     1     -37.124  16.964  -4.020  1.00 20.00     0.003 A 
HETATM    2  C2  UNL     1     -36.395  17.046  -2.823  1.00 20.00     0.008 A 
HETATM    3  C3  UNL     1     -36.826  15.985  -4.972  1.00 20.00     0.029 A 
HETATM    4  C4  UNL     1     -35.353  16.154  -2.564  1.00 20.00    -0.045 A 
HETATM    5  C5  UNL     1     -35.077  15.185  -3.511  1.00 20.00    -0.024 A 
HETATM    6  C6  UNL     1     -35.811  15.086  -4.695  1.00 20.00     0.035 A 
HETATM    7  C7  UNL     1     -33.994  14.155  -3.515  1.00 20.00     0.061 C 
HETATM    8  C10 UNL     1     -34.397  13.291  -4.729  1.00 20.00     0.124 C 
HETATM    9  N12 UNL     1     -35.326  14.080  -5.528  1.00 20.00    -0.389 N 
HETATM   10  H25 UNL     1     -35.881  13.690  -6.277  1.00 20.00     0.159 HD
ENDROOT
BRANCH   4  11
HETATM   11  C11 UNL     1     -34.565  16.260  -1.305  1.00 20.00     0.019 A 
HETATM   12  C8  UNL     1     -34.918  17.332  -0.306  1.00 20.00     0.010 A 
HETATM   13  C9  UNL     1     -33.657  17.447  -1.104  1.00 20.00     0.010 A 
ENDBRANCH   4  11
TORSDOF 1
ENDMDL
MODEL 4
REMARK VINA RESULT:      -4.7      2.071      4.327
REMARK  1 active torsions:
REMARK  status: ('A' for Active; 'I' for Inactive)
REMARK    1  A    between atoms: C4_4  and  C11_11 
ROOT
HETATM    1  C1  UNL     1     -34.634  13.370  -4.088  1.00 20.00     0.003 A 
HETATM    2  C2  UNL     1     -34.395  14.387  -3.149  1.00 20.00     0.008 A 
HETATM    3  C3  UNL     1     -34.767  13.670  -5.446  1.00 20.00     0.029 A 
HETATM    4  C4  UNL     1     -34.293  15.718  -3.556  1.00 20.00    -0.045 A 
HETATM    5  C5  UNL     1     -34.417  15.997  -4.904  1.00 20.00    -0.024 A 
HETATM    6  C6  UNL     1     -34.635  14.989  -5.845  1.00 20.00     0.035 A 
HETATM    7  C7  UNL     1     -34.407  17.323  -5.595  1.00 20.00     0.061 C 
HETATM    8  C10 UNL     1     -34.371  16.895  -7.078  1.00 20.00     0.124 C 
HETATM    9  N12 UNL     1     -34.788  15.499  -7.133  1.00 20.00    -0.389 N 
HETATM   10  H25 UNL     1     -34.680  14.922  -7.954  1.00 20.00     0.159 HD
ENDROOT
BRANCH   4  11
HETATM   11  C11 UNL     1     -34.065  16.796  -2.555  1.00 20.00     0.019 A 
HETATM   12  C8  UNL     1     -34.473  16.566  -1.121  1.00 20.00     0.010 A 
HETATM   13  C9  UNL     1     -35.253  17.520  -1.971  1.00 20.00     0.010 A 
ENDBRANCH   4  11
TORSDOF 1
ENDMDL
MODEL 5
REMARK VINA RESULT:      -4.6      2.468      4.357
REMARK  1 active torsions:
REMARK  status: ('A' for Active; 'I' for Inactive)
REMARK    1  A    between atoms: C4_4  and  C11_11 
ROOT
HETATM    1  C1  UNL     1     -34.123  14.117  -3.577  1.00 20.00     0.003 A 
HETATM    2  C2  UNL     1     -33.947  15.269  -2.793  1.00 20.00     0.008 A 
HETATM    3  C3  UNL     1     -35.363  13.828  -4.151  1.00 20.00     0.029 A 
HETATM    4  C4  UNL     1     -35.012  16.143  -2.567  1.00 20.00    -0.045 A 
HETATM    5  C5  UNL     1     -36.230  15.847  -3.150  1.00 20.00    -0.024 A 
HETATM    6  C6  UNL     1     -36.406  14.714  -3.947  1.00 20.00     0.035 A 
HETATM    7  C7  UNL     1     -37.532  16.570  -3.026  1.00 20.00     0.061 C 
HETATM    8  C10 UNL     1     -38.389  15.842  -4.085  1.00 20.00     0.124 C 
HETATM    9  N12 UNL     1     -37.723  14.580  -4.382  1.00 20.00    -0.389 N 
HETATM   10  H25 UNL     1     -37.972  13.995  -5.167  1.00 20.00     0.159 HD
ENDROOT
BRANCH   4  11
HETATM   11  C11 UNL     1     -34.829  17.349  -1.714  1.00 20.00     0.019 A 
HETATM   12  C8  UNL     1     -33.549  17.509  -0.933  1.00 20.00     0.010 A 
HETATM   13  C9  UNL     1     -34.823  17.194  -0.214  1.00 20.00     0.010 A 
ENDBRANCH   4  11
TORSDOF 1
ENDMDL
MODEL 6
REMARK VINA RESULT:      -4.6      3.005      5.137
REMARK  1 active torsions:
REMARK  status: ('A' for Active; 'I' for Inactive)
REMARK    1  A    between atoms: C4_4  and  C11_11 
ROOT
HETATM    1  C1  UNL     1     -31.669  19.110   1.110  1.00 20.00     0.003 A 
HETATM    2  C2  UNL     1     -32.344  18.663  -0.038  1.00 20.00     0.008 A 
HETATM    3  C3  UNL     1     -32.303  19.107   2.355  1.00 20.00     0.029 A 
HETATM    4  C4  UNL     1     -33.663  18.214   0.043  1.00 20.00    -0.045 A 
HETATM    5  C5  UNL     1     -34.272  18.209   1.284  1.00 20.00    -0.024 A 
HETATM    6  C6  UNL     1     -33.600  18.633   2.433  1.00 20.00     0.035 A 
HETATM    7  C7  UNL     1     -35.675  17.839   1.641  1.00 20.00     0.061 C 
HETATM    8  C10 UNL     1     -35.612  17.850   3.184  1.00 20.00     0.124 C 
HETATM    9  N12 UNL     1     -34.419  18.600   3.559  1.00 20.00    -0.389 N 
HETATM   10  H25 UNL     1     -34.043  18.607   4.496  1.00 20.00     0.159 HD
ENDROOT
BRANCH   4  11
HETATM   11  C11 UNL     1     -34.382  17.765  -1.180  1.00 20.00     0.019 A 
HETATM   12  C8  UNL     1     -34.725  16.305  -1.338  1.00 20.00     0.010 A 
HETATM   13  C9  UNL     1     -33.655  16.913  -2.191  1.00 20.00     0.010 A 
ENDBRANCH   4  11
TORSDOF 1
ENDMDL
MODEL 7
REMARK VINA RESULT:      -4.5      1.738      3.931
REMARK  1 active torsions:
REMARK  status: ('A' for Active; 'I' for Inactive)
REMARK    1  A    between atoms: C4_4  and  C11_11 
ROOT
HETATM    1  C1  UNL     1     -34.514  14.286  -4.198  1.00 20.00     0.003 A 
HETATM    2  C2  UNL     1     -34.337  15.025  -3.017  1.00 20.00     0.008 A 
HETATM    3  C3  UNL     1     -34.449  14.910  -5.447  1.00 20.00     0.029 A 
HETATM    4  C4  UNL     1     -34.100  16.399  -3.068  1.00 20.00    -0.045 A 
HETATM    5  C5  UNL     1     -34.029  17.000  -4.312  1.00 20.00    -0.024 A 
HETATM    6  C6  UNL     1     -34.184  16.268  -5.491  1.00 20.00     0.035 A 
HETATM    7  C7  UNL     1     -33.847  18.445  -4.649  1.00 20.00     0.061 C 
HETATM    8  C10 UNL     1     -33.644  18.380  -6.178  1.00 20.00     0.124 C 
HETATM    9  N12 UNL     1     -34.136  17.080  -6.621  1.00 20.00    -0.389 N 
HETATM   10  H25 UNL     1     -33.957  16.707  -7.543  1.00 20.00     0.159 HD
ENDROOT
BRANCH   4  11
HETATM   11  C11 UNL     1     -33.939  17.183  -1.814  1.00 20.00     0.019 A 
HETATM   12  C8  UNL     1     -34.616  16.702  -0.555  1.00 20.00     0.010 A 
HETATM   13  C9  UNL     1     -35.127  17.924  -1.252  1.00 20.00     0.010 A 
ENDBRANCH   4  11
TORSDOF 1
ENDMDL
MODEL 8
REMARK VINA RESULT:      -4.4     12.196     13.810
REMARK  1 active torsions:
REMARK  status: ('A' for Active; 'I' for Inactive)
REMARK    1  A    between atoms: C4_4  and  C11_11 
ROOT
HETATM    1  C1  UNL     1     -40.804   6.620  -0.753  1.00 20.00     0.003 A 
HETATM    2  C2  UNL     1     -41.571   7.317  -1.701  1.00 20.00     0.008 A 
HETATM    3  C3  UNL     1     -40.801   5.223  -0.725  1.00 20.00     0.029 A 
HETATM    4  C4  UNL     1     -42.350   6.626  -2.630  1.00 20.00    -0.045 A 
HETATM    5  C5  UNL     1     -42.330   5.244  -2.595  1.00 20.00    -0.024 A 
HETATM    6  C6  UNL     1     -41.554   4.545  -1.668  1.00 20.00     0.035 A 
HETATM    7  C7  UNL     1     -43.104   4.270  -3.424  1.00 20.00     0.061 C 
HETATM    8  C10 UNL     1     -42.446   2.933  -3.020  1.00 20.00     0.124 C 
HETATM    9  N12 UNL     1     -41.729   3.166  -1.772  1.00 20.00    -0.389 N 
HETATM   10  H25 UNL     1     -41.065   2.511  -1.385  1.00 20.00     0.159 HD
ENDROOT
BRANCH   4  11
HETATM   11  C11 UNL     1     -43.182   7.368  -3.617  1.00 20.00     0.019 A 
HETATM   12  C8  UNL     1     -42.522   8.377  -4.522  1.00 20.00     0.010 A 
HETATM   13  C9  UNL     1     -43.417   8.844  -3.417  1.00 20.00     0.010 A 
ENDBRANCH   4  11
TORSDOF 1
ENDMDL
MODEL 9
REMARK VINA RESULT:      -4.4      1.723      3.252
REMARK  1 active torsions:
REMARK  status: ('A' for Active; 'I' for Inactive)
REMARK    1  A    between atoms: C4_4  and  C11_11 
ROOT
HETATM    1  C1  UNL     1     -34.466  14.102  -3.529  1.00 20.00     0.003 A 
HETATM    2  C2  UNL     1     -34.531  14.052  -4.931  1.00 20.00     0.008 A 
HETATM    3  C3  UNL     1     -34.175  15.299  -2.870  1.00 20.00     0.029 A 
HETATM    4  C4  UNL     1     -34.299  15.199  -5.693  1.00 20.00    -0.045 A 
HETATM    5  C5  UNL     1     -34.021  16.377  -5.026  1.00 20.00    -0.024 A 
HETATM    6  C6  UNL     1     -33.975  16.438  -3.631  1.00 20.00     0.035 A 
HETATM    7  C7  UNL     1     -33.681  17.719  -5.589  1.00 20.00     0.061 C 
HETATM    8  C10 UNL     1     -33.711  18.601  -4.322  1.00 20.00     0.124 C 
HETATM    9  N12 UNL     1     -33.621  17.705  -3.174  1.00 20.00    -0.389 N 
HETATM   10  H25 UNL     1     -33.801  18.003  -2.226  1.00 20.00     0.159 HD
ENDROOT
BRANCH   4  11
HETATM   11  C11 UNL     1     -34.343  15.136  -7.180  1.00 20.00     0.019 A 
HETATM   12  C8  UNL     1     -35.385  15.939  -7.918  1.00 20.00     0.010 A 
HETATM   13  C9  UNL     1     -35.505  14.448  -7.852  1.00 20.00     0.010 A 
ENDBRANCH   4  11
TORSDOF 1
ENDMDL
