MODEL 1
REMARK VINA RESULT:      -5.0      0.000      0.000
REMARK  0 active torsions:
REMARK  status: ('A' for Active; 'I' for Inactive)
ROOT
HETATM    1  C1  UNL     1     -35.200   4.002   5.531  1.00 20.00     0.002 C 
HETATM    2  C2  UNL     1     -35.160   4.394   4.249  1.00 20.00     0.028 C 
HETATM    3  C3  UNL     1     -34.448   4.675   6.579  1.00 20.00    -0.003 C 
HETATM    4  C4  UNL     1     -33.929   5.900   6.387  1.00 20.00    -0.012 C 
HETATM    5  C5  UNL     1     -33.023   7.340   4.476  1.00 20.00     0.032 C 
HETATM    6  C6  UNL     1     -32.832   6.862   3.242  1.00 20.00     0.123 C 
HETATM    7  C7  UNL     1     -34.311   5.576   3.993  1.00 20.00     0.047 C 
HETATM    8  C8  UNL     1     -34.164   6.614   5.098  1.00 20.00     0.086 C 
HETATM    9  N9  UNL     1     -33.620   5.790   2.915  1.00 20.00    -0.241 NA
HETATM   10 CL10 UNL     1     -31.662   7.456   2.152  1.00 20.00    -0.063 Cl
ENDROOT
TORSDOF 0
ENDMDL
MODEL 2
REMARK VINA RESULT:      -4.8      1.134      2.081
REMARK  0 active torsions:
REMARK  status: ('A' for Active; 'I' for Inactive)
ROOT
HETATM    1  C1  UNL     1     -34.693   5.595   6.281  1.00 20.00     0.002 C 
HETATM    2  C2  UNL     1     -33.586   6.336   6.125  1.00 20.00     0.028 C 
HETATM    3  C3  UNL     1     -35.376   4.965   5.163  1.00 20.00    -0.003 C 
HETATM    4  C4  UNL     1     -34.775   4.823   3.969  1.00 20.00    -0.012 C 
HETATM    5  C5  UNL     1     -33.007   5.999   2.542  1.00 20.00     0.032 C 
HETATM    6  C6  UNL     1     -32.489   7.187   2.870  1.00 20.00     0.123 C 
HETATM    7  C7  UNL     1     -33.105   6.439   4.732  1.00 20.00     0.047 C 
HETATM    8  C8  UNL     1     -33.363   5.270   3.789  1.00 20.00     0.086 C 
HETATM    9  N9  UNL     1     -32.523   7.474   4.209  1.00 20.00    -0.241 NA
HETATM   10 CL10 UNL     1     -31.890   8.319   1.743  1.00 20.00    -0.063 Cl
ENDROOT
TORSDOF 0
ENDMDL
MODEL 3
REMARK VINA RESULT:      -4.6     12.371     13.456
REMARK  0 active torsions:
REMARK  status: ('A' for Active; 'I' for Inactive)
ROOT
HETATM    1  C1  UNL     1     -34.716  14.381  -6.486  1.00 20.00     0.002 C 
HETATM    2  C2  UNL     1     -34.700  13.856  -5.252  1.00 20.00     0.028 C 
HETATM    3  C3  UNL     1     -34.391  15.773  -6.749  1.00 20.00    -0.003 C 
HETATM    4  C4  UNL     1     -33.758  16.526  -5.833  1.00 20.00    -0.012 C 
HETATM    5  C5  UNL     1     -33.539  16.702  -3.290  1.00 20.00     0.032 C 
HETATM    6  C6  UNL     1     -34.288  15.979  -2.451  1.00 20.00     0.123 C 
HETATM    7  C7  UNL     1     -34.303  14.800  -4.188  1.00 20.00     0.047 C 
HETATM    8  C8  UNL     1     -33.330  15.920  -4.539  1.00 20.00     0.086 C 
HETATM    9  N9  UNL     1     -34.756  14.801  -2.971  1.00 20.00    -0.241 NA
HETATM   10 CL10 UNL     1     -34.717  16.475  -0.876  1.00 20.00    -0.063 Cl
ENDROOT
TORSDOF 0
ENDMDL
MODEL 4
REMARK VINA RESULT:      -4.6      9.701     10.820
REMARK  0 active torsions:
REMARK  status: ('A' for Active; 'I' for Inactive)
ROOT
HETATM    1  C1  UNL     1     -41.176   7.319  -0.810  1.00 20.00     0.002 C 
HETATM    2  C2  UNL     1     -40.818   6.059  -0.519  1.00 20.00     0.028 C 
HETATM    3  C3  UNL     1     -42.091   7.643  -1.893  1.00 20.00    -0.003 C 
HETATM    4  C4  UNL     1     -42.868   6.700  -2.454  1.00 20.00    -0.012 C 
HETATM    5  C5  UNL     1     -42.831   4.183  -2.911  1.00 20.00     0.032 C 
HETATM    6  C6  UNL     1     -41.750   3.427  -2.692  1.00 20.00     0.123 C 
HETATM    7  C7  UNL     1     -41.447   5.030  -1.371  1.00 20.00     0.047 C 
HETATM    8  C8  UNL     1     -42.837   5.303  -1.931  1.00 20.00     0.086 C 
HETATM    9  N9  UNL     1     -40.894   3.915  -1.741  1.00 20.00    -0.241 NA
HETATM   10 CL10 UNL     1     -41.386   2.000  -3.553  1.00 20.00    -0.063 Cl
ENDROOT
TORSDOF 0
ENDMDL
MODEL 5
REMARK VINA RESULT:      -4.4     12.158     13.183
REMARK  0 active torsions:
REMARK  status: ('A' for Active; 'I' for Inactive)
ROOT
HETATM    1  C1  UNL     1     -34.407  14.761  -6.027  1.00 20.00     0.002 C 
HETATM    2  C2  UNL     1     -34.300  16.045  -5.651  1.00 20.00     0.028 C 
HETATM    3  C3  UNL     1     -34.594  13.680  -5.073  1.00 20.00    -0.003 C 
HETATM    4  C4  UNL     1     -34.983  13.924  -3.810  1.00 20.00    -0.012 C 
HETATM    5  C5  UNL     1     -34.791  15.770  -2.049  1.00 20.00     0.032 C 
HETATM    6  C6  UNL     1     -34.018  16.848  -2.217  1.00 20.00     0.123 C 
HETATM    7  C7  UNL     1     -34.412  16.271  -4.196  1.00 20.00     0.047 C 
HETATM    8  C8  UNL     1     -35.281  15.321  -3.380  1.00 20.00     0.086 C 
HETATM    9  N9  UNL     1     -33.783  17.186  -3.523  1.00 20.00    -0.241 NA
HETATM   10 CL10 UNL     1     -33.297  17.722  -0.940  1.00 20.00    -0.063 Cl
ENDROOT
TORSDOF 0
ENDMDL
MODEL 6
REMARK VINA RESULT:      -4.4     12.375     13.451
REMARK  0 active torsions:
REMARK  status: ('A' for Active; 'I' for Inactive)
ROOT
HETATM    1  C1  UNL     1     -33.424  16.385  -4.923  1.00 20.00     0.002 C 
HETATM    2  C2  UNL     1     -33.572  17.567  -4.306  1.00 20.00     0.028 C 
HETATM    3  C3  UNL     1     -33.603  15.116  -4.237  1.00 20.00    -0.003 C 
HETATM    4  C4  UNL     1     -34.228  15.049  -3.048  1.00 20.00    -0.012 C 
HETATM    5  C5  UNL     1     -34.605  16.502  -0.976  1.00 20.00     0.032 C 
HETATM    6  C6  UNL     1     -33.984  17.671  -0.793  1.00 20.00     0.123 C 
HETATM    7  C7  UNL     1     -33.955  17.474  -2.883  1.00 20.00     0.047 C 
HETATM    8  C8  UNL     1     -34.797  16.285  -2.436  1.00 20.00     0.086 C 
HETATM    9  N9  UNL     1     -33.589  18.295  -1.947  1.00 20.00    -0.241 NA
HETATM   10 CL10 UNL     1     -33.621  18.339   0.735  1.00 20.00    -0.063 Cl
ENDROOT
TORSDOF 0
ENDMDL
MODEL 7
REMARK VINA RESULT:      -4.4     12.066     13.503
REMARK  0 active torsions:
REMARK  status: ('A' for Active; 'I' for Inactive)
ROOT
HETATM    1  C1  UNL     1     -34.461  13.320  -4.807  1.00 20.00     0.002 C 
HETATM    2  C2  UNL     1     -33.868  13.850  -3.726  1.00 20.00     0.028 C 
HETATM    3  C3  UNL     1     -34.881  14.126  -5.942  1.00 20.00    -0.003 C 
HETATM    4  C4  UNL     1     -34.424  15.378  -6.115  1.00 20.00    -0.012 C 
HETATM    5  C5  UNL     1     -33.608  17.351  -4.705  1.00 20.00     0.032 C 
HETATM    6  C6  UNL     1     -33.687  17.365  -3.371  1.00 20.00     0.123 C 
HETATM    7  C7  UNL     1     -33.656  15.309  -3.794  1.00 20.00     0.047 C 
HETATM    8  C8  UNL     1     -33.429  15.946  -5.159  1.00 20.00     0.086 C 
HETATM    9  N9  UNL     1     -33.703  16.127  -2.786  1.00 20.00    -0.241 NA
HETATM   10 CL10 UNL     1     -33.835  18.782  -2.431  1.00 20.00    -0.063 Cl
ENDROOT
TORSDOF 0
ENDMDL
MODEL 8
REMARK VINA RESULT:      -4.4     12.528     13.126
REMARK  0 active torsions:
REMARK  status: ('A' for Active; 'I' for Inactive)
ROOT
HETATM    1  C1  UNL     1     -32.977  18.942   2.963  1.00 20.00     0.002 C 
HETATM    2  C2  UNL     1     -34.159  18.541   2.471  1.00 20.00     0.028 C 
HETATM    3  C3  UNL     1     -31.769  18.987   2.157  1.00 20.00    -0.003 C 
HETATM    4  C4  UNL     1     -31.824  18.935   0.815  1.00 20.00    -0.012 C 
HETATM    5  C5  UNL     1     -33.306  17.952  -1.024  1.00 20.00     0.032 C 
HETATM    6  C6  UNL     1     -34.319  17.118  -0.765  1.00 20.00     0.123 C 
HETATM    7  C7  UNL     1     -34.137  18.173   1.041  1.00 20.00     0.047 C 
HETATM    8  C8  UNL     1     -33.146  18.883   0.126  1.00 20.00     0.086 C 
HETATM    9  N9  UNL     1     -34.856  17.244   0.489  1.00 20.00    -0.241 NA
HETATM   10 CL10 UNL     1     -34.883  15.926  -1.847  1.00 20.00    -0.063 Cl
ENDROOT
TORSDOF 0
ENDMDL
MODEL 9
REMARK VINA RESULT:      -4.4     12.414     13.971
REMARK  0 active torsions:
REMARK  status: ('A' for Active; 'I' for Inactive)
ROOT
HETATM    1  C1  UNL     1     -34.082  13.733  -3.606  1.00 20.00     0.002 C 
HETATM    2  C2  UNL     1     -33.181  14.724  -3.695  1.00 20.00     0.028 C 
HETATM    3  C3  UNL     1     -35.224  13.632  -4.501  1.00 20.00    -0.003 C 
HETATM    4  C4  UNL     1     -35.272  14.327  -5.650  1.00 20.00    -0.012 C 
HETATM    5  C5  UNL     1     -34.402  16.531  -6.616  1.00 20.00     0.032 C 
HETATM    6  C6  UNL     1     -33.781  17.450  -5.869  1.00 20.00     0.123 C 
HETATM    7  C7  UNL     1     -33.430  15.685  -4.787  1.00 20.00     0.047 C 
HETATM    8  C8  UNL     1     -34.118  15.184  -6.051  1.00 20.00     0.086 C 
HETATM    9  N9  UNL     1     -33.164  16.955  -4.751  1.00 20.00    -0.241 NA
HETATM   10 CL10 UNL     1     -33.791  19.123  -6.200  1.00 20.00    -0.063 Cl
ENDROOT
TORSDOF 0
ENDMDL
