MODEL 1
REMARK VINA RESULT:      -5.3      0.000      0.000
REMARK  2 active torsions:
REMARK  status: ('A' for Active; 'I' for Inactive)
REMARK    1  A    between atoms: C5_5  and  C6_6 
REMARK    2  A    between atoms: C7_7  and  O8_8 
ROOT
HETATM    1  C3  UNL     1     -34.078   6.356   6.299  1.00 20.00     0.010 C 
HETATM    2  C4  UNL     1     -35.049   5.206   6.625  1.00 20.00     0.032 C 
HETATM    3  C6  UNL     1     -33.762   5.631   4.965  1.00 20.00     0.018 C 
HETATM    4  C7  UNL     1     -35.158   4.952   5.104  1.00 20.00     0.122 C 
ENDROOT
BRANCH   3   5
HETATM    5  C5  UNL     1     -33.463   6.451   3.731  1.00 20.00    -0.008 A 
HETATM    6  C1  UNL     1     -32.108   7.030   3.437  1.00 20.00     0.005 A 
HETATM    7  C2  UNL     1     -32.659   5.930   2.574  1.00 20.00     0.005 A 
ENDBRANCH   3   5
BRANCH   4   8
HETATM    8  O8  UNL     1     -35.246   3.579   4.684  1.00 20.00    -0.395 OA
HETATM    9  H20 UNL     1     -35.445   3.605   3.738  1.00 20.00     0.210 HD
ENDBRANCH   4   8
TORSDOF 2
ENDMDL
MODEL 2
REMARK VINA RESULT:      -5.0      1.556      2.190
REMARK  2 active torsions:
REMARK  status: ('A' for Active; 'I' for Inactive)
REMARK    1  A    between atoms: C5_5  and  C6_6 
REMARK    2  A    between atoms: C7_7  and  O8_8 
ROOT
HETATM    1  C3  UNL     1     -34.759   5.196   3.380  1.00 20.00     0.010 C 
HETATM    2  C4  UNL     1     -35.305   5.002   4.807  1.00 20.00     0.032 C 
HETATM    3  C6  UNL     1     -33.864   6.332   3.942  1.00 20.00     0.018 C 
HETATM    4  C7  UNL     1     -33.991   5.628   5.327  1.00 20.00     0.122 C 
ENDROOT
BRANCH   3   5
HETATM    5  C5  UNL     1     -32.489   6.549   3.351  1.00 20.00    -0.008 A 
HETATM    6  C1  UNL     1     -32.167   7.679   2.414  1.00 20.00     0.005 A 
HETATM    7  C2  UNL     1     -31.572   7.654   3.794  1.00 20.00     0.005 A 
ENDBRANCH   3   5
BRANCH   4   8
HETATM    8  O8  UNL     1     -34.097   6.490   6.474  1.00 20.00    -0.395 OA
HETATM    9  H20 UNL     1     -35.044   6.595   6.638  1.00 20.00     0.210 HD
ENDBRANCH   4   8
TORSDOF 2
ENDMDL
MODEL 3
REMARK VINA RESULT:      -4.2     12.262     12.782
REMARK  2 active torsions:
REMARK  status: ('A' for Active; 'I' for Inactive)
REMARK    1  A    between atoms: C5_5  and  C6_6 
REMARK    2  A    between atoms: C7_7  and  O8_8 
ROOT
HETATM    1  C3  UNL     1     -35.355  14.388  -3.733  1.00 20.00     0.010 C 
HETATM    2  C4  UNL     1     -34.178  13.817  -4.546  1.00 20.00     0.032 C 
HETATM    3  C6  UNL     1     -34.311  15.070  -2.812  1.00 20.00     0.018 C 
HETATM    4  C7  UNL     1     -33.326  14.994  -4.019  1.00 20.00     0.122 C 
ENDROOT
BRANCH   3   5
HETATM    5  C5  UNL     1     -34.628  16.418  -2.206  1.00 20.00    -0.008 A 
HETATM    6  C1  UNL     1     -34.753  16.644  -0.726  1.00 20.00     0.005 A 
HETATM    7  C2  UNL     1     -33.608  17.254  -1.485  1.00 20.00     0.005 A 
ENDBRANCH   3   5
BRANCH   4   8
HETATM    8  O8  UNL     1     -31.952  14.705  -3.705  1.00 20.00    -0.395 OA
HETATM    9  H20 UNL     1     -31.934  13.778  -3.432  1.00 20.00     0.210 HD
ENDBRANCH   4   8
TORSDOF 2
ENDMDL
MODEL 4
REMARK VINA RESULT:      -4.1     12.150     13.033
REMARK  2 active torsions:
REMARK  status: ('A' for Active; 'I' for Inactive)
REMARK    1  A    between atoms: C5_5  and  C6_6 
REMARK    2  A    between atoms: C7_7  and  O8_8 
ROOT
HETATM    1  C3  UNL     1     -34.391  15.591  -5.478  1.00 20.00     0.010 C 
HETATM    2  C4  UNL     1     -34.772  14.193  -5.998  1.00 20.00     0.032 C 
HETATM    3  C6  UNL     1     -34.773  15.102  -4.057  1.00 20.00     0.018 C 
HETATM    4  C7  UNL     1     -34.494  13.658  -4.575  1.00 20.00     0.122 C 
ENDROOT
BRANCH   3   5
HETATM    5  C5  UNL     1     -34.000  15.618  -2.865  1.00 20.00    -0.008 A 
HETATM    6  C1  UNL     1     -33.891  17.078  -2.526  1.00 20.00     0.005 A 
HETATM    7  C2  UNL     1     -34.662  16.153  -1.627  1.00 20.00     0.005 A 
ENDBRANCH   3   5
BRANCH   4   8
HETATM    8  O8  UNL     1     -35.371  12.625  -4.091  1.00 20.00    -0.395 OA
HETATM    9  H20 UNL     1     -34.807  12.007  -3.607  1.00 20.00     0.210 HD
ENDBRANCH   4   8
TORSDOF 2
ENDMDL
MODEL 5
REMARK VINA RESULT:      -4.1      2.128      3.986
REMARK  2 active torsions:
REMARK  status: ('A' for Active; 'I' for Inactive)
REMARK    1  A    between atoms: C5_5  and  C6_6 
REMARK    2  A    between atoms: C7_7  and  O8_8 
ROOT
HETATM    1  C3  UNL     1     -33.713   5.376   2.801  1.00 20.00     0.010 C 
HETATM    2  C4  UNL     1     -32.542   6.140   2.156  1.00 20.00     0.032 C 
HETATM    3  C6  UNL     1     -33.257   5.950   4.167  1.00 20.00     0.018 C 
HETATM    4  C7  UNL     1     -32.593   7.107   3.360  1.00 20.00     0.122 C 
ENDROOT
BRANCH   3   5
HETATM    5  C5  UNL     1     -34.296   6.285   5.212  1.00 20.00    -0.008 A 
HETATM    6  C1  UNL     1     -34.659   5.356   6.337  1.00 20.00     0.005 A 
HETATM    7  C2  UNL     1     -33.948   6.648   6.629  1.00 20.00     0.005 A 
ENDBRANCH   3   5
BRANCH   4   8
HETATM    8  O8  UNL     1     -31.330   7.588   3.855  1.00 20.00    -0.395 OA
HETATM    9  H20 UNL     1     -30.660   7.233   3.255  1.00 20.00     0.210 HD
ENDBRANCH   4   8
TORSDOF 2
ENDMDL
MODEL 6
REMARK VINA RESULT:      -3.8     12.395     13.609
REMARK  2 active torsions:
REMARK  status: ('A' for Active; 'I' for Inactive)
REMARK    1  A    between atoms: C5_5  and  C6_6 
REMARK    2  A    between atoms: C7_7  and  O8_8 
ROOT
HETATM    1  C3  UNL     1     -33.840  15.563  -4.426  1.00 20.00     0.010 C 
HETATM    2  C4  UNL     1     -34.031  14.501  -3.327  1.00 20.00     0.032 C 
HETATM    3  C6  UNL     1     -34.528  14.582  -5.410  1.00 20.00     0.018 C 
HETATM    4  C7  UNL     1     -35.207  13.943  -4.161  1.00 20.00     0.122 C 
ENDROOT
BRANCH   3   5
HETATM    5  C5  UNL     1     -35.398  15.135  -6.517  1.00 20.00    -0.008 A 
HETATM    6  C1  UNL     1     -34.842  15.706  -7.791  1.00 20.00     0.005 A 
HETATM    7  C2  UNL     1     -35.620  14.421  -7.820  1.00 20.00     0.005 A 
ENDBRANCH   3   5
BRANCH   4   8
HETATM    8  O8  UNL     1     -35.362  12.512  -4.180  1.00 20.00    -0.395 OA
HETATM    9  H20 UNL     1     -34.590  12.158  -3.719  1.00 20.00     0.210 HD
ENDBRANCH   4   8
TORSDOF 2
ENDMDL
MODEL 7
REMARK VINA RESULT:      -3.7      1.403      3.437
REMARK  2 active torsions:
REMARK  status: ('A' for Active; 'I' for Inactive)
REMARK    1  A    between atoms: C5_5  and  C6_6 
REMARK    2  A    between atoms: C7_7  and  O8_8 
ROOT
HETATM    1  C3  UNL     1     -32.563   7.136   4.277  1.00 20.00     0.010 C 
HETATM    2  C4  UNL     1     -32.575   6.958   2.747  1.00 20.00     0.032 C 
HETATM    3  C6  UNL     1     -33.759   6.151   4.341  1.00 20.00     0.018 C 
HETATM    4  C7  UNL     1     -33.257   5.590   2.976  1.00 20.00     0.122 C 
ENDROOT
BRANCH   3   5
HETATM    5  C5  UNL     1     -33.882   5.214   5.520  1.00 20.00    -0.008 A 
HETATM    6  C1  UNL     1     -34.924   5.373   6.591  1.00 20.00     0.005 A 
HETATM    7  C2  UNL     1     -34.984   4.201   5.652  1.00 20.00     0.005 A 
ENDBRANCH   3   5
BRANCH   4   8
HETATM    8  O8  UNL     1     -34.272   5.209   2.029  1.00 20.00    -0.395 OA
HETATM    9  H20 UNL     1     -33.805   5.015   1.206  1.00 20.00     0.210 HD
ENDBRANCH   4   8
TORSDOF 2
ENDMDL
MODEL 8
REMARK VINA RESULT:      -3.7     12.397     13.181
REMARK  2 active torsions:
REMARK  status: ('A' for Active; 'I' for Inactive)
REMARK    1  A    between atoms: C5_5  and  C6_6 
REMARK    2  A    between atoms: C7_7  and  O8_8 
ROOT
HETATM    1  C3  UNL     1     -35.032  15.996  -4.668  1.00 20.00     0.010 C 
HETATM    2  C4  UNL     1     -36.366  15.309  -5.014  1.00 20.00     0.032 C 
HETATM    3  C6  UNL     1     -35.544  16.122  -3.210  1.00 20.00     0.018 C 
HETATM    4  C7  UNL     1     -36.474  14.911  -3.525  1.00 20.00     0.122 C 
ENDROOT
BRANCH   3   5
HETATM    5  C5  UNL     1     -34.558  16.013  -2.069  1.00 20.00    -0.008 A 
HETATM    6  C1  UNL     1     -33.692  17.157  -1.620  1.00 20.00     0.005 A 
HETATM    7  C2  UNL     1     -34.786  16.645  -0.725  1.00 20.00     0.005 A 
ENDBRANCH   3   5
BRANCH   4   8
HETATM    8  O8  UNL     1     -37.789  14.948  -2.941  1.00 20.00    -0.395 OA
HETATM    9  H20 UNL     1     -38.346  15.419  -3.576  1.00 20.00     0.210 HD
ENDBRANCH   4   8
TORSDOF 2
ENDMDL
MODEL 9
REMARK VINA RESULT:      -3.6     11.979     12.675
REMARK  2 active torsions:
REMARK  status: ('A' for Active; 'I' for Inactive)
REMARK    1  A    between atoms: C5_5  and  C6_6 
REMARK    2  A    between atoms: C7_7  and  O8_8 
ROOT
HETATM    1  C3  UNL     1     -33.937  16.630  -1.850  1.00 20.00     0.010 C 
HETATM    2  C4  UNL     1     -35.283  17.314  -1.547  1.00 20.00     0.032 C 
HETATM    3  C6  UNL     1     -34.735  15.515  -2.575  1.00 20.00     0.018 C 
HETATM    4  C7  UNL     1     -35.863  16.573  -2.773  1.00 20.00     0.122 C 
ENDROOT
BRANCH   3   5
HETATM    5  C5  UNL     1     -34.132  14.846  -3.789  1.00 20.00    -0.008 A 
HETATM    6  C1  UNL     1     -33.241  13.639  -3.705  1.00 20.00     0.005 A 
HETATM    7  C2  UNL     1     -34.608  13.522  -4.317  1.00 20.00     0.005 A 
ENDBRANCH   3   5
BRANCH   4   8
HETATM    8  O8  UNL     1     -37.215  16.094  -2.658  1.00 20.00    -0.395 OA
HETATM    9  H20 UNL     1     -37.479  15.833  -3.550  1.00 20.00     0.210 HD
ENDBRANCH   4   8
TORSDOF 2
ENDMDL
