MODEL 1
REMARK VINA RESULT:      -4.9      0.000      0.000
REMARK  0 active torsions:
REMARK  status: ('A' for Active; 'I' for Inactive)
ROOT
HETATM    1  C1  UNL     1     -34.914   4.188   5.923  1.00 20.00     0.011 A 
HETATM    2  C2  UNL     1     -34.499   5.626   6.249  1.00 20.00     0.011 A 
HETATM    3  C3  UNL     1     -35.494   5.652   3.728  1.00 20.00     0.027 A 
HETATM    4  C4  UNL     1     -34.018   5.241   3.596  1.00 20.00     0.067 A 
HETATM    5  C5  UNL     1     -34.719   5.187   4.875  1.00 20.00    -0.026 A 
HETATM    6 BR6  UNL     1     -32.742   6.624   3.290  1.00 20.00    -0.090 Br
ENDROOT
TORSDOF 0
ENDMDL
MODEL 2
REMARK VINA RESULT:      -3.9      2.044      3.047
REMARK  0 active torsions:
REMARK  status: ('A' for Active; 'I' for Inactive)
ROOT
HETATM    1  C1  UNL     1     -32.671   7.085   3.077  1.00 20.00     0.011 A 
HETATM    2  C2  UNL     1     -32.232   5.634   3.289  1.00 20.00     0.011 A 
HETATM    3  C3  UNL     1     -34.942   5.630   3.231  1.00 20.00     0.027 A 
HETATM    4  C4  UNL     1     -34.550   5.974   4.677  1.00 20.00     0.067 A 
HETATM    5  C5  UNL     1     -33.595   6.070   3.579  1.00 20.00    -0.026 A 
HETATM    6 BR6  UNL     1     -34.405   4.534   5.918  1.00 20.00    -0.090 Br
ENDROOT
TORSDOF 0
ENDMDL
MODEL 3
REMARK VINA RESULT:      -3.8      1.549      2.671
REMARK  0 active torsions:
REMARK  status: ('A' for Active; 'I' for Inactive)
ROOT
HETATM    1  C1  UNL     1     -35.492   5.267   3.741  1.00 20.00     0.011 A 
HETATM    2  C2  UNL     1     -34.045   5.750   3.607  1.00 20.00     0.011 A 
HETATM    3  C3  UNL     1     -34.223   4.467   5.988  1.00 20.00     0.027 A 
HETATM    4  C4  UNL     1     -34.694   5.907   6.247  1.00 20.00     0.067 A 
HETATM    5  C5  UNL     1     -34.604   5.359   4.897  1.00 20.00    -0.026 A 
HETATM    6 BR6  UNL     1     -33.391   7.169   6.831  1.00 20.00    -0.090 Br
ENDROOT
TORSDOF 0
ENDMDL
MODEL 4
REMARK VINA RESULT:      -3.4      1.942      2.679
REMARK  0 active torsions:
REMARK  status: ('A' for Active; 'I' for Inactive)
ROOT
HETATM    1  C1  UNL     1     -33.885   6.142   5.051  1.00 20.00     0.011 A 
HETATM    2  C2  UNL     1     -34.601   6.403   3.723  1.00 20.00     0.011 A 
HETATM    3  C3  UNL     1     -32.053   5.708   3.113  1.00 20.00     0.027 A 
HETATM    4  C4  UNL     1     -32.021   7.216   3.409  1.00 20.00     0.067 A 
HETATM    5  C5  UNL     1     -33.145   6.378   3.814  1.00 20.00    -0.026 A 
HETATM    6 BR6  UNL     1     -32.230   8.408   1.936  1.00 20.00    -0.090 Br
ENDROOT
TORSDOF 0
ENDMDL
MODEL 5
REMARK VINA RESULT:      -3.4      3.512      4.741
REMARK  0 active torsions:
REMARK  status: ('A' for Active; 'I' for Inactive)
ROOT
HETATM    1  C1  UNL     1     -31.713   8.516   1.087  1.00 20.00     0.011 A 
HETATM    2  C2  UNL     1     -32.805   9.155   1.948  1.00 20.00     0.011 A 
HETATM    3  C3  UNL     1     -31.358   7.552   3.586  1.00 20.00     0.027 A 
HETATM    4  C4  UNL     1     -32.400   6.642   2.915  1.00 20.00     0.067 A 
HETATM    5  C5  UNL     1     -32.084   7.966   2.388  1.00 20.00    -0.026 A 
HETATM    6 BR6  UNL     1     -34.051   6.371   3.828  1.00 20.00    -0.090 Br
ENDROOT
TORSDOF 0
ENDMDL
MODEL 6
REMARK VINA RESULT:      -3.2     13.009     13.412
REMARK  0 active torsions:
REMARK  status: ('A' for Active; 'I' for Inactive)
ROOT
HETATM    1  C1  UNL     1     -33.963  16.591  -1.887  1.00 20.00     0.011 A 
HETATM    2  C2  UNL     1     -35.089  15.775  -2.528  1.00 20.00     0.011 A 
HETATM    3  C3  UNL     1     -32.769  14.898  -3.621  1.00 20.00     0.027 A 
HETATM    4  C4  UNL     1     -33.181  16.134  -4.438  1.00 20.00     0.067 A 
HETATM    5  C5  UNL     1     -33.761  15.849  -3.129  1.00 20.00    -0.026 A 
HETATM    6 BR6  UNL     1     -34.227  15.845  -6.005  1.00 20.00    -0.090 Br
ENDROOT
TORSDOF 0
ENDMDL
MODEL 7
REMARK VINA RESULT:      -3.1     12.494     12.942
REMARK  0 active torsions:
REMARK  status: ('A' for Active; 'I' for Inactive)
ROOT
HETATM    1  C1  UNL     1     -34.755  16.907  -0.278  1.00 20.00     0.011 A 
HETATM    2  C2  UNL     1     -33.603  17.522  -1.078  1.00 20.00     0.011 A 
HETATM    3  C3  UNL     1     -35.482  16.756  -2.876  1.00 20.00     0.027 A 
HETATM    4  C4  UNL     1     -34.634  15.505  -2.590  1.00 20.00     0.067 A 
HETATM    5  C5  UNL     1     -34.605  16.670  -1.712  1.00 20.00    -0.026 A 
HETATM    6 BR6  UNL     1     -33.152  15.165  -3.739  1.00 20.00    -0.090 Br
ENDROOT
TORSDOF 0
ENDMDL
MODEL 8
REMARK VINA RESULT:      -3.1      9.011      9.495
REMARK  0 active torsions:
REMARK  status: ('A' for Active; 'I' for Inactive)
ROOT
HETATM    1  C1  UNL     1     -40.943   7.207  -0.780  1.00 20.00     0.011 A 
HETATM    2  C2  UNL     1     -42.317   6.896  -1.381  1.00 20.00     0.011 A 
HETATM    3  C3  UNL     1     -41.625   4.759   0.136  1.00 20.00     0.027 A 
HETATM    4  C4  UNL     1     -40.961   4.539  -1.233  1.00 20.00     0.067 A 
HETATM    5  C5  UNL     1     -41.469   5.845  -0.827  1.00 20.00    -0.026 A 
HETATM    6 BR6  UNL     1     -41.924   3.523  -2.527  1.00 20.00    -0.090 Br
ENDROOT
TORSDOF 0
ENDMDL
MODEL 9
REMARK VINA RESULT:      -3.1     12.249     12.876
REMARK  0 active torsions:
REMARK  status: ('A' for Active; 'I' for Inactive)
ROOT
HETATM    1  C1  UNL     1     -33.714  13.627  -4.103  1.00 20.00     0.011 A 
HETATM    2  C2  UNL     1     -35.159  14.043  -3.812  1.00 20.00     0.011 A 
HETATM    3  C3  UNL     1     -33.747  16.328  -4.179  1.00 20.00     0.027 A 
HETATM    4  C4  UNL     1     -33.547  15.939  -2.705  1.00 20.00     0.067 A 
HETATM    5  C5  UNL     1     -34.052  14.987  -3.689  1.00 20.00    -0.026 A 
HETATM    6 BR6  UNL     1     -34.748  16.685  -1.426  1.00 20.00    -0.090 Br
ENDROOT
TORSDOF 0
ENDMDL
