MODEL 1
REMARK VINA RESULT:      -4.9      0.000      0.000
REMARK  0 active torsions:
REMARK  status: ('A' for Active; 'I' for Inactive)
ROOT
HETATM    1  C1  UNL     1     -34.006   6.233   5.649  1.00 20.00     0.108 C 
HETATM    2  C2  UNL     1     -34.339   4.766   5.317  1.00 20.00     0.241 C 
HETATM    3  C3  UNL     1     -34.805   5.254   3.924  1.00 20.00     0.321 C 
HETATM    4  C4  UNL     1     -33.869   6.495   4.123  1.00 20.00     0.249 C 
HETATM    5  O5  UNL     1     -35.372   4.239   6.102  1.00 20.00    -0.229 OA
HETATM    6  F6  UNL     1     -36.117   5.566   3.792  1.00 20.00    -0.198 F 
HETATM    7  F7  UNL     1     -34.498   4.441   2.888  1.00 20.00    -0.198 F 
HETATM    8  F8  UNL     1     -34.418   7.666   3.712  1.00 20.00    -0.219 F 
HETATM    9 CL9  UNL     1     -32.218   6.358   3.445  1.00 20.00    -0.076 Cl
ENDROOT
TORSDOF 0
ENDMDL
MODEL 2
REMARK VINA RESULT:      -4.8      2.429      3.206
REMARK  0 active torsions:
REMARK  status: ('A' for Active; 'I' for Inactive)
ROOT
HETATM    1  C1  UNL     1     -34.015   5.111   2.798  1.00 20.00     0.108 C 
HETATM    2  C2  UNL     1     -32.936   5.880   3.583  1.00 20.00     0.241 C 
HETATM    3  C3  UNL     1     -34.080   6.492   4.430  1.00 20.00     0.321 C 
HETATM    4  C4  UNL     1     -34.942   5.243   4.039  1.00 20.00     0.249 C 
HETATM    5  O5  UNL     1     -32.247   6.821   2.808  1.00 20.00    -0.229 OA
HETATM    6  F6  UNL     1     -34.591   7.673   4.006  1.00 20.00    -0.198 F 
HETATM    7  F7  UNL     1     -33.816   6.639   5.748  1.00 20.00    -0.198 F 
HETATM    8  F8  UNL     1     -36.231   5.541   3.736  1.00 20.00    -0.219 F 
HETATM    9 CL9  UNL     1     -34.918   3.872   5.189  1.00 20.00    -0.076 Cl
ENDROOT
TORSDOF 0
ENDMDL
MODEL 3
REMARK VINA RESULT:      -4.4     12.268     12.962
REMARK  0 active torsions:
REMARK  status: ('A' for Active; 'I' for Inactive)
ROOT
HETATM    1  C1  UNL     1     -34.492  14.702  -5.853  1.00 20.00     0.108 C 
HETATM    2  C2  UNL     1     -35.011  13.909  -4.639  1.00 20.00     0.241 C 
HETATM    3  C3  UNL     1     -33.939  14.633  -3.789  1.00 20.00     0.321 C 
HETATM    4  C4  UNL     1     -33.959  15.775  -4.862  1.00 20.00     0.249 C 
HETATM    5  O5  UNL     1     -34.805  12.529  -4.747  1.00 20.00    -0.229 OA
HETATM    6  F6  UNL     1     -32.739  14.015  -3.660  1.00 20.00    -0.198 F 
HETATM    7  F7  UNL     1     -34.323  14.987  -2.542  1.00 20.00    -0.198 F 
HETATM    8  F8  UNL     1     -32.728  16.253  -5.175  1.00 20.00    -0.219 F 
HETATM    9 CL9  UNL     1     -35.051  17.154  -4.531  1.00 20.00    -0.076 Cl
ENDROOT
TORSDOF 0
ENDMDL
MODEL 4
REMARK VINA RESULT:      -4.4     11.956     12.592
REMARK  0 active torsions:
REMARK  status: ('A' for Active; 'I' for Inactive)
ROOT
HETATM    1  C1  UNL     1     -35.871  14.573  -3.706  1.00 20.00     0.108 C 
HETATM    2  C2  UNL     1     -34.664  13.621  -3.797  1.00 20.00     0.241 C 
HETATM    3  C3  UNL     1     -33.800  14.853  -4.160  1.00 20.00     0.321 C 
HETATM    4  C4  UNL     1     -34.872  15.732  -3.429  1.00 20.00     0.249 C 
HETATM    5  O5  UNL     1     -34.770  12.685  -4.833  1.00 20.00    -0.229 OA
HETATM    6  F6  UNL     1     -33.658  15.135  -5.477  1.00 20.00    -0.198 F 
HETATM    7  F7  UNL     1     -32.557  14.873  -3.627  1.00 20.00    -0.198 F 
HETATM    8  F8  UNL     1     -35.170  16.885  -4.079  1.00 20.00    -0.219 F 
HETATM    9 CL9  UNL     1     -34.553  16.102  -1.707  1.00 20.00    -0.076 Cl
ENDROOT
TORSDOF 0
ENDMDL
MODEL 5
REMARK VINA RESULT:      -4.3     12.105     12.615
REMARK  0 active torsions:
REMARK  status: ('A' for Active; 'I' for Inactive)
ROOT
HETATM    1  C1  UNL     1     -33.308  14.145  -3.792  1.00 20.00     0.108 C 
HETATM    2  C2  UNL     1     -34.494  13.779  -4.703  1.00 20.00     0.241 C 
HETATM    3  C3  UNL     1     -35.242  14.999  -4.112  1.00 20.00     0.321 C 
HETATM    4  C4  UNL     1     -33.838  15.606  -3.772  1.00 20.00     0.249 C 
HETATM    5  O5  UNL     1     -35.084  12.550  -4.383  1.00 20.00    -0.229 OA
HETATM    6  F6  UNL     1     -36.024  14.772  -3.029  1.00 20.00    -0.198 F 
HETATM    7  F7  UNL     1     -35.994  15.703  -4.988  1.00 20.00    -0.198 F 
HETATM    8  F8  UNL     1     -33.779  16.200  -2.554  1.00 20.00    -0.219 F 
HETATM    9 CL9  UNL     1     -33.138  16.715  -4.991  1.00 20.00    -0.076 Cl
ENDROOT
TORSDOF 0
ENDMDL
MODEL 6
REMARK VINA RESULT:      -4.2     11.935     12.684
REMARK  0 active torsions:
REMARK  status: ('A' for Active; 'I' for Inactive)
ROOT
HETATM    1  C1  UNL     1     -35.993  15.491  -5.182  1.00 20.00     0.108 C 
HETATM    2  C2  UNL     1     -36.191  14.806  -3.817  1.00 20.00     0.241 C 
HETATM    3  C3  UNL     1     -34.980  13.906  -4.164  1.00 20.00     0.321 C 
HETATM    4  C4  UNL     1     -34.506  15.039  -5.137  1.00 20.00     0.249 C 
HETATM    5  O5  UNL     1     -37.399  14.107  -3.714  1.00 20.00    -0.229 OA
HETATM    6  F6  UNL     1     -35.249  12.727  -4.777  1.00 20.00    -0.198 F 
HETATM    7  F7  UNL     1     -34.148  13.623  -3.136  1.00 20.00    -0.198 F 
HETATM    8  F8  UNL     1     -34.031  14.580  -6.322  1.00 20.00    -0.219 F 
HETATM    9 CL9  UNL     1     -33.343  16.224  -4.466  1.00 20.00    -0.076 Cl
ENDROOT
TORSDOF 0
ENDMDL
MODEL 7
REMARK VINA RESULT:      -4.1      1.882      2.322
REMARK  0 active torsions:
REMARK  status: ('A' for Active; 'I' for Inactive)
ROOT
HETATM    1  C1  UNL     1     -34.471   6.911   4.407  1.00 20.00     0.108 C 
HETATM    2  C2  UNL     1     -33.595   6.211   5.462  1.00 20.00     0.241 C 
HETATM    3  C3  UNL     1     -34.566   5.008   5.379  1.00 20.00     0.321 C 
HETATM    4  C4  UNL     1     -34.947   5.505   3.943  1.00 20.00     0.249 C 
HETATM    5  O5  UNL     1     -33.601   6.853   6.706  1.00 20.00    -0.229 OA
HETATM    6  F6  UNL     1     -35.601   4.996   6.254  1.00 20.00    -0.198 F 
HETATM    7  F7  UNL     1     -33.990   3.787   5.449  1.00 20.00    -0.198 F 
HETATM    8  F8  UNL     1     -36.275   5.432   3.673  1.00 20.00    -0.219 F 
HETATM    9 CL9  UNL     1     -34.038   4.775   2.584  1.00 20.00    -0.076 Cl
ENDROOT
TORSDOF 0
ENDMDL
MODEL 8
REMARK VINA RESULT:      -4.1     12.407     12.963
REMARK  0 active torsions:
REMARK  status: ('A' for Active; 'I' for Inactive)
ROOT
HETATM    1  C1  UNL     1     -33.236  15.992  -5.111  1.00 20.00     0.108 C 
HETATM    2  C2  UNL     1     -34.653  15.420  -5.308  1.00 20.00     0.241 C 
HETATM    3  C3  UNL     1     -34.273  14.303  -4.306  1.00 20.00     0.321 C 
HETATM    4  C4  UNL     1     -33.199  15.286  -3.726  1.00 20.00     0.249 C 
HETATM    5  O5  UNL     1     -34.888  14.953  -6.607  1.00 20.00    -0.229 OA
HETATM    6  F6  UNL     1     -33.757  13.163  -4.826  1.00 20.00    -0.198 F 
HETATM    7  F7  UNL     1     -35.252  13.927  -3.452  1.00 20.00    -0.198 F 
HETATM    8  F8  UNL     1     -32.012  14.693  -3.440  1.00 20.00    -0.219 F 
HETATM    9 CL9  UNL     1     -33.706  16.276  -2.323  1.00 20.00    -0.076 Cl
ENDROOT
TORSDOF 0
ENDMDL
MODEL 9
REMARK VINA RESULT:      -4.1     12.558     13.210
REMARK  0 active torsions:
REMARK  status: ('A' for Active; 'I' for Inactive)
ROOT
HETATM    1  C1  UNL     1     -34.882  15.919  -4.936  1.00 20.00     0.108 C 
HETATM    2  C2  UNL     1     -33.370  16.203  -4.990  1.00 20.00     0.241 C 
HETATM    3  C3  UNL     1     -33.244  15.449  -3.644  1.00 20.00     0.321 C 
HETATM    4  C4  UNL     1     -34.570  14.703  -4.019  1.00 20.00     0.249 C 
HETATM    5  O5  UNL     1     -33.055  17.565  -4.902  1.00 20.00    -0.229 OA
HETATM    6  F6  UNL     1     -33.327  16.193  -2.515  1.00 20.00    -0.198 F 
HETATM    7  F7  UNL     1     -32.145  14.672  -3.511  1.00 20.00    -0.198 F 
HETATM    8  F8  UNL     1     -35.429  14.560  -2.979  1.00 20.00    -0.219 F 
HETATM    9 CL9  UNL     1     -34.385  13.124  -4.841  1.00 20.00    -0.076 Cl
ENDROOT
TORSDOF 0
ENDMDL
