MODEL 1
REMARK VINA RESULT:      -5.0      0.000      0.000
REMARK  0 active torsions:
REMARK  status: ('A' for Active; 'I' for Inactive)
ROOT
HETATM    1  C1  UNL     1     -34.792  14.325  -5.799  1.00 20.00    -0.025 C 
HETATM    2  C2  UNL     1     -34.213  13.578  -4.840  1.00 20.00    -0.025 C 
HETATM    3  C3  UNL     1     -34.434  17.597  -4.310  1.00 20.00    -0.024 C 
HETATM    4  C4  UNL     1     -33.743  17.726  -3.154  1.00 20.00    -0.025 C 
HETATM    5  C5  UNL     1     -36.179  14.272  -3.966  1.00 20.00     0.018 C 
HETATM    6  C6  UNL     1     -35.794  15.238  -5.132  1.00 20.00     0.016 C 
HETATM    7  C7  UNL     1     -34.728  14.083  -3.493  1.00 20.00     0.014 C 
HETATM    8  C8  UNL     1     -35.193  16.326  -4.227  1.00 20.00     0.021 C 
HETATM    9  C9  UNL     1     -33.788  16.451  -2.296  1.00 20.00     0.009 C 
HETATM   10  C10 UNL     1     -34.143  15.508  -3.429  1.00 20.00     0.009 C 
HETATM   11  C11 UNL     1     -34.763  16.501  -1.132  1.00 20.00     0.014 C 
ENDROOT
TORSDOF 0
ENDMDL
MODEL 2
REMARK VINA RESULT:      -4.9      1.497      3.287
REMARK  0 active torsions:
REMARK  status: ('A' for Active; 'I' for Inactive)
ROOT
HETATM    1  C1  UNL     1     -33.312  13.587  -3.719  1.00 20.00    -0.025 C 
HETATM    2  C2  UNL     1     -32.612  14.729  -3.580  1.00 20.00    -0.025 C 
HETATM    3  C3  UNL     1     -35.101  14.346  -6.764  1.00 20.00    -0.024 C 
HETATM    4  C4  UNL     1     -34.829  15.496  -7.423  1.00 20.00    -0.025 C 
HETATM    5  C5  UNL     1     -34.759  15.273  -3.125  1.00 20.00     0.018 C 
HETATM    6  C6  UNL     1     -34.756  13.957  -3.967  1.00 20.00     0.016 C 
HETATM    7  C7  UNL     1     -33.564  15.888  -3.872  1.00 20.00     0.014 C 
HETATM    8  C8  UNL     1     -35.036  14.645  -5.313  1.00 20.00     0.021 C 
HETATM    9  C9  UNL     1     -34.328  16.606  -6.486  1.00 20.00     0.009 C 
HETATM   10  C10 UNL     1     -33.883  15.683  -5.367  1.00 20.00     0.009 C 
HETATM   11  C11 UNL     1     -35.369  17.651  -6.122  1.00 20.00     0.014 C 
ENDROOT
TORSDOF 0
ENDMDL
MODEL 3
REMARK VINA RESULT:      -4.9      1.433      3.863
REMARK  0 active torsions:
REMARK  status: ('A' for Active; 'I' for Inactive)
ROOT
HETATM    1  C1  UNL     1     -34.644  16.771  -0.565  1.00 20.00    -0.025 C 
HETATM    2  C2  UNL     1     -33.622  17.559  -0.949  1.00 20.00    -0.025 C 
HETATM    3  C3  UNL     1     -34.587  14.359  -3.253  1.00 20.00    -0.024 C 
HETATM    4  C4  UNL     1     -33.602  14.421  -4.178  1.00 20.00    -0.025 C 
HETATM    5  C5  UNL     1     -35.290  17.969  -2.419  1.00 20.00     0.018 C 
HETATM    6  C6  UNL     1     -35.552  16.578  -1.758  1.00 20.00     0.016 C 
HETATM    7  C7  UNL     1     -33.763  17.791  -2.453  1.00 20.00     0.014 C 
HETATM    8  C8  UNL     1     -34.957  15.753  -2.910  1.00 20.00     0.021 C 
HETATM    9  C9  UNL     1     -33.060  15.848  -4.365  1.00 20.00     0.009 C 
HETATM   10  C10 UNL     1     -33.541  16.378  -3.027  1.00 20.00     0.009 C 
HETATM   11  C11 UNL     1     -33.575  16.568  -5.598  1.00 20.00     0.014 C 
ENDROOT
TORSDOF 0
ENDMDL
MODEL 4
REMARK VINA RESULT:      -4.8      1.286      2.319
REMARK  0 active torsions:
REMARK  status: ('A' for Active; 'I' for Inactive)
ROOT
HETATM    1  C1  UNL     1     -33.496  13.710  -3.628  1.00 20.00    -0.025 C 
HETATM    2  C2  UNL     1     -34.781  13.519  -3.984  1.00 20.00    -0.025 C 
HETATM    3  C3  UNL     1     -33.862  16.700  -1.634  1.00 20.00    -0.024 C 
HETATM    4  C4  UNL     1     -35.101  17.184  -1.388  1.00 20.00    -0.025 C 
HETATM    5  C5  UNL     1     -34.092  15.335  -5.142  1.00 20.00     0.018 C 
HETATM    6  C6  UNL     1     -33.147  15.152  -3.911  1.00 20.00     0.016 C 
HETATM    7  C7  UNL     1     -35.351  14.879  -4.386  1.00 20.00     0.014 C 
HETATM    8  C8  UNL     1     -33.859  16.188  -3.026  1.00 20.00     0.021 C 
HETATM    9  C9  UNL     1     -36.102  16.830  -2.500  1.00 20.00     0.009 C 
HETATM   10  C10 UNL     1     -35.317  15.657  -3.055  1.00 20.00     0.009 C 
HETATM   11  C11 UNL     1     -36.401  17.959  -3.471  1.00 20.00     0.014 C 
ENDROOT
TORSDOF 0
ENDMDL
MODEL 5
REMARK VINA RESULT:      -4.8      1.476      3.422
REMARK  0 active torsions:
REMARK  status: ('A' for Active; 'I' for Inactive)
ROOT
HETATM    1  C1  UNL     1     -34.003  15.930  -2.568  1.00 20.00    -0.025 C 
HETATM    2  C2  UNL     1     -35.172  15.269  -2.670  1.00 20.00    -0.025 C 
HETATM    3  C3  UNL     1     -33.669  17.088  -5.973  1.00 20.00    -0.024 C 
HETATM    4  C4  UNL     1     -34.675  16.867  -6.850  1.00 20.00    -0.025 C 
HETATM    5  C5  UNL     1     -33.664  14.013  -3.791  1.00 20.00     0.018 C 
HETATM    6  C6  UNL     1     -33.113  15.472  -3.699  1.00 20.00     0.016 C 
HETATM    7  C7  UNL     1     -35.126  14.454  -3.962  1.00 20.00     0.014 C 
HETATM    8  C8  UNL     1     -33.570  15.889  -5.106  1.00 20.00     0.021 C 
HETATM    9  C9  UNL     1     -35.493  15.612  -6.502  1.00 20.00     0.009 C 
HETATM   10  C10 UNL     1     -35.084  15.553  -5.043  1.00 20.00     0.009 C 
HETATM   11  C11 UNL     1     -35.167  14.388  -7.341  1.00 20.00     0.014 C 
ENDROOT
TORSDOF 0
ENDMDL
MODEL 6
REMARK VINA RESULT:      -4.8      1.735      2.999
REMARK  0 active torsions:
REMARK  status: ('A' for Active; 'I' for Inactive)
ROOT
HETATM    1  C1  UNL     1     -33.305  15.925  -3.501  1.00 20.00    -0.025 C 
HETATM    2  C2  UNL     1     -34.230  15.111  -2.958  1.00 20.00    -0.025 C 
HETATM    3  C3  UNL     1     -32.973  18.326  -0.824  1.00 20.00    -0.024 C 
HETATM    4  C4  UNL     1     -33.636  18.120   0.338  1.00 20.00    -0.025 C 
HETATM    5  C5  UNL     1     -35.325  17.022  -3.466  1.00 20.00     0.018 C 
HETATM    6  C6  UNL     1     -33.800  17.346  -3.362  1.00 20.00     0.016 C 
HETATM    7  C7  UNL     1     -35.302  15.995  -2.322  1.00 20.00     0.014 C 
HETATM    8  C8  UNL     1     -33.863  17.882  -1.923  1.00 20.00     0.021 C 
HETATM    9  C9  UNL     1     -34.925  17.305   0.142  1.00 20.00     0.009 C 
HETATM   10  C10 UNL     1     -34.524  16.687  -1.185  1.00 20.00     0.009 C 
HETATM   11  C11 UNL     1     -36.203  18.126   0.142  1.00 20.00     0.014 C 
ENDROOT
TORSDOF 0
ENDMDL
MODEL 7
REMARK VINA RESULT:      -4.7      1.407      3.211
REMARK  0 active torsions:
REMARK  status: ('A' for Active; 'I' for Inactive)
ROOT
HETATM    1  C1  UNL     1     -36.252  14.962  -7.508  1.00 20.00    -0.025 C 
HETATM    2  C2  UNL     1     -36.717  16.014  -6.808  1.00 20.00    -0.025 C 
HETATM    3  C3  UNL     1     -34.494  13.219  -4.878  1.00 20.00    -0.024 C 
HETATM    4  C4  UNL     1     -34.574  13.681  -3.608  1.00 20.00    -0.025 C 
HETATM    5  C5  UNL     1     -34.488  16.343  -6.990  1.00 20.00     0.018 C 
HETATM    6  C6  UNL     1     -34.777  14.824  -7.209  1.00 20.00     0.016 C 
HETATM    7  C7  UNL     1     -35.579  16.512  -5.919  1.00 20.00     0.014 C 
HETATM    8  C8  UNL     1     -34.434  14.401  -5.772  1.00 20.00     0.021 C 
HETATM    9  C9  UNL     1     -34.814  15.198  -3.549  1.00 20.00     0.009 C 
HETATM   10  C10 UNL     1     -35.373  15.328  -4.953  1.00 20.00     0.009 C 
HETATM   11  C11 UNL     1     -33.580  16.026  -3.237  1.00 20.00     0.014 C 
ENDROOT
TORSDOF 0
ENDMDL
MODEL 8
REMARK VINA RESULT:      -4.7      1.556      3.344
REMARK  0 active torsions:
REMARK  status: ('A' for Active; 'I' for Inactive)
ROOT
HETATM    1  C1  UNL     1     -33.458  14.107  -3.828  1.00 20.00    -0.025 C 
HETATM    2  C2  UNL     1     -34.191  15.011  -3.150  1.00 20.00    -0.025 C 
HETATM    3  C3  UNL     1     -34.276  15.086  -7.208  1.00 20.00    -0.024 C 
HETATM    4  C4  UNL     1     -35.038  16.185  -7.413  1.00 20.00    -0.025 C 
HETATM    5  C5  UNL     1     -35.683  13.572  -4.054  1.00 20.00     0.018 C 
HETATM    6  C6  UNL     1     -34.352  13.472  -4.867  1.00 20.00     0.016 C 
HETATM    7  C7  UNL     1     -35.561  15.087  -3.824  1.00 20.00     0.014 C 
HETATM    8  C8  UNL     1     -34.805  14.403  -6.003  1.00 20.00     0.021 C 
HETATM    9  C9  UNL     1     -35.990  16.467  -6.240  1.00 20.00     0.009 C 
HETATM   10  C10 UNL     1     -35.214  15.672  -5.208  1.00 20.00     0.009 C 
HETATM   11  C11 UNL     1     -37.430  16.042  -6.473  1.00 20.00     0.014 C 
ENDROOT
TORSDOF 0
ENDMDL
MODEL 9
REMARK VINA RESULT:      -4.6      1.069      3.715
REMARK  0 active torsions:
REMARK  status: ('A' for Active; 'I' for Inactive)
ROOT
HETATM    1  C1  UNL     1     -34.689  16.177  -1.631  1.00 20.00    -0.025 C 
HETATM    2  C2  UNL     1     -33.632  16.739  -2.248  1.00 20.00    -0.025 C 
HETATM    3  C3  UNL     1     -35.586  13.703  -4.105  1.00 20.00    -0.024 C 
HETATM    4  C4  UNL     1     -34.800  13.541  -5.195  1.00 20.00    -0.025 C 
HETATM    5  C5  UNL     1     -35.446  17.408  -3.419  1.00 20.00     0.018 C 
HETATM    6  C6  UNL     1     -35.827  16.119  -2.623  1.00 20.00     0.016 C 
HETATM    7  C7  UNL     1     -34.012  16.940  -3.715  1.00 20.00     0.014 C 
HETATM    8  C8  UNL     1     -35.623  15.154  -3.802  1.00 20.00     0.021 C 
HETATM    9  C9  UNL     1     -34.053  14.829  -5.577  1.00 20.00     0.009 C 
HETATM   10  C10 UNL     1     -34.165  15.490  -4.217  1.00 20.00     0.009 C 
HETATM   11  C11 UNL     1     -34.653  15.590  -6.746  1.00 20.00     0.014 C 
ENDROOT
TORSDOF 0
ENDMDL
