MODEL 1
REMARK VINA RESULT:      -5.3      0.000      0.000
REMARK  0 active torsions:
REMARK  status: ('A' for Active; 'I' for Inactive)
ROOT
HETATM    1  C1  UNL     1     -35.324   4.612   5.707  1.00 20.00     0.002 C 
HETATM    2  C2  UNL     1     -35.250   4.680   4.368  1.00 20.00     0.028 C 
HETATM    3  C3  UNL     1     -34.419   5.343   6.578  1.00 20.00    -0.003 C 
HETATM    4  C4  UNL     1     -33.675   6.361   6.112  1.00 20.00    -0.012 C 
HETATM    5  C5  UNL     1     -32.567   7.105   3.929  1.00 20.00     0.007 C 
HETATM    6  C6  UNL     1     -32.513   6.328   2.843  1.00 20.00     0.114 C 
HETATM    7  C7  UNL     1     -34.194   5.575   3.855  1.00 20.00     0.045 C 
HETATM    8  C8  UNL     1     -33.807   6.789   4.689  1.00 20.00     0.084 C 
HETATM    9  N9  UNL     1     -33.511   5.391   2.767  1.00 20.00    -0.265 NA
ENDROOT
TORSDOF 0
ENDMDL
MODEL 2
REMARK VINA RESULT:      -5.0      1.414      3.555
REMARK  0 active torsions:
REMARK  status: ('A' for Active; 'I' for Inactive)
ROOT
HETATM    1  C1  UNL     1     -32.451   7.037   3.750  1.00 20.00     0.002 C 
HETATM    2  C2  UNL     1     -33.018   7.076   4.967  1.00 20.00     0.028 C 
HETATM    3  C3  UNL     1     -32.788   6.027   2.762  1.00 20.00    -0.003 C 
HETATM    4  C4  UNL     1     -33.897   5.277   2.884  1.00 20.00    -0.012 C 
HETATM    5  C5  UNL     1     -35.397   4.328   4.728  1.00 20.00     0.007 C 
HETATM    6  C6  UNL     1     -35.086   4.406   6.026  1.00 20.00     0.114 C 
HETATM    7  C7  UNL     1     -34.027   6.027   5.209  1.00 20.00     0.045 C 
HETATM    8  C8  UNL     1     -34.832   5.512   4.023  1.00 20.00     0.084 C 
HETATM    9  N9  UNL     1     -34.259   5.450   6.348  1.00 20.00    -0.265 NA
ENDROOT
TORSDOF 0
ENDMDL
MODEL 3
REMARK VINA RESULT:      -4.4      9.451     10.661
REMARK  0 active torsions:
REMARK  status: ('A' for Active; 'I' for Inactive)
ROOT
HETATM    1  C1  UNL     1     -41.189   7.115  -1.028  1.00 20.00     0.002 C 
HETATM    2  C2  UNL     1     -41.785   7.002  -2.225  1.00 20.00     0.028 C 
HETATM    3  C3  UNL     1     -40.998   5.982  -0.138  1.00 20.00    -0.003 C 
HETATM    4  C4  UNL     1     -41.114   4.720  -0.586  1.00 20.00    -0.012 C 
HETATM    5  C5  UNL     1     -42.388   3.413  -2.380  1.00 20.00     0.007 C 
HETATM    6  C6  UNL     1     -43.354   3.960  -3.125  1.00 20.00     0.114 C 
HETATM    7  C7  UNL     1     -42.205   5.632  -2.576  1.00 20.00     0.045 C 
HETATM    8  C8  UNL     1     -41.394   4.464  -2.029  1.00 20.00     0.084 C 
HETATM    9  N9  UNL     1     -43.255   5.318  -3.272  1.00 20.00    -0.265 NA
ENDROOT
TORSDOF 0
ENDMDL
MODEL 4
REMARK VINA RESULT:      -4.2     11.912     13.409
REMARK  0 active torsions:
REMARK  status: ('A' for Active; 'I' for Inactive)
ROOT
HETATM    1  C1  UNL     1     -33.641  17.651  -4.543  1.00 20.00     0.002 C 
HETATM    2  C2  UNL     1     -33.633  16.737  -5.526  1.00 20.00     0.028 C 
HETATM    3  C3  UNL     1     -33.890  17.304  -3.154  1.00 20.00    -0.003 C 
HETATM    4  C4  UNL     1     -33.811  16.030  -2.730  1.00 20.00    -0.012 C 
HETATM    5  C5  UNL     1     -34.156  13.664  -3.641  1.00 20.00     0.007 C 
HETATM    6  C6  UNL     1     -34.674  13.422  -4.850  1.00 20.00     0.114 C 
HETATM    7  C7  UNL     1     -33.871  15.350  -5.079  1.00 20.00     0.045 C 
HETATM    8  C8  UNL     1     -33.412  14.953  -3.682  1.00 20.00     0.084 C 
HETATM    9  N9  UNL     1     -34.497  14.436  -5.754  1.00 20.00    -0.265 NA
ENDROOT
TORSDOF 0
ENDMDL
MODEL 5
REMARK VINA RESULT:      -4.2      1.253      2.200
REMARK  0 active torsions:
REMARK  status: ('A' for Active; 'I' for Inactive)
ROOT
HETATM    1  C1  UNL     1     -35.104   5.300   5.499  1.00 20.00     0.002 C 
HETATM    2  C2  UNL     1     -33.950   5.886   5.857  1.00 20.00     0.028 C 
HETATM    3  C3  UNL     1     -35.516   5.163   4.113  1.00 20.00    -0.003 C 
HETATM    4  C4  UNL     1     -34.637   5.322   3.107  1.00 20.00    -0.012 C 
HETATM    5  C5  UNL     1     -32.494   6.625   2.600  1.00 20.00     0.007 C 
HETATM    6  C6  UNL     1     -32.005   7.561   3.419  1.00 20.00     0.114 C 
HETATM    7  C7  UNL     1     -33.124   6.355   4.727  1.00 20.00     0.045 C 
HETATM    8  C8  UNL     1     -33.202   5.595   3.409  1.00 20.00     0.084 C 
HETATM    9  N9  UNL     1     -32.365   7.408   4.733  1.00 20.00    -0.265 NA
ENDROOT
TORSDOF 0
ENDMDL
MODEL 6
REMARK VINA RESULT:      -4.2     12.209     13.582
REMARK  0 active torsions:
REMARK  status: ('A' for Active; 'I' for Inactive)
ROOT
HETATM    1  C1  UNL     1     -33.641  13.746  -3.653  1.00 20.00     0.002 C 
HETATM    2  C2  UNL     1     -34.566  13.429  -4.573  1.00 20.00     0.028 C 
HETATM    3  C3  UNL     1     -32.847  14.961  -3.729  1.00 20.00    -0.003 C 
HETATM    4  C4  UNL     1     -33.206  15.977  -4.532  1.00 20.00    -0.012 C 
HETATM    5  C5  UNL     1     -34.441  16.353  -6.741  1.00 20.00     0.007 C 
HETATM    6  C6  UNL     1     -34.827  15.349  -7.535  1.00 20.00     0.114 C 
HETATM    7  C7  UNL     1     -34.729  14.424  -5.651  1.00 20.00     0.045 C 
HETATM    8  C8  UNL     1     -34.465  15.889  -5.327  1.00 20.00     0.084 C 
HETATM    9  N9  UNL     1     -35.025  14.159  -6.886  1.00 20.00    -0.265 NA
ENDROOT
TORSDOF 0
ENDMDL
MODEL 7
REMARK VINA RESULT:      -4.1     12.441     13.883
REMARK  0 active torsions:
REMARK  status: ('A' for Active; 'I' for Inactive)
ROOT
HETATM    1  C1  UNL     1     -33.665  13.790  -3.787  1.00 20.00     0.002 C 
HETATM    2  C2  UNL     1     -33.020  14.967  -3.748  1.00 20.00     0.028 C 
HETATM    3  C3  UNL     1     -34.717  13.506  -4.747  1.00 20.00    -0.003 C 
HETATM    4  C4  UNL     1     -34.886  14.270  -5.841  1.00 20.00    -0.012 C 
HETATM    5  C5  UNL     1     -34.526  16.692  -6.582  1.00 20.00     0.007 C 
HETATM    6  C6  UNL     1     -34.168  17.663  -5.735  1.00 20.00     0.114 C 
HETATM    7  C7  UNL     1     -33.449  15.937  -4.775  1.00 20.00     0.045 C 
HETATM    8  C8  UNL     1     -33.953  15.402  -6.109  1.00 20.00     0.084 C 
HETATM    9  N9  UNL     1     -33.493  17.226  -4.626  1.00 20.00    -0.265 NA
ENDROOT
TORSDOF 0
ENDMDL
MODEL 8
REMARK VINA RESULT:      -4.1     11.730     13.192
REMARK  0 active torsions:
REMARK  status: ('A' for Active; 'I' for Inactive)
ROOT
HETATM    1  C1  UNL     1     -34.713  13.409  -4.992  1.00 20.00     0.002 C 
HETATM    2  C2  UNL     1     -34.462  13.681  -3.702  1.00 20.00     0.028 C 
HETATM    3  C3  UNL     1     -34.687  14.429  -6.027  1.00 20.00    -0.003 C 
HETATM    4  C4  UNL     1     -34.106  15.622  -5.812  1.00 20.00    -0.012 C 
HETATM    5  C5  UNL     1     -33.643  17.226  -3.874  1.00 20.00     0.007 C 
HETATM    6  C6  UNL     1     -34.145  17.045  -2.648  1.00 20.00     0.114 C 
HETATM    7  C7  UNL     1     -34.132  15.093  -3.425  1.00 20.00     0.045 C 
HETATM    8  C8  UNL     1     -33.431  15.898  -4.511  1.00 20.00     0.084 C 
HETATM    9  N9  UNL     1     -34.438  15.742  -2.344  1.00 20.00    -0.265 NA
ENDROOT
TORSDOF 0
ENDMDL
MODEL 9
REMARK VINA RESULT:      -4.1      9.613     10.570
REMARK  0 active torsions:
REMARK  status: ('A' for Active; 'I' for Inactive)
ROOT
HETATM    1  C1  UNL     1     -40.939   4.649  -0.894  1.00 20.00     0.002 C 
HETATM    2  C2  UNL     1     -41.917   4.461  -1.794  1.00 20.00     0.028 C 
HETATM    3  C3  UNL     1     -40.498   5.970  -0.481  1.00 20.00    -0.003 C 
HETATM    4  C4  UNL     1     -41.245   7.061  -0.727  1.00 20.00    -0.012 C 
HETATM    5  C5  UNL     1     -42.939   7.895  -2.454  1.00 20.00     0.007 C 
HETATM    6  C6  UNL     1     -43.212   7.229  -3.581  1.00 20.00     0.114 C 
HETATM    7  C7  UNL     1     -42.526   5.704  -2.309  1.00 20.00     0.045 C 
HETATM    8  C8  UNL     1     -42.574   6.919  -1.391  1.00 20.00     0.084 C 
HETATM    9  N9  UNL     1     -42.981   5.880  -3.511  1.00 20.00    -0.265 NA
ENDROOT
TORSDOF 0
ENDMDL
