MODEL 1
REMARK VINA RESULT:      -5.5      0.000      0.000
REMARK  0 active torsions:
REMARK  status: ('A' for Active; 'I' for Inactive)
ROOT
HETATM    1  C1  UNL     1     -34.770   4.799   6.738  1.00 20.00     0.002 C 
HETATM    2  C2  UNL     1     -34.306   6.030   6.472  1.00 20.00     0.028 C 
HETATM    3  C3  UNL     1     -34.950   3.792   5.706  1.00 20.00    -0.003 C 
HETATM    4  C4  UNL     1     -34.968   4.125   4.403  1.00 20.00    -0.012 C 
HETATM    5  C5  UNL     1     -33.975   5.895   2.846  1.00 20.00     0.027 C 
HETATM    6  C6  UNL     1     -33.049   6.776   3.246  1.00 20.00     0.100 C 
HETATM    7  C7  UNL     1     -34.020   6.284   5.046  1.00 20.00     0.047 C 
HETATM    8  C8  UNL     1     -34.852   5.557   4.000  1.00 20.00     0.085 C 
HETATM    9  N9  UNL     1     -33.069   7.042   4.591  1.00 20.00    -0.245 NA
HETATM   10 BR10 UNL     1     -31.768   7.558   2.173  1.00 20.00    -0.029 Br
ENDROOT
TORSDOF 0
ENDMDL
MODEL 2
REMARK VINA RESULT:      -4.6     12.125     13.673
REMARK  0 active torsions:
REMARK  status: ('A' for Active; 'I' for Inactive)
ROOT
HETATM    1  C1  UNL     1     -34.407  15.478  -7.102  1.00 20.00     0.002 C 
HETATM    2  C2  UNL     1     -33.791  16.314  -6.252  1.00 20.00     0.028 C 
HETATM    3  C3  UNL     1     -35.126  14.298  -6.653  1.00 20.00    -0.003 C 
HETATM    4  C4  UNL     1     -34.953  13.804  -5.414  1.00 20.00    -0.012 C 
HETATM    5  C5  UNL     1     -34.359  14.634  -3.069  1.00 20.00     0.027 C 
HETATM    6  C6  UNL     1     -34.262  15.934  -2.762  1.00 20.00     0.100 C 
HETATM    7  C7  UNL     1     -33.882  15.923  -4.831  1.00 20.00     0.047 C 
HETATM    8  C8  UNL     1     -33.968  14.442  -4.492  1.00 20.00     0.085 C 
HETATM    9  N9  UNL     1     -33.953  16.742  -3.827  1.00 20.00    -0.245 NA
HETATM   10 BR10 UNL     1     -34.571  16.678  -1.102  1.00 20.00    -0.029 Br
ENDROOT
TORSDOF 0
ENDMDL
MODEL 3
REMARK VINA RESULT:      -4.5     12.016     12.570
REMARK  0 active torsions:
REMARK  status: ('A' for Active; 'I' for Inactive)
ROOT
HETATM    1  C1  UNL     1     -35.306  13.551  -4.469  1.00 20.00     0.002 C 
HETATM    2  C2  UNL     1     -36.065  14.527  -3.947  1.00 20.00     0.028 C 
HETATM    3  C3  UNL     1     -33.879  13.447  -4.211  1.00 20.00    -0.003 C 
HETATM    4  C4  UNL     1     -33.185  14.482  -3.706  1.00 20.00    -0.012 C 
HETATM    5  C5  UNL     1     -33.563  16.505  -2.186  1.00 20.00     0.027 C 
HETATM    6  C6  UNL     1     -34.700  16.700  -1.506  1.00 20.00     0.100 C 
HETATM    7  C7  UNL     1     -35.329  15.498  -3.114  1.00 20.00     0.047 C 
HETATM    8  C8  UNL     1     -33.872  15.783  -3.450  1.00 20.00     0.085 C 
HETATM    9  N9  UNL     1     -35.800  16.104  -2.068  1.00 20.00    -0.245 NA
HETATM   10 BR10 UNL     1     -34.861  17.609   0.091  1.00 20.00    -0.029 Br
ENDROOT
TORSDOF 0
ENDMDL
MODEL 4
REMARK VINA RESULT:      -4.4     12.314     13.537
REMARK  0 active torsions:
REMARK  status: ('A' for Active; 'I' for Inactive)
ROOT
HETATM    1  C1  UNL     1     -34.827  14.056  -6.030  1.00 20.00     0.002 C 
HETATM    2  C2  UNL     1     -34.277  15.273  -6.159  1.00 20.00     0.028 C 
HETATM    3  C3  UNL     1     -35.071  13.442  -4.736  1.00 20.00    -0.003 C 
HETATM    4  C4  UNL     1     -34.481  13.906  -3.621  1.00 20.00    -0.012 C 
HETATM    5  C5  UNL     1     -33.594  16.114  -2.680  1.00 20.00     0.027 C 
HETATM    6  C6  UNL     1     -33.782  17.291  -3.290  1.00 20.00     0.100 C 
HETATM    7  C7  UNL     1     -33.918  15.923  -4.883  1.00 20.00     0.047 C 
HETATM    8  C8  UNL     1     -33.515  15.042  -3.710  1.00 20.00     0.085 C 
HETATM    9  N9  UNL     1     -33.967  17.198  -4.647  1.00 20.00    -0.245 NA
HETATM   10 BR10 UNL     1     -33.877  18.935  -2.459  1.00 20.00    -0.029 Br
ENDROOT
TORSDOF 0
ENDMDL
MODEL 5
REMARK VINA RESULT:      -4.3      1.216      2.166
REMARK  0 active torsions:
REMARK  status: ('A' for Active; 'I' for Inactive)
ROOT
HETATM    1  C1  UNL     1     -35.236   4.949   5.239  1.00 20.00     0.002 C 
HETATM    2  C2  UNL     1     -34.841   4.926   3.957  1.00 20.00     0.028 C 
HETATM    3  C3  UNL     1     -34.633   5.828   6.227  1.00 20.00    -0.003 C 
HETATM    4  C4  UNL     1     -33.453   6.429   5.997  1.00 20.00    -0.012 C 
HETATM    5  C5  UNL     1     -32.080   7.303   4.023  1.00 20.00     0.027 C 
HETATM    6  C6  UNL     1     -32.563   7.367   2.775  1.00 20.00     0.100 C 
HETATM    7  C7  UNL     1     -33.730   5.845   3.639  1.00 20.00     0.047 C 
HETATM    8  C8  UNL     1     -32.714   6.156   4.728  1.00 20.00     0.085 C 
HETATM    9  N9  UNL     1     -33.566   6.469   2.513  1.00 20.00    -0.245 NA
HETATM   10 BR10 UNL     1     -32.043   8.571   1.477  1.00 20.00    -0.029 Br
ENDROOT
TORSDOF 0
ENDMDL
MODEL 6
REMARK VINA RESULT:      -4.3     12.120     13.142
REMARK  0 active torsions:
REMARK  status: ('A' for Active; 'I' for Inactive)
ROOT
HETATM    1  C1  UNL     1     -33.654  13.790  -3.866  1.00 20.00     0.002 C 
HETATM    2  C2  UNL     1     -34.870  13.328  -4.197  1.00 20.00     0.028 C 
HETATM    3  C3  UNL     1     -33.416  15.178  -3.509  1.00 20.00    -0.003 C 
HETATM    4  C4  UNL     1     -34.317  16.135  -3.793  1.00 20.00    -0.012 C 
HETATM    5  C5  UNL     1     -36.847  16.385  -4.076  1.00 20.00     0.027 C 
HETATM    6  C6  UNL     1     -37.710  15.403  -3.788  1.00 20.00     0.100 C 
HETATM    7  C7  UNL     1     -35.937  14.348  -4.195  1.00 20.00     0.047 C 
HETATM    8  C8  UNL     1     -35.565  15.784  -4.534  1.00 20.00     0.085 C 
HETATM    9  N9  UNL     1     -37.176  14.142  -3.871  1.00 20.00    -0.245 NA
HETATM   10 BR10 UNL     1     -39.459  15.627  -3.245  1.00 20.00    -0.029 Br
ENDROOT
TORSDOF 0
ENDMDL
MODEL 7
REMARK VINA RESULT:      -4.3     12.621     13.212
REMARK  0 active torsions:
REMARK  status: ('A' for Active; 'I' for Inactive)
ROOT
HETATM    1  C1  UNL     1     -31.723  19.225   2.421  1.00 20.00     0.002 C 
HETATM    2  C2  UNL     1     -31.815  19.262   1.083  1.00 20.00     0.028 C 
HETATM    3  C3  UNL     1     -32.711  18.563   3.255  1.00 20.00    -0.003 C 
HETATM    4  C4  UNL     1     -33.921  18.230   2.771  1.00 20.00    -0.012 C 
HETATM    5  C5  UNL     1     -35.000  17.575   0.546  1.00 20.00     0.027 C 
HETATM    6  C6  UNL     1     -34.288  17.332  -0.561  1.00 20.00     0.100 C 
HETATM    7  C7  UNL     1     -33.014  18.599   0.531  1.00 20.00     0.047 C 
HETATM    8  C8  UNL     1     -34.284  18.588   1.368  1.00 20.00     0.085 C 
HETATM    9  N9  UNL     1     -33.072  17.964  -0.599  1.00 20.00    -0.245 NA
HETATM   10 BR10 UNL     1     -34.780  16.203  -1.935  1.00 20.00    -0.029 Br
ENDROOT
TORSDOF 0
ENDMDL
MODEL 8
REMARK VINA RESULT:      -4.3     12.570     13.895
REMARK  0 active torsions:
REMARK  status: ('A' for Active; 'I' for Inactive)
ROOT
HETATM    1  C1  UNL     1     -33.332  13.680  -3.795  1.00 20.00     0.002 C 
HETATM    2  C2  UNL     1     -32.904  14.944  -3.646  1.00 20.00     0.028 C 
HETATM    3  C3  UNL     1     -34.414  13.323  -4.696  1.00 20.00    -0.003 C 
HETATM    4  C4  UNL     1     -35.250  14.256  -5.185  1.00 20.00    -0.012 C 
HETATM    5  C5  UNL     1     -35.229  16.739  -5.801  1.00 20.00     0.027 C 
HETATM    6  C6  UNL     1     -34.111  17.475  -5.809  1.00 20.00     0.100 C 
HETATM    7  C7  UNL     1     -33.638  15.940  -4.450  1.00 20.00     0.047 C 
HETATM    8  C8  UNL     1     -35.104  15.680  -4.762  1.00 20.00     0.085 C 
HETATM    9  N9  UNL     1     -33.126  17.011  -4.974  1.00 20.00    -0.245 NA
HETATM   10 BR10 UNL     1     -33.798  18.953  -6.868  1.00 20.00    -0.029 Br
ENDROOT
TORSDOF 0
ENDMDL
MODEL 9
REMARK VINA RESULT:      -4.3      9.955     10.819
REMARK  0 active torsions:
REMARK  status: ('A' for Active; 'I' for Inactive)
ROOT
HETATM    1  C1  UNL     1     -42.554   7.711  -1.637  1.00 20.00     0.002 C 
HETATM    2  C2  UNL     1     -43.269   6.717  -2.187  1.00 20.00     0.028 C 
HETATM    3  C3  UNL     1     -41.244   7.495  -1.046  1.00 20.00    -0.003 C 
HETATM    4  C4  UNL     1     -40.816   6.260  -0.731  1.00 20.00    -0.012 C 
HETATM    5  C5  UNL     1     -41.127   3.847  -1.521  1.00 20.00     0.027 C 
HETATM    6  C6  UNL     1     -41.795   3.529  -2.637  1.00 20.00     0.100 C 
HETATM    7  C7  UNL     1     -42.630   5.389  -2.119  1.00 20.00     0.047 C 
HETATM    8  C8  UNL     1     -41.714   5.086  -0.942  1.00 20.00     0.085 C 
HETATM    9  N9  UNL     1     -42.734   4.455  -3.014  1.00 20.00    -0.245 NA
HETATM   10 BR10 UNL     1     -41.498   2.041  -3.686  1.00 20.00    -0.029 Br
ENDROOT
TORSDOF 0
ENDMDL
