MODEL 1
REMARK VINA RESULT:      -5.2      0.000      0.000
REMARK  0 active torsions:
REMARK  status: ('A' for Active; 'I' for Inactive)
ROOT
HETATM    1  C1  UNL     1     -35.649  13.461  -4.284  1.00 20.00     0.147 A 
HETATM    2  C2  UNL     1     -35.450  14.741  -3.735  1.00 20.00    -0.015 A 
HETATM    3  C3  UNL     1     -34.099  14.796  -3.481  1.00 20.00     0.036 A 
HETATM    4  C4  UNL     1     -36.378  15.852  -3.421  1.00 20.00     0.043 C 
HETATM    5  C5  UNL     1     -33.342  15.939  -2.915  1.00 20.00     0.068 C 
HETATM    6  C6  UNL     1     -35.595  17.159  -3.163  1.00 20.00     0.014 C 
HETATM    7  C7  UNL     1     -34.319  16.978  -2.277  1.00 20.00    -0.042 C 
HETATM    8  C8  UNL     1     -33.598  18.333  -2.163  1.00 20.00     0.015 C 
HETATM    9  C9  UNL     1     -34.716  16.527  -0.856  1.00 20.00     0.015 C 
HETATM   10  N10 UNL     1     -34.513  12.761  -4.378  1.00 20.00    -0.186 NA
HETATM   11  N11 UNL     1     -33.585  13.601  -3.882  1.00 20.00    -0.282 N 
HETATM   12  H25 UNL     1     -32.623  13.288  -3.845  1.00 20.00     0.189 HD
ENDROOT
TORSDOF 0
ENDMDL
MODEL 2
REMARK VINA RESULT:      -4.9      1.290      1.609
REMARK  0 active torsions:
REMARK  status: ('A' for Active; 'I' for Inactive)
ROOT
HETATM    1  C1  UNL     1     -34.663  13.769  -5.626  1.00 20.00     0.147 A 
HETATM    2  C2  UNL     1     -34.449  14.971  -4.929  1.00 20.00    -0.015 A 
HETATM    3  C3  UNL     1     -34.451  14.601  -3.604  1.00 20.00     0.036 A 
HETATM    4  C4  UNL     1     -34.275  16.373  -5.376  1.00 20.00     0.043 C 
HETATM    5  C5  UNL     1     -34.244  15.483  -2.428  1.00 20.00     0.068 C 
HETATM    6  C6  UNL     1     -33.721  17.246  -4.229  1.00 20.00     0.014 C 
HETATM    7  C7  UNL     1     -34.391  16.983  -2.841  1.00 20.00    -0.042 C 
HETATM    8  C8  UNL     1     -33.697  17.858  -1.781  1.00 20.00     0.015 C 
HETATM    9  C9  UNL     1     -35.881  17.377  -2.885  1.00 20.00     0.015 C 
HETATM   10  N10 UNL     1     -34.785  12.716  -4.810  1.00 20.00    -0.186 NA
HETATM   11  N11 UNL     1     -34.650  13.255  -3.582  1.00 20.00    -0.282 N 
HETATM   12  H25 UNL     1     -34.709  12.642  -2.779  1.00 20.00     0.189 HD
ENDROOT
TORSDOF 0
ENDMDL
MODEL 3
REMARK VINA RESULT:      -4.7      2.513      3.077
REMARK  0 active torsions:
REMARK  status: ('A' for Active; 'I' for Inactive)
ROOT
HETATM    1  C1  UNL     1     -34.412  13.223  -4.815  1.00 20.00     0.147 A 
HETATM    2  C2  UNL     1     -34.532  14.453  -5.484  1.00 20.00    -0.015 A 
HETATM    3  C3  UNL     1     -33.640  15.280  -4.841  1.00 20.00     0.036 A 
HETATM    4  C4  UNL     1     -35.389  14.905  -6.605  1.00 20.00     0.043 C 
HETATM    5  C5  UNL     1     -33.346  16.699  -5.160  1.00 20.00     0.068 C 
HETATM    6  C6  UNL     1     -34.872  16.242  -7.181  1.00 20.00     0.014 C 
HETATM    7  C7  UNL     1     -34.449  17.287  -6.097  1.00 20.00    -0.042 C 
HETATM    8  C8  UNL     1     -33.887  18.534  -6.803  1.00 20.00     0.015 C 
HETATM    9  C9  UNL     1     -35.674  17.719  -5.266  1.00 20.00     0.015 C 
HETATM   10  N10 UNL     1     -33.509  13.261  -3.828  1.00 20.00    -0.186 NA
HETATM   11  N11 UNL     1     -33.055  14.529  -3.869  1.00 20.00    -0.282 N 
HETATM   12  H25 UNL     1     -32.348  14.808  -3.200  1.00 20.00     0.189 HD
ENDROOT
TORSDOF 0
ENDMDL
MODEL 4
REMARK VINA RESULT:      -4.6      2.275      4.087
REMARK  0 active torsions:
REMARK  status: ('A' for Active; 'I' for Inactive)
ROOT
HETATM    1  C1  UNL     1     -33.760  16.722  -1.836  1.00 20.00     0.147 A 
HETATM    2  C2  UNL     1     -33.984  16.201  -3.123  1.00 20.00    -0.015 A 
HETATM    3  C3  UNL     1     -35.323  15.884  -3.133  1.00 20.00     0.036 A 
HETATM    4  C4  UNL     1     -33.088  15.966  -4.279  1.00 20.00     0.043 C 
HETATM    5  C5  UNL     1     -36.098  15.316  -4.263  1.00 20.00     0.068 C 
HETATM    6  C6  UNL     1     -33.910  15.708  -5.561  1.00 20.00     0.014 C 
HETATM    7  C7  UNL     1     -35.134  14.756  -5.358  1.00 20.00    -0.042 C 
HETATM    8  C8  UNL     1     -35.903  14.647  -6.687  1.00 20.00     0.015 C 
HETATM    9  C9  UNL     1     -34.652  13.344  -4.968  1.00 20.00     0.015 C 
HETATM   10  N10 UNL     1     -34.870  16.740  -1.089  1.00 20.00    -0.186 NA
HETATM   11  N11 UNL     1     -35.806  16.224  -1.907  1.00 20.00    -0.282 N 
HETATM   12  H25 UNL     1     -36.752  16.132  -1.558  1.00 20.00     0.189 HD
ENDROOT
TORSDOF 0
ENDMDL
MODEL 5
REMARK VINA RESULT:      -4.6      0.973      2.399
REMARK  0 active torsions:
REMARK  status: ('A' for Active; 'I' for Inactive)
ROOT
HETATM    1  C1  UNL     1     -33.761  13.621  -3.843  1.00 20.00     0.147 A 
HETATM    2  C2  UNL     1     -34.300  14.817  -3.336  1.00 20.00    -0.015 A 
HETATM    3  C3  UNL     1     -35.635  14.754  -3.664  1.00 20.00     0.036 A 
HETATM    4  C4  UNL     1     -33.695  15.968  -2.628  1.00 20.00     0.043 C 
HETATM    5  C5  UNL     1     -36.682  15.756  -3.346  1.00 20.00     0.068 C 
HETATM    6  C6  UNL     1     -34.790  16.849  -1.986  1.00 20.00     0.014 C 
HETATM    7  C7  UNL     1     -36.029  17.105  -2.905  1.00 20.00    -0.042 C 
HETATM    8  C8  UNL     1     -37.068  17.926  -2.120  1.00 20.00     0.015 C 
HETATM    9  C9  UNL     1     -35.612  17.922  -4.146  1.00 20.00     0.015 C 
HETATM   10  N10 UNL     1     -34.681  12.855  -4.439  1.00 20.00    -0.186 NA
HETATM   11  N11 UNL     1     -35.815  13.571  -4.314  1.00 20.00    -0.282 N 
HETATM   12  H25 UNL     1     -36.670  13.190  -4.699  1.00 20.00     0.189 HD
ENDROOT
TORSDOF 0
ENDMDL
MODEL 6
REMARK VINA RESULT:      -4.6     11.715     13.232
REMARK  0 active torsions:
REMARK  status: ('A' for Active; 'I' for Inactive)
ROOT
HETATM    1  C1  UNL     1     -43.209   3.220  -3.815  1.00 20.00     0.147 A 
HETATM    2  C2  UNL     1     -42.793   4.281  -2.991  1.00 20.00    -0.015 A 
HETATM    3  C3  UNL     1     -41.714   3.775  -2.303  1.00 20.00     0.036 A 
HETATM    4  C4  UNL     1     -43.312   5.653  -2.786  1.00 20.00     0.043 C 
HETATM    5  C5  UNL     1     -40.876   4.487  -1.307  1.00 20.00     0.068 C 
HETATM    6  C6  UNL     1     -42.278   6.520  -2.033  1.00 20.00     0.014 C 
HETATM    7  C7  UNL     1     -41.586   5.795  -0.832  1.00 20.00    -0.042 C 
HETATM    8  C8  UNL     1     -40.533   6.739  -0.224  1.00 20.00     0.015 C 
HETATM    9  C9  UNL     1     -42.623   5.468   0.262  1.00 20.00     0.015 C 
HETATM   10  N10 UNL     1     -42.450   2.128  -3.668  1.00 20.00    -0.186 NA
HETATM   11  N11 UNL     1     -41.546   2.497  -2.740  1.00 20.00    -0.282 N 
HETATM   12  H25 UNL     1     -40.848   1.823  -2.453  1.00 20.00     0.189 HD
ENDROOT
TORSDOF 0
ENDMDL
MODEL 7
REMARK VINA RESULT:      -4.5      2.429      2.958
REMARK  0 active torsions:
REMARK  status: ('A' for Active; 'I' for Inactive)
ROOT
HETATM    1  C1  UNL     1     -35.446  14.385  -7.125  1.00 20.00     0.147 A 
HETATM    2  C2  UNL     1     -35.114  14.611  -5.778  1.00 20.00    -0.015 A 
HETATM    3  C3  UNL     1     -34.523  15.854  -5.777  1.00 20.00     0.036 A 
HETATM    4  C4  UNL     1     -35.273  13.791  -4.555  1.00 20.00     0.043 C 
HETATM    5  C5  UNL     1     -33.999  16.594  -4.603  1.00 20.00     0.068 C 
HETATM    6  C6  UNL     1     -35.064  14.653  -3.290  1.00 20.00     0.014 C 
HETATM    7  C7  UNL     1     -33.851  15.636  -3.377  1.00 20.00    -0.042 C 
HETATM    8  C8  UNL     1     -33.804  16.481  -2.091  1.00 20.00     0.015 C 
HETATM    9  C9  UNL     1     -32.530  14.846  -3.479  1.00 20.00     0.015 C 
HETATM   10  N10 UNL     1     -35.100  15.406  -7.918  1.00 20.00    -0.186 NA
HETATM   11  N11 UNL     1     -34.540  16.287  -7.067  1.00 20.00    -0.282 N 
HETATM   12  H25 UNL     1     -34.190  17.161  -7.441  1.00 20.00     0.189 HD
ENDROOT
TORSDOF 0
ENDMDL
MODEL 8
REMARK VINA RESULT:      -4.4      2.294      4.096
REMARK  0 active torsions:
REMARK  status: ('A' for Active; 'I' for Inactive)
ROOT
HETATM    1  C1  UNL     1     -33.793  17.984  -1.890  1.00 20.00     0.147 A 
HETATM    2  C2  UNL     1     -33.900  16.971  -2.859  1.00 20.00    -0.015 A 
HETATM    3  C3  UNL     1     -34.720  16.031  -2.278  1.00 20.00     0.036 A 
HETATM    4  C4  UNL     1     -33.309  16.806  -4.207  1.00 20.00     0.043 C 
HETATM    5  C5  UNL     1     -35.184  14.756  -2.879  1.00 20.00     0.068 C 
HETATM    6  C6  UNL     1     -34.032  15.684  -4.985  1.00 20.00     0.014 C 
HETATM    7  C7  UNL     1     -34.328  14.403  -4.137  1.00 20.00    -0.042 C 
HETATM    8  C8  UNL     1     -35.112  13.404  -5.006  1.00 20.00     0.015 C 
HETATM    9  C9  UNL     1     -33.008  13.731  -3.708  1.00 20.00     0.015 C 
HETATM   10  N10 UNL     1     -34.494  17.714  -0.783  1.00 20.00    -0.186 NA
HETATM   11  N11 UNL     1     -35.050  16.516  -1.050  1.00 20.00    -0.282 N 
HETATM   12  H25 UNL     1     -35.639  16.092  -0.345  1.00 20.00     0.189 HD
ENDROOT
TORSDOF 0
ENDMDL
MODEL 9
REMARK VINA RESULT:      -4.4      2.623      4.107
REMARK  0 active torsions:
REMARK  status: ('A' for Active; 'I' for Inactive)
ROOT
HETATM    1  C1  UNL     1     -34.030  16.442  -1.906  1.00 20.00     0.147 A 
HETATM    2  C2  UNL     1     -34.251  15.761  -3.117  1.00 20.00    -0.015 A 
HETATM    3  C3  UNL     1     -34.011  16.706  -4.087  1.00 20.00     0.036 A 
HETATM    4  C4  UNL     1     -34.671  14.374  -3.425  1.00 20.00     0.043 C 
HETATM    5  C5  UNL     1     -34.078  16.515  -5.557  1.00 20.00     0.068 C 
HETATM    6  C6  UNL     1     -34.417  14.046  -4.913  1.00 20.00     0.014 C 
HETATM    7  C7  UNL     1     -34.827  15.188  -5.900  1.00 20.00    -0.042 C 
HETATM    8  C8  UNL     1     -34.454  14.763  -7.332  1.00 20.00     0.015 C 
HETATM    9  C9  UNL     1     -36.352  15.413  -5.851  1.00 20.00     0.015 C 
HETATM   10  N10 UNL     1     -33.672  17.718  -2.092  1.00 20.00    -0.186 NA
HETATM   11  N11 UNL     1     -33.668  17.849  -3.433  1.00 20.00    -0.282 N 
HETATM   12  H25 UNL     1     -33.423  18.749  -3.827  1.00 20.00     0.189 HD
ENDROOT
TORSDOF 0
ENDMDL
