MODEL 1
REMARK VINA RESULT:      -5.1      0.000      0.000
REMARK  0 active torsions:
REMARK  status: ('A' for Active; 'I' for Inactive)
ROOT
HETATM    1  C1  UNL     1     -34.602  15.573  -2.797  1.00 20.00    -0.025 C 
HETATM    2  C2  UNL     1     -35.125  14.426  -3.272  1.00 20.00    -0.025 C 
HETATM    3  C3  UNL     1     -33.949  17.262  -5.909  1.00 20.00    -0.024 C 
HETATM    4  C4  UNL     1     -34.334  16.689  -7.073  1.00 20.00    -0.025 C 
HETATM    5  C5  UNL     1     -32.919  14.337  -3.763  1.00 20.00     0.018 C 
HETATM    6  C6  UNL     1     -33.309  15.832  -3.538  1.00 20.00     0.016 C 
HETATM    7  C7  UNL     1     -34.250  13.972  -4.439  1.00 20.00     0.014 C 
HETATM    8  C8  UNL     1     -33.467  16.170  -5.028  1.00 20.00     0.021 C 
HETATM    9  C9  UNL     1     -34.320  15.153  -6.984  1.00 20.00     0.009 C 
HETATM   10  C10 UNL     1     -34.483  15.087  -5.478  1.00 20.00     0.009 C 
HETATM   11  C11 UNL     1     -35.463  14.486  -7.731  1.00 20.00     0.014 C 
ENDROOT
TORSDOF 0
ENDMDL
MODEL 2
REMARK VINA RESULT:      -4.9      1.274      2.860
REMARK  0 active torsions:
REMARK  status: ('A' for Active; 'I' for Inactive)
ROOT
HETATM    1  C1  UNL     1     -33.749  16.703  -2.261  1.00 20.00    -0.025 C 
HETATM    2  C2  UNL     1     -33.781  17.479  -3.362  1.00 20.00    -0.025 C 
HETATM    3  C3  UNL     1     -34.420  13.503  -3.768  1.00 20.00    -0.024 C 
HETATM    4  C4  UNL     1     -34.524  13.407  -5.114  1.00 20.00    -0.025 C 
HETATM    5  C5  UNL     1     -35.927  16.870  -2.985  1.00 20.00     0.018 C 
HETATM    6  C6  UNL     1     -34.994  15.845  -2.264  1.00 20.00     0.016 C 
HETATM    7  C7  UNL     1     -34.990  17.048  -4.191  1.00 20.00     0.014 C 
HETATM    8  C8  UNL     1     -35.054  14.785  -3.375  1.00 20.00     0.021 C 
HETATM    9  C9  UNL     1     -35.060  14.708  -5.737  1.00 20.00     0.009 C 
HETATM   10  C10 UNL     1     -34.610  15.614  -4.609  1.00 20.00     0.009 C 
HETATM   11  C11 UNL     1     -34.418  15.058  -7.069  1.00 20.00     0.014 C 
ENDROOT
TORSDOF 0
ENDMDL
MODEL 3
REMARK VINA RESULT:      -4.9      4.584      6.990
REMARK  0 active torsions:
REMARK  status: ('A' for Active; 'I' for Inactive)
ROOT
HETATM    1  C1  UNL     1     -33.751  16.909  -1.699  1.00 20.00    -0.025 C 
HETATM    2  C2  UNL     1     -34.730  16.568  -0.838  1.00 20.00    -0.025 C 
HETATM    3  C3  UNL     1     -31.756  18.984   0.463  1.00 20.00    -0.024 C 
HETATM    4  C4  UNL     1     -32.096  19.111   1.767  1.00 20.00    -0.025 C 
HETATM    5  C5  UNL     1     -35.073  18.753  -1.316  1.00 20.00     0.018 C 
HETATM    6  C6  UNL     1     -33.583  18.410  -1.636  1.00 20.00     0.016 C 
HETATM    7  C7  UNL     1     -35.139  17.833  -0.085  1.00 20.00     0.014 C 
HETATM    8  C8  UNL     1     -33.020  18.950  -0.313  1.00 20.00     0.021 C 
HETATM    9  C9  UNL     1     -33.614  18.975   1.975  1.00 20.00     0.009 C 
HETATM   10  C10 UNL     1     -33.867  18.162   0.721  1.00 20.00     0.009 C 
HETATM   11  C11 UNL     1     -33.994  18.234   3.247  1.00 20.00     0.014 C 
ENDROOT
TORSDOF 0
ENDMDL
MODEL 4
REMARK VINA RESULT:      -4.9      1.166      3.897
REMARK  0 active torsions:
REMARK  status: ('A' for Active; 'I' for Inactive)
ROOT
HETATM    1  C1  UNL     1     -36.588  15.182  -6.832  1.00 20.00    -0.025 C 
HETATM    2  C2  UNL     1     -36.441  16.393  -6.259  1.00 20.00    -0.025 C 
HETATM    3  C3  UNL     1     -34.580  13.214  -4.583  1.00 20.00    -0.024 C 
HETATM    4  C4  UNL     1     -34.039  13.796  -3.488  1.00 20.00    -0.025 C 
HETATM    5  C5  UNL     1     -34.440  15.921  -7.205  1.00 20.00     0.018 C 
HETATM    6  C6  UNL     1     -35.211  14.579  -6.995  1.00 20.00     0.016 C 
HETATM    7  C7  UNL     1     -34.963  16.557  -5.906  1.00 20.00     0.014 C 
HETATM    8  C8  UNL     1     -34.502  14.205  -5.683  1.00 20.00     0.021 C 
HETATM    9  C9  UNL     1     -33.737  15.286  -3.725  1.00 20.00     0.009 C 
HETATM   10  C10 UNL     1     -34.760  15.474  -4.828  1.00 20.00     0.009 C 
HETATM   11  C11 UNL     1     -34.005  16.165  -2.515  1.00 20.00     0.014 C 
ENDROOT
TORSDOF 0
ENDMDL
MODEL 5
REMARK VINA RESULT:      -4.8      0.839      2.422
REMARK  0 active torsions:
REMARK  status: ('A' for Active; 'I' for Inactive)
ROOT
HETATM    1  C1  UNL     1     -33.323  13.709  -3.871  1.00 20.00    -0.025 C 
HETATM    2  C2  UNL     1     -32.938  14.951  -3.521  1.00 20.00    -0.025 C 
HETATM    3  C3  UNL     1     -34.946  14.448  -6.998  1.00 20.00    -0.024 C 
HETATM    4  C4  UNL     1     -34.921  15.711  -7.481  1.00 20.00    -0.025 C 
HETATM    5  C5  UNL     1     -35.186  14.916  -3.264  1.00 20.00     0.018 C 
HETATM    6  C6  UNL     1     -34.787  13.767  -4.244  1.00 20.00     0.016 C 
HETATM    7  C7  UNL     1     -34.115  15.888  -3.787  1.00 20.00     0.014 C 
HETATM    8  C8  UNL     1     -35.104  14.550  -5.527  1.00 20.00     0.021 C 
HETATM    9  C9  UNL     1     -34.863  16.753  -6.350  1.00 20.00     0.009 C 
HETATM   10  C10 UNL     1     -34.244  15.826  -5.322  1.00 20.00     0.009 C 
HETATM   11  C11 UNL     1     -33.986  17.953  -6.667  1.00 20.00     0.014 C 
ENDROOT
TORSDOF 0
ENDMDL
MODEL 6
REMARK VINA RESULT:      -4.7      1.646      4.163
REMARK  0 active torsions:
REMARK  status: ('A' for Active; 'I' for Inactive)
ROOT
HETATM    1  C1  UNL     1     -34.340  15.703  -5.393  1.00 20.00    -0.025 C 
HETATM    2  C2  UNL     1     -33.121  15.889  -4.850  1.00 20.00    -0.025 C 
HETATM    3  C3  UNL     1     -36.387  16.863  -2.668  1.00 20.00    -0.024 C 
HETATM    4  C4  UNL     1     -35.799  17.387  -1.567  1.00 20.00    -0.025 C 
HETATM    5  C5  UNL     1     -34.018  14.132  -3.742  1.00 20.00     0.018 C 
HETATM    6  C6  UNL     1     -35.182  14.949  -4.389  1.00 20.00     0.016 C 
HETATM    7  C7  UNL     1     -33.176  15.376  -3.412  1.00 20.00     0.014 C 
HETATM    8  C8  UNL     1     -35.538  15.732  -3.115  1.00 20.00     0.021 C 
HETATM    9  C9  UNL     1     -34.413  16.769  -1.313  1.00 20.00     0.009 C 
HETATM   10  C10 UNL     1     -34.165  16.357  -2.751  1.00 20.00     0.009 C 
HETATM   11  C11 UNL     1     -33.385  17.762  -0.797  1.00 20.00     0.014 C 
ENDROOT
TORSDOF 0
ENDMDL
MODEL 7
REMARK VINA RESULT:      -4.6      0.965      1.029
REMARK  0 active torsions:
REMARK  status: ('A' for Active; 'I' for Inactive)
ROOT
HETATM    1  C1  UNL     1     -33.895  15.984  -2.726  1.00 20.00    -0.025 C 
HETATM    2  C2  UNL     1     -35.023  15.251  -2.667  1.00 20.00    -0.025 C 
HETATM    3  C3  UNL     1     -33.920  16.835  -6.224  1.00 20.00    -0.024 C 
HETATM    4  C4  UNL     1     -34.969  16.463  -6.994  1.00 20.00    -0.025 C 
HETATM    5  C5  UNL     1     -33.529  13.979  -3.793  1.00 20.00     0.018 C 
HETATM    6  C6  UNL     1     -33.069  15.469  -3.882  1.00 20.00     0.016 C 
HETATM    7  C7  UNL     1     -35.026  14.317  -3.877  1.00 20.00     0.014 C 
HETATM    8  C8  UNL     1     -33.664  15.724  -5.276  1.00 20.00     0.021 C 
HETATM    9  C9  UNL     1     -35.613  15.161  -6.488  1.00 20.00     0.009 C 
HETATM   10  C10 UNL     1     -35.142  15.305  -5.055  1.00 20.00     0.009 C 
HETATM   11  C11 UNL     1     -37.128  15.139  -6.612  1.00 20.00     0.014 C 
ENDROOT
TORSDOF 0
ENDMDL
MODEL 8
REMARK VINA RESULT:      -4.6      1.322      1.892
REMARK  0 active torsions:
REMARK  status: ('A' for Active; 'I' for Inactive)
ROOT
HETATM    1  C1  UNL     1     -34.260  15.268  -3.326  1.00 20.00    -0.025 C 
HETATM    2  C2  UNL     1     -35.593  15.236  -3.133  1.00 20.00    -0.025 C 
HETATM    3  C3  UNL     1     -34.188  15.627  -6.908  1.00 20.00    -0.024 C 
HETATM    4  C4  UNL     1     -35.349  15.772  -7.588  1.00 20.00    -0.025 C 
HETATM    5  C5  UNL     1     -35.074  13.262  -4.107  1.00 20.00     0.018 C 
HETATM    6  C6  UNL     1     -33.929  14.278  -4.420  1.00 20.00     0.016 C 
HETATM    7  C7  UNL     1     -36.189  14.316  -4.197  1.00 20.00     0.014 C 
HETATM    8  C8  UNL     1     -34.444  14.653  -5.819  1.00 20.00     0.021 C 
HETATM    9  C9  UNL     1     -36.515  15.055  -6.884  1.00 20.00     0.009 C 
HETATM   10  C10 UNL     1     -35.899  15.087  -5.499  1.00 20.00     0.009 C 
HETATM   11  C11 UNL     1     -37.833  15.808  -6.962  1.00 20.00     0.014 C 
ENDROOT
TORSDOF 0
ENDMDL
MODEL 9
REMARK VINA RESULT:      -4.6      1.698      3.587
REMARK  0 active torsions:
REMARK  status: ('A' for Active; 'I' for Inactive)
ROOT
HETATM    1  C1  UNL     1     -34.075  13.663  -3.584  1.00 20.00    -0.025 C 
HETATM    2  C2  UNL     1     -35.216  13.829  -4.281  1.00 20.00    -0.025 C 
HETATM    3  C3  UNL     1     -34.297  16.511  -1.393  1.00 20.00    -0.024 C 
HETATM    4  C4  UNL     1     -35.401  17.294  -1.425  1.00 20.00    -0.025 C 
HETATM    5  C5  UNL     1     -33.827  15.470  -4.987  1.00 20.00     0.018 C 
HETATM    6  C6  UNL     1     -33.336  14.981  -3.587  1.00 20.00     0.016 C 
HETATM    7  C7  UNL     1     -35.318  15.309  -4.647  1.00 20.00     0.014 C 
HETATM    8  C8  UNL     1     -34.010  16.111  -2.792  1.00 20.00     0.021 C 
HETATM    9  C9  UNL     1     -36.045  17.314  -2.823  1.00 20.00     0.009 C 
HETATM   10  C10 UNL     1     -35.481  15.979  -3.268  1.00 20.00     0.009 C 
HETATM   11  C11 UNL     1     -37.564  17.334  -2.796  1.00 20.00     0.014 C 
ENDROOT
TORSDOF 0
ENDMDL
