MODEL 1
REMARK VINA RESULT:      -5.5      0.000      0.000
REMARK  0 active torsions:
REMARK  status: ('A' for Active; 'I' for Inactive)
ROOT
HETATM    1  C1  UNL     1     -33.438   5.683   2.578  1.00 20.00    -0.026 C 
HETATM    2  C2  UNL     1     -34.494   5.166   3.220  1.00 20.00    -0.025 C 
HETATM    3  C3  UNL     1     -32.982   7.187   4.552  1.00 20.00     0.012 C 
HETATM    4  C4  UNL     1     -32.453   6.618   3.224  1.00 20.00     0.004 C 
HETATM    5  C5  UNL     1     -34.804   5.425   4.675  1.00 20.00     0.007 C 
HETATM    6  C6  UNL     1     -33.615   6.087   5.422  1.00 20.00    -0.011 C 
HETATM    7  C7  UNL     1     -32.084   7.761   2.277  1.00 20.00     0.014 C 
HETATM    8  C8  UNL     1     -35.223   4.114   5.349  1.00 20.00     0.014 C 
HETATM    9  C9  UNL     1     -34.041   6.673   6.770  1.00 20.00     0.010 C 
ENDROOT
TORSDOF 0
ENDMDL
MODEL 2
REMARK VINA RESULT:      -4.3     11.575     13.165
REMARK  0 active torsions:
REMARK  status: ('A' for Active; 'I' for Inactive)
ROOT
HETATM    1  C1  UNL     1     -34.051  17.322  -3.584  1.00 20.00    -0.026 C 
HETATM    2  C2  UNL     1     -34.459  17.085  -4.838  1.00 20.00    -0.025 C 
HETATM    3  C3  UNL     1     -34.484  14.907  -2.993  1.00 20.00     0.012 C 
HETATM    4  C4  UNL     1     -33.844  16.238  -2.562  1.00 20.00     0.004 C 
HETATM    5  C5  UNL     1     -34.721  15.705  -5.391  1.00 20.00     0.007 C 
HETATM    6  C6  UNL     1     -34.173  14.585  -4.465  1.00 20.00    -0.011 C 
HETATM    7  C7  UNL     1     -34.390  16.663  -1.198  1.00 20.00     0.014 C 
HETATM    8  C8  UNL     1     -34.131  15.598  -6.801  1.00 20.00     0.014 C 
HETATM    9  C9  UNL     1     -34.744  13.212  -4.827  1.00 20.00     0.010 C 
ENDROOT
TORSDOF 0
ENDMDL
MODEL 3
REMARK VINA RESULT:      -4.3      9.294     10.708
REMARK  0 active torsions:
REMARK  status: ('A' for Active; 'I' for Inactive)
ROOT
HETATM    1  C1  UNL     1     -42.950   4.633  -3.178  1.00 20.00    -0.026 C 
HETATM    2  C2  UNL     1     -42.870   5.962  -3.035  1.00 20.00    -0.025 C 
HETATM    3  C3  UNL     1     -41.068   4.347  -1.521  1.00 20.00     0.012 C 
HETATM    4  C4  UNL     1     -42.191   3.660  -2.318  1.00 20.00     0.004 C 
HETATM    5  C5  UNL     1     -42.044   6.645  -1.971  1.00 20.00     0.007 C 
HETATM    6  C6  UNL     1     -41.555   5.656  -0.879  1.00 20.00    -0.011 C 
HETATM    7  C7  UNL     1     -41.613   2.521  -3.160  1.00 20.00     0.014 C 
HETATM    8  C8  UNL     1     -42.850   7.796  -1.359  1.00 20.00     0.014 C 
HETATM    9  C9  UNL     1     -40.441   6.258  -0.019  1.00 20.00     0.010 C 
ENDROOT
TORSDOF 0
ENDMDL
MODEL 4
REMARK VINA RESULT:      -4.3     11.563     13.172
REMARK  0 active torsions:
REMARK  status: ('A' for Active; 'I' for Inactive)
ROOT
HETATM    1  C1  UNL     1     -33.693  18.318  -2.002  1.00 20.00    -0.026 C 
HETATM    2  C2  UNL     1     -33.799  18.149  -3.326  1.00 20.00    -0.025 C 
HETATM    3  C3  UNL     1     -34.693  16.031  -1.634  1.00 20.00     0.012 C 
HETATM    4  C4  UNL     1     -33.956  17.225  -1.003  1.00 20.00     0.004 C 
HETATM    5  C5  UNL     1     -34.155  16.835  -3.980  1.00 20.00     0.007 C 
HETATM    6  C6  UNL     1     -34.077  15.643  -2.989  1.00 20.00    -0.011 C 
HETATM    7  C7  UNL     1     -34.750  17.756   0.192  1.00 20.00     0.014 C 
HETATM    8  C8  UNL     1     -33.251  16.608  -5.196  1.00 20.00     0.014 C 
HETATM    9  C9  UNL     1     -34.774  14.395  -3.538  1.00 20.00     0.010 C 
ENDROOT
TORSDOF 0
ENDMDL
MODEL 5
REMARK VINA RESULT:      -4.2      1.002      4.066
REMARK  0 active torsions:
REMARK  status: ('A' for Active; 'I' for Inactive)
ROOT
HETATM    1  C1  UNL     1     -33.802   6.017   6.298  1.00 20.00    -0.026 C 
HETATM    2  C2  UNL     1     -33.421   6.919   5.384  1.00 20.00    -0.025 C 
HETATM    3  C3  UNL     1     -35.004   4.714   4.501  1.00 20.00     0.012 C 
HETATM    4  C4  UNL     1     -34.482   4.721   5.949  1.00 20.00     0.004 C 
HETATM    5  C5  UNL     1     -33.588   6.730   3.895  1.00 20.00     0.007 C 
HETATM    6  C6  UNL     1     -33.954   5.268   3.523  1.00 20.00    -0.011 C 
HETATM    7  C7  UNL     1     -35.628   4.428   6.918  1.00 20.00     0.014 C 
HETATM    8  C8  UNL     1     -32.313   7.184   3.176  1.00 20.00     0.014 C 
HETATM    9  C9  UNL     1     -34.473   5.155   2.087  1.00 20.00     0.010 C 
ENDROOT
TORSDOF 0
ENDMDL
MODEL 6
REMARK VINA RESULT:      -4.1     11.825     13.172
REMARK  0 active torsions:
REMARK  status: ('A' for Active; 'I' for Inactive)
ROOT
HETATM    1  C1  UNL     1     -33.414  15.935  -3.294  1.00 20.00    -0.026 C 
HETATM    2  C2  UNL     1     -33.478  16.023  -4.629  1.00 20.00    -0.025 C 
HETATM    3  C3  UNL     1     -35.931  15.780  -3.190  1.00 20.00     0.012 C 
HETATM    4  C4  UNL     1     -34.604  15.626  -2.427  1.00 20.00     0.004 C 
HETATM    5  C5  UNL     1     -34.736  15.785  -5.428  1.00 20.00     0.007 C 
HETATM    6  C6  UNL     1     -35.858  15.127  -4.580  1.00 20.00    -0.011 C 
HETATM    7  C7  UNL     1     -34.613  16.510  -1.178  1.00 20.00     0.014 C 
HETATM    8  C8  UNL     1     -34.406  14.940  -6.663  1.00 20.00     0.014 C 
HETATM    9  C9  UNL     1     -37.223  15.218  -5.268  1.00 20.00     0.010 C 
ENDROOT
TORSDOF 0
ENDMDL
MODEL 7
REMARK VINA RESULT:      -4.1     11.549     12.994
REMARK  0 active torsions:
REMARK  status: ('A' for Active; 'I' for Inactive)
ROOT
HETATM    1  C1  UNL     1     -34.101  15.598  -5.343  1.00 20.00    -0.026 C 
HETATM    2  C2  UNL     1     -33.521  16.699  -4.848  1.00 20.00    -0.025 C 
HETATM    3  C3  UNL     1     -34.680  14.857  -3.001  1.00 20.00     0.012 C 
HETATM    4  C4  UNL     1     -34.901  14.637  -4.507  1.00 20.00     0.004 C 
HETATM    5  C5  UNL     1     -33.631  17.133  -3.405  1.00 20.00     0.007 C 
HETATM    6  C6  UNL     1     -34.732  16.351  -2.638  1.00 20.00    -0.011 C 
HETATM    7  C7  UNL     1     -34.575  13.189  -4.877  1.00 20.00     0.014 C 
HETATM    8  C8  UNL     1     -33.877  18.644  -3.343  1.00 20.00     0.014 C 
HETATM    9  C9  UNL     1     -34.603  16.521  -1.122  1.00 20.00     0.010 C 
ENDROOT
TORSDOF 0
ENDMDL
MODEL 8
REMARK VINA RESULT:      -4.0      9.056     10.565
REMARK  0 active torsions:
REMARK  status: ('A' for Active; 'I' for Inactive)
ROOT
HETATM    1  C1  UNL     1     -41.569   3.588  -2.269  1.00 20.00    -0.026 C 
HETATM    2  C2  UNL     1     -40.807   4.316  -1.441  1.00 20.00    -0.025 C 
HETATM    3  C3  UNL     1     -43.417   3.579  -0.551  1.00 20.00     0.012 C 
HETATM    4  C4  UNL     1     -43.018   3.282  -2.007  1.00 20.00     0.004 C 
HETATM    5  C5  UNL     1     -41.317   4.950  -0.169  1.00 20.00     0.007 C 
HETATM    6  C6  UNL     1     -42.867   4.936  -0.083  1.00 20.00    -0.011 C 
HETATM    7  C7  UNL     1     -43.340   1.827  -2.351  1.00 20.00     0.014 C 
HETATM    8  C8  UNL     1     -40.766   6.375  -0.052  1.00 20.00     0.014 C 
HETATM    9  C9  UNL     1     -43.364   5.238   1.333  1.00 20.00     0.010 C 
ENDROOT
TORSDOF 0
ENDMDL
MODEL 9
REMARK VINA RESULT:      -4.0     11.141     13.341
REMARK  0 active torsions:
REMARK  status: ('A' for Active; 'I' for Inactive)
ROOT
HETATM    1  C1  UNL     1     -33.959  16.111  -6.186  1.00 20.00    -0.026 C 
HETATM    2  C2  UNL     1     -34.510  15.051  -5.581  1.00 20.00    -0.025 C 
HETATM    3  C3  UNL     1     -34.069  17.399  -4.018  1.00 20.00     0.012 C 
HETATM    4  C4  UNL     1     -33.508  17.343  -5.450  1.00 20.00     0.004 C 
HETATM    5  C5  UNL     1     -34.710  14.944  -4.088  1.00 20.00     0.007 C 
HETATM    6  C6  UNL     1     -33.934  16.040  -3.309  1.00 20.00    -0.011 C 
HETATM    7  C7  UNL     1     -33.900  18.609  -6.214  1.00 20.00     0.014 C 
HETATM    8  C8  UNL     1     -34.312  13.541  -3.617  1.00 20.00     0.014 C 
HETATM    9  C9  UNL     1     -34.414  16.162  -1.860  1.00 20.00     0.010 C 
ENDROOT
TORSDOF 0
ENDMDL
