MODEL 1
REMARK VINA RESULT:      -4.8      0.000      0.000
REMARK  0 active torsions:
REMARK  status: ('A' for Active; 'I' for Inactive)
ROOT
HETATM    1  C1  UNL     1     -34.537   5.203   2.900  1.00 20.00     0.032 C 
HETATM    2  C2  UNL     1     -33.603   6.118   2.617  1.00 20.00     0.028 C 
HETATM    3  C3  UNL     1     -34.622   5.388   6.522  1.00 20.00     0.026 C 
HETATM    4  C4  UNL     1     -35.016   4.143   6.239  1.00 20.00     0.115 C 
HETATM    5  C5  UNL     1     -34.751   4.984   4.334  1.00 20.00     0.062 C 
HETATM    6  C6  UNL     1     -32.821   6.709   3.749  1.00 20.00     0.026 C 
HETATM    7  C7  UNL     1     -34.499   6.154   5.255  1.00 20.00     0.184 C 
HETATM    8  C8  UNL     1     -31.498   7.331   3.384  1.00 20.00     0.070 C 
HETATM    9  N9  UNL     1     -35.117   3.876   4.899  1.00 20.00    -0.263 NA
HETATM   10  N10 UNL     1     -33.178   6.704   4.994  1.00 20.00    -0.279 NA
ENDROOT
TORSDOF 0
ENDMDL
MODEL 2
REMARK VINA RESULT:      -4.3     12.277     13.821
REMARK  0 active torsions:
REMARK  status: ('A' for Active; 'I' for Inactive)
ROOT
HETATM    1  C1  UNL     1     -34.452  13.393  -4.714  1.00 20.00     0.032 C 
HETATM    2  C2  UNL     1     -34.286  13.954  -3.511  1.00 20.00     0.028 C 
HETATM    3  C3  UNL     1     -34.545  16.327  -6.846  1.00 20.00     0.026 C 
HETATM    4  C4  UNL     1     -35.258  15.408  -7.506  1.00 20.00     0.115 C 
HETATM    5  C5  UNL     1     -34.608  14.354  -5.811  1.00 20.00     0.062 C 
HETATM    6  C6  UNL     1     -34.393  15.443  -3.401  1.00 20.00     0.026 C 
HETATM    7  C7  UNL     1     -33.919  15.688  -5.660  1.00 20.00     0.184 C 
HETATM    8  C8  UNL     1     -34.688  15.983  -2.025  1.00 20.00     0.070 C 
HETATM    9  N9  UNL     1     -35.298  14.182  -6.895  1.00 20.00    -0.263 NA
HETATM   10  N10 UNL     1     -34.277  16.281  -4.381  1.00 20.00    -0.279 NA
ENDROOT
TORSDOF 0
ENDMDL
MODEL 3
REMARK VINA RESULT:      -4.1     12.289     12.958
REMARK  0 active torsions:
REMARK  status: ('A' for Active; 'I' for Inactive)
ROOT
HETATM    1  C1  UNL     1     -35.256  14.510  -3.608  1.00 20.00     0.032 C 
HETATM    2  C2  UNL     1     -34.446  15.280  -2.873  1.00 20.00     0.028 C 
HETATM    3  C3  UNL     1     -38.352  16.395  -3.441  1.00 20.00     0.026 C 
HETATM    4  C4  UNL     1     -38.738  15.130  -3.631  1.00 20.00     0.115 C 
HETATM    5  C5  UNL     1     -36.644  14.981  -3.667  1.00 20.00     0.062 C 
HETATM    6  C6  UNL     1     -35.045  16.428  -2.122  1.00 20.00     0.026 C 
HETATM    7  C7  UNL     1     -36.872  16.469  -3.554  1.00 20.00     0.184 C 
HETATM    8  C8  UNL     1     -34.238  16.950  -0.961  1.00 20.00     0.070 C 
HETATM    9  N9  UNL     1     -37.704  14.244  -3.788  1.00 20.00    -0.263 NA
HETATM   10  N10 UNL     1     -36.190  16.978  -2.374  1.00 20.00    -0.279 NA
ENDROOT
TORSDOF 0
ENDMDL
MODEL 4
REMARK VINA RESULT:      -4.1     12.080     12.614
REMARK  0 active torsions:
REMARK  status: ('A' for Active; 'I' for Inactive)
ROOT
HETATM    1  C1  UNL     1     -33.007  15.672  -3.574  1.00 20.00     0.032 C 
HETATM    2  C2  UNL     1     -33.314  16.481  -2.554  1.00 20.00     0.028 C 
HETATM    3  C3  UNL     1     -36.210  14.085  -4.194  1.00 20.00     0.026 C 
HETATM    4  C4  UNL     1     -35.306  13.195  -4.616  1.00 20.00     0.115 C 
HETATM    5  C5  UNL     1     -34.112  14.814  -4.015  1.00 20.00     0.062 C 
HETATM    6  C6  UNL     1     -34.662  16.343  -1.918  1.00 20.00     0.026 C 
HETATM    7  C7  UNL     1     -35.512  15.347  -3.835  1.00 20.00     0.184 C 
HETATM    8  C8  UNL     1     -34.792  16.890  -0.519  1.00 20.00     0.070 C 
HETATM    9  N9  UNL     1     -34.009  13.628  -4.529  1.00 20.00    -0.263 NA
HETATM   10  N10 UNL     1     -35.696  15.780  -2.458  1.00 20.00    -0.279 NA
ENDROOT
TORSDOF 0
ENDMDL
MODEL 5
REMARK VINA RESULT:      -4.0     12.518     13.309
REMARK  0 active torsions:
REMARK  status: ('A' for Active; 'I' for Inactive)
ROOT
HETATM    1  C1  UNL     1     -34.860  17.969   2.422  1.00 20.00     0.032 C 
HETATM    2  C2  UNL     1     -35.307  17.548   1.233  1.00 20.00     0.028 C 
HETATM    3  C3  UNL     1     -31.593  19.263   1.520  1.00 20.00     0.026 C 
HETATM    4  C4  UNL     1     -31.472  18.905   2.803  1.00 20.00     0.115 C 
HETATM    5  C5  UNL     1     -33.490  18.490   2.399  1.00 20.00     0.062 C 
HETATM    6  C6  UNL     1     -34.356  17.541   0.078  1.00 20.00     0.026 C 
HETATM    7  C7  UNL     1     -33.016  19.128   1.116  1.00 20.00     0.184 C 
HETATM    8  C8  UNL     1     -34.718  16.636  -1.071  1.00 20.00     0.070 C 
HETATM    9  N9  UNL     1     -32.630  18.441   3.369  1.00 20.00    -0.263 NA
HETATM   10  N10 UNL     1     -33.257  18.222   0.003  1.00 20.00    -0.279 NA
ENDROOT
TORSDOF 0
ENDMDL
MODEL 6
REMARK VINA RESULT:      -4.0     11.842     13.083
REMARK  0 active torsions:
REMARK  status: ('A' for Active; 'I' for Inactive)
ROOT
HETATM    1  C1  UNL     1     -34.126  13.828  -3.655  1.00 20.00     0.032 C 
HETATM    2  C2  UNL     1     -34.431  13.516  -4.919  1.00 20.00     0.028 C 
HETATM    3  C3  UNL     1     -36.420  16.571  -3.040  1.00 20.00     0.026 C 
HETATM    4  C4  UNL     1     -35.394  16.798  -2.215  1.00 20.00     0.115 C 
HETATM    5  C5  UNL     1     -34.855  14.987  -3.128  1.00 20.00     0.062 C 
HETATM    6  C6  UNL     1     -35.356  14.421  -5.671  1.00 20.00     0.026 C 
HETATM    7  C7  UNL     1     -36.233  15.246  -3.686  1.00 20.00     0.184 C 
HETATM    8  C8  UNL     1     -35.290  14.331  -7.174  1.00 20.00     0.070 C 
HETATM    9  N9  UNL     1     -34.426  15.830  -2.241  1.00 20.00    -0.263 NA
HETATM   10  N10 UNL     1     -36.174  15.273  -5.140  1.00 20.00    -0.279 NA
ENDROOT
TORSDOF 0
ENDMDL
MODEL 7
REMARK VINA RESULT:      -4.0     11.996     13.492
REMARK  0 active torsions:
REMARK  status: ('A' for Active; 'I' for Inactive)
ROOT
HETATM    1  C1  UNL     1     -33.665  15.769  -2.716  1.00 20.00     0.032 C 
HETATM    2  C2  UNL     1     -34.133  17.006  -2.917  1.00 20.00     0.028 C 
HETATM    3  C3  UNL     1     -34.800  14.095  -5.728  1.00 20.00     0.026 C 
HETATM    4  C4  UNL     1     -34.712  13.123  -4.815  1.00 20.00     0.115 C 
HETATM    5  C5  UNL     1     -34.039  14.807  -3.758  1.00 20.00     0.062 C 
HETATM    6  C6  UNL     1     -35.053  17.238  -4.075  1.00 20.00     0.026 C 
HETATM    7  C7  UNL     1     -34.245  15.347  -5.152  1.00 20.00     0.184 C 
HETATM    8  C8  UNL     1     -35.923  18.466  -3.991  1.00 20.00     0.070 C 
HETATM    9  N9  UNL     1     -34.232  13.534  -3.600  1.00 20.00    -0.263 NA
HETATM   10  N10 UNL     1     -35.171  16.468  -5.110  1.00 20.00    -0.279 NA
ENDROOT
TORSDOF 0
ENDMDL
MODEL 8
REMARK VINA RESULT:      -3.9     12.260     13.512
REMARK  0 active torsions:
REMARK  status: ('A' for Active; 'I' for Inactive)
ROOT
HETATM    1  C1  UNL     1     -35.322  13.611  -4.150  1.00 20.00     0.032 C 
HETATM    2  C2  UNL     1     -34.241  14.278  -4.570  1.00 20.00     0.028 C 
HETATM    3  C3  UNL     1     -37.978  15.823  -5.251  1.00 20.00     0.026 C 
HETATM    4  C4  UNL     1     -38.492  15.176  -4.199  1.00 20.00     0.115 C 
HETATM    5  C5  UNL     1     -36.590  14.308  -4.387  1.00 20.00     0.062 C 
HETATM    6  C6  UNL     1     -34.425  15.664  -5.105  1.00 20.00     0.026 C 
HETATM    7  C7  UNL     1     -36.656  15.231  -5.579  1.00 20.00     0.184 C 
HETATM    8  C8  UNL     1     -33.199  16.541  -5.102  1.00 20.00     0.070 C 
HETATM    9  N9  UNL     1     -37.661  14.229  -3.661  1.00 20.00    -0.263 NA
HETATM   10  N10 UNL     1     -35.538  16.162  -5.538  1.00 20.00    -0.279 NA
ENDROOT
TORSDOF 0
ENDMDL
MODEL 9
REMARK VINA RESULT:      -3.9     12.254     13.499
REMARK  0 active torsions:
REMARK  status: ('A' for Active; 'I' for Inactive)
ROOT
HETATM    1  C1  UNL     1     -33.742  16.855  -5.103  1.00 20.00     0.032 C 
HETATM    2  C2  UNL     1     -33.809  15.565  -5.453  1.00 20.00     0.028 C 
HETATM    3  C3  UNL     1     -34.323  16.638  -1.528  1.00 20.00     0.026 C 
HETATM    4  C4  UNL     1     -34.750  17.859  -1.865  1.00 20.00     0.115 C 
HETATM    5  C5  UNL     1     -34.020  17.109  -3.685  1.00 20.00     0.062 C 
HETATM    6  C6  UNL     1     -34.262  14.573  -4.428  1.00 20.00     0.026 C 
HETATM    7  C7  UNL     1     -33.669  16.014  -2.707  1.00 20.00     0.184 C 
HETATM    8  C8  UNL     1     -34.787  13.265  -4.961  1.00 20.00     0.070 C 
HETATM    9  N9  UNL     1     -34.560  18.177  -3.185  1.00 20.00    -0.263 NA
HETATM   10  N10 UNL     1     -34.259  14.759  -3.146  1.00 20.00    -0.279 NA
ENDROOT
TORSDOF 0
ENDMDL
