MODEL 1
REMARK VINA RESULT:      -5.8      0.000      0.000
REMARK  2 active torsions:
REMARK  status: ('A' for Active; 'I' for Inactive)
REMARK    1  A    between atoms: C6_6  and  C7_7 
REMARK    2  A    between atoms: C7_7  and  N8_8 
ROOT
HETATM    1  C1  UNL     1     -32.057   7.754   2.574  1.00 20.00     0.332 C 
HETATM    2  N8  UNL     1     -32.074   6.978   3.456  1.00 20.00    -0.247 NA
HETATM    3  O9  UNL     1     -32.039   8.532   1.691  1.00 20.00    -0.260 OA
ENDROOT
BRANCH   2   4
HETATM    4  C7  UNL     1     -33.040   5.895   3.291  1.00 20.00     0.161 C 
BRANCH   4   5
HETATM    5  C6  UNL     1     -34.275   6.206   4.125  1.00 20.00     0.028 C 
HETATM    6  C3  UNL     1     -33.933   6.406   5.570  1.00 20.00    -0.024 C 
HETATM    7  C2  UNL     1     -34.341   5.385   6.328  1.00 20.00    -0.030 C 
HETATM    8  C4  UNL     1     -35.019   4.330   5.522  1.00 20.00     0.027 C 
HETATM    9  C5  UNL     1     -35.261   5.030   4.183  1.00 20.00     0.014 C 
ENDBRANCH   4   5
ENDBRANCH   2   4
TORSDOF 2
ENDMDL
MODEL 2
REMARK VINA RESULT:      -4.2      0.959      1.655
REMARK  2 active torsions:
REMARK  status: ('A' for Active; 'I' for Inactive)
REMARK    1  A    between atoms: C6_6  and  C7_7 
REMARK    2  A    between atoms: C7_7  and  N8_8 
ROOT
HETATM    1  C1  UNL     1     -32.128   8.461   1.866  1.00 20.00     0.332 C 
HETATM    2  N8  UNL     1     -32.075   7.555   2.611  1.00 20.00    -0.247 NA
HETATM    3  O9  UNL     1     -32.180   9.370   1.119  1.00 20.00    -0.260 OA
ENDROOT
BRANCH   2   4
HETATM    4  C7  UNL     1     -33.289   7.344   3.396  1.00 20.00     0.161 C 
BRANCH   4   5
HETATM    5  C6  UNL     1     -33.335   5.891   3.850  1.00 20.00     0.028 C 
HETATM    6  C3  UNL     1     -34.590   5.209   3.400  1.00 20.00    -0.024 C 
HETATM    7  C2  UNL     1     -35.432   4.989   4.414  1.00 20.00    -0.030 C 
HETATM    8  C4  UNL     1     -34.886   5.488   5.708  1.00 20.00     0.027 C 
HETATM    9  C5  UNL     1     -33.416   5.751   5.377  1.00 20.00     0.014 C 
ENDBRANCH   4   5
ENDBRANCH   2   4
TORSDOF 2
ENDMDL
MODEL 3
REMARK VINA RESULT:      -4.1     11.616     12.374
REMARK  2 active torsions:
REMARK  status: ('A' for Active; 'I' for Inactive)
REMARK    1  A    between atoms: C6_6  and  C7_7 
REMARK    2  A    between atoms: C7_7  and  N8_8 
ROOT
HETATM    1  C1  UNL     1     -35.402  13.794  -4.366  1.00 20.00     0.332 C 
HETATM    2  N8  UNL     1     -35.742  14.918  -4.407  1.00 20.00    -0.247 NA
HETATM    3  O9  UNL     1     -35.061  12.668  -4.325  1.00 20.00    -0.260 OA
ENDROOT
BRANCH   2   4
HETATM    4  C7  UNL     1     -35.919  15.546  -3.100  1.00 20.00     0.161 C 
BRANCH   4   5
HETATM    5  C6  UNL     1     -34.550  15.763  -2.469  1.00 20.00     0.028 C 
HETATM    6  C3  UNL     1     -34.655  16.420  -1.128  1.00 20.00    -0.024 C 
HETATM    7  C2  UNL     1     -34.244  17.691  -1.158  1.00 20.00    -0.030 C 
HETATM    8  C4  UNL     1     -33.800  18.098  -2.522  1.00 20.00     0.027 C 
HETATM    9  C5  UNL     1     -33.688  16.761  -3.256  1.00 20.00     0.014 C 
ENDBRANCH   4   5
ENDBRANCH   2   4
TORSDOF 2
ENDMDL
MODEL 4
REMARK VINA RESULT:      -4.0     11.668     12.259
REMARK  2 active torsions:
REMARK  status: ('A' for Active; 'I' for Inactive)
REMARK    1  A    between atoms: C6_6  and  C7_7 
REMARK    2  A    between atoms: C7_7  and  N8_8 
ROOT
HETATM    1  C1  UNL     1     -34.458  13.669  -4.736  1.00 20.00     0.332 C 
HETATM    2  N8  UNL     1     -34.019  14.745  -4.907  1.00 20.00    -0.247 NA
HETATM    3  O9  UNL     1     -34.899  12.591  -4.566  1.00 20.00    -0.260 OA
ENDROOT
BRANCH   2   4
HETATM    4  C7  UNL     1     -33.462  15.369  -3.708  1.00 20.00     0.161 C 
BRANCH   4   5
HETATM    5  C6  UNL     1     -34.409  16.467  -3.241  1.00 20.00     0.028 C 
HETATM    6  C3  UNL     1     -33.663  17.663  -2.734  1.00 20.00    -0.024 C 
HETATM    7  C2  UNL     1     -33.740  17.777  -1.406  1.00 20.00    -0.030 C 
HETATM    8  C4  UNL     1     -34.545  16.677  -0.800  1.00 20.00     0.027 C 
HETATM    9  C5  UNL     1     -35.235  16.053  -2.014  1.00 20.00     0.014 C 
ENDBRANCH   4   5
ENDBRANCH   2   4
TORSDOF 2
ENDMDL
MODEL 5
REMARK VINA RESULT:      -3.8     11.242     11.969
REMARK  2 active torsions:
REMARK  status: ('A' for Active; 'I' for Inactive)
REMARK    1  A    between atoms: C6_6  and  C7_7 
REMARK    2  A    between atoms: C7_7  and  N8_8 
ROOT
HETATM    1  C1  UNL     1     -34.517  16.974  -0.486  1.00 20.00     0.332 C 
HETATM    2  N8  UNL     1     -34.143  16.619  -1.541  1.00 20.00    -0.247 NA
HETATM    3  O9  UNL     1     -34.891  17.330   0.572  1.00 20.00    -0.260 OA
ENDROOT
BRANCH   2   4
HETATM    4  C7  UNL     1     -35.176  16.014  -2.378  1.00 20.00     0.161 C 
BRANCH   4   5
HETATM    5  C6  UNL     1     -34.573  15.674  -3.735  1.00 20.00     0.028 C 
HETATM    6  C3  UNL     1     -35.276  14.520  -4.381  1.00 20.00    -0.024 C 
HETATM    7  C2  UNL     1     -34.530  13.411  -4.376  1.00 20.00    -0.030 C 
HETATM    8  C4  UNL     1     -33.208  13.635  -3.724  1.00 20.00     0.027 C 
HETATM    9  C5  UNL     1     -33.130  15.160  -3.629  1.00 20.00     0.014 C 
ENDBRANCH   4   5
ENDBRANCH   2   4
TORSDOF 2
ENDMDL
MODEL 6
REMARK VINA RESULT:      -3.8     11.316     12.284
REMARK  2 active torsions:
REMARK  status: ('A' for Active; 'I' for Inactive)
REMARK    1  A    between atoms: C6_6  and  C7_7 
REMARK    2  A    between atoms: C7_7  and  N8_8 
ROOT
HETATM    1  C1  UNL     1     -34.443  16.603  -1.138  1.00 20.00     0.332 C 
HETATM    2  N8  UNL     1     -34.500  15.824  -2.016  1.00 20.00    -0.247 NA
HETATM    3  O9  UNL     1     -34.388  17.383  -0.258  1.00 20.00    -0.260 OA
ENDROOT
BRANCH   2   4
HETATM    4  C7  UNL     1     -34.272  16.390  -3.344  1.00 20.00     0.161 C 
BRANCH   4   5
HETATM    5  C6  UNL     1     -33.577  15.348  -4.210  1.00 20.00     0.028 C 
HETATM    6  C3  UNL     1     -34.190  15.263  -5.574  1.00 20.00    -0.024 C 
HETATM    7  C2  UNL     1     -34.897  14.142  -5.739  1.00 20.00    -0.030 C 
HETATM    8  C4  UNL     1     -34.881  13.291  -4.514  1.00 20.00     0.027 C 
HETATM    9  C5  UNL     1     -33.763  13.918  -3.680  1.00 20.00     0.014 C 
ENDBRANCH   4   5
ENDBRANCH   2   4
TORSDOF 2
ENDMDL
MODEL 7
REMARK VINA RESULT:      -3.8     11.974     12.809
REMARK  2 active torsions:
REMARK  status: ('A' for Active; 'I' for Inactive)
REMARK    1  A    between atoms: C6_6  and  C7_7 
REMARK    2  A    between atoms: C7_7  and  N8_8 
ROOT
HETATM    1  C1  UNL     1     -33.574  18.007  -5.258  1.00 20.00     0.332 C 
HETATM    2  N8  UNL     1     -33.650  17.309  -4.316  1.00 20.00    -0.247 NA
HETATM    3  O9  UNL     1     -33.498  18.707  -6.201  1.00 20.00    -0.260 OA
ENDROOT
BRANCH   2   4
HETATM    4  C7  UNL     1     -33.030  15.997  -4.482  1.00 20.00     0.161 C 
BRANCH   4   5
HETATM    5  C6  UNL     1     -33.620  15.040  -3.455  1.00 20.00     0.028 C 
HETATM    6  C3  UNL     1     -33.769  13.656  -4.007  1.00 20.00    -0.024 C 
HETATM    7  C2  UNL     1     -35.048  13.343  -4.236  1.00 20.00    -0.030 C 
HETATM    8  C4  UNL     1     -35.966  14.462  -3.879  1.00 20.00     0.027 C 
HETATM    9  C5  UNL     1     -35.064  15.398  -3.073  1.00 20.00     0.014 C 
ENDBRANCH   4   5
ENDBRANCH   2   4
TORSDOF 2
ENDMDL
MODEL 8
REMARK VINA RESULT:      -3.8     11.195     13.044
REMARK  2 active torsions:
REMARK  status: ('A' for Active; 'I' for Inactive)
REMARK    1  A    between atoms: C6_6  and  C7_7 
REMARK    2  A    between atoms: C7_7  and  N8_8 
ROOT
HETATM    1  C1  UNL     1     -33.246  14.037  -3.657  1.00 20.00     0.332 C 
HETATM    2  N8  UNL     1     -34.162  13.305  -3.733  1.00 20.00    -0.247 NA
HETATM    3  O9  UNL     1     -32.328  14.770  -3.580  1.00 20.00    -0.260 OA
ENDROOT
BRANCH   2   4
HETATM    4  C7  UNL     1     -34.775  13.238  -5.056  1.00 20.00     0.161 C 
BRANCH   4   5
HETATM    5  C6  UNL     1     -34.933  14.653  -5.598  1.00 20.00     0.028 C 
HETATM    6  C3  UNL     1     -36.373  15.055  -5.688  1.00 20.00    -0.024 C 
HETATM    7  C2  UNL     1     -36.803  15.102  -6.952  1.00 20.00    -0.030 C 
HETATM    8  C4  UNL     1     -35.727  14.738  -7.918  1.00 20.00     0.027 C 
HETATM    9  C5  UNL     1     -34.465  14.785  -7.055  1.00 20.00     0.014 C 
ENDBRANCH   4   5
ENDBRANCH   2   4
TORSDOF 2
ENDMDL
MODEL 9
REMARK VINA RESULT:      -3.7     11.589     12.534
REMARK  2 active torsions:
REMARK  status: ('A' for Active; 'I' for Inactive)
REMARK    1  A    between atoms: C6_6  and  C7_7 
REMARK    2  A    between atoms: C7_7  and  N8_8 
ROOT
HETATM    1  C1  UNL     1     -38.709  14.917  -3.767  1.00 20.00     0.332 C 
HETATM    2  N8  UNL     1     -37.722  14.281  -3.776  1.00 20.00    -0.247 NA
HETATM    3  O9  UNL     1     -39.699  15.554  -3.759  1.00 20.00    -0.260 OA
ENDROOT
BRANCH   2   4
HETATM    4  C7  UNL     1     -36.511  15.037  -3.470  1.00 20.00     0.161 C 
BRANCH   4   5
HETATM    5  C6  UNL     1     -35.449  14.710  -4.512  1.00 20.00     0.028 C 
HETATM    6  C3  UNL     1     -34.731  13.435  -4.190  1.00 20.00    -0.024 C 
HETATM    7  C2  UNL     1     -33.481  13.655  -3.772  1.00 20.00    -0.030 C 
HETATM    8  C4  UNL     1     -33.155  15.109  -3.740  1.00 20.00     0.027 C 
HETATM    9  C5  UNL     1     -34.304  15.733  -4.532  1.00 20.00     0.014 C 
ENDBRANCH   4   5
ENDBRANCH   2   4
TORSDOF 2
ENDMDL
