MODEL 1
REMARK VINA RESULT:      -5.4      0.000      0.000
REMARK  1 active torsions:
REMARK  status: ('A' for Active; 'I' for Inactive)
REMARK    1  A    between atoms: C3_3  and  C6_6 
ROOT
HETATM    1  C1  UNL     1     -33.757  17.482  -4.461  1.00 20.00    -0.025 C 
HETATM    2  C2  UNL     1     -33.695  17.457  -3.121  1.00 20.00    -0.026 C 
HETATM    3  C4  UNL     1     -34.081  16.283  -5.319  1.00 20.00     0.015 C 
HETATM    4  C5  UNL     1     -33.969  16.224  -2.294  1.00 20.00     0.008 C 
HETATM    5  C6  UNL     1     -34.122  14.981  -4.482  1.00 20.00     0.066 C 
HETATM    6  C7  UNL     1     -34.765  15.144  -3.083  1.00 20.00     0.000 C 
HETATM    7  C9  UNL     1     -35.334  16.568  -6.155  1.00 20.00     0.015 C 
HETATM    8  C10 UNL     1     -34.624  16.596  -0.961  1.00 20.00     0.014 C 
HETATM    9  C11 UNL     1     -36.274  15.424  -3.126  1.00 20.00     0.011 C 
ENDROOT
BRANCH   5  10
HETATM   10  C3  UNL     1     -34.676  13.806  -5.238  1.00 20.00     0.128 C 
HETATM   11  C8  UNL     1     -34.958  14.015  -6.701  1.00 20.00     0.091 C 
HETATM   12  O12 UNL     1     -34.885  12.726  -4.689  1.00 20.00    -0.298 OA
ENDBRANCH   5  10
TORSDOF 1
ENDMDL
MODEL 2
REMARK VINA RESULT:      -5.4      2.241      4.271
REMARK  1 active torsions:
REMARK  status: ('A' for Active; 'I' for Inactive)
REMARK    1  A    between atoms: C3_3  and  C6_6 
ROOT
HETATM    1  C1  UNL     1     -36.865  15.695  -3.858  1.00 20.00    -0.025 C 
HETATM    2  C2  UNL     1     -36.314  14.540  -4.259  1.00 20.00    -0.026 C 
HETATM    3  C4  UNL     1     -36.270  16.602  -2.808  1.00 20.00     0.015 C 
HETATM    4  C5  UNL     1     -35.006  14.008  -3.725  1.00 20.00     0.008 C 
HETATM    5  C6  UNL     1     -35.066  15.934  -2.100  1.00 20.00     0.066 C 
HETATM    6  C7  UNL     1     -34.151  15.113  -3.041  1.00 20.00     0.000 C 
HETATM    7  C9  UNL     1     -35.997  17.984  -3.411  1.00 20.00     0.015 C 
HETATM    8  C10 UNL     1     -34.242  13.247  -4.812  1.00 20.00     0.014 C 
HETATM    9  C11 UNL     1     -33.366  15.972  -4.043  1.00 20.00     0.011 C 
ENDROOT
BRANCH   5  10
HETATM   10  C3  UNL     1     -34.293  16.880  -1.225  1.00 20.00     0.128 C 
HETATM   11  C8  UNL     1     -34.907  17.226   0.105  1.00 20.00     0.091 C 
HETATM   12  O12 UNL     1     -33.210  17.346  -1.575  1.00 20.00    -0.298 OA
ENDBRANCH   5  10
TORSDOF 1
ENDMDL
MODEL 3
REMARK VINA RESULT:      -5.2      1.985      4.194
REMARK  1 active torsions:
REMARK  status: ('A' for Active; 'I' for Inactive)
REMARK    1  A    between atoms: C3_3  and  C6_6 
ROOT
HETATM    1  C1  UNL     1     -34.154  14.045  -3.643  1.00 20.00    -0.025 C 
HETATM    2  C2  UNL     1     -34.394  13.719  -4.922  1.00 20.00    -0.026 C 
HETATM    3  C4  UNL     1     -33.850  15.445  -3.165  1.00 20.00     0.015 C 
HETATM    4  C5  UNL     1     -34.415  14.721  -6.051  1.00 20.00     0.008 C 
HETATM    5  C6  UNL     1     -33.638  16.415  -4.353  1.00 20.00     0.066 C 
HETATM    6  C7  UNL     1     -34.597  16.181  -5.545  1.00 20.00     0.000 C 
HETATM    7  C9  UNL     1     -34.901  15.881  -2.138  1.00 20.00     0.015 C 
HETATM    8  C10 UNL     1     -35.442  14.323  -7.114  1.00 20.00     0.014 C 
HETATM    9  C11 UNL     1     -36.060  16.531  -5.236  1.00 20.00     0.011 C 
ENDROOT
BRANCH   5  10
HETATM   10  C3  UNL     1     -33.574  17.858  -3.937  1.00 20.00     0.128 C 
HETATM   11  C8  UNL     1     -33.526  18.879  -5.041  1.00 20.00     0.091 C 
HETATM   12  O12 UNL     1     -33.565  18.188  -2.752  1.00 20.00    -0.298 OA
ENDBRANCH   5  10
TORSDOF 1
ENDMDL
MODEL 4
REMARK VINA RESULT:      -5.1      1.247      2.544
REMARK  1 active torsions:
REMARK  status: ('A' for Active; 'I' for Inactive)
REMARK    1  A    between atoms: C3_3  and  C6_6 
ROOT
HETATM    1  C1  UNL     1     -34.244  16.025  -2.258  1.00 20.00    -0.025 C 
HETATM    2  C2  UNL     1     -34.931  17.137  -2.560  1.00 20.00    -0.026 C 
HETATM    3  C4  UNL     1     -34.196  14.793  -3.129  1.00 20.00     0.015 C 
HETATM    4  C5  UNL     1     -35.729  17.308  -3.831  1.00 20.00     0.008 C 
HETATM    5  C6  UNL     1     -35.203  14.889  -4.301  1.00 20.00     0.066 C 
HETATM    6  C7  UNL     1     -35.310  16.296  -4.935  1.00 20.00     0.000 C 
HETATM    7  C9  UNL     1     -32.746  14.497  -3.528  1.00 20.00     0.015 C 
HETATM    8  C10 UNL     1     -35.692  18.763  -4.306  1.00 20.00     0.014 C 
HETATM    9  C11 UNL     1     -34.047  16.727  -5.696  1.00 20.00     0.011 C 
ENDROOT
BRANCH   5  10
HETATM   10  C3  UNL     1     -35.024  13.805  -5.327  1.00 20.00     0.128 C 
HETATM   11  C8  UNL     1     -35.256  14.188  -6.763  1.00 20.00     0.091 C 
HETATM   12  O12 UNL     1     -34.700  12.662  -5.009  1.00 20.00    -0.298 OA
ENDBRANCH   5  10
TORSDOF 1
ENDMDL
MODEL 5
REMARK VINA RESULT:      -5.1      2.084      2.977
REMARK  1 active torsions:
REMARK  status: ('A' for Active; 'I' for Inactive)
REMARK    1  A    between atoms: C3_3  and  C6_6 
ROOT
HETATM    1  C1  UNL     1     -34.380  13.770  -4.720  1.00 20.00    -0.025 C 
HETATM    2  C2  UNL     1     -34.375  14.207  -3.452  1.00 20.00    -0.026 C 
HETATM    3  C4  UNL     1     -35.281  14.312  -5.803  1.00 20.00     0.015 C 
HETATM    4  C5  UNL     1     -35.259  15.323  -2.949  1.00 20.00     0.008 C 
HETATM    5  C6  UNL     1     -36.342  15.279  -5.224  1.00 20.00     0.066 C 
HETATM    6  C7  UNL     1     -35.814  16.206  -4.103  1.00 20.00     0.000 C 
HETATM    7  C9  UNL     1     -34.432  14.874  -6.949  1.00 20.00     0.015 C 
HETATM    8  C10 UNL     1     -34.549  16.134  -1.862  1.00 20.00     0.014 C 
HETATM    9  C11 UNL     1     -34.807  17.256  -4.593  1.00 20.00     0.011 C 
ENDROOT
BRANCH   5  10
HETATM   10  C3  UNL     1     -37.101  16.029  -6.283  1.00 20.00     0.128 C 
HETATM   11  C8  UNL     1     -37.978  15.212  -7.193  1.00 20.00     0.091 C 
HETATM   12  O12 UNL     1     -37.013  17.250  -6.398  1.00 20.00    -0.298 OA
ENDBRANCH   5  10
TORSDOF 1
ENDMDL
MODEL 6
REMARK VINA RESULT:      -5.1      1.388      3.132
REMARK  1 active torsions:
REMARK  status: ('A' for Active; 'I' for Inactive)
REMARK    1  A    between atoms: C3_3  and  C6_6 
ROOT
HETATM    1  C1  UNL     1     -36.560  16.172  -6.316  1.00 20.00    -0.025 C 
HETATM    2  C2  UNL     1     -35.659  17.115  -6.630  1.00 20.00    -0.026 C 
HETATM    3  C4  UNL     1     -36.232  14.895  -5.580  1.00 20.00     0.015 C 
HETATM    4  C5  UNL     1     -34.198  17.032  -6.262  1.00 20.00     0.008 C 
HETATM    5  C6  UNL     1     -34.703  14.710  -5.422  1.00 20.00     0.066 C 
HETATM    6  C7  UNL     1     -33.932  16.016  -5.114  1.00 20.00     0.000 C 
HETATM    7  C9  UNL     1     -37.042  14.825  -4.280  1.00 20.00     0.015 C 
HETATM    8  C10 UNL     1     -33.627  18.423  -5.974  1.00 20.00     0.014 C 
HETATM    9  C11 UNL     1     -34.226  16.593  -3.722  1.00 20.00     0.011 C 
ENDROOT
BRANCH   5  10
HETATM   10  C3  UNL     1     -34.335  13.589  -4.491  1.00 20.00     0.128 C 
HETATM   11  C8  UNL     1     -33.092  13.777  -3.664  1.00 20.00     0.091 C 
HETATM   12  O12 UNL     1     -35.017  12.569  -4.407  1.00 20.00    -0.298 OA
ENDBRANCH   5  10
TORSDOF 1
ENDMDL
MODEL 7
REMARK VINA RESULT:      -4.9      1.739      3.218
REMARK  1 active torsions:
REMARK  status: ('A' for Active; 'I' for Inactive)
REMARK    1  A    between atoms: C3_3  and  C6_6 
ROOT
HETATM    1  C1  UNL     1     -33.714  15.142  -3.474  1.00 20.00    -0.025 C 
HETATM    2  C2  UNL     1     -33.362  16.344  -3.953  1.00 20.00    -0.026 C 
HETATM    3  C4  UNL     1     -35.112  14.575  -3.545  1.00 20.00     0.015 C 
HETATM    4  C5  UNL     1     -34.319  17.280  -4.651  1.00 20.00     0.008 C 
HETATM    5  C6  UNL     1     -36.127  15.633  -4.041  1.00 20.00     0.066 C 
HETATM    6  C7  UNL     1     -35.592  16.550  -5.167  1.00 20.00     0.000 C 
HETATM    7  C9  UNL     1     -35.097  13.257  -4.328  1.00 20.00     0.015 C 
HETATM    8  C10 UNL     1     -33.602  18.078  -5.743  1.00 20.00     0.014 C 
HETATM    9  C11 UNL     1     -35.367  15.821  -6.500  1.00 20.00     0.011 C 
ENDROOT
BRANCH   5  10
HETATM   10  C3  UNL     1     -37.478  15.056  -4.358  1.00 20.00     0.128 C 
HETATM   11  C8  UNL     1     -38.230  15.683  -5.500  1.00 20.00     0.091 C 
HETATM   12  O12 UNL     1     -37.944  14.114  -3.719  1.00 20.00    -0.298 OA
ENDBRANCH   5  10
TORSDOF 1
ENDMDL
MODEL 8
REMARK VINA RESULT:      -4.9      1.796      2.823
REMARK  1 active torsions:
REMARK  status: ('A' for Active; 'I' for Inactive)
REMARK    1  A    between atoms: C3_3  and  C6_6 
ROOT
HETATM    1  C1  UNL     1     -35.688  15.955  -2.881  1.00 20.00    -0.025 C 
HETATM    2  C2  UNL     1     -34.361  15.781  -2.792  1.00 20.00    -0.026 C 
HETATM    3  C4  UNL     1     -36.489  15.756  -4.145  1.00 20.00     0.015 C 
HETATM    4  C5  UNL     1     -33.497  15.335  -3.947  1.00 20.00     0.008 C 
HETATM    5  C6  UNL     1     -35.568  15.536  -5.370  1.00 20.00     0.066 C 
HETATM    6  C7  UNL     1     -34.322  14.663  -5.082  1.00 20.00     0.000 C 
HETATM    7  C9  UNL     1     -37.553  14.676  -3.919  1.00 20.00     0.015 C 
HETATM    8  C10 UNL     1     -32.336  14.466  -3.456  1.00 20.00     0.014 C 
HETATM    9  C11 UNL     1     -34.655  13.192  -4.791  1.00 20.00     0.011 C 
ENDROOT
BRANCH   5  10
HETATM   10  C3  UNL     1     -36.311  15.094  -6.599  1.00 20.00     0.128 C 
HETATM   11  C8  UNL     1     -35.493  14.463  -7.694  1.00 20.00     0.091 C 
HETATM   12  O12 UNL     1     -37.528  15.237  -6.704  1.00 20.00    -0.298 OA
ENDBRANCH   5  10
TORSDOF 1
ENDMDL
MODEL 9
REMARK VINA RESULT:      -4.8      1.858      2.926
REMARK  1 active torsions:
REMARK  status: ('A' for Active; 'I' for Inactive)
REMARK    1  A    between atoms: C3_3  and  C6_6 
ROOT
HETATM    1  C1  UNL     1     -34.103  13.845  -4.349  1.00 20.00    -0.025 C 
HETATM    2  C2  UNL     1     -33.737  14.550  -3.269  1.00 20.00    -0.026 C 
HETATM    3  C4  UNL     1     -35.469  13.915  -4.988  1.00 20.00     0.015 C 
HETATM    4  C5  UNL     1     -34.643  15.530  -2.563  1.00 20.00     0.008 C 
HETATM    5  C6  UNL     1     -36.457  14.732  -4.121  1.00 20.00     0.066 C 
HETATM    6  C7  UNL     1     -35.835  15.983  -3.454  1.00 20.00     0.000 C 
HETATM    7  C9  UNL     1     -35.337  14.372  -6.445  1.00 20.00     0.015 C 
HETATM    8  C10 UNL     1     -33.841  16.703  -1.995  1.00 20.00     0.014 C 
HETATM    9  C11 UNL     1     -35.454  17.088  -4.451  1.00 20.00     0.011 C 
ENDROOT
BRANCH   5  10
HETATM   10  C3  UNL     1     -37.752  15.035  -4.823  1.00 20.00     0.128 C 
HETATM   11  C8  UNL     1     -39.018  14.718  -4.074  1.00 20.00     0.091 C 
HETATM   12  O12 UNL     1     -37.775  15.522  -5.952  1.00 20.00    -0.298 OA
ENDBRANCH   5  10
TORSDOF 1
ENDMDL
