MODEL 1
REMARK VINA RESULT:      -5.8      0.000      0.000
REMARK  0 active torsions:
REMARK  status: ('A' for Active; 'I' for Inactive)
ROOT
HETATM    1  C1  UNL     1     -35.437   4.783   4.040  1.00 20.00     0.019 A 
HETATM    2  C2  UNL     1     -35.334   4.676   5.374  1.00 20.00     0.054 A 
HETATM    3  C3  UNL     1     -33.407   6.293   5.353  1.00 20.00     0.096 A 
HETATM    4  C4  UNL     1     -33.512   6.397   4.021  1.00 20.00     0.133 A 
HETATM    5  C5  UNL     1     -34.536   5.656   3.216  1.00 20.00     0.254 A 
HETATM    6  C6  UNL     1     -34.308   5.420   6.178  1.00 20.00     0.282 A 
HETATM    7  F7  UNL     1     -32.651   7.210   3.370  1.00 20.00    -0.207 F 
HETATM    8  F8  UNL     1     -33.909   4.896   2.273  1.00 20.00    -0.238 F 
HETATM    9  F9  UNL     1     -34.937   6.183   7.118  1.00 20.00    -0.197 F 
HETATM   10  F10 UNL     1     -33.552   4.529   6.882  1.00 20.00    -0.197 F 
ENDROOT
TORSDOF 0
ENDMDL
MODEL 2
REMARK VINA RESULT:      -5.6      1.154      3.315
REMARK  0 active torsions:
REMARK  status: ('A' for Active; 'I' for Inactive)
ROOT
HETATM    1  C1  UNL     1     -35.060   4.231   5.696  1.00 20.00     0.019 A 
HETATM    2  C2  UNL     1     -35.311   4.271   4.379  1.00 20.00     0.054 A 
HETATM    3  C3  UNL     1     -34.009   6.415   4.196  1.00 20.00     0.096 A 
HETATM    4  C4  UNL     1     -33.760   6.374   5.512  1.00 20.00     0.133 A 
HETATM    5  C5  UNL     1     -34.256   5.279   6.409  1.00 20.00     0.254 A 
HETATM    6  C6  UNL     1     -34.813   5.366   3.482  1.00 20.00     0.282 A 
HETATM    7  F7  UNL     1     -33.025   7.367   6.059  1.00 20.00    -0.207 F 
HETATM    8  F8  UNL     1     -35.005   5.820   7.412  1.00 20.00    -0.238 F 
HETATM    9  F9  UNL     1     -34.061   4.824   2.482  1.00 20.00    -0.197 F 
HETATM   10  F10 UNL     1     -35.873   5.957   2.858  1.00 20.00    -0.197 F 
ENDROOT
TORSDOF 0
ENDMDL
MODEL 3
REMARK VINA RESULT:      -5.5      1.363      1.950
REMARK  0 active torsions:
REMARK  status: ('A' for Active; 'I' for Inactive)
ROOT
HETATM    1  C1  UNL     1     -34.824   5.588   3.713  1.00 20.00     0.019 A 
HETATM    2  C2  UNL     1     -35.166   4.472   4.374  1.00 20.00     0.054 A 
HETATM    3  C3  UNL     1     -34.012   5.338   6.433  1.00 20.00     0.096 A 
HETATM    4  C4  UNL     1     -33.670   6.452   5.771  1.00 20.00     0.133 A 
HETATM    5  C5  UNL     1     -34.037   6.703   4.340  1.00 20.00     0.254 A 
HETATM    6  C6  UNL     1     -34.799   4.223   5.807  1.00 20.00     0.282 A 
HETATM    7  F7  UNL     1     -32.960   7.397   6.426  1.00 20.00    -0.207 F 
HETATM    8  F8  UNL     1     -32.904   6.921   3.613  1.00 20.00    -0.238 F 
HETATM    9  F9  UNL     1     -35.934   4.009   6.533  1.00 20.00    -0.197 F 
HETATM   10  F10 UNL     1     -34.088   3.062   5.897  1.00 20.00    -0.197 F 
ENDROOT
TORSDOF 0
ENDMDL
MODEL 4
REMARK VINA RESULT:      -5.5      1.257      3.157
REMARK  0 active torsions:
REMARK  status: ('A' for Active; 'I' for Inactive)
ROOT
HETATM    1  C1  UNL     1     -34.718   5.229   6.217  1.00 20.00     0.019 A 
HETATM    2  C2  UNL     1     -35.305   4.806   5.087  1.00 20.00     0.054 A 
HETATM    3  C3  UNL     1     -33.776   6.283   3.742  1.00 20.00     0.096 A 
HETATM    4  C4  UNL     1     -33.192   6.704   4.872  1.00 20.00     0.133 A 
HETATM    5  C5  UNL     1     -33.595   6.225   6.234  1.00 20.00     0.254 A 
HETATM    6  C6  UNL     1     -34.898   5.286   3.724  1.00 20.00     0.282 A 
HETATM    7  F7  UNL     1     -32.189   7.605   4.780  1.00 20.00    -0.207 F 
HETATM    8  F8  UNL     1     -33.951   7.294   7.003  1.00 20.00    -0.238 F 
HETATM    9  F9  UNL     1     -34.539   4.216   2.957  1.00 20.00    -0.197 F 
HETATM   10  F10 UNL     1     -35.979   5.834   3.097  1.00 20.00    -0.197 F 
ENDROOT
TORSDOF 0
ENDMDL
MODEL 5
REMARK VINA RESULT:      -5.4      1.238      3.581
REMARK  0 active torsions:
REMARK  status: ('A' for Active; 'I' for Inactive)
ROOT
HETATM    1  C1  UNL     1     -33.763   6.532   6.226  1.00 20.00     0.019 A 
HETATM    2  C2  UNL     1     -33.038   7.036   5.215  1.00 20.00     0.054 A 
HETATM    3  C3  UNL     1     -34.093   5.386   3.637  1.00 20.00     0.096 A 
HETATM    4  C4  UNL     1     -34.815   4.884   4.648  1.00 20.00     0.133 A 
HETATM    5  C5  UNL     1     -34.732   5.399   6.053  1.00 20.00     0.254 A 
HETATM    6  C6  UNL     1     -33.124   6.520   3.809  1.00 20.00     0.282 A 
HETATM    7  F7  UNL     1     -35.661   3.862   4.388  1.00 20.00    -0.207 F 
HETATM    8  F8  UNL     1     -34.389   4.378   6.891  1.00 20.00    -0.238 F 
HETATM    9  F9  UNL     1     -33.471   7.541   2.973  1.00 20.00    -0.197 F 
HETATM   10  F10 UNL     1     -31.885   6.121   3.398  1.00 20.00    -0.197 F 
ENDROOT
TORSDOF 0
ENDMDL
MODEL 6
REMARK VINA RESULT:      -5.2      1.204      3.805
REMARK  0 active torsions:
REMARK  status: ('A' for Active; 'I' for Inactive)
ROOT
HETATM    1  C1  UNL     1     -33.802   6.687   5.363  1.00 20.00     0.019 A 
HETATM    2  C2  UNL     1     -34.017   6.547   4.046  1.00 20.00     0.054 A 
HETATM    3  C3  UNL     1     -35.338   4.452   4.485  1.00 20.00     0.096 A 
HETATM    4  C4  UNL     1     -35.121   4.593   5.800  1.00 20.00     0.133 A 
HETATM    5  C5  UNL     1     -34.331   5.724   6.386  1.00 20.00     0.254 A 
HETATM    6  C6  UNL     1     -34.810   5.415   3.461  1.00 20.00     0.282 A 
HETATM    7  F7  UNL     1     -35.640   3.671   6.640  1.00 20.00    -0.207 F 
HETATM    8  F8  UNL     1     -33.293   5.222   7.114  1.00 20.00    -0.238 F 
HETATM    9  F9  UNL     1     -35.850   5.919   2.737  1.00 20.00    -0.197 F 
HETATM   10  F10 UNL     1     -34.037   4.739   2.562  1.00 20.00    -0.197 F 
ENDROOT
TORSDOF 0
ENDMDL
MODEL 7
REMARK VINA RESULT:      -5.1      1.082      2.412
REMARK  0 active torsions:
REMARK  status: ('A' for Active; 'I' for Inactive)
ROOT
HETATM    1  C1  UNL     1     -33.563   6.815   5.462  1.00 20.00     0.019 A 
HETATM    2  C2  UNL     1     -33.968   5.915   6.371  1.00 20.00     0.054 A 
HETATM    3  C3  UNL     1     -34.860   4.457   4.527  1.00 20.00     0.096 A 
HETATM    4  C4  UNL     1     -34.456   5.358   3.621  1.00 20.00     0.133 A 
HETATM    5  C5  UNL     1     -33.762   6.636   3.986  1.00 20.00     0.254 A 
HETATM    6  C6  UNL     1     -34.660   4.636   6.004  1.00 20.00     0.282 A 
HETATM    7  F7  UNL     1     -34.684   5.103   2.314  1.00 20.00    -0.207 F 
HETATM    8  F8  UNL     1     -34.470   7.692   3.493  1.00 20.00    -0.238 F 
HETATM    9  F9  UNL     1     -33.949   3.580   6.494  1.00 20.00    -0.197 F 
HETATM   10  F10 UNL     1     -35.870   4.580   6.633  1.00 20.00    -0.197 F 
ENDROOT
TORSDOF 0
ENDMDL
MODEL 8
REMARK VINA RESULT:      -5.1      1.394      3.330
REMARK  0 active torsions:
REMARK  status: ('A' for Active; 'I' for Inactive)
ROOT
HETATM    1  C1  UNL     1     -34.393   4.981   2.903  1.00 20.00     0.019 A 
HETATM    2  C2  UNL     1     -33.362   5.751   2.525  1.00 20.00     0.054 A 
HETATM    3  C3  UNL     1     -33.229   6.709   4.847  1.00 20.00     0.096 A 
HETATM    4  C4  UNL     1     -34.261   5.940   5.221  1.00 20.00     0.133 A 
HETATM    5  C5  UNL     1     -34.957   4.990   4.294  1.00 20.00     0.254 A 
HETATM    6  C6  UNL     1     -32.665   6.700   3.456  1.00 20.00     0.282 A 
HETATM    7  F7  UNL     1     -34.694   6.023   6.498  1.00 20.00    -0.207 F 
HETATM    8  F8  UNL     1     -36.285   5.299   4.242  1.00 20.00    -0.238 F 
HETATM    9  F9  UNL     1     -31.338   6.387   3.509  1.00 20.00    -0.197 F 
HETATM   10  F10 UNL     1     -32.718   7.961   2.938  1.00 20.00    -0.197 F 
ENDROOT
TORSDOF 0
ENDMDL
MODEL 9
REMARK VINA RESULT:      -4.8     12.332     13.751
REMARK  0 active torsions:
REMARK  status: ('A' for Active; 'I' for Inactive)
ROOT
HETATM    1  C1  UNL     1     -34.628  13.861  -5.347  1.00 20.00     0.019 A 
HETATM    2  C2  UNL     1     -33.977  13.862  -4.173  1.00 20.00     0.054 A 
HETATM    3  C3  UNL     1     -33.171  16.201  -4.623  1.00 20.00     0.096 A 
HETATM    4  C4  UNL     1     -33.821  16.198  -5.795  1.00 20.00     0.133 A 
HETATM    5  C5  UNL     1     -34.621  15.030  -6.288  1.00 20.00     0.254 A 
HETATM    6  C6  UNL     1     -33.178  15.033  -3.681  1.00 20.00     0.282 A 
HETATM    7  F7  UNL     1     -33.752  17.302  -6.572  1.00 20.00    -0.207 F 
HETATM    8  F8  UNL     1     -34.142  14.632  -7.501  1.00 20.00    -0.238 F 
HETATM    9  F9  UNL     1     -33.661  15.432  -2.469  1.00 20.00    -0.197 F 
HETATM   10  F10 UNL     1     -31.894  14.635  -3.445  1.00 20.00    -0.197 F 
ENDROOT
TORSDOF 0
ENDMDL
