MODEL 1
REMARK VINA RESULT:      -5.4      0.000      0.000
REMARK  4 active torsions:
REMARK  status: ('A' for Active; 'I' for Inactive)
REMARK    1  A    between atoms: C1_1  and  C7_7 
REMARK    2  A    between atoms: C2_2  and  C9_9 
REMARK    3  A    between atoms: C9_9  and  C11_11 
REMARK    4  A    between atoms: C10_10  and  C11_11 
ROOT
HETATM    1  C1  UNL     1     -33.782   6.504   3.922  1.00 20.00    -0.098 C 
HETATM    2  C2  UNL     1     -32.901   6.835   3.176  1.00 20.00    -0.106 C 
ENDROOT
BRANCH   1   3
HETATM    3  C7  UNL     1     -34.857   6.100   4.834  1.00 20.00     0.087 C 
HETATM    4  C4  UNL     1     -35.300   4.706   4.522  1.00 20.00    -0.014 C 
HETATM    5  C3  UNL     1     -34.890   3.829   5.444  1.00 20.00    -0.029 C 
HETATM    6  C5  UNL     1     -34.094   4.489   6.520  1.00 20.00     0.028 C 
HETATM    7  C6  UNL     1     -34.374   5.976   6.284  1.00 20.00     0.025 C 
ENDBRANCH   1   3
BRANCH   2   8
HETATM    8  C9  UNL     1     -31.825   7.243   2.262  1.00 20.00     0.094 C 
BRANCH   8   9
HETATM    9  C11 UNL     1     -31.556   8.746   2.363  1.00 20.00     0.012 C 
BRANCH   9  10
HETATM   10  C10 UNL     1     -32.537   9.546   1.506  1.00 20.00    -0.004 C 
HETATM   11  C8  UNL     1     -32.536   9.064   0.063  1.00 20.00     0.005 C 
ENDBRANCH   9  10
ENDBRANCH   8   9
ENDBRANCH   2   8
TORSDOF 4
ENDMDL
MODEL 2
REMARK VINA RESULT:      -4.9     10.751     12.190
REMARK  4 active torsions:
REMARK  status: ('A' for Active; 'I' for Inactive)
REMARK    1  A    between atoms: C1_1  and  C7_7 
REMARK    2  A    between atoms: C2_2  and  C9_9 
REMARK    3  A    between atoms: C9_9  and  C11_11 
REMARK    4  A    between atoms: C10_10  and  C11_11 
ROOT
HETATM    1  C1  UNL     1     -33.824  15.938  -2.643  1.00 20.00    -0.098 C 
HETATM    2  C2  UNL     1     -34.371  16.482  -1.722  1.00 20.00    -0.106 C 
ENDROOT
BRANCH   1   3
HETATM    3  C7  UNL     1     -33.157  15.274  -3.767  1.00 20.00     0.087 C 
HETATM    4  C4  UNL     1     -33.436  13.805  -3.738  1.00 20.00    -0.014 C 
HETATM    5  C3  UNL     1     -34.291  13.435  -4.698  1.00 20.00    -0.029 C 
HETATM    6  C5  UNL     1     -34.734  14.598  -5.522  1.00 20.00     0.028 C 
HETATM    7  C6  UNL     1     -33.742  15.694  -5.122  1.00 20.00     0.025 C 
ENDBRANCH   1   3
BRANCH   2   8
HETATM    8  C9  UNL     1     -35.039  17.145  -0.594  1.00 20.00     0.094 C 
BRANCH   8   9
HETATM    9  C11 UNL     1     -34.024  17.836   0.319  1.00 20.00     0.012 C 
BRANCH   9  10
HETATM   10  C10 UNL     1     -33.079  18.734  -0.479  1.00 20.00    -0.004 C 
HETATM   11  C8  UNL     1     -31.855  19.118   0.337  1.00 20.00     0.005 C 
ENDBRANCH   9  10
ENDBRANCH   8   9
ENDBRANCH   2   8
TORSDOF 4
ENDMDL
MODEL 3
REMARK VINA RESULT:      -4.8     10.722     12.041
REMARK  4 active torsions:
REMARK  status: ('A' for Active; 'I' for Inactive)
REMARK    1  A    between atoms: C1_1  and  C7_7 
REMARK    2  A    between atoms: C2_2  and  C9_9 
REMARK    3  A    between atoms: C9_9  and  C11_11 
REMARK    4  A    between atoms: C10_10  and  C11_11 
ROOT
HETATM    1  C1  UNL     1     -33.846  15.789  -2.724  1.00 20.00    -0.098 C 
HETATM    2  C2  UNL     1     -34.291  16.314  -1.739  1.00 20.00    -0.106 C 
ENDROOT
BRANCH   1   3
HETATM    3  C7  UNL     1     -33.304  15.149  -3.927  1.00 20.00     0.087 C 
HETATM    4  C4  UNL     1     -33.537  13.672  -3.875  1.00 20.00    -0.014 C 
HETATM    5  C3  UNL     1     -34.493  13.282  -4.725  1.00 20.00    -0.029 C 
HETATM    6  C5  UNL     1     -35.066  14.435  -5.479  1.00 20.00     0.028 C 
HETATM    7  C6  UNL     1     -34.064  15.558  -5.196  1.00 20.00     0.025 C 
ENDBRANCH   1   3
BRANCH   2   8
HETATM    8  C9  UNL     1     -34.831  16.957  -0.534  1.00 20.00     0.094 C 
BRANCH   8   9
HETATM    9  C11 UNL     1     -33.867  18.015   0.005  1.00 20.00     0.012 C 
BRANCH   9  10
HETATM   10  C10 UNL     1     -34.177  18.360   1.462  1.00 20.00    -0.004 C 
HETATM   11  C8  UNL     1     -35.390  17.595   1.969  1.00 20.00     0.005 C 
ENDBRANCH   9  10
ENDBRANCH   8   9
ENDBRANCH   2   8
TORSDOF 4
ENDMDL
MODEL 4
REMARK VINA RESULT:      -4.7      0.794      5.915
REMARK  4 active torsions:
REMARK  status: ('A' for Active; 'I' for Inactive)
REMARK    1  A    between atoms: C1_1  and  C7_7 
REMARK    2  A    between atoms: C2_2  and  C9_9 
REMARK    3  A    between atoms: C9_9  and  C11_11 
REMARK    4  A    between atoms: C10_10  and  C11_11 
ROOT
HETATM    1  C1  UNL     1     -32.411   7.610   2.736  1.00 20.00    -0.098 C 
HETATM    2  C2  UNL     1     -33.009   6.788   3.376  1.00 20.00    -0.106 C 
ENDROOT
BRANCH   1   3
HETATM    3  C7  UNL     1     -31.681   8.613   1.953  1.00 20.00     0.087 C 
HETATM    4  C4  UNL     1     -31.455   8.116   0.561  1.00 20.00    -0.014 C 
HETATM    5  C3  UNL     1     -32.234   8.740  -0.329  1.00 20.00    -0.029 C 
HETATM    6  C5  UNL     1     -33.119   9.751   0.321  1.00 20.00     0.028 C 
HETATM    7  C6  UNL     1     -32.509   9.884   1.720  1.00 20.00     0.025 C 
ENDBRANCH   1   3
BRANCH   2   8
HETATM    8  C9  UNL     1     -33.742   5.785   4.160  1.00 20.00     0.094 C 
BRANCH   8   9
HETATM    9  C11 UNL     1     -33.996   6.278   5.585  1.00 20.00     0.012 C 
BRANCH   9  10
HETATM   10  C10 UNL     1     -34.702   5.214   6.425  1.00 20.00    -0.004 C 
HETATM   11  C8  UNL     1     -34.965   3.952   5.618  1.00 20.00     0.005 C 
ENDBRANCH   9  10
ENDBRANCH   8   9
ENDBRANCH   2   8
TORSDOF 4
ENDMDL
MODEL 5
REMARK VINA RESULT:      -4.6      0.811      5.560
REMARK  4 active torsions:
REMARK  status: ('A' for Active; 'I' for Inactive)
REMARK    1  A    between atoms: C1_1  and  C7_7 
REMARK    2  A    between atoms: C2_2  and  C9_9 
REMARK    3  A    between atoms: C9_9  and  C11_11 
REMARK    4  A    between atoms: C10_10  and  C11_11 
ROOT
HETATM    1  C1  UNL     1     -32.934   6.855   2.960  1.00 20.00    -0.098 C 
HETATM    2  C2  UNL     1     -33.829   6.151   3.341  1.00 20.00    -0.106 C 
ENDROOT
BRANCH   1   3
HETATM    3  C7  UNL     1     -31.841   7.715   2.495  1.00 20.00     0.087 C 
HETATM    4  C4  UNL     1     -31.876   7.833   1.005  1.00 20.00    -0.014 C 
HETATM    5  C3  UNL     1     -32.302   9.036   0.605  1.00 20.00    -0.029 C 
HETATM    6  C5  UNL     1     -32.634   9.919   1.761  1.00 20.00     0.028 C 
HETATM    7  C6  UNL     1     -32.015   9.172   2.946  1.00 20.00     0.025 C 
ENDBRANCH   1   3
BRANCH   2   8
HETATM    8  C9  UNL     1     -34.924   5.290   3.809  1.00 20.00     0.094 C 
BRANCH   8   9
HETATM    9  C11 UNL     1     -34.516   4.512   5.061  1.00 20.00     0.012 C 
BRANCH   9  10
HETATM   10  C10 UNL     1     -34.888   5.271   6.335  1.00 20.00    -0.004 C 
HETATM   11  C8  UNL     1     -34.013   6.500   6.526  1.00 20.00     0.005 C 
ENDBRANCH   9  10
ENDBRANCH   8   9
ENDBRANCH   2   8
TORSDOF 4
ENDMDL
MODEL 6
REMARK VINA RESULT:      -4.5     10.758     12.207
REMARK  4 active torsions:
REMARK  status: ('A' for Active; 'I' for Inactive)
REMARK    1  A    between atoms: C1_1  and  C7_7 
REMARK    2  A    between atoms: C2_2  and  C9_9 
REMARK    3  A    between atoms: C9_9  and  C11_11 
REMARK    4  A    between atoms: C10_10  and  C11_11 
ROOT
HETATM    1  C1  UNL     1     -34.693  15.806  -2.496  1.00 20.00    -0.098 C 
HETATM    2  C2  UNL     1     -34.293  14.853  -3.106  1.00 20.00    -0.106 C 
ENDROOT
BRANCH   1   3
HETATM    3  C7  UNL     1     -35.181  16.971  -1.750  1.00 20.00     0.087 C 
HETATM    4  C4  UNL     1     -34.640  16.955  -0.356  1.00 20.00    -0.014 C 
HETATM    5  C3  UNL     1     -33.694  17.881  -0.172  1.00 20.00    -0.029 C 
HETATM    6  C5  UNL     1     -33.436  18.664  -1.416  1.00 20.00     0.028 C 
HETATM    7  C6  UNL     1     -34.626  18.290  -2.304  1.00 20.00     0.025 C 
ENDBRANCH   1   3
BRANCH   2   8
HETATM    8  C9  UNL     1     -33.805  13.687  -3.856  1.00 20.00     0.094 C 
BRANCH   8   9
HETATM    9  C11 UNL     1     -34.646  13.447  -5.111  1.00 20.00     0.012 C 
BRANCH   9  10
HETATM   10  C10 UNL     1     -34.587  14.646  -6.057  1.00 20.00    -0.004 C 
HETATM   11  C8  UNL     1     -35.355  14.379  -7.342  1.00 20.00     0.005 C 
ENDBRANCH   9  10
ENDBRANCH   8   9
ENDBRANCH   2   8
TORSDOF 4
ENDMDL
MODEL 7
REMARK VINA RESULT:      -4.3     10.963     12.179
REMARK  4 active torsions:
REMARK  status: ('A' for Active; 'I' for Inactive)
REMARK    1  A    between atoms: C1_1  and  C7_7 
REMARK    2  A    between atoms: C2_2  and  C9_9 
REMARK    3  A    between atoms: C9_9  and  C11_11 
REMARK    4  A    between atoms: C10_10  and  C11_11 
ROOT
HETATM    1  C1  UNL     1     -35.031  15.551  -2.711  1.00 20.00    -0.098 C 
HETATM    2  C2  UNL     1     -34.405  16.335  -2.051  1.00 20.00    -0.106 C 
ENDROOT
BRANCH   1   3
HETATM    3  C7  UNL     1     -35.795  14.594  -3.518  1.00 20.00     0.087 C 
HETATM    4  C4  UNL     1     -36.389  15.280  -4.707  1.00 20.00    -0.014 C 
HETATM    5  C3  UNL     1     -35.765  14.951  -5.842  1.00 20.00    -0.029 C 
HETATM    6  C5  UNL     1     -34.642  13.998  -5.601  1.00 20.00     0.028 C 
HETATM    7  C6  UNL     1     -34.897  13.531  -4.165  1.00 20.00     0.025 C 
ENDBRANCH   1   3
BRANCH   2   8
HETATM    8  C9  UNL     1     -33.641  17.294  -1.241  1.00 20.00     0.094 C 
BRANCH   8   9
HETATM    9  C11 UNL     1     -34.378  17.628   0.058  1.00 20.00     0.012 C 
BRANCH   9  10
HETATM   10  C10 UNL     1     -33.538  18.534   0.957  1.00 20.00    -0.004 C 
HETATM   11  C8  UNL     1     -32.206  18.881   0.310  1.00 20.00     0.005 C 
ENDBRANCH   9  10
ENDBRANCH   8   9
ENDBRANCH   2   8
TORSDOF 4
ENDMDL
MODEL 8
REMARK VINA RESULT:      -4.3     11.328     12.501
REMARK  4 active torsions:
REMARK  status: ('A' for Active; 'I' for Inactive)
REMARK    1  A    between atoms: C1_1  and  C7_7 
REMARK    2  A    between atoms: C2_2  and  C9_9 
REMARK    3  A    between atoms: C9_9  and  C11_11 
REMARK    4  A    between atoms: C10_10  and  C11_11 
ROOT
HETATM    1  C1  UNL     1     -34.548  16.289  -1.458  1.00 20.00    -0.098 C 
HETATM    2  C2  UNL     1     -34.762  16.876  -0.432  1.00 20.00    -0.106 C 
ENDROOT
BRANCH   1   3
HETATM    3  C7  UNL     1     -34.286  15.570  -2.709  1.00 20.00     0.087 C 
HETATM    4  C4  UNL     1     -35.576  15.199  -3.370  1.00 20.00    -0.014 C 
HETATM    5  C3  UNL     1     -35.821  15.945  -4.452  1.00 20.00    -0.029 C 
HETATM    6  C5  UNL     1     -34.742  16.948  -4.689  1.00 20.00     0.028 C 
HETATM    7  C6  UNL     1     -33.621  16.464  -3.764  1.00 20.00     0.025 C 
ENDBRANCH   1   3
BRANCH   2   8
HETATM    8  C9  UNL     1     -35.028  17.595   0.822  1.00 20.00     0.094 C 
BRANCH   8   9
HETATM    9  C11 UNL     1     -34.305  18.943   0.847  1.00 20.00     0.012 C 
BRANCH   9  10
HETATM   10  C10 UNL     1     -32.921  18.821   1.482  1.00 20.00    -0.004 C 
HETATM   11  C8  UNL     1     -31.817  18.987   0.449  1.00 20.00     0.005 C 
ENDBRANCH   9  10
ENDBRANCH   8   9
ENDBRANCH   2   8
TORSDOF 4
ENDMDL
MODEL 9
REMARK VINA RESULT:      -4.2      9.794     11.500
REMARK  4 active torsions:
REMARK  status: ('A' for Active; 'I' for Inactive)
REMARK    1  A    between atoms: C1_1  and  C7_7 
REMARK    2  A    between atoms: C2_2  and  C9_9 
REMARK    3  A    between atoms: C9_9  and  C11_11 
REMARK    4  A    between atoms: C10_10  and  C11_11 
ROOT
HETATM    1  C1  UNL     1     -41.548   4.285  -1.795  1.00 20.00    -0.098 C 
HETATM    2  C2  UNL     1     -41.909   3.454  -2.584  1.00 20.00    -0.106 C 
ENDROOT
BRANCH   1   3
HETATM    3  C7  UNL     1     -41.106   5.300  -0.833  1.00 20.00     0.087 C 
HETATM    4  C4  UNL     1     -41.110   6.652  -1.471  1.00 20.00    -0.014 C 
HETATM    5  C3  UNL     1     -42.116   7.414  -1.029  1.00 20.00    -0.029 C 
HETATM    6  C5  UNL     1     -42.960   6.695  -0.031  1.00 20.00     0.028 C 
HETATM    7  C6  UNL     1     -42.101   5.477   0.323  1.00 20.00     0.025 C 
ENDBRANCH   1   3
BRANCH   2   8
HETATM    8  C9  UNL     1     -42.349   2.439  -3.551  1.00 20.00     0.094 C 
BRANCH   8   9
HETATM    9  C11 UNL     1     -41.183   1.551  -3.987  1.00 20.00     0.012 C 
BRANCH   9  10
HETATM   10  C10 UNL     1     -41.609   0.087  -4.094  1.00 20.00    -0.004 C 
HETATM   11  C8  UNL     1     -42.777  -0.223  -3.170  1.00 20.00     0.005 C 
ENDBRANCH   9  10
ENDBRANCH   8   9
ENDBRANCH   2   8
TORSDOF 4
ENDMDL
