MODEL 1
REMARK VINA RESULT:      -4.0      0.000      0.000
REMARK  0 active torsions:
REMARK  status: ('A' for Active; 'I' for Inactive)
ROOT
HETATM    1  C1  UNL     1     -34.531   4.682   6.398  1.00 20.00    -0.027 A 
HETATM    2  C2  UNL     1     -34.561   5.924   5.882  1.00 20.00    -0.010 A 
HETATM    3  C3  UNL     1     -34.534   4.007   5.044  1.00 20.00     0.051 A 
HETATM    4  C4  UNL     1     -34.583   5.440   4.441  1.00 20.00     0.035 A 
HETATM    5  C5  UNL     1     -35.840   5.780   3.654  1.00 20.00     0.032 C 
HETATM    6 BR6  UNL     1     -32.961   5.974   3.487  1.00 20.00    -0.081 Br
ENDROOT
TORSDOF 0
ENDMDL
MODEL 2
REMARK VINA RESULT:      -3.7      0.891      1.852
REMARK  0 active torsions:
REMARK  status: ('A' for Active; 'I' for Inactive)
ROOT
HETATM    1  C1  UNL     1     -35.136   3.924   5.149  1.00 20.00    -0.027 A 
HETATM    2  C2  UNL     1     -33.910   4.279   5.571  1.00 20.00    -0.010 A 
HETATM    3  C3  UNL     1     -35.484   5.312   4.659  1.00 20.00     0.051 A 
HETATM    4  C4  UNL     1     -34.072   5.733   5.157  1.00 20.00     0.035 A 
HETATM    5  C5  UNL     1     -34.050   6.745   6.294  1.00 20.00     0.032 C 
HETATM    6 BR6  UNL     1     -32.818   6.211   3.733  1.00 20.00    -0.081 Br
ENDROOT
TORSDOF 0
ENDMDL
MODEL 3
REMARK VINA RESULT:      -3.7      1.559      2.658
REMARK  0 active torsions:
REMARK  status: ('A' for Active; 'I' for Inactive)
ROOT
HETATM    1  C1  UNL     1     -34.412   5.608   2.952  1.00 20.00    -0.027 A 
HETATM    2  C2  UNL     1     -33.491   5.250   3.865  1.00 20.00    -0.010 A 
HETATM    3  C3  UNL     1     -35.539   5.672   3.959  1.00 20.00     0.051 A 
HETATM    4  C4  UNL     1     -34.483   5.244   5.018  1.00 20.00     0.035 A 
HETATM    5  C5  UNL     1     -34.719   3.891   5.674  1.00 20.00     0.032 C 
HETATM    6 BR6  UNL     1     -34.050   6.624   6.335  1.00 20.00    -0.081 Br
ENDROOT
TORSDOF 0
ENDMDL
MODEL 4
REMARK VINA RESULT:      -3.4      1.968      2.684
REMARK  0 active torsions:
REMARK  status: ('A' for Active; 'I' for Inactive)
ROOT
HETATM    1  C1  UNL     1     -32.833   6.208   3.330  1.00 20.00    -0.027 A 
HETATM    2  C2  UNL     1     -33.624   5.160   3.036  1.00 20.00    -0.010 A 
HETATM    3  C3  UNL     1     -33.729   6.706   4.442  1.00 20.00     0.051 A 
HETATM    4  C4  UNL     1     -34.655   5.504   4.098  1.00 20.00     0.035 A 
HETATM    5  C5  UNL     1     -36.039   5.868   3.577  1.00 20.00     0.032 C 
HETATM    6 BR6  UNL     1     -34.740   4.123   5.481  1.00 20.00    -0.081 Br
ENDROOT
TORSDOF 0
ENDMDL
MODEL 5
REMARK VINA RESULT:      -3.3      1.879      2.840
REMARK  0 active torsions:
REMARK  status: ('A' for Active; 'I' for Inactive)
ROOT
HETATM    1  C1  UNL     1     -33.849   6.270   3.134  1.00 20.00    -0.027 A 
HETATM    2  C2  UNL     1     -34.902   6.315   3.970  1.00 20.00    -0.010 A 
HETATM    3  C3  UNL     1     -32.909   5.709   4.178  1.00 20.00     0.051 A 
HETATM    4  C4  UNL     1     -34.119   5.770   5.154  1.00 20.00     0.035 A 
HETATM    5  C5  UNL     1     -33.966   6.721   6.333  1.00 20.00     0.032 C 
HETATM    6 BR6  UNL     1     -34.799   4.023   5.714  1.00 20.00    -0.081 Br
ENDROOT
TORSDOF 0
ENDMDL
MODEL 6
REMARK VINA RESULT:      -3.3      1.419      2.067
REMARK  0 active torsions:
REMARK  status: ('A' for Active; 'I' for Inactive)
ROOT
HETATM    1  C1  UNL     1     -34.473   4.695   6.491  1.00 20.00    -0.027 A 
HETATM    2  C2  UNL     1     -34.382   4.213   5.238  1.00 20.00    -0.010 A 
HETATM    3  C3  UNL     1     -34.432   6.142   6.050  1.00 20.00     0.051 A 
HETATM    4  C4  UNL     1     -34.313   5.591   4.599  1.00 20.00     0.035 A 
HETATM    5  C5  UNL     1     -33.013   5.915   3.877  1.00 20.00     0.032 C 
HETATM    6 BR6  UNL     1     -35.876   5.931   3.472  1.00 20.00    -0.081 Br
ENDROOT
TORSDOF 0
ENDMDL
MODEL 7
REMARK VINA RESULT:      -3.2     12.371     13.175
REMARK  0 active torsions:
REMARK  status: ('A' for Active; 'I' for Inactive)
ROOT
HETATM    1  C1  UNL     1     -34.703  13.358  -4.484  1.00 20.00    -0.027 A 
HETATM    2  C2  UNL     1     -35.210  14.600  -4.578  1.00 20.00    -0.010 A 
HETATM    3  C3  UNL     1     -33.455  13.809  -3.757  1.00 20.00     0.051 A 
HETATM    4  C4  UNL     1     -34.029  15.250  -3.875  1.00 20.00     0.035 A 
HETATM    5  C5  UNL     1     -33.212  16.217  -4.721  1.00 20.00     0.032 C 
HETATM    6 BR6  UNL     1     -34.567  16.051  -2.173  1.00 20.00    -0.081 Br
ENDROOT
TORSDOF 0
ENDMDL
MODEL 8
REMARK VINA RESULT:      -3.2     12.595     13.069
REMARK  0 active torsions:
REMARK  status: ('A' for Active; 'I' for Inactive)
ROOT
HETATM    1  C1  UNL     1     -34.869  13.312  -4.212  1.00 20.00    -0.027 A 
HETATM    2  C2  UNL     1     -33.754  13.867  -3.703  1.00 20.00    -0.010 A 
HETATM    3  C3  UNL     1     -35.624  14.621  -4.263  1.00 20.00     0.051 A 
HETATM    4  C4  UNL     1     -34.343  15.268  -3.662  1.00 20.00     0.035 A 
HETATM    5  C5  UNL     1     -34.501  15.873  -2.274  1.00 20.00     0.032 C 
HETATM    6 BR6  UNL     1     -33.396  16.474  -4.877  1.00 20.00    -0.081 Br
ENDROOT
TORSDOF 0
ENDMDL
MODEL 9
REMARK VINA RESULT:      -3.2      1.700      2.169
REMARK  0 active torsions:
REMARK  status: ('A' for Active; 'I' for Inactive)
ROOT
HETATM    1  C1  UNL     1     -35.492   4.525   4.513  1.00 20.00    -0.027 A 
HETATM    2  C2  UNL     1     -35.311   5.831   4.250  1.00 20.00    -0.010 A 
HETATM    3  C3  UNL     1     -34.114   4.346   5.111  1.00 20.00     0.051 A 
HETATM    4  C4  UNL     1     -33.892   5.854   4.796  1.00 20.00     0.035 A 
HETATM    5  C5  UNL     1     -32.802   6.160   3.780  1.00 20.00     0.032 C 
HETATM    6 BR6  UNL     1     -33.756   7.000   6.376  1.00 20.00    -0.081 Br
ENDROOT
TORSDOF 0
ENDMDL
