MODEL 1
REMARK VINA RESULT:      -4.4      0.000      0.000
REMARK  0 active torsions:
REMARK  status: ('A' for Active; 'I' for Inactive)
ROOT
HETATM    1  C1  UNL     1     -31.786   7.578   3.252  1.00 20.00     0.013 C 
HETATM    2  C2  UNL     1     -32.697   6.810   3.405  1.00 20.00    -0.104 C 
HETATM    3  C3  UNL     1     -35.118   6.473   4.016  1.00 20.00     0.069 A 
HETATM    4  C4  UNL     1     -33.791   5.886   3.588  1.00 20.00     0.057 A 
HETATM    5  C5  UNL     1     -34.321   5.656   5.000  1.00 20.00     0.133 A 
HETATM    6  C6  UNL     1     -33.818   4.771   2.573  1.00 20.00     0.032 C 
HETATM    7 CL7  UNL     1     -34.960   4.078   5.464  1.00 20.00    -0.100 Cl
HETATM    8 CL8  UNL     1     -33.608   6.515   6.372  1.00 20.00    -0.100 Cl
ENDROOT
TORSDOF 0
ENDMDL
MODEL 2
REMARK VINA RESULT:      -4.2      2.078      3.667
REMARK  0 active torsions:
REMARK  status: ('A' for Active; 'I' for Inactive)
ROOT
HETATM    1  C1  UNL     1     -35.095   3.910   5.660  1.00 20.00     0.013 C 
HETATM    2  C2  UNL     1     -34.563   4.960   5.422  1.00 20.00    -0.104 C 
HETATM    3  C3  UNL     1     -34.542   7.072   4.047  1.00 20.00     0.069 A 
HETATM    4  C4  UNL     1     -33.924   6.223   5.136  1.00 20.00     0.057 A 
HETATM    5  C5  UNL     1     -33.220   6.395   3.793  1.00 20.00     0.133 A 
HETATM    6  C6  UNL     1     -33.407   6.932   6.363  1.00 20.00     0.032 C 
HETATM    7 CL7  UNL     1     -31.786   7.415   3.665  1.00 20.00    -0.100 Cl
HETATM    8 CL8  UNL     1     -33.203   5.072   2.619  1.00 20.00    -0.100 Cl
ENDROOT
TORSDOF 0
ENDMDL
MODEL 3
REMARK VINA RESULT:      -4.1     12.160     12.640
REMARK  0 active torsions:
REMARK  status: ('A' for Active; 'I' for Inactive)
ROOT
HETATM    1  C1  UNL     1     -34.670  16.334  -1.533  1.00 20.00     0.013 C 
HETATM    2  C2  UNL     1     -34.864  15.642  -2.495  1.00 20.00    -0.104 C 
HETATM    3  C3  UNL     1     -34.050  13.768  -3.969  1.00 20.00     0.069 A 
HETATM    4  C4  UNL     1     -35.099  14.811  -3.651  1.00 20.00     0.057 A 
HETATM    5  C5  UNL     1     -34.185  14.973  -4.863  1.00 20.00     0.133 A 
HETATM    6  C6  UNL     1     -36.545  14.422  -3.835  1.00 20.00     0.032 C 
HETATM    7 CL7  UNL     1     -34.816  14.721  -6.492  1.00 20.00    -0.100 Cl
HETATM    8 CL8  UNL     1     -32.867  16.151  -4.834  1.00 20.00    -0.100 Cl
ENDROOT
TORSDOF 0
ENDMDL
MODEL 4
REMARK VINA RESULT:      -4.0     11.924     12.312
REMARK  0 active torsions:
REMARK  status: ('A' for Active; 'I' for Inactive)
ROOT
HETATM    1  C1  UNL     1     -34.509  16.633  -1.169  1.00 20.00     0.013 C 
HETATM    2  C2  UNL     1     -34.266  16.058  -2.196  1.00 20.00    -0.104 C 
HETATM    3  C3  UNL     1     -34.504  15.986  -4.703  1.00 20.00     0.069 A 
HETATM    4  C4  UNL     1     -33.973  15.367  -3.428  1.00 20.00     0.057 A 
HETATM    5  C5  UNL     1     -35.124  14.713  -4.188  1.00 20.00     0.133 A 
HETATM    6  C6  UNL     1     -32.592  14.762  -3.470  1.00 20.00     0.032 C 
HETATM    7 CL7  UNL     1     -34.853  13.234  -5.112  1.00 20.00    -0.100 Cl
HETATM    8 CL8  UNL     1     -36.776  14.815  -3.565  1.00 20.00    -0.100 Cl
ENDROOT
TORSDOF 0
ENDMDL
MODEL 5
REMARK VINA RESULT:      -3.8     12.035     13.121
REMARK  0 active torsions:
REMARK  status: ('A' for Active; 'I' for Inactive)
ROOT
HETATM    1  C1  UNL     1     -34.300  15.243  -7.096  1.00 20.00     0.013 C 
HETATM    2  C2  UNL     1     -34.058  15.594  -5.973  1.00 20.00    -0.104 C 
HETATM    3  C3  UNL     1     -32.808  15.158  -3.829  1.00 20.00     0.069 A 
HETATM    4  C4  UNL     1     -33.768  16.016  -4.624  1.00 20.00     0.057 A 
HETATM    5  C5  UNL     1     -34.271  15.157  -3.468  1.00 20.00     0.133 A 
HETATM    6  C6  UNL     1     -33.656  17.513  -4.469  1.00 20.00     0.032 C 
HETATM    7 CL7  UNL     1     -34.740  15.908  -1.941  1.00 20.00    -0.100 Cl
HETATM    8 CL8  UNL     1     -35.180  13.674  -3.788  1.00 20.00    -0.100 Cl
ENDROOT
TORSDOF 0
ENDMDL
MODEL 6
REMARK VINA RESULT:      -3.8     11.845     12.652
REMARK  0 active torsions:
REMARK  status: ('A' for Active; 'I' for Inactive)
ROOT
HETATM    1  C1  UNL     1     -34.581  16.336  -1.331  1.00 20.00     0.013 C 
HETATM    2  C2  UNL     1     -34.940  16.033  -2.437  1.00 20.00    -0.104 C 
HETATM    3  C3  UNL     1     -35.985  14.297  -3.935  1.00 20.00     0.069 A 
HETATM    4  C4  UNL     1     -35.372  15.670  -3.765  1.00 20.00     0.057 A 
HETATM    5  C5  UNL     1     -34.615  14.568  -4.501  1.00 20.00     0.133 A 
HETATM    6  C6  UNL     1     -35.994  16.810  -4.533  1.00 20.00     0.032 C 
HETATM    7 CL7  UNL     1     -34.449  14.624  -6.258  1.00 20.00    -0.100 Cl
HETATM    8 CL8  UNL     1     -33.247  13.756  -3.729  1.00 20.00    -0.100 Cl
ENDROOT
TORSDOF 0
ENDMDL
MODEL 7
REMARK VINA RESULT:      -3.8      2.412      3.361
REMARK  0 active torsions:
REMARK  status: ('A' for Active; 'I' for Inactive)
ROOT
HETATM    1  C1  UNL     1     -34.086   6.143   6.253  1.00 20.00     0.013 C 
HETATM    2  C2  UNL     1     -33.789   6.195   5.090  1.00 20.00    -0.104 C 
HETATM    3  C3  UNL     1     -32.119   5.625   3.291  1.00 20.00     0.069 A 
HETATM    4  C4  UNL     1     -33.434   6.258   3.692  1.00 20.00     0.057 A 
HETATM    5  C5  UNL     1     -32.248   7.126   3.281  1.00 20.00     0.133 A 
HETATM    6  C6  UNL     1     -34.606   6.078   2.760  1.00 20.00     0.032 C 
HETATM    7 CL7  UNL     1     -32.243   7.940   1.715  1.00 20.00    -0.100 Cl
HETATM    8 CL8  UNL     1     -31.333   8.023   4.500  1.00 20.00    -0.100 Cl
ENDROOT
TORSDOF 0
ENDMDL
MODEL 8
REMARK VINA RESULT:      -3.8     11.987     12.808
REMARK  0 active torsions:
REMARK  status: ('A' for Active; 'I' for Inactive)
ROOT
HETATM    1  C1  UNL     1     -34.455  14.931  -7.052  1.00 20.00     0.013 C 
HETATM    2  C2  UNL     1     -34.534  14.768  -5.864  1.00 20.00    -0.104 C 
HETATM    3  C3  UNL     1     -36.017  14.428  -3.856  1.00 20.00     0.069 A 
HETATM    4  C4  UNL     1     -34.628  14.571  -4.438  1.00 20.00     0.057 A 
HETATM    5  C5  UNL     1     -35.232  15.685  -3.587  1.00 20.00     0.133 A 
HETATM    6  C6  UNL     1     -33.543  13.687  -3.875  1.00 20.00     0.032 C 
HETATM    7 CL7  UNL     1     -34.657  15.958  -1.941  1.00 20.00    -0.100 Cl
HETATM    8 CL8  UNL     1     -35.808  17.175  -4.347  1.00 20.00    -0.100 Cl
ENDROOT
TORSDOF 0
ENDMDL
MODEL 9
REMARK VINA RESULT:      -3.7     12.118     13.088
REMARK  0 active torsions:
REMARK  status: ('A' for Active; 'I' for Inactive)
ROOT
HETATM    1  C1  UNL     1     -33.646  18.410  -4.506  1.00 20.00     0.013 C 
HETATM    2  C2  UNL     1     -33.782  17.306  -4.053  1.00 20.00    -0.104 C 
HETATM    3  C3  UNL     1     -32.831  14.990  -3.767  1.00 20.00     0.069 A 
HETATM    4  C4  UNL     1     -33.946  15.980  -3.508  1.00 20.00     0.057 A 
HETATM    5  C5  UNL     1     -34.151  14.816  -4.473  1.00 20.00     0.133 A 
HETATM    6  C6  UNL     1     -34.590  15.961  -2.144  1.00 20.00     0.032 C 
HETATM    7 CL7  UNL     1     -35.155  13.441  -4.008  1.00 20.00    -0.100 Cl
HETATM    8 CL8  UNL     1     -34.176  15.098  -6.219  1.00 20.00    -0.100 Cl
ENDROOT
TORSDOF 0
ENDMDL
