MODEL 1
REMARK VINA RESULT:      -5.2      0.000      0.000
REMARK  1 active torsions:
REMARK  status: ('A' for Active; 'I' for Inactive)
REMARK    1  A    between atoms: C2_2  and  C12_12 
ROOT
HETATM    1  C1  UNL     1     -33.993  14.141  -3.466  1.00 20.00    -0.023 C 
HETATM    2  C2  UNL     1     -34.211  15.470  -3.524  1.00 20.00    -0.075 C 
HETATM    3  C3  UNL     1     -34.483  13.227  -4.571  1.00 20.00     0.033 C 
HETATM    4  C4  UNL     1     -34.309  15.296  -6.038  1.00 20.00     0.015 C 
HETATM    5  C5  UNL     1     -34.930  15.961  -4.755  1.00 20.00     0.023 C 
HETATM    6  C6  UNL     1     -35.197  14.067  -5.651  1.00 20.00    -0.002 C 
HETATM    7  C7  UNL     1     -36.247  15.134  -5.107  1.00 20.00    -0.036 C 
HETATM    8  C8  UNL     1     -37.158  14.699  -3.951  1.00 20.00     0.016 C 
HETATM    9  C9  UNL     1     -37.145  15.775  -6.183  1.00 20.00     0.016 C 
ENDROOT
BRANCH   2  10
HETATM   10  C12 UNL     1     -33.792  16.454  -2.486  1.00 20.00     0.006 C 
HETATM   11  C10 UNL     1     -33.794  17.871  -3.059  1.00 20.00     0.014 C 
HETATM   12  C11 UNL     1     -34.693  16.372  -1.254  1.00 20.00     0.014 C 
ENDBRANCH   2  10
TORSDOF 1
ENDMDL
MODEL 2
REMARK VINA RESULT:      -5.0      1.467      3.105
REMARK  1 active torsions:
REMARK  status: ('A' for Active; 'I' for Inactive)
REMARK    1  A    between atoms: C2_2  and  C12_12 
ROOT
HETATM    1  C1  UNL     1     -33.776  17.863  -3.158  1.00 20.00    -0.023 C 
HETATM    2  C2  UNL     1     -34.070  17.066  -2.110  1.00 20.00    -0.075 C 
HETATM    3  C3  UNL     1     -34.147  17.456  -4.569  1.00 20.00     0.033 C 
HETATM    4  C4  UNL     1     -35.981  16.102  -3.442  1.00 20.00     0.015 C 
HETATM    5  C5  UNL     1     -34.806  15.794  -2.444  1.00 20.00     0.023 C 
HETATM    6  C6  UNL     1     -34.861  16.087  -4.534  1.00 20.00    -0.002 C 
HETATM    7  C7  UNL     1     -34.158  14.969  -3.645  1.00 20.00    -0.036 C 
HETATM    8  C8  UNL     1     -32.629  14.873  -3.713  1.00 20.00     0.016 C 
HETATM    9  C9  UNL     1     -34.716  13.543  -3.825  1.00 20.00     0.016 C 
ENDROOT
BRANCH   2  10
HETATM   10  C12 UNL     1     -33.733  17.360  -0.688  1.00 20.00     0.006 C 
HETATM   11  C10 UNL     1     -33.049  18.721  -0.569  1.00 20.00     0.014 C 
HETATM   12  C11 UNL     1     -34.981  17.307   0.194  1.00 20.00     0.014 C 
ENDBRANCH   2  10
TORSDOF 1
ENDMDL
MODEL 3
REMARK VINA RESULT:      -4.9      0.894      1.868
REMARK  1 active torsions:
REMARK  status: ('A' for Active; 'I' for Inactive)
REMARK    1  A    between atoms: C2_2  and  C12_12 
ROOT
HETATM    1  C1  UNL     1     -35.970  15.306  -2.998  1.00 20.00    -0.023 C 
HETATM    2  C2  UNL     1     -34.694  15.698  -3.185  1.00 20.00    -0.075 C 
HETATM    3  C3  UNL     1     -36.675  14.446  -4.027  1.00 20.00     0.033 C 
HETATM    4  C4  UNL     1     -34.332  13.666  -4.632  1.00 20.00     0.015 C 
HETATM    5  C5  UNL     1     -34.035  15.198  -4.445  1.00 20.00     0.023 C 
HETATM    6  C6  UNL     1     -35.709  14.152  -5.194  1.00 20.00    -0.002 C 
HETATM    7  C7  UNL     1     -34.913  15.410  -5.760  1.00 20.00    -0.036 C 
HETATM    8  C8  UNL     1     -35.687  16.725  -5.908  1.00 20.00     0.016 C 
HETATM    9  C9  UNL     1     -34.162  15.167  -7.084  1.00 20.00     0.016 C 
ENDROOT
BRANCH   2  10
HETATM   10  C12 UNL     1     -33.914  16.558  -2.249  1.00 20.00     0.006 C 
HETATM   11  C10 UNL     1     -33.751  17.965  -2.824  1.00 20.00     0.014 C 
HETATM   12  C11 UNL     1     -34.577  16.614  -0.873  1.00 20.00     0.014 C 
ENDBRANCH   2  10
TORSDOF 1
ENDMDL
MODEL 4
REMARK VINA RESULT:      -4.7      1.400      3.563
REMARK  1 active torsions:
REMARK  status: ('A' for Active; 'I' for Inactive)
REMARK    1  A    between atoms: C2_2  and  C12_12 
ROOT
HETATM    1  C1  UNL     1     -34.594  14.384  -6.185  1.00 20.00    -0.023 C 
HETATM    2  C2  UNL     1     -34.742  15.704  -5.956  1.00 20.00    -0.075 C 
HETATM    3  C3  UNL     1     -34.824  13.376  -5.078  1.00 20.00     0.033 C 
HETATM    4  C4  UNL     1     -36.355  15.154  -4.099  1.00 20.00     0.015 C 
HETATM    5  C5  UNL     1     -35.173  16.081  -4.562  1.00 20.00     0.023 C 
HETATM    6  C6  UNL     1     -35.225  14.118  -3.785  1.00 20.00    -0.002 C 
HETATM    7  C7  UNL     1     -34.324  15.377  -3.411  1.00 20.00    -0.036 C 
HETATM    8  C8  UNL     1     -32.809  15.244  -3.609  1.00 20.00     0.016 C 
HETATM    9  C9  UNL     1     -34.554  15.948  -1.997  1.00 20.00     0.016 C 
ENDROOT
BRANCH   2  10
HETATM   10  C12 UNL     1     -34.522  16.780  -6.965  1.00 20.00     0.006 C 
HETATM   11  C10 UNL     1     -35.812  17.068  -7.732  1.00 20.00     0.014 C 
HETATM   12  C11 UNL     1     -33.993  18.053  -6.304  1.00 20.00     0.014 C 
ENDBRANCH   2  10
TORSDOF 1
ENDMDL
MODEL 5
REMARK VINA RESULT:      -4.6      1.447      2.479
REMARK  1 active torsions:
REMARK  status: ('A' for Active; 'I' for Inactive)
REMARK    1  A    between atoms: C2_2  and  C12_12 
ROOT
HETATM    1  C1  UNL     1     -32.883  15.486  -4.234  1.00 20.00    -0.023 C 
HETATM    2  C2  UNL     1     -33.762  16.155  -5.008  1.00 20.00    -0.075 C 
HETATM    3  C3  UNL     1     -33.267  14.173  -3.584  1.00 20.00     0.033 C 
HETATM    4  C4  UNL     1     -34.906  13.967  -5.517  1.00 20.00     0.015 C 
HETATM    5  C5  UNL     1     -35.103  15.493  -5.194  1.00 20.00     0.023 C 
HETATM    6  C6  UNL     1     -34.719  13.816  -3.971  1.00 20.00    -0.002 C 
HETATM    7  C7  UNL     1     -35.775  15.000  -3.835  1.00 20.00    -0.036 C 
HETATM    8  C8  UNL     1     -35.663  15.906  -2.603  1.00 20.00     0.016 C 
HETATM    9  C9  UNL     1     -37.252  14.576  -3.961  1.00 20.00     0.016 C 
ENDROOT
BRANCH   2  10
HETATM   10  C12 UNL     1     -33.496  17.461  -5.676  1.00 20.00     0.006 C 
HETATM   11  C10 UNL     1     -34.432  17.653  -6.868  1.00 20.00     0.014 C 
HETATM   12  C11 UNL     1     -33.635  18.621  -4.691  1.00 20.00     0.014 C 
ENDBRANCH   2  10
TORSDOF 1
ENDMDL
MODEL 6
REMARK VINA RESULT:      -4.6      1.030      3.589
REMARK  1 active torsions:
REMARK  status: ('A' for Active; 'I' for Inactive)
REMARK    1  A    between atoms: C2_2  and  C12_12 
ROOT
HETATM    1  C1  UNL     1     -35.320  13.594  -4.172  1.00 20.00    -0.023 C 
HETATM    2  C2  UNL     1     -36.128  14.673  -4.157  1.00 20.00    -0.075 C 
HETATM    3  C3  UNL     1     -33.851  13.721  -3.826  1.00 20.00     0.033 C 
HETATM    4  C4  UNL     1     -34.588  15.744  -2.473  1.00 20.00     0.015 C 
HETATM    5  C5  UNL     1     -35.478  15.970  -3.750  1.00 20.00     0.023 C 
HETATM    6  C6  UNL     1     -33.532  15.194  -3.488  1.00 20.00    -0.002 C 
HETATM    7  C7  UNL     1     -34.108  16.272  -4.508  1.00 20.00    -0.036 C 
HETATM    8  C8  UNL     1     -34.022  15.943  -6.004  1.00 20.00     0.016 C 
HETATM    9  C9  UNL     1     -33.567  17.703  -4.321  1.00 20.00     0.016 C 
ENDROOT
BRANCH   2  10
HETATM   10  C12 UNL     1     -37.579  14.663  -4.499  1.00 20.00     0.006 C 
HETATM   11  C10 UNL     1     -38.390  15.373  -3.415  1.00 20.00     0.014 C 
HETATM   12  C11 UNL     1     -37.827  15.307  -5.863  1.00 20.00     0.014 C 
ENDBRANCH   2  10
TORSDOF 1
ENDMDL
MODEL 7
REMARK VINA RESULT:      -4.6      1.678      4.461
REMARK  1 active torsions:
REMARK  status: ('A' for Active; 'I' for Inactive)
REMARK    1  A    between atoms: C2_2  and  C12_12 
ROOT
HETATM    1  C1  UNL     1     -36.102  16.396  -3.027  1.00 20.00    -0.023 C 
HETATM    2  C2  UNL     1     -34.885  15.825  -2.927  1.00 20.00    -0.075 C 
HETATM    3  C3  UNL     1     -36.300  17.860  -2.691  1.00 20.00     0.033 C 
HETATM    4  C4  UNL     1     -33.843  18.089  -3.304  1.00 20.00     0.015 C 
HETATM    5  C5  UNL     1     -33.767  16.740  -2.500  1.00 20.00     0.023 C 
HETATM    6  C6  UNL     1     -34.949  18.474  -2.266  1.00 20.00    -0.002 C 
HETATM    7  C7  UNL     1     -34.108  17.621  -1.216  1.00 20.00    -0.036 C 
HETATM    8  C8  UNL     1     -34.881  16.958  -0.068  1.00 20.00     0.016 C 
HETATM    9  C9  UNL     1     -32.902  18.353  -0.595  1.00 20.00     0.016 C 
ENDROOT
BRANCH   2  10
HETATM   10  C12 UNL     1     -34.584  14.393  -3.213  1.00 20.00     0.006 C 
HETATM   11  C10 UNL     1     -35.563  13.835  -4.246  1.00 20.00     0.014 C 
HETATM   12  C11 UNL     1     -33.142  14.219  -3.690  1.00 20.00     0.014 C 
ENDBRANCH   2  10
TORSDOF 1
ENDMDL
MODEL 8
REMARK VINA RESULT:      -4.5      1.416      3.841
REMARK  1 active torsions:
REMARK  status: ('A' for Active; 'I' for Inactive)
REMARK    1  A    between atoms: C2_2  and  C12_12 
ROOT
HETATM    1  C1  UNL     1     -36.226  16.279  -4.624  1.00 20.00    -0.023 C 
HETATM    2  C2  UNL     1     -35.233  16.036  -5.504  1.00 20.00    -0.075 C 
HETATM    3  C3  UNL     1     -36.025  16.032  -3.143  1.00 20.00     0.033 C 
HETATM    4  C4  UNL     1     -33.564  16.416  -3.654  1.00 20.00     0.015 C 
HETATM    5  C5  UNL     1     -33.938  15.546  -4.909  1.00 20.00     0.023 C 
HETATM    6  C6  UNL     1     -34.593  15.508  -2.902  1.00 20.00    -0.002 C 
HETATM    7  C7  UNL     1     -34.116  14.343  -3.878  1.00 20.00    -0.036 C 
HETATM    8  C8  UNL     1     -35.133  13.246  -4.215  1.00 20.00     0.016 C 
HETATM    9  C9  UNL     1     -32.805  13.644  -3.469  1.00 20.00     0.016 C 
ENDROOT
BRANCH   2  10
HETATM   10  C12 UNL     1     -35.330  16.224  -6.980  1.00 20.00     0.006 C 
HETATM   11  C10 UNL     1     -34.539  17.457  -7.416  1.00 20.00     0.014 C 
HETATM   12  C11 UNL     1     -34.844  14.982  -7.726  1.00 20.00     0.014 C 
ENDBRANCH   2  10
TORSDOF 1
ENDMDL
MODEL 9
REMARK VINA RESULT:      -4.5      1.405      3.475
REMARK  1 active torsions:
REMARK  status: ('A' for Active; 'I' for Inactive)
REMARK    1  A    between atoms: C2_2  and  C12_12 
ROOT
HETATM    1  C1  UNL     1     -33.460  16.187  -4.569  1.00 20.00    -0.023 C 
HETATM    2  C2  UNL     1     -34.289  15.709  -5.520  1.00 20.00    -0.075 C 
HETATM    3  C3  UNL     1     -33.748  15.949  -3.101  1.00 20.00     0.033 C 
HETATM    4  C4  UNL     1     -34.998  13.893  -3.922  1.00 20.00     0.015 C 
HETATM    5  C5  UNL     1     -35.468  14.916  -5.019  1.00 20.00     0.023 C 
HETATM    6  C6  UNL     1     -35.047  15.127  -2.961  1.00 20.00    -0.002 C 
HETATM    7  C7  UNL     1     -36.274  15.629  -3.843  1.00 20.00    -0.036 C 
HETATM    8  C8  UNL     1     -36.501  17.143  -3.937  1.00 20.00     0.016 C 
HETATM    9  C9  UNL     1     -37.631  14.981  -3.503  1.00 20.00     0.016 C 
ENDROOT
BRANCH   2  10
HETATM   10  C12 UNL     1     -34.112  15.902  -6.988  1.00 20.00     0.006 C 
HETATM   11  C10 UNL     1     -34.890  14.840  -7.765  1.00 20.00     0.014 C 
HETATM   12  C11 UNL     1     -34.545  17.305  -7.414  1.00 20.00     0.014 C 
ENDBRANCH   2  10
TORSDOF 1
ENDMDL
