MODEL 1
REMARK VINA RESULT:      -5.7      0.000      0.000
REMARK  0 active torsions:
REMARK  status: ('A' for Active; 'I' for Inactive)
ROOT
HETATM    1  C1  UNL     1     -33.644   6.315   5.443  1.00 20.00    -0.007 A 
HETATM    2  C2  UNL     1     -33.530   6.263   4.109  1.00 20.00    -0.014 A 
HETATM    3  C3  UNL     1     -34.589   5.363   3.527  1.00 20.00     0.051 A 
HETATM    4  C4  UNL     1     -34.764   4.012   5.792  1.00 20.00     0.014 A 
HETATM    5  C5  UNL     1     -34.758   5.505   5.963  1.00 20.00     0.014 A 
HETATM    6  C6  UNL     1     -35.382   4.879   4.728  1.00 20.00    -0.002 A 
HETATM    7 BR7  UNL     1     -32.306   7.100   3.030  1.00 20.00    -0.056 Br
ENDROOT
TORSDOF 0
ENDMDL
MODEL 2
REMARK VINA RESULT:      -4.2      1.714      2.441
REMARK  0 active torsions:
REMARK  status: ('A' for Active; 'I' for Inactive)
ROOT
HETATM    1  C1  UNL     1     -33.685   6.481   4.498  1.00 20.00    -0.007 A 
HETATM    2  C2  UNL     1     -33.925   6.400   5.814  1.00 20.00    -0.014 A 
HETATM    3  C3  UNL     1     -34.823   5.227   6.112  1.00 20.00     0.051 A 
HETATM    4  C4  UNL     1     -35.839   5.313   3.673  1.00 20.00     0.014 A 
HETATM    5  C5  UNL     1     -34.341   5.416   3.721  1.00 20.00     0.014 A 
HETATM    6  C6  UNL     1     -35.085   4.592   4.758  1.00 20.00    -0.002 A 
HETATM    7 BR7  UNL     1     -33.327   7.495   7.157  1.00 20.00    -0.056 Br
ENDROOT
TORSDOF 0
ENDMDL
MODEL 3
REMARK VINA RESULT:      -4.1      2.188      3.390
REMARK  0 active torsions:
REMARK  status: ('A' for Active; 'I' for Inactive)
ROOT
HETATM    1  C1  UNL     1     -34.481   5.084   3.632  1.00 20.00    -0.007 A 
HETATM    2  C2  UNL     1     -34.404   5.307   4.952  1.00 20.00    -0.014 A 
HETATM    3  C3  UNL     1     -33.515   6.491   5.233  1.00 20.00     0.051 A 
HETATM    4  C4  UNL     1     -32.207   6.117   2.966  1.00 20.00     0.014 A 
HETATM    5  C5  UNL     1     -33.702   6.045   2.834  1.00 20.00     0.014 A 
HETATM    6  C6  UNL     1     -33.068   6.967   3.862  1.00 20.00    -0.002 A 
HETATM    7 BR7  UNL     1     -35.196   4.378   6.319  1.00 20.00    -0.056 Br
ENDROOT
TORSDOF 0
ENDMDL
MODEL 4
REMARK VINA RESULT:      -3.8      0.929      1.929
REMARK  0 active torsions:
REMARK  status: ('A' for Active; 'I' for Inactive)
ROOT
HETATM    1  C1  UNL     1     -33.552   5.586   2.920  1.00 20.00    -0.007 A 
HETATM    2  C2  UNL     1     -32.986   6.495   3.726  1.00 20.00    -0.014 A 
HETATM    3  C3  UNL     1     -33.617   6.447   5.094  1.00 20.00     0.051 A 
HETATM    4  C4  UNL     1     -35.854   5.460   4.090  1.00 20.00     0.014 A 
HETATM    5  C5  UNL     1     -34.604   4.797   3.582  1.00 20.00     0.014 A 
HETATM    6  C6  UNL     1     -34.658   5.347   4.997  1.00 20.00    -0.002 A 
HETATM    7 BR7  UNL     1     -31.649   7.690   3.346  1.00 20.00    -0.056 Br
ENDROOT
TORSDOF 0
ENDMDL
MODEL 5
REMARK VINA RESULT:      -3.8      9.037      9.887
REMARK  0 active torsions:
REMARK  status: ('A' for Active; 'I' for Inactive)
ROOT
HETATM    1  C1  UNL     1     -41.911   5.233  -2.276  1.00 20.00    -0.007 A 
HETATM    2  C2  UNL     1     -41.911   6.573  -2.272  1.00 20.00    -0.014 A 
HETATM    3  C3  UNL     1     -41.174   7.093  -1.065  1.00 20.00     0.051 A 
HETATM    4  C4  UNL     1     -41.684   4.871   0.273  1.00 20.00     0.014 A 
HETATM    5  C5  UNL     1     -41.196   4.648  -1.131  1.00 20.00     0.014 A 
HETATM    6  C6  UNL     1     -40.710   5.846  -0.333  1.00 20.00    -0.002 A 
HETATM    7 BR7  UNL     1     -42.668   7.723  -3.482  1.00 20.00    -0.056 Br
ENDROOT
TORSDOF 0
ENDMDL
MODEL 6
REMARK VINA RESULT:      -3.7     12.307     12.674
REMARK  0 active torsions:
REMARK  status: ('A' for Active; 'I' for Inactive)
ROOT
HETATM    1  C1  UNL     1     -33.525  15.518  -3.005  1.00 20.00    -0.007 A 
HETATM    2  C2  UNL     1     -34.610  14.889  -3.480  1.00 20.00    -0.014 A 
HETATM    3  C3  UNL     1     -35.864  15.585  -3.017  1.00 20.00     0.051 A 
HETATM    4  C4  UNL     1     -34.611  16.556  -0.902  1.00 20.00     0.014 A 
HETATM    5  C5  UNL     1     -33.849  16.700  -2.189  1.00 20.00     0.014 A 
HETATM    6  C6  UNL     1     -35.368  16.756  -2.188  1.00 20.00    -0.002 A 
HETATM    7 BR7  UNL     1     -34.697  13.390  -4.531  1.00 20.00    -0.056 Br
ENDROOT
TORSDOF 0
ENDMDL
MODEL 7
REMARK VINA RESULT:      -3.7     12.253     12.560
REMARK  0 active torsions:
REMARK  status: ('A' for Active; 'I' for Inactive)
ROOT
HETATM    1  C1  UNL     1     -33.578  14.598  -3.423  1.00 20.00    -0.007 A 
HETATM    2  C2  UNL     1     -34.543  15.328  -2.847  1.00 20.00    -0.014 A 
HETATM    3  C3  UNL     1     -35.894  14.925  -3.380  1.00 20.00     0.051 A 
HETATM    4  C4  UNL     1     -34.810  14.061  -5.631  1.00 20.00     0.014 A 
HETATM    5  C5  UNL     1     -34.092  13.613  -4.389  1.00 20.00     0.014 A 
HETATM    6  C6  UNL     1     -35.598  13.814  -4.372  1.00 20.00    -0.002 A 
HETATM    7 BR7  UNL     1     -34.381  16.659  -1.597  1.00 20.00    -0.056 Br
ENDROOT
TORSDOF 0
ENDMDL
MODEL 8
REMARK VINA RESULT:      -3.6      2.212      3.466
REMARK  0 active torsions:
REMARK  status: ('A' for Active; 'I' for Inactive)
ROOT
HETATM    1  C1  UNL     1     -32.957   6.714   4.709  1.00 20.00    -0.007 A 
HETATM    2  C2  UNL     1     -33.797   5.772   4.256  1.00 20.00    -0.014 A 
HETATM    3  C3  UNL     1     -33.502   5.457   2.813  1.00 20.00     0.051 A 
HETATM    4  C4  UNL     1     -32.452   7.855   2.445  1.00 20.00     0.014 A 
HETATM    5  C5  UNL     1     -31.988   7.164   3.697  1.00 20.00     0.014 A 
HETATM    6  C6  UNL     1     -32.330   6.355   2.457  1.00 20.00    -0.002 A 
HETATM    7 BR7  UNL     1     -35.155   4.924   5.148  1.00 20.00    -0.056 Br
ENDROOT
TORSDOF 0
ENDMDL
MODEL 9
REMARK VINA RESULT:      -3.6      9.144     10.072
REMARK  0 active torsions:
REMARK  status: ('A' for Active; 'I' for Inactive)
ROOT
HETATM    1  C1  UNL     1     -42.671   5.316  -1.926  1.00 20.00    -0.007 A 
HETATM    2  C2  UNL     1     -41.779   4.316  -1.973  1.00 20.00    -0.014 A 
HETATM    3  C3  UNL     1     -40.659   4.567  -0.997  1.00 20.00     0.051 A 
HETATM    4  C4  UNL     1     -41.074   7.175  -1.104  1.00 20.00     0.014 A 
HETATM    5  C5  UNL     1     -42.325   6.358  -0.945  1.00 20.00     0.014 A 
HETATM    6  C6  UNL     1     -41.018   5.884  -0.332  1.00 20.00    -0.002 A 
HETATM    7 BR7  UNL     1     -41.792   2.818  -3.029  1.00 20.00    -0.056 Br
ENDROOT
TORSDOF 0
ENDMDL
