MODEL 1
REMARK VINA RESULT:      -5.3      0.000      0.000
REMARK  0 active torsions:
REMARK  status: ('A' for Active; 'I' for Inactive)
ROOT
HETATM    1  C1  UNL     1     -32.208   6.097   3.338  1.00 20.00    -0.025 C 
HETATM    2  C2  UNL     1     -32.976   5.218   2.666  1.00 20.00    -0.025 C 
HETATM    3  C3  UNL     1     -34.392   5.943   6.521  1.00 20.00    -0.022 C 
HETATM    4  C4  UNL     1     -35.159   4.830   6.569  1.00 20.00     0.007 C 
HETATM    5  C5  UNL     1     -34.222   7.101   3.103  1.00 20.00     0.018 C 
HETATM    6  C6  UNL     1     -33.139   6.964   4.185  1.00 20.00     0.017 C 
HETATM    7  C7  UNL     1     -34.419   5.562   2.945  1.00 20.00     0.016 C 
HETATM    8  C8  UNL     1     -33.690   5.943   5.211  1.00 20.00     0.023 C 
HETATM    9  C9  UNL     1     -35.208   4.119   5.217  1.00 20.00     0.198 C 
HETATM   10  C10 UNL     1     -34.858   5.328   4.391  1.00 20.00     0.039 C 
HETATM   11  F11 UNL     1     -34.259   3.159   5.122  1.00 20.00    -0.245 F 
ENDROOT
TORSDOF 0
ENDMDL
MODEL 2
REMARK VINA RESULT:      -5.0     12.084     13.100
REMARK  0 active torsions:
REMARK  status: ('A' for Active; 'I' for Inactive)
ROOT
HETATM    1  C1  UNL     1     -33.931  17.570  -3.246  1.00 20.00    -0.025 C 
HETATM    2  C2  UNL     1     -35.275  17.647  -3.310  1.00 20.00    -0.025 C 
HETATM    3  C3  UNL     1     -33.886  13.742  -3.767  1.00 20.00    -0.022 C 
HETATM    4  C4  UNL     1     -35.029  13.282  -4.324  1.00 20.00     0.007 C 
HETATM    5  C5  UNL     1     -34.695  16.404  -1.463  1.00 20.00     0.018 C 
HETATM    6  C6  UNL     1     -33.582  16.274  -2.515  1.00 20.00     0.017 C 
HETATM    7  C7  UNL     1     -35.839  16.491  -2.519  1.00 20.00     0.016 C 
HETATM    8  C8  UNL     1     -34.067  15.196  -3.515  1.00 20.00     0.023 C 
HETATM    9  C9  UNL     1     -36.140  14.330  -4.282  1.00 20.00     0.198 C 
HETATM   10  C10 UNL     1     -35.570  15.115  -3.130  1.00 20.00     0.039 C 
HETATM   11  F11 UNL     1     -36.178  15.066  -5.416  1.00 20.00    -0.245 F 
ENDROOT
TORSDOF 0
ENDMDL
MODEL 3
REMARK VINA RESULT:      -4.9     12.288     14.209
REMARK  0 active torsions:
REMARK  status: ('A' for Active; 'I' for Inactive)
ROOT
HETATM    1  C1  UNL     1     -33.789  13.638  -3.808  1.00 20.00    -0.025 C 
HETATM    2  C2  UNL     1     -34.039  14.820  -3.214  1.00 20.00    -0.025 C 
HETATM    3  C3  UNL     1     -34.633  14.959  -7.339  1.00 20.00    -0.022 C 
HETATM    4  C4  UNL     1     -34.574  16.309  -7.415  1.00 20.00     0.007 C 
HETATM    5  C5  UNL     1     -35.996  14.026  -4.126  1.00 20.00     0.018 C 
HETATM    6  C6  UNL     1     -34.812  13.464  -4.930  1.00 20.00     0.017 C 
HETATM    7  C7  UNL     1     -35.295  15.387  -3.831  1.00 20.00     0.016 C 
HETATM    8  C8  UNL     1     -34.402  14.582  -5.920  1.00 20.00     0.023 C 
HETATM    9  C9  UNL     1     -34.525  16.951  -6.029  1.00 20.00     0.198 C 
HETATM   10  C10 UNL     1     -35.153  15.793  -5.299  1.00 20.00     0.039 C 
HETATM   11  F11 UNL     1     -33.254  17.167  -5.621  1.00 20.00    -0.245 F 
ENDROOT
TORSDOF 0
ENDMDL
MODEL 4
REMARK VINA RESULT:      -4.9     12.223     13.741
REMARK  0 active torsions:
REMARK  status: ('A' for Active; 'I' for Inactive)
ROOT
HETATM    1  C1  UNL     1     -33.947  16.454  -3.130  1.00 20.00    -0.025 C 
HETATM    2  C2  UNL     1     -34.642  15.361  -2.763  1.00 20.00    -0.025 C 
HETATM    3  C3  UNL     1     -34.077  15.570  -6.889  1.00 20.00    -0.022 C 
HETATM    4  C4  UNL     1     -35.069  14.698  -7.181  1.00 20.00     0.007 C 
HETATM    5  C5  UNL     1     -32.648  14.688  -3.690  1.00 20.00     0.018 C 
HETATM    6  C6  UNL     1     -33.036  16.049  -4.289  1.00 20.00     0.017 C 
HETATM    7  C7  UNL     1     -34.122  14.194  -3.567  1.00 20.00     0.016 C 
HETATM    8  C8  UNL     1     -34.057  15.743  -5.413  1.00 20.00     0.023 C 
HETATM    9  C9  UNL     1     -35.639  14.047  -5.921  1.00 20.00     0.198 C 
HETATM   10  C10 UNL     1     -34.422  14.273  -5.064  1.00 20.00     0.039 C 
HETATM   11  F11 UNL     1     -36.712  14.724  -5.451  1.00 20.00    -0.245 F 
ENDROOT
TORSDOF 0
ENDMDL
MODEL 5
REMARK VINA RESULT:      -4.8     12.374     13.453
REMARK  0 active torsions:
REMARK  status: ('A' for Active; 'I' for Inactive)
ROOT
HETATM    1  C1  UNL     1     -35.270  14.619  -4.589  1.00 20.00    -0.025 C 
HETATM    2  C2  UNL     1     -34.512  15.501  -5.268  1.00 20.00    -0.025 C 
HETATM    3  C3  UNL     1     -34.666  16.353  -1.190  1.00 20.00    -0.022 C 
HETATM    4  C4  UNL     1     -34.254  17.634  -1.328  1.00 20.00     0.007 C 
HETATM    5  C5  UNL     1     -33.167  14.352  -3.797  1.00 20.00     0.018 C 
HETATM    6  C6  UNL     1     -34.597  14.384  -3.236  1.00 20.00     0.017 C 
HETATM    7  C7  UNL     1     -33.270  15.764  -4.451  1.00 20.00     0.016 C 
HETATM    8  C8  UNL     1     -34.754  15.764  -2.552  1.00 20.00     0.023 C 
HETATM    9  C9  UNL     1     -33.818  17.936  -2.761  1.00 20.00     0.198 C 
HETATM   10  C10 UNL     1     -33.523  16.508  -3.138  1.00 20.00     0.039 C 
HETATM   11  F11 UNL     1     -34.833  18.445  -3.496  1.00 20.00    -0.245 F 
ENDROOT
TORSDOF 0
ENDMDL
MODEL 6
REMARK VINA RESULT:      -4.8     12.212     12.947
REMARK  0 active torsions:
REMARK  status: ('A' for Active; 'I' for Inactive)
ROOT
HETATM    1  C1  UNL     1     -34.913  16.637  -1.445  1.00 20.00    -0.025 C 
HETATM    2  C2  UNL     1     -33.656  16.658  -1.926  1.00 20.00    -0.025 C 
HETATM    3  C3  UNL     1     -36.143  14.113  -4.099  1.00 20.00    -0.022 C 
HETATM    4  C4  UNL     1     -35.128  13.424  -4.668  1.00 20.00     0.007 C 
HETATM    5  C5  UNL     1     -35.071  17.515  -3.525  1.00 20.00     0.018 C 
HETATM    6  C6  UNL     1     -35.860  16.535  -2.641  1.00 20.00     0.017 C 
HETATM    7  C7  UNL     1     -33.742  16.705  -3.433  1.00 20.00     0.016 C 
HETATM    8  C8  UNL     1     -35.542  15.121  -3.187  1.00 20.00     0.023 C 
HETATM    9  C9  UNL     1     -33.772  14.058  -4.360  1.00 20.00     0.198 C 
HETATM   10  C10 UNL     1     -34.306  15.437  -4.075  1.00 20.00     0.039 C 
HETATM   11  F11 UNL     1     -33.200  13.509  -3.263  1.00 20.00    -0.245 F 
ENDROOT
TORSDOF 0
ENDMDL
MODEL 7
REMARK VINA RESULT:      -4.7     12.210     13.175
REMARK  0 active torsions:
REMARK  status: ('A' for Active; 'I' for Inactive)
ROOT
HETATM    1  C1  UNL     1     -36.067  14.802  -5.631  1.00 20.00    -0.025 C 
HETATM    2  C2  UNL     1     -34.765  14.650  -5.942  1.00 20.00    -0.025 C 
HETATM    3  C3  UNL     1     -35.311  16.101  -2.071  1.00 20.00    -0.022 C 
HETATM    4  C4  UNL     1     -34.047  16.567  -1.948  1.00 20.00     0.007 C 
HETATM    5  C5  UNL     1     -35.286  13.204  -4.230  1.00 20.00     0.018 C 
HETATM    6  C6  UNL     1     -36.234  14.413  -4.162  1.00 20.00     0.017 C 
HETATM    7  C7  UNL     1     -34.075  14.040  -4.746  1.00 20.00     0.016 C 
HETATM    8  C8  UNL     1     -35.444  15.531  -3.438  1.00 20.00     0.023 C 
HETATM    9  C9  UNL     1     -33.172  16.146  -3.128  1.00 20.00     0.198 C 
HETATM   10  C10 UNL     1     -34.004  14.954  -3.522  1.00 20.00     0.039 C 
HETATM   11  F11 UNL     1     -33.158  17.087  -4.100  1.00 20.00    -0.245 F 
ENDROOT
TORSDOF 0
ENDMDL
MODEL 8
REMARK VINA RESULT:      -4.7      9.329     10.484
REMARK  0 active torsions:
REMARK  status: ('A' for Active; 'I' for Inactive)
ROOT
HETATM    1  C1  UNL     1     -40.793   7.043  -0.793  1.00 20.00    -0.025 C 
HETATM    2  C2  UNL     1     -42.072   7.415  -0.995  1.00 20.00    -0.025 C 
HETATM    3  C3  UNL     1     -41.333   3.518  -2.281  1.00 20.00    -0.022 C 
HETATM    4  C4  UNL     1     -42.428   3.452  -3.071  1.00 20.00     0.007 C 
HETATM    5  C5  UNL     1     -42.041   5.686   0.522  1.00 20.00     0.018 C 
HETATM    6  C6  UNL     1     -40.806   5.569  -0.386  1.00 20.00     0.017 C 
HETATM    7  C7  UNL     1     -42.956   6.255  -0.606  1.00 20.00     0.016 C 
HETATM    8  C8  UNL     1     -41.296   4.879  -1.683  1.00 20.00     0.023 C 
HETATM    9  C9  UNL     1     -43.329   4.674  -2.892  1.00 20.00     0.198 C 
HETATM   10  C10 UNL     1     -42.833   5.033  -1.517  1.00 20.00     0.039 C 
HETATM   11  F11 UNL     1     -43.044   5.642  -3.793  1.00 20.00    -0.245 F 
ENDROOT
TORSDOF 0
ENDMDL
MODEL 9
REMARK VINA RESULT:      -4.6     12.193     14.070
REMARK  0 active torsions:
REMARK  status: ('A' for Active; 'I' for Inactive)
ROOT
HETATM    1  C1  UNL     1     -34.440  13.694  -3.490  1.00 20.00    -0.025 C 
HETATM    2  C2  UNL     1     -33.227  14.105  -3.903  1.00 20.00    -0.025 C 
HETATM    3  C3  UNL     1     -36.319  16.338  -5.589  1.00 20.00    -0.022 C 
HETATM    4  C4  UNL     1     -35.564  16.829  -6.598  1.00 20.00     0.007 C 
HETATM    5  C5  UNL     1     -34.210  15.804  -2.704  1.00 20.00     0.018 C 
HETATM    6  C6  UNL     1     -35.315  14.938  -3.330  1.00 20.00     0.017 C 
HETATM    7  C7  UNL     1     -33.227  15.615  -3.900  1.00 20.00     0.016 C 
HETATM    8  C8  UNL     1     -35.458  15.424  -4.793  1.00 20.00     0.023 C 
HETATM    9  C9  UNL     1     -34.089  16.465  -6.430  1.00 20.00     0.198 C 
HETATM   10  C10 UNL     1     -34.150  16.250  -4.942  1.00 20.00     0.039 C 
HETATM   11  F11 UNL     1     -33.778  15.323  -7.086  1.00 20.00    -0.245 F 
ENDROOT
TORSDOF 0
ENDMDL
