MODEL 1
REMARK VINA RESULT:      -4.6      0.000      0.000
REMARK  1 active torsions:
REMARK  status: ('A' for Active; 'I' for Inactive)
REMARK    1  A    between atoms: C6_6  and  C11_11 
ROOT
HETATM    1  C1  UNL     1     -35.643  15.523  -2.511  1.00 20.00     0.003 C 
HETATM    2  C2  UNL     1     -35.820  14.801  -3.628  1.00 20.00    -0.016 C 
HETATM    3  C3  UNL     1     -33.288  15.878  -2.935  1.00 20.00    -0.019 C 
HETATM    4  C4  UNL     1     -34.385  16.181  -2.220  1.00 20.00    -0.066 C 
HETATM    5  C5  UNL     1     -33.311  14.866  -4.049  1.00 20.00     0.041 C 
HETATM    6  C6  UNL     1     -34.722  14.613  -4.659  1.00 20.00    -0.020 C 
HETATM    7  C7  UNL     1     -34.376  17.163  -1.088  1.00 20.00     0.048 C 
HETATM    8  C8  UNL     1     -34.774  13.182  -5.218  1.00 20.00     0.020 C 
ENDROOT
BRANCH   6   9
HETATM    9  C11 UNL     1     -34.980  15.604  -5.812  1.00 20.00    -0.011 C 
HETATM   10  C9  UNL     1     -34.313  15.107  -7.087  1.00 20.00     0.010 C 
HETATM   11  C10 UNL     1     -36.477  15.793  -6.013  1.00 20.00     0.010 C 
ENDBRANCH   6   9
TORSDOF 1
ENDMDL
MODEL 2
REMARK VINA RESULT:      -4.5      1.785      3.472
REMARK  1 active torsions:
REMARK  status: ('A' for Active; 'I' for Inactive)
REMARK    1  A    between atoms: C6_6  and  C11_11 
ROOT
HETATM    1  C1  UNL     1     -33.457  19.017  -2.158  1.00 20.00     0.003 C 
HETATM    2  C2  UNL     1     -34.119  18.300  -3.079  1.00 20.00    -0.016 C 
HETATM    3  C3  UNL     1     -33.805  17.376  -0.415  1.00 20.00    -0.019 C 
HETATM    4  C4  UNL     1     -33.185  18.492  -0.835  1.00 20.00    -0.066 C 
HETATM    5  C5  UNL     1     -34.787  16.631  -1.278  1.00 20.00     0.041 C 
HETATM    6  C6  UNL     1     -34.635  16.899  -2.805  1.00 20.00    -0.020 C 
HETATM    7  C7  UNL     1     -32.225  19.263   0.019  1.00 20.00     0.048 C 
HETATM    8  C8  UNL     1     -36.001  16.707  -3.484  1.00 20.00     0.020 C 
ENDROOT
BRANCH   6   9
HETATM    9  C11 UNL     1     -33.634  15.898  -3.415  1.00 20.00    -0.011 C 
HETATM   10  C9  UNL     1     -34.223  14.494  -3.398  1.00 20.00     0.010 C 
HETATM   11  C10 UNL     1     -33.267  16.321  -4.830  1.00 20.00     0.010 C 
ENDBRANCH   6   9
TORSDOF 1
ENDMDL
MODEL 3
REMARK VINA RESULT:      -4.5      1.768      4.349
REMARK  1 active torsions:
REMARK  status: ('A' for Active; 'I' for Inactive)
REMARK    1  A    between atoms: C6_6  and  C11_11 
ROOT
HETATM    1  C1  UNL     1     -35.353  15.081  -3.094  1.00 20.00     0.003 C 
HETATM    2  C2  UNL     1     -35.585  16.261  -2.498  1.00 20.00    -0.016 C 
HETATM    3  C3  UNL     1     -33.279  15.827  -4.093  1.00 20.00    -0.019 C 
HETATM    4  C4  UNL     1     -34.116  14.816  -3.802  1.00 20.00    -0.066 C 
HETATM    5  C5  UNL     1     -33.575  17.250  -3.704  1.00 20.00     0.041 C 
HETATM    6  C6  UNL     1     -34.582  17.399  -2.525  1.00 20.00    -0.020 C 
HETATM    7  C7  UNL     1     -33.853  13.398  -4.205  1.00 20.00     0.048 C 
HETATM    8  C8  UNL     1     -35.322  18.740  -2.668  1.00 20.00     0.020 C 
ENDROOT
BRANCH   6   9
HETATM    9  C11 UNL     1     -33.822  17.394  -1.184  1.00 20.00    -0.011 C 
HETATM   10  C9  UNL     1     -33.119  18.728  -0.976  1.00 20.00     0.010 C 
HETATM   11  C10 UNL     1     -34.782  17.097  -0.041  1.00 20.00     0.010 C 
ENDBRANCH   6   9
TORSDOF 1
ENDMDL
MODEL 4
REMARK VINA RESULT:      -4.4      1.204      2.692
REMARK  1 active torsions:
REMARK  status: ('A' for Active; 'I' for Inactive)
REMARK    1  A    between atoms: C6_6  and  C11_11 
ROOT
HETATM    1  C1  UNL     1     -33.716  16.445  -1.868  1.00 20.00     0.003 C 
HETATM    2  C2  UNL     1     -33.751  15.862  -3.076  1.00 20.00    -0.016 C 
HETATM    3  C3  UNL     1     -35.963  17.321  -2.063  1.00 20.00    -0.019 C 
HETATM    4  C4  UNL     1     -34.886  17.080  -1.296  1.00 20.00    -0.066 C 
HETATM    5  C5  UNL     1     -36.008  16.949  -3.521  1.00 20.00     0.041 C 
HETATM    6  C6  UNL     1     -35.006  15.830  -3.930  1.00 20.00    -0.020 C 
HETATM    7  C7  UNL     1     -34.811  17.469   0.149  1.00 20.00     0.048 C 
HETATM    8  C8  UNL     1     -34.631  16.014  -5.410  1.00 20.00     0.020 C 
ENDROOT
BRANCH   6   9
HETATM    9  C11 UNL     1     -35.663  14.446  -3.755  1.00 20.00    -0.011 C 
HETATM   10  C9  UNL     1     -37.145  14.525  -4.097  1.00 20.00     0.010 C 
HETATM   11  C10 UNL     1     -34.954  13.416  -4.622  1.00 20.00     0.010 C 
ENDBRANCH   6   9
TORSDOF 1
ENDMDL
MODEL 5
REMARK VINA RESULT:      -4.4      1.077      2.182
REMARK  1 active torsions:
REMARK  status: ('A' for Active; 'I' for Inactive)
REMARK    1  A    between atoms: C6_6  and  C11_11 
ROOT
HETATM    1  C1  UNL     1     -34.430  17.683  -3.493  1.00 20.00     0.003 C 
HETATM    2  C2  UNL     1     -34.943  17.134  -4.604  1.00 20.00    -0.016 C 
HETATM    3  C3  UNL     1     -34.940  15.754  -2.126  1.00 20.00    -0.019 C 
HETATM    4  C4  UNL     1     -34.310  16.934  -2.258  1.00 20.00    -0.066 C 
HETATM    5  C5  UNL     1     -35.778  15.164  -3.228  1.00 20.00     0.041 C 
HETATM    6  C6  UNL     1     -35.441  15.701  -4.650  1.00 20.00    -0.020 C 
HETATM    7  C7  UNL     1     -33.495  17.551  -1.163  1.00 20.00     0.048 C 
HETATM    8  C8  UNL     1     -36.702  15.618  -5.526  1.00 20.00     0.020 C 
ENDROOT
BRANCH   6   9
HETATM    9  C11 UNL     1     -34.337  14.836  -5.290  1.00 20.00    -0.011 C 
HETATM   10  C9  UNL     1     -34.518  13.378  -4.891  1.00 20.00     0.010 C 
HETATM   11  C10 UNL     1     -34.356  14.998  -6.803  1.00 20.00     0.010 C 
ENDBRANCH   6   9
TORSDOF 1
ENDMDL
MODEL 6
REMARK VINA RESULT:      -4.3      1.386      1.777
REMARK  1 active torsions:
REMARK  status: ('A' for Active; 'I' for Inactive)
REMARK    1  A    between atoms: C6_6  and  C11_11 
ROOT
HETATM    1  C1  UNL     1     -34.700  16.689  -1.983  1.00 20.00     0.003 C 
HETATM    2  C2  UNL     1     -34.722  15.441  -2.477  1.00 20.00    -0.016 C 
HETATM    3  C3  UNL     1     -33.541  17.588  -3.907  1.00 20.00    -0.019 C 
HETATM    4  C4  UNL     1     -34.213  17.809  -2.764  1.00 20.00    -0.066 C 
HETATM    5  C5  UNL     1     -33.268  16.200  -4.422  1.00 20.00     0.041 C 
HETATM    6  C6  UNL     1     -34.236  15.110  -3.876  1.00 20.00    -0.020 C 
HETATM    7  C7  UNL     1     -34.470  19.181  -2.221  1.00 20.00     0.048 C 
HETATM    8  C8  UNL     1     -33.507  13.756  -3.865  1.00 20.00     0.020 C 
ENDROOT
BRANCH   6   9
HETATM    9  C11 UNL     1     -35.471  14.998  -4.792  1.00 20.00    -0.011 C 
HETATM   10  C9  UNL     1     -35.127  14.192  -6.037  1.00 20.00     0.010 C 
HETATM   11  C10 UNL     1     -36.630  14.369  -4.033  1.00 20.00     0.010 C 
ENDBRANCH   6   9
TORSDOF 1
ENDMDL
MODEL 7
REMARK VINA RESULT:      -4.3      1.309      4.125
REMARK  1 active torsions:
REMARK  status: ('A' for Active; 'I' for Inactive)
REMARK    1  A    between atoms: C6_6  and  C11_11 
ROOT
HETATM    1  C1  UNL     1     -36.730  16.478  -5.993  1.00 20.00     0.003 C 
HETATM    2  C2  UNL     1     -35.680  16.651  -5.176  1.00 20.00    -0.016 C 
HETATM    3  C3  UNL     1     -35.738  14.574  -7.107  1.00 20.00    -0.019 C 
HETATM    4  C4  UNL     1     -36.818  15.343  -6.890  1.00 20.00    -0.066 C 
HETATM    5  C5  UNL     1     -34.415  14.843  -6.443  1.00 20.00     0.041 C 
HETATM    6  C6  UNL     1     -34.511  15.684  -5.135  1.00 20.00    -0.020 C 
HETATM    7  C7  UNL     1     -38.136  15.109  -7.563  1.00 20.00     0.048 C 
HETATM    8  C8  UNL     1     -33.199  16.464  -4.946  1.00 20.00     0.020 C 
ENDROOT
BRANCH   6   9
HETATM    9  C11 UNL     1     -34.710  14.750  -3.925  1.00 20.00    -0.011 C 
HETATM   10  C9  UNL     1     -33.623  13.684  -3.903  1.00 20.00     0.010 C 
HETATM   11  C10 UNL     1     -34.712  15.559  -2.635  1.00 20.00     0.010 C 
ENDBRANCH   6   9
TORSDOF 1
ENDMDL
MODEL 8
REMARK VINA RESULT:      -4.3      1.294      4.150
REMARK  1 active torsions:
REMARK  status: ('A' for Active; 'I' for Inactive)
REMARK    1  A    between atoms: C6_6  and  C11_11 
ROOT
HETATM    1  C1  UNL     1     -34.214  15.769  -6.711  1.00 20.00     0.003 C 
HETATM    2  C2  UNL     1     -33.525  16.072  -5.600  1.00 20.00    -0.016 C 
HETATM    3  C3  UNL     1     -35.482  14.019  -5.623  1.00 20.00    -0.019 C 
HETATM    4  C4  UNL     1     -35.302  14.811  -6.694  1.00 20.00    -0.066 C 
HETATM    5  C5  UNL     1     -34.587  14.087  -4.415  1.00 20.00     0.041 C 
HETATM    6  C6  UNL     1     -33.823  15.435  -4.255  1.00 20.00    -0.020 C 
HETATM    7  C7  UNL     1     -36.164  14.738  -7.916  1.00 20.00     0.048 C 
HETATM    8  C8  UNL     1     -32.509  15.178  -3.500  1.00 20.00     0.020 C 
ENDROOT
BRANCH   6   9
HETATM    9  C11 UNL     1     -34.676  16.428  -3.440  1.00 20.00    -0.011 C 
HETATM   10  C9  UNL     1     -34.692  16.021  -1.973  1.00 20.00     0.010 C 
HETATM   11  C10 UNL     1     -34.140  17.842  -3.612  1.00 20.00     0.010 C 
ENDBRANCH   6   9
TORSDOF 1
ENDMDL
MODEL 9
REMARK VINA RESULT:      -4.3      1.680      3.947
REMARK  1 active torsions:
REMARK  status: ('A' for Active; 'I' for Inactive)
REMARK    1  A    between atoms: C6_6  and  C11_11 
ROOT
HETATM    1  C1  UNL     1     -33.642  17.818  -5.728  1.00 20.00     0.003 C 
HETATM    2  C2  UNL     1     -33.424  17.105  -4.613  1.00 20.00    -0.016 C 
HETATM    3  C3  UNL     1     -34.687  15.967  -6.884  1.00 20.00    -0.019 C 
HETATM    4  C4  UNL     1     -34.400  17.279  -6.840  1.00 20.00    -0.066 C 
HETATM    5  C5  UNL     1     -34.249  15.014  -5.805  1.00 20.00     0.041 C 
HETATM    6  C6  UNL     1     -33.942  15.689  -4.436  1.00 20.00    -0.020 C 
HETATM    7  C7  UNL     1     -34.802  18.239  -7.918  1.00 20.00     0.048 C 
HETATM    8  C8  UNL     1     -32.899  14.844  -3.686  1.00 20.00     0.020 C 
ENDROOT
BRANCH   6   9
HETATM    9  C11 UNL     1     -35.226  15.758  -3.586  1.00 20.00    -0.011 C 
HETATM   10  C9  UNL     1     -36.040  14.483  -3.764  1.00 20.00     0.010 C 
HETATM   11  C10 UNL     1     -34.874  15.984  -2.122  1.00 20.00     0.010 C 
ENDBRANCH   6   9
TORSDOF 1
ENDMDL
