MODEL 1
REMARK VINA RESULT:      -5.2      0.000      0.000
REMARK  0 active torsions:
REMARK  status: ('A' for Active; 'I' for Inactive)
ROOT
HETATM    1  C1  UNL     1     -33.734   7.125   6.774  1.00 20.00     0.013 C 
HETATM    2  C2  UNL     1     -34.090   6.296   5.982  1.00 20.00    -0.106 C 
HETATM    3  C3  UNL     1     -35.320   5.788   3.846  1.00 20.00     0.041 A 
HETATM    4  C4  UNL     1     -33.921   5.278   3.639  1.00 20.00     0.079 A 
HETATM    5  C5  UNL     1     -34.517   5.300   5.032  1.00 20.00     0.033 A 
HETATM    6  C6  UNL     1     -34.904   3.980   5.643  1.00 20.00     0.030 C 
HETATM    7 BR7  UNL     1     -32.581   6.534   3.107  1.00 20.00    -0.089 Br
ENDROOT
TORSDOF 0
ENDMDL
MODEL 2
REMARK VINA RESULT:      -4.3      1.801      2.806
REMARK  0 active torsions:
REMARK  status: ('A' for Active; 'I' for Inactive)
ROOT
HETATM    1  C1  UNL     1     -32.301   6.488   3.222  1.00 20.00     0.013 C 
HETATM    2  C2  UNL     1     -33.258   6.092   3.830  1.00 20.00    -0.106 C 
HETATM    3  C3  UNL     1     -34.143   4.651   5.694  1.00 20.00     0.041 A 
HETATM    4  C4  UNL     1     -34.618   6.045   5.999  1.00 20.00     0.079 A 
HETATM    5  C5  UNL     1     -34.406   5.618   4.560  1.00 20.00     0.033 A 
HETATM    6  C6  UNL     1     -35.631   5.389   3.716  1.00 20.00     0.030 C 
HETATM    7 BR7  UNL     1     -33.403   7.232   6.876  1.00 20.00    -0.089 Br
ENDROOT
TORSDOF 0
ENDMDL
MODEL 3
REMARK VINA RESULT:      -3.7     12.040     12.782
REMARK  0 active torsions:
REMARK  status: ('A' for Active; 'I' for Inactive)
ROOT
HETATM    1  C1  UNL     1     -34.677  16.459  -1.197  1.00 20.00     0.013 C 
HETATM    2  C2  UNL     1     -34.461  15.935  -2.254  1.00 20.00    -0.106 C 
HETATM    3  C3  UNL     1     -34.443  13.814  -3.611  1.00 20.00     0.041 A 
HETATM    4  C4  UNL     1     -35.349  14.760  -4.349  1.00 20.00     0.079 A 
HETATM    5  C5  UNL     1     -34.200  15.305  -3.524  1.00 20.00     0.033 A 
HETATM    6  C6  UNL     1     -33.017  15.866  -4.267  1.00 20.00     0.030 C 
HETATM    7 BR7  UNL     1     -37.160  14.908  -3.757  1.00 20.00    -0.089 Br
ENDROOT
TORSDOF 0
ENDMDL
MODEL 4
REMARK VINA RESULT:      -3.5     12.446     12.896
REMARK  0 active torsions:
REMARK  status: ('A' for Active; 'I' for Inactive)
ROOT
HETATM    1  C1  UNL     1     -34.603  16.369  -1.558  1.00 20.00     0.013 C 
HETATM    2  C2  UNL     1     -34.639  15.635  -2.507  1.00 20.00    -0.106 C 
HETATM    3  C3  UNL     1     -36.045  14.243  -4.064  1.00 20.00     0.041 A 
HETATM    4  C4  UNL     1     -35.313  15.220  -4.942  1.00 20.00     0.079 A 
HETATM    5  C5  UNL     1     -34.683  14.753  -3.646  1.00 20.00     0.033 A 
HETATM    6  C6  UNL     1     -33.520  13.802  -3.743  1.00 20.00     0.030 C 
HETATM    7 BR7  UNL     1     -36.040  16.980  -5.120  1.00 20.00    -0.089 Br
ENDROOT
TORSDOF 0
ENDMDL
MODEL 5
REMARK VINA RESULT:      -3.5     12.184     12.927
REMARK  0 active torsions:
REMARK  status: ('A' for Active; 'I' for Inactive)
ROOT
HETATM    1  C1  UNL     1     -37.598  14.787  -3.829  1.00 20.00     0.013 C 
HETATM    2  C2  UNL     1     -36.419  14.887  -3.626  1.00 20.00    -0.106 C 
HETATM    3  C3  UNL     1     -34.160  13.777  -3.636  1.00 20.00     0.041 A 
HETATM    4  C4  UNL     1     -34.030  14.969  -4.543  1.00 20.00     0.079 A 
HETATM    5  C5  UNL     1     -35.004  15.007  -3.383  1.00 20.00     0.033 A 
HETATM    6  C6  UNL     1     -34.646  15.871  -2.204  1.00 20.00     0.030 C 
HETATM    7 BR7  UNL     1     -34.635  14.789  -6.348  1.00 20.00    -0.089 Br
ENDROOT
TORSDOF 0
ENDMDL
MODEL 6
REMARK VINA RESULT:      -3.5      9.531     10.019
REMARK  0 active torsions:
REMARK  status: ('A' for Active; 'I' for Inactive)
ROOT
HETATM    1  C1  UNL     1     -43.328   5.387   1.281  1.00 20.00     0.013 C 
HETATM    2  C2  UNL     1     -42.566   5.553   0.369  1.00 20.00    -0.106 C 
HETATM    3  C3  UNL     1     -40.708   4.611  -1.044  1.00 20.00     0.041 A 
HETATM    4  C4  UNL     1     -41.814   4.953  -2.004  1.00 20.00     0.079 A 
HETATM    5  C5  UNL     1     -41.650   5.751  -0.726  1.00 20.00     0.033 A 
HETATM    6  C6  UNL     1     -41.117   7.153  -0.846  1.00 20.00     0.030 C 
HETATM    7 BR7  UNL     1     -43.235   3.692  -2.217  1.00 20.00    -0.089 Br
ENDROOT
TORSDOF 0
ENDMDL
MODEL 7
REMARK VINA RESULT:      -3.4     12.738     13.196
REMARK  0 active torsions:
REMARK  status: ('A' for Active; 'I' for Inactive)
ROOT
HETATM    1  C1  UNL     1     -36.900  14.736  -3.795  1.00 20.00     0.013 C 
HETATM    2  C2  UNL     1     -35.824  15.137  -3.447  1.00 20.00    -0.106 C 
HETATM    3  C3  UNL     1     -33.329  14.803  -3.453  1.00 20.00     0.041 A 
HETATM    4  C4  UNL     1     -33.557  16.161  -4.057  1.00 20.00     0.079 A 
HETATM    5  C5  UNL     1     -34.531  15.618  -3.030  1.00 20.00     0.033 A 
HETATM    6  C6  UNL     1     -34.509  16.236  -1.658  1.00 20.00     0.030 C 
HETATM    7 BR7  UNL     1     -34.011  16.250  -5.912  1.00 20.00    -0.089 Br
ENDROOT
TORSDOF 0
ENDMDL
MODEL 8
REMARK VINA RESULT:      -3.4      9.016     10.119
REMARK  0 active torsions:
REMARK  status: ('A' for Active; 'I' for Inactive)
ROOT
HETATM    1  C1  UNL     1     -41.593   3.415  -2.579  1.00 20.00     0.013 C 
HETATM    2  C2  UNL     1     -41.715   4.202  -1.681  1.00 20.00    -0.106 C 
HETATM    3  C3  UNL     1     -40.740   6.143  -0.410  1.00 20.00     0.041 A 
HETATM    4  C4  UNL     1     -42.078   6.615  -0.907  1.00 20.00     0.079 A 
HETATM    5  C5  UNL     1     -41.862   5.146  -0.602  1.00 20.00     0.033 A 
HETATM    6  C6  UNL     1     -42.521   4.588   0.630  1.00 20.00     0.030 C 
HETATM    7 BR7  UNL     1     -42.190   7.255  -2.705  1.00 20.00    -0.089 Br
ENDROOT
TORSDOF 0
ENDMDL
MODEL 9
REMARK VINA RESULT:      -3.4     12.155     12.879
REMARK  0 active torsions:
REMARK  status: ('A' for Active; 'I' for Inactive)
ROOT
HETATM    1  C1  UNL     1     -36.999  14.801  -3.709  1.00 20.00     0.013 C 
HETATM    2  C2  UNL     1     -35.803  14.884  -3.636  1.00 20.00    -0.106 C 
HETATM    3  C3  UNL     1     -33.747  16.293  -3.981  1.00 20.00     0.041 A 
HETATM    4  C4  UNL     1     -33.734  15.907  -2.528  1.00 20.00     0.079 A 
HETATM    5  C5  UNL     1     -34.368  14.983  -3.549  1.00 20.00     0.033 A 
HETATM    6  C6  UNL     1     -33.634  13.714  -3.888  1.00 20.00     0.030 C 
HETATM    7 BR7  UNL     1     -34.798  16.939  -1.320  1.00 20.00    -0.089 Br
ENDROOT
TORSDOF 0
ENDMDL
