MODEL 1
REMARK VINA RESULT:      -4.1      0.000      0.000
REMARK  0 active torsions:
REMARK  status: ('A' for Active; 'I' for Inactive)
ROOT
HETATM    1  C1  UNL     1     -41.599   3.280  -2.689  1.00 20.00     0.179 C 
HETATM    2  C2  UNL     1     -40.823   6.068  -0.358  1.00 20.00    -0.010 C 
HETATM    3  C3  UNL     1     -41.130   7.090  -1.168  1.00 20.00    -0.023 C 
HETATM    4  C4  UNL     1     -41.197   4.645  -0.642  1.00 20.00     0.161 C 
HETATM    5  C5  UNL     1     -42.627   5.539  -2.462  1.00 20.00     0.143 C 
HETATM    6  C6  UNL     1     -41.926   6.905  -2.433  1.00 20.00     0.022 C 
HETATM    7  C7  UNL     1     -42.953   8.025  -2.599  1.00 20.00     0.016 C 
HETATM    8  N8  UNL     1     -41.547   2.256  -3.231  1.00 20.00    -0.172 NA
HETATM    9  N9  UNL     1     -41.660   4.471  -2.058  1.00 20.00    -0.316 N 
ENDROOT
TORSDOF 0
ENDMDL
MODEL 2
REMARK VINA RESULT:      -4.1     11.381     12.593
REMARK  0 active torsions:
REMARK  status: ('A' for Active; 'I' for Inactive)
ROOT
HETATM    1  C1  UNL     1     -34.991  13.853  -3.945  1.00 20.00     0.179 C 
HETATM    2  C2  UNL     1     -36.494  17.165  -3.182  1.00 20.00    -0.010 C 
HETATM    3  C3  UNL     1     -35.909  17.375  -1.994  1.00 20.00    -0.023 C 
HETATM    4  C4  UNL     1     -36.064  16.096  -4.138  1.00 20.00     0.161 C 
HETATM    5  C5  UNL     1     -34.076  15.798  -2.682  1.00 20.00     0.143 C 
HETATM    6  C6  UNL     1     -34.725  16.572  -1.526  1.00 20.00     0.022 C 
HETATM    7  C7  UNL     1     -33.689  17.472  -0.851  1.00 20.00     0.016 C 
HETATM    8  N8  UNL     1     -34.864  12.770  -4.340  1.00 20.00    -0.172 NA
HETATM    9  N9  UNL     1     -35.138  15.113  -3.484  1.00 20.00    -0.316 N 
ENDROOT
TORSDOF 0
ENDMDL
MODEL 3
REMARK VINA RESULT:      -4.1     11.029     12.207
REMARK  0 active torsions:
REMARK  status: ('A' for Active; 'I' for Inactive)
ROOT
HETATM    1  C1  UNL     1     -37.131  14.557  -3.800  1.00 20.00     0.179 C 
HETATM    2  C2  UNL     1     -33.424  14.329  -3.920  1.00 20.00    -0.010 C 
HETATM    3  C3  UNL     1     -33.140  15.580  -3.533  1.00 20.00    -0.023 C 
HETATM    4  C4  UNL     1     -34.785  13.714  -3.797  1.00 20.00     0.161 C 
HETATM    5  C5  UNL     1     -35.390  15.687  -2.419  1.00 20.00     0.143 C 
HETATM    6  C6  UNL     1     -34.164  16.479  -2.894  1.00 20.00     0.022 C 
HETATM    7  C7  UNL     1     -33.556  17.255  -1.726  1.00 20.00     0.016 C 
HETATM    8  N8  UNL     1     -38.250  14.394  -4.058  1.00 20.00    -0.172 NA
HETATM    9  N9  UNL     1     -35.830  14.748  -3.498  1.00 20.00    -0.316 N 
ENDROOT
TORSDOF 0
ENDMDL
MODEL 4
REMARK VINA RESULT:      -4.0     12.231     13.351
REMARK  0 active torsions:
REMARK  status: ('A' for Active; 'I' for Inactive)
ROOT
HETATM    1  C1  UNL     1     -34.406  13.868  -4.533  1.00 20.00     0.179 C 
HETATM    2  C2  UNL     1     -33.621  17.489  -4.826  1.00 20.00    -0.010 C 
HETATM    3  C3  UNL     1     -34.014  17.872  -3.604  1.00 20.00    -0.023 C 
HETATM    4  C4  UNL     1     -33.430  16.056  -5.222  1.00 20.00     0.161 C 
HETATM    5  C5  UNL     1     -33.665  15.512  -2.813  1.00 20.00     0.143 C 
HETATM    6  C6  UNL     1     -34.263  16.889  -2.491  1.00 20.00     0.022 C 
HETATM    7  C7  UNL     1     -33.701  17.409  -1.168  1.00 20.00     0.016 C 
HETATM    8  N8  UNL     1     -34.733  12.790  -4.809  1.00 20.00    -0.172 NA
HETATM    9  N9  UNL     1     -34.027  15.122  -4.211  1.00 20.00    -0.316 N 
ENDROOT
TORSDOF 0
ENDMDL
MODEL 5
REMARK VINA RESULT:      -4.0     11.624     12.786
REMARK  0 active torsions:
REMARK  status: ('A' for Active; 'I' for Inactive)
ROOT
HETATM    1  C1  UNL     1     -34.553  15.871  -2.209  1.00 20.00     0.179 C 
HETATM    2  C2  UNL     1     -34.634  13.256  -4.849  1.00 20.00    -0.010 C 
HETATM    3  C3  UNL     1     -35.009  14.030  -5.877  1.00 20.00    -0.023 C 
HETATM    4  C4  UNL     1     -34.154  13.799  -3.537  1.00 20.00     0.161 C 
HETATM    5  C5  UNL     1     -34.073  16.015  -4.651  1.00 20.00     0.143 C 
HETATM    6  C6  UNL     1     -34.942  15.533  -5.822  1.00 20.00     0.022 C 
HETATM    7  C7  UNL     1     -34.412  16.104  -7.137  1.00 20.00     0.016 C 
HETATM    8  N8  UNL     1     -34.646  16.393  -1.177  1.00 20.00    -0.172 NA
HETATM    9  N9  UNL     1     -34.444  15.265  -3.410  1.00 20.00    -0.316 N 
ENDROOT
TORSDOF 0
ENDMDL
MODEL 6
REMARK VINA RESULT:      -3.9     11.650     12.642
REMARK  0 active torsions:
REMARK  status: ('A' for Active; 'I' for Inactive)
ROOT
HETATM    1  C1  UNL     1     -35.294  14.460  -6.859  1.00 20.00     0.179 C 
HETATM    2  C2  UNL     1     -33.360  13.638  -3.794  1.00 20.00    -0.010 C 
HETATM    3  C3  UNL     1     -32.957  14.877  -3.480  1.00 20.00    -0.023 C 
HETATM    4  C4  UNL     1     -34.427  13.346  -4.804  1.00 20.00     0.161 C 
HETATM    5  C5  UNL     1     -34.911  15.780  -4.779  1.00 20.00     0.143 C 
HETATM    6  C6  UNL     1     -33.578  16.105  -4.091  1.00 20.00     0.022 C 
HETATM    7  C7  UNL     1     -33.784  17.193  -3.036  1.00 20.00     0.016 C 
HETATM    8  N8  UNL     1     -35.761  14.378  -7.918  1.00 20.00    -0.172 NA
HETATM    9  N9  UNL     1     -34.751  14.557  -5.627  1.00 20.00    -0.316 N 
ENDROOT
TORSDOF 0
ENDMDL
MODEL 7
REMARK VINA RESULT:      -3.9     11.006     12.267
REMARK  0 active torsions:
REMARK  status: ('A' for Active; 'I' for Inactive)
ROOT
HETATM    1  C1  UNL     1     -37.656  14.857  -3.673  1.00 20.00     0.179 C 
HETATM    2  C2  UNL     1     -35.193  17.108  -2.036  1.00 20.00    -0.010 C 
HETATM    3  C3  UNL     1     -34.122  16.304  -2.101  1.00 20.00    -0.023 C 
HETATM    4  C4  UNL     1     -36.459  16.862  -2.798  1.00 20.00     0.161 C 
HETATM    5  C5  UNL     1     -35.203  15.115  -4.034  1.00 20.00     0.143 C 
HETATM    6  C6  UNL     1     -34.079  15.088  -2.988  1.00 20.00     0.022 C 
HETATM    7  C7  UNL     1     -32.721  14.967  -3.681  1.00 20.00     0.016 C 
HETATM    8  N8  UNL     1     -38.653  14.325  -3.932  1.00 20.00    -0.172 NA
HETATM    9  N9  UNL     1     -36.495  15.476  -3.372  1.00 20.00    -0.316 N 
ENDROOT
TORSDOF 0
ENDMDL
MODEL 8
REMARK VINA RESULT:      -3.9     11.972     13.327
REMARK  0 active torsions:
REMARK  status: ('A' for Active; 'I' for Inactive)
ROOT
HETATM    1  C1  UNL     1     -34.699  16.827  -0.822  1.00 20.00     0.179 C 
HETATM    2  C2  UNL     1     -33.431  16.587  -4.307  1.00 20.00    -0.010 C 
HETATM    3  C3  UNL     1     -33.523  15.259  -4.456  1.00 20.00    -0.023 C 
HETATM    4  C4  UNL     1     -34.070  17.339  -3.180  1.00 20.00     0.161 C 
HETATM    5  C5  UNL     1     -35.272  15.234  -2.651  1.00 20.00     0.143 C 
HETATM    6  C6  UNL     1     -34.320  14.395  -3.516  1.00 20.00     0.022 C 
HETATM    7  C7  UNL     1     -35.108  13.334  -4.285  1.00 20.00     0.016 C 
HETATM    8  N8  UNL     1     -34.840  17.183   0.273  1.00 20.00    -0.172 NA
HETATM    9  N9  UNL     1     -34.537  16.413  -2.096  1.00 20.00    -0.316 N 
ENDROOT
TORSDOF 0
ENDMDL
MODEL 9
REMARK VINA RESULT:      -3.8     12.026     13.005
REMARK  0 active torsions:
REMARK  status: ('A' for Active; 'I' for Inactive)
ROOT
HETATM    1  C1  UNL     1     -34.700  13.700  -4.473  1.00 20.00     0.179 C 
HETATM    2  C2  UNL     1     -34.469  16.630  -2.199  1.00 20.00    -0.010 C 
HETATM    3  C3  UNL     1     -33.719  17.422  -2.978  1.00 20.00    -0.023 C 
HETATM    4  C4  UNL     1     -35.143  15.385  -2.690  1.00 20.00     0.161 C 
HETATM    5  C5  UNL     1     -34.538  16.136  -4.976  1.00 20.00     0.143 C 
HETATM    6  C6  UNL     1     -33.517  17.152  -4.446  1.00 20.00     0.022 C 
HETATM    7  C7  UNL     1     -33.597  18.447  -5.254  1.00 20.00     0.016 C 
HETATM    8  N8  UNL     1     -34.765  12.605  -4.849  1.00 20.00    -0.172 NA
HETATM    9  N9  UNL     1     -34.625  14.975  -4.037  1.00 20.00    -0.316 N 
ENDROOT
TORSDOF 0
ENDMDL
