MODEL 1
REMARK VINA RESULT:      -3.9      0.000      0.000
REMARK  0 active torsions:
REMARK  status: ('A' for Active; 'I' for Inactive)
ROOT
HETATM    1  C1  UNL     1     -31.888   6.983   2.901  1.00 20.00     0.013 C 
HETATM    2  C2  UNL     1     -32.769   6.668   3.654  1.00 20.00    -0.106 C 
HETATM    3  C3  UNL     1     -35.209   6.108   3.969  1.00 20.00     0.041 A 
HETATM    4  C4  UNL     1     -34.408   4.898   4.358  1.00 20.00     0.079 A 
HETATM    5  C5  UNL     1     -33.827   6.289   4.558  1.00 20.00     0.033 A 
HETATM    6  C6  UNL     1     -33.725   6.906   5.927  1.00 20.00     0.030 C 
HETATM    7 BR7  UNL     1     -35.009   3.850   5.837  1.00 20.00    -0.089 Br
ENDROOT
TORSDOF 0
ENDMDL
MODEL 2
REMARK VINA RESULT:      -3.8     12.033     12.661
REMARK  0 active torsions:
REMARK  status: ('A' for Active; 'I' for Inactive)
ROOT
HETATM    1  C1  UNL     1     -34.580  16.347  -1.503  1.00 20.00     0.013 C 
HETATM    2  C2  UNL     1     -34.598  15.634  -2.468  1.00 20.00    -0.106 C 
HETATM    3  C3  UNL     1     -35.969  14.268  -4.088  1.00 20.00     0.041 A 
HETATM    4  C4  UNL     1     -35.283  15.352  -4.870  1.00 20.00     0.079 A 
HETATM    5  C5  UNL     1     -34.620  14.776  -3.628  1.00 20.00     0.033 A 
HETATM    6  C6  UNL     1     -33.447  13.837  -3.730  1.00 20.00     0.030 C 
HETATM    7 BR7  UNL     1     -34.642  14.939  -6.621  1.00 20.00    -0.089 Br
ENDROOT
TORSDOF 0
ENDMDL
MODEL 3
REMARK VINA RESULT:      -3.8     11.633     12.459
REMARK  0 active torsions:
REMARK  status: ('A' for Active; 'I' for Inactive)
ROOT
HETATM    1  C1  UNL     1     -34.606  16.672  -0.740  1.00 20.00     0.013 C 
HETATM    2  C2  UNL     1     -34.477  16.268  -1.862  1.00 20.00    -0.106 C 
HETATM    3  C3  UNL     1     -32.972  15.215  -3.593  1.00 20.00     0.041 A 
HETATM    4  C4  UNL     1     -34.125  14.280  -3.360  1.00 20.00     0.079 A 
HETATM    5  C5  UNL     1     -34.322  15.781  -3.212  1.00 20.00     0.033 A 
HETATM    6  C6  UNL     1     -35.064  16.580  -4.250  1.00 20.00     0.030 C 
HETATM    7 BR7  UNL     1     -34.835  13.328  -4.856  1.00 20.00    -0.089 Br
ENDROOT
TORSDOF 0
ENDMDL
MODEL 4
REMARK VINA RESULT:      -3.6     11.888     12.883
REMARK  0 active torsions:
REMARK  status: ('A' for Active; 'I' for Inactive)
ROOT
HETATM    1  C1  UNL     1     -34.420  14.937  -7.157  1.00 20.00     0.013 C 
HETATM    2  C2  UNL     1     -34.567  14.793  -5.974  1.00 20.00    -0.106 C 
HETATM    3  C3  UNL     1     -33.592  14.011  -3.781  1.00 20.00     0.041 A 
HETATM    4  C4  UNL     1     -33.863  15.484  -3.662  1.00 20.00     0.079 A 
HETATM    5  C5  UNL     1     -34.742  14.620  -4.552  1.00 20.00     0.033 A 
HETATM    6  C6  UNL     1     -36.140  14.239  -4.141  1.00 20.00     0.030 C 
HETATM    7 BR7  UNL     1     -34.497  16.156  -1.990  1.00 20.00    -0.089 Br
ENDROOT
TORSDOF 0
ENDMDL
MODEL 5
REMARK VINA RESULT:      -3.6      2.345      3.532
REMARK  0 active torsions:
REMARK  status: ('A' for Active; 'I' for Inactive)
ROOT
HETATM    1  C1  UNL     1     -35.041   4.057   5.981  1.00 20.00     0.013 C 
HETATM    2  C2  UNL     1     -34.687   4.785   5.095  1.00 20.00    -0.106 C 
HETATM    3  C3  UNL     1     -34.542   7.139   4.196  1.00 20.00     0.041 A 
HETATM    4  C4  UNL     1     -33.139   6.630   4.373  1.00 20.00     0.079 A 
HETATM    5  C5  UNL     1     -34.261   5.662   4.031  1.00 20.00     0.033 A 
HETATM    6  C6  UNL     1     -34.396   5.074   2.651  1.00 20.00     0.030 C 
HETATM    7 BR7  UNL     1     -31.825   7.126   3.079  1.00 20.00    -0.089 Br
ENDROOT
TORSDOF 0
ENDMDL
MODEL 6
REMARK VINA RESULT:      -3.4      9.578     10.865
REMARK  0 active torsions:
REMARK  status: ('A' for Active; 'I' for Inactive)
ROOT
HETATM    1  C1  UNL     1     -41.474   2.106  -3.450  1.00 20.00     0.013 C 
HETATM    2  C2  UNL     1     -41.807   3.106  -2.875  1.00 20.00    -0.106 C 
HETATM    3  C3  UNL     1     -42.531   4.184  -0.711  1.00 20.00     0.041 A 
HETATM    4  C4  UNL     1     -41.238   4.824  -1.130  1.00 20.00     0.079 A 
HETATM    5  C5  UNL     1     -42.206   4.308  -2.183  1.00 20.00     0.033 A 
HETATM    6  C6  UNL     1     -43.043   5.250  -3.008  1.00 20.00     0.030 C 
HETATM    7 BR7  UNL     1     -41.010   6.695  -0.821  1.00 20.00    -0.089 Br
ENDROOT
TORSDOF 0
ENDMDL
MODEL 7
REMARK VINA RESULT:      -3.4      1.373      2.263
REMARK  0 active torsions:
REMARK  status: ('A' for Active; 'I' for Inactive)
ROOT
HETATM    1  C1  UNL     1     -32.149   8.619   1.823  1.00 20.00     0.013 C 
HETATM    2  C2  UNL     1     -32.433   7.692   2.531  1.00 20.00    -0.106 C 
HETATM    3  C3  UNL     1     -32.987   6.870   4.852  1.00 20.00     0.041 A 
HETATM    4  C4  UNL     1     -34.176   6.598   3.974  1.00 20.00     0.079 A 
HETATM    5  C5  UNL     1     -32.775   6.579   3.382  1.00 20.00     0.033 A 
HETATM    6  C6  UNL     1     -32.097   5.285   3.016  1.00 20.00     0.030 C 
HETATM    7 BR7  UNL     1     -35.159   4.985   4.254  1.00 20.00    -0.089 Br
ENDROOT
TORSDOF 0
ENDMDL
MODEL 8
REMARK VINA RESULT:      -3.3      9.270     10.545
REMARK  0 active torsions:
REMARK  status: ('A' for Active; 'I' for Inactive)
ROOT
HETATM    1  C1  UNL     1     -42.535   7.857  -3.786  1.00 20.00     0.013 C 
HETATM    2  C2  UNL     1     -42.280   7.079  -2.908  1.00 20.00    -0.106 C 
HETATM    3  C3  UNL     1     -40.991   6.594  -0.793  1.00 20.00     0.041 A 
HETATM    4  C4  UNL     1     -42.455   6.529  -0.462  1.00 20.00     0.079 A 
HETATM    5  C5  UNL     1     -41.974   6.145  -1.852  1.00 20.00     0.033 A 
HETATM    6  C6  UNL     1     -41.917   4.706  -2.293  1.00 20.00     0.030 C 
HETATM    7 BR7  UNL     1     -43.044   5.208   0.786  1.00 20.00    -0.089 Br
ENDROOT
TORSDOF 0
ENDMDL
MODEL 9
REMARK VINA RESULT:      -3.3     11.747     12.595
REMARK  0 active torsions:
REMARK  status: ('A' for Active; 'I' for Inactive)
ROOT
HETATM    1  C1  UNL     1     -33.454  13.677  -3.800  1.00 20.00     0.013 C 
HETATM    2  C2  UNL     1     -33.801  14.770  -3.444  1.00 20.00    -0.106 C 
HETATM    3  C3  UNL     1     -35.646  16.236  -2.541  1.00 20.00     0.041 A 
HETATM    4  C4  UNL     1     -34.530  16.234  -1.536  1.00 20.00     0.079 A 
HETATM    5  C5  UNL     1     -34.218  16.083  -3.016  1.00 20.00     0.033 A 
HETATM    6  C6  UNL     1     -33.620  17.214  -3.811  1.00 20.00     0.030 C 
HETATM    7 BR7  UNL     1     -34.151  17.855  -0.600  1.00 20.00    -0.089 Br
ENDROOT
TORSDOF 0
ENDMDL
