MODEL 1
REMARK VINA RESULT:      -5.2      0.000      0.000
REMARK  1 active torsions:
REMARK  status: ('A' for Active; 'I' for Inactive)
REMARK    1  A    between atoms: C4_4  and  C6_6 
ROOT
HETATM    1  C1  UNL     1     -34.229   6.187   5.882  1.00 20.00     0.062 C 
HETATM    2  C2  UNL     1     -35.528   5.203   4.512  1.00 20.00     0.062 C 
HETATM    3  C3  UNL     1     -33.825   4.185   5.284  1.00 20.00     0.062 C 
HETATM    4  C4  UNL     1     -33.978   5.531   4.462  1.00 20.00     0.067 C 
HETATM    5  C5  UNL     1     -35.046   4.872   5.947  1.00 20.00     0.106 C 
HETATM    6  F7  UNL     1     -35.772   4.422   6.957  1.00 20.00    -0.243 F 
ENDROOT
BRANCH   4   7
HETATM    7  C6  UNL     1     -33.168   6.033   3.333  1.00 20.00     0.395 C 
HETATM    8  F8  UNL     1     -31.851   5.729   3.477  1.00 20.00    -0.170 F 
HETATM    9  F9  UNL     1     -33.567   5.505   2.146  1.00 20.00    -0.170 F 
HETATM   10  F10 UNL     1     -33.248   7.384   3.210  1.00 20.00    -0.170 F 
ENDBRANCH   4   7
TORSDOF 1
ENDMDL
MODEL 2
REMARK VINA RESULT:      -5.2      0.023      1.203
REMARK  1 active torsions:
REMARK  status: ('A' for Active; 'I' for Inactive)
REMARK    1  A    between atoms: C4_4  and  C6_6 
ROOT
HETATM    1  C1  UNL     1     -34.245   6.182   5.893  1.00 20.00     0.062 C 
HETATM    2  C2  UNL     1     -35.536   5.203   4.513  1.00 20.00     0.062 C 
HETATM    3  C3  UNL     1     -33.835   4.184   5.286  1.00 20.00     0.062 C 
HETATM    4  C4  UNL     1     -33.988   5.533   4.470  1.00 20.00     0.067 C 
HETATM    5  C5  UNL     1     -35.059   4.865   5.948  1.00 20.00     0.106 C 
HETATM    6  F7  UNL     1     -35.788   4.410   6.954  1.00 20.00    -0.243 F 
ENDROOT
BRANCH   4   7
HETATM    7  C6  UNL     1     -33.174   6.043   3.347  1.00 20.00     0.395 C 
HETATM    8  F8  UNL     1     -33.584   5.540   2.152  1.00 20.00    -0.170 F 
HETATM    9  F9  UNL     1     -33.234   7.397   3.247  1.00 20.00    -0.170 F 
HETATM   10  F10 UNL     1     -31.861   5.716   3.480  1.00 20.00    -0.170 F 
ENDBRANCH   4   7
TORSDOF 1
ENDMDL
MODEL 3
REMARK VINA RESULT:      -5.2      0.016      1.195
REMARK  1 active torsions:
REMARK  status: ('A' for Active; 'I' for Inactive)
REMARK    1  A    between atoms: C4_4  and  C6_6 
ROOT
HETATM    1  C1  UNL     1     -34.239   6.186   5.880  1.00 20.00     0.062 C 
HETATM    2  C2  UNL     1     -35.524   5.199   4.499  1.00 20.00     0.062 C 
HETATM    3  C3  UNL     1     -33.819   4.189   5.275  1.00 20.00     0.062 C 
HETATM    4  C4  UNL     1     -33.977   5.537   4.458  1.00 20.00     0.067 C 
HETATM    5  C5  UNL     1     -35.047   4.865   5.935  1.00 20.00     0.106 C 
HETATM    6  F7  UNL     1     -35.775   4.407   6.940  1.00 20.00    -0.243 F 
ENDROOT
BRANCH   4   7
HETATM    7  C6  UNL     1     -33.164   6.048   3.335  1.00 20.00     0.395 C 
HETATM    8  F8  UNL     1     -33.248   7.400   3.220  1.00 20.00    -0.170 F 
HETATM    9  F9  UNL     1     -31.847   5.745   3.480  1.00 20.00    -0.170 F 
HETATM   10  F10 UNL     1     -33.558   5.528   2.143  1.00 20.00    -0.170 F 
ENDBRANCH   4   7
TORSDOF 1
ENDMDL
MODEL 4
REMARK VINA RESULT:      -4.7      1.628      3.626
REMARK  1 active torsions:
REMARK  status: ('A' for Active; 'I' for Inactive)
REMARK    1  A    between atoms: C4_4  and  C6_6 
ROOT
HETATM    1  C1  UNL     1     -35.593   5.892   3.909  1.00 20.00     0.062 C 
HETATM    2  C2  UNL     1     -33.468   6.015   3.908  1.00 20.00     0.062 C 
HETATM    3  C3  UNL     1     -34.425   4.120   4.065  1.00 20.00     0.062 C 
HETATM    4  C4  UNL     1     -34.500   5.427   4.957  1.00 20.00     0.067 C 
HETATM    5  C5  UNL     1     -34.491   5.262   3.020  1.00 20.00     0.106 C 
HETATM    6  F7  UNL     1     -34.485   5.149   1.702  1.00 20.00    -0.243 F 
ENDROOT
BRANCH   4   7
HETATM    7  C6  UNL     1     -34.506   5.553   6.430  1.00 20.00     0.395 C 
HETATM    8  F8  UNL     1     -34.187   6.811   6.834  1.00 20.00    -0.170 F 
HETATM    9  F9  UNL     1     -35.724   5.266   6.959  1.00 20.00    -0.170 F 
HETATM   10  F10 UNL     1     -33.614   4.714   7.017  1.00 20.00    -0.170 F 
ENDBRANCH   4   7
TORSDOF 1
ENDMDL
MODEL 5
REMARK VINA RESULT:      -4.6      1.341      3.714
REMARK  1 active torsions:
REMARK  status: ('A' for Active; 'I' for Inactive)
REMARK    1  A    between atoms: C4_4  and  C6_6 
ROOT
HETATM    1  C1  UNL     1     -32.906   5.317   3.679  1.00 20.00     0.062 C 
HETATM    2  C2  UNL     1     -34.834   6.207   3.523  1.00 20.00     0.062 C 
HETATM    3  C3  UNL     1     -33.501   6.816   5.066  1.00 20.00     0.062 C 
HETATM    4  C4  UNL     1     -34.122   5.408   4.691  1.00 20.00     0.067 C 
HETATM    5  C5  UNL     1     -33.394   6.779   3.521  1.00 20.00     0.106 C 
HETATM    6  F7  UNL     1     -32.898   7.713   2.725  1.00 20.00    -0.243 F 
ENDROOT
BRANCH   4   7
HETATM    7  C6  UNL     1     -34.676   4.365   5.580  1.00 20.00     0.395 C 
HETATM    8  F8  UNL     1     -35.626   4.861   6.415  1.00 20.00    -0.170 F 
HETATM    9  F9  UNL     1     -35.254   3.355   4.879  1.00 20.00    -0.170 F 
HETATM   10  F10 UNL     1     -33.718   3.803   6.364  1.00 20.00    -0.170 F 
ENDBRANCH   4   7
TORSDOF 1
ENDMDL
MODEL 6
REMARK VINA RESULT:      -4.6      1.338      3.715
REMARK  1 active torsions:
REMARK  status: ('A' for Active; 'I' for Inactive)
REMARK    1  A    between atoms: C4_4  and  C6_6 
ROOT
HETATM    1  C1  UNL     1     -32.934   5.298   3.652  1.00 20.00     0.062 C 
HETATM    2  C2  UNL     1     -34.846   6.227   3.542  1.00 20.00     0.062 C 
HETATM    3  C3  UNL     1     -33.466   6.804   5.057  1.00 20.00     0.062 C 
HETATM    4  C4  UNL     1     -34.124   5.410   4.691  1.00 20.00     0.067 C 
HETATM    5  C5  UNL     1     -33.395   6.770   3.509  1.00 20.00     0.106 C 
HETATM    6  F7  UNL     1     -32.898   7.696   2.706  1.00 20.00    -0.243 F 
ENDROOT
BRANCH   4   7
HETATM    7  C6  UNL     1     -34.679   4.376   5.589  1.00 20.00     0.395 C 
HETATM    8  F8  UNL     1     -33.725   3.828   6.387  1.00 20.00    -0.170 F 
HETATM    9  F9  UNL     1     -35.640   4.877   6.410  1.00 20.00    -0.170 F 
HETATM   10  F10 UNL     1     -35.247   3.353   4.898  1.00 20.00    -0.170 F 
ENDBRANCH   4   7
TORSDOF 1
ENDMDL
MODEL 7
REMARK VINA RESULT:      -4.2     12.479     13.363
REMARK  1 active torsions:
REMARK  status: ('A' for Active; 'I' for Inactive)
REMARK    1  A    between atoms: C4_4  and  C6_6 
ROOT
HETATM    1  C1  UNL     1     -35.034  15.136  -3.007  1.00 20.00     0.062 C 
HETATM    2  C2  UNL     1     -33.017  14.903  -3.645  1.00 20.00     0.062 C 
HETATM    3  C3  UNL     1     -34.144  16.596  -4.273  1.00 20.00     0.062 C 
HETATM    4  C4  UNL     1     -34.377  15.039  -4.446  1.00 20.00     0.067 C 
HETATM    5  C5  UNL     1     -33.770  16.022  -2.883  1.00 20.00     0.106 C 
HETATM    6  F7  UNL     1     -33.357  16.693  -1.820  1.00 20.00    -0.243 F 
ENDROOT
BRANCH   4   7
HETATM    7  C6  UNL     1     -34.838  14.290  -5.634  1.00 20.00     0.395 C 
HETATM    8  F8  UNL     1     -36.135  14.562  -5.935  1.00 20.00    -0.170 F 
HETATM    9  F9  UNL     1     -34.105  14.587  -6.738  1.00 20.00    -0.170 F 
HETATM   10  F10 UNL     1     -34.751  12.946  -5.453  1.00 20.00    -0.170 F 
ENDBRANCH   4   7
TORSDOF 1
ENDMDL
MODEL 8
REMARK VINA RESULT:      -4.2     11.824     12.905
REMARK  1 active torsions:
REMARK  status: ('A' for Active; 'I' for Inactive)
REMARK    1  A    between atoms: C4_4  and  C6_6 
ROOT
HETATM    1  C1  UNL     1     -35.927  14.396  -3.815  1.00 20.00     0.062 C 
HETATM    2  C2  UNL     1     -34.333  15.259  -4.932  1.00 20.00     0.062 C 
HETATM    3  C3  UNL     1     -33.918  13.808  -3.431  1.00 20.00     0.062 C 
HETATM    4  C4  UNL     1     -34.643  15.216  -3.379  1.00 20.00     0.067 C 
HETATM    5  C5  UNL     1     -34.804  13.801  -4.702  1.00 20.00     0.106 C 
HETATM    6  F7  UNL     1     -34.913  12.838  -5.602  1.00 20.00    -0.243 F 
ENDROOT
BRANCH   4   7
HETATM    7  C6  UNL     1     -34.522  16.292  -2.373  1.00 20.00     0.395 C 
HETATM    8  F8  UNL     1     -35.347  17.337  -2.644  1.00 20.00    -0.170 F 
HETATM    9  F9  UNL     1     -34.831  15.858  -1.123  1.00 20.00    -0.170 F 
HETATM   10  F10 UNL     1     -33.260  16.794  -2.315  1.00 20.00    -0.170 F 
ENDBRANCH   4   7
TORSDOF 1
ENDMDL
MODEL 9
REMARK VINA RESULT:      -4.2     12.203     14.042
REMARK  1 active torsions:
REMARK  status: ('A' for Active; 'I' for Inactive)
REMARK    1  A    between atoms: C4_4  and  C6_6 
ROOT
HETATM    1  C1  UNL     1     -35.432  16.167  -5.244  1.00 20.00     0.062 C 
HETATM    2  C2  UNL     1     -33.306  16.256  -5.313  1.00 20.00     0.062 C 
HETATM    3  C3  UNL     1     -34.356  14.885  -6.558  1.00 20.00     0.062 C 
HETATM    4  C4  UNL     1     -34.312  15.076  -4.986  1.00 20.00     0.067 C 
HETATM    5  C5  UNL     1     -34.415  16.424  -6.383  1.00 20.00     0.106 C 
HETATM    6  F7  UNL     1     -34.484  17.340  -7.335  1.00 20.00    -0.243 F 
ENDROOT
BRANCH   4   7
HETATM    7  C6  UNL     1     -34.234  14.053  -3.923  1.00 20.00     0.395 C 
HETATM    8  F8  UNL     1     -33.017  13.449  -3.886  1.00 20.00    -0.170 F 
HETATM    9  F9  UNL     1     -34.450  14.582  -2.690  1.00 20.00    -0.170 F 
HETATM   10  F10 UNL     1     -35.155  13.068  -4.095  1.00 20.00    -0.170 F 
ENDBRANCH   4   7
TORSDOF 1
ENDMDL
