MODEL 1
REMARK VINA RESULT:      -4.6      0.000      0.000
REMARK  0 active torsions:
REMARK  status: ('A' for Active; 'I' for Inactive)
ROOT
HETATM    1  C1  UNL     1     -33.705   7.118   6.927  1.00 20.00     0.014 C 
HETATM    2  C2  UNL     1     -34.070   6.364   6.067  1.00 20.00    -0.090 C 
HETATM    3  C3  UNL     1     -33.439   4.979   2.586  1.00 20.00     0.013 A 
HETATM    4  C4  UNL     1     -33.059   6.418   2.943  1.00 20.00     0.013 A 
HETATM    5  C5  UNL     1     -35.512   5.989   3.998  1.00 20.00     0.052 A 
HETATM    6  C6  UNL     1     -34.505   5.465   5.041  1.00 20.00     0.107 A 
HETATM    7  C7  UNL     1     -34.121   5.709   3.652  1.00 20.00    -0.005 A 
HETATM    8 CL8  UNL     1     -34.708   3.797   5.576  1.00 20.00    -0.104 Cl
ENDROOT
TORSDOF 0
ENDMDL
MODEL 2
REMARK VINA RESULT:      -4.5      1.814      2.988
REMARK  0 active torsions:
REMARK  status: ('A' for Active; 'I' for Inactive)
ROOT
HETATM    1  C1  UNL     1     -32.021   6.212   3.052  1.00 20.00     0.014 C 
HETATM    2  C2  UNL     1     -32.896   6.203   3.874  1.00 20.00    -0.090 C 
HETATM    3  C3  UNL     1     -35.169   4.088   6.064  1.00 20.00     0.013 A 
HETATM    4  C4  UNL     1     -34.697   3.583   4.698  1.00 20.00     0.013 A 
HETATM    5  C5  UNL     1     -35.400   6.173   4.357  1.00 20.00     0.052 A 
HETATM    6  C6  UNL     1     -33.939   6.192   4.854  1.00 20.00     0.107 A 
HETATM    7  C7  UNL     1     -34.788   5.010   4.997  1.00 20.00    -0.005 A 
HETATM    8 CL8  UNL     1     -33.599   7.159   6.289  1.00 20.00    -0.104 Cl
ENDROOT
TORSDOF 0
ENDMDL
MODEL 3
REMARK VINA RESULT:      -4.4     12.242     12.815
REMARK  0 active torsions:
REMARK  status: ('A' for Active; 'I' for Inactive)
ROOT
HETATM    1  C1  UNL     1     -34.594  16.448  -1.229  1.00 20.00     0.014 C 
HETATM    2  C2  UNL     1     -34.161  16.142  -2.307  1.00 20.00    -0.090 C 
HETATM    3  C3  UNL     1     -34.573  13.960  -5.389  1.00 20.00     0.013 A 
HETATM    4  C4  UNL     1     -35.025  13.471  -4.010  1.00 20.00     0.013 A 
HETATM    5  C5  UNL     1     -32.609  14.636  -3.658  1.00 20.00     0.052 A 
HETATM    6  C6  UNL     1     -33.644  15.778  -3.591  1.00 20.00     0.107 A 
HETATM    7  C7  UNL     1     -33.971  14.472  -4.161  1.00 20.00    -0.005 A 
HETATM    8 CL8  UNL     1     -33.402  17.136  -4.689  1.00 20.00    -0.104 Cl
ENDROOT
TORSDOF 0
ENDMDL
MODEL 4
REMARK VINA RESULT:      -4.1     11.907     12.463
REMARK  0 active torsions:
REMARK  status: ('A' for Active; 'I' for Inactive)
ROOT
HETATM    1  C1  UNL     1     -34.492  16.600  -1.058  1.00 20.00     0.014 C 
HETATM    2  C2  UNL     1     -34.895  16.125  -2.084  1.00 20.00    -0.090 C 
HETATM    3  C3  UNL     1     -34.630  13.272  -4.578  1.00 20.00     0.013 A 
HETATM    4  C4  UNL     1     -33.410  13.739  -3.782  1.00 20.00     0.013 A 
HETATM    5  C5  UNL     1     -34.679  15.975  -4.621  1.00 20.00     0.052 A 
HETATM    6  C6  UNL     1     -35.375  15.560  -3.308  1.00 20.00     0.107 A 
HETATM    7  C7  UNL     1     -34.530  14.634  -4.061  1.00 20.00    -0.005 A 
HETATM    8 CL8  UNL     1     -37.124  15.339  -3.371  1.00 20.00    -0.104 Cl
ENDROOT
TORSDOF 0
ENDMDL
MODEL 5
REMARK VINA RESULT:      -4.0     12.080     12.796
REMARK  0 active torsions:
REMARK  status: ('A' for Active; 'I' for Inactive)
ROOT
HETATM    1  C1  UNL     1     -34.682  16.289  -1.686  1.00 20.00     0.014 C 
HETATM    2  C2  UNL     1     -34.565  15.516  -2.597  1.00 20.00    -0.090 C 
HETATM    3  C3  UNL     1     -34.487  15.044  -6.366  1.00 20.00     0.013 A 
HETATM    4  C4  UNL     1     -35.341  16.142  -5.726  1.00 20.00     0.013 A 
HETATM    5  C5  UNL     1     -35.702  13.919  -4.228  1.00 20.00     0.052 A 
HETATM    6  C6  UNL     1     -34.427  14.594  -3.684  1.00 20.00     0.107 A 
HETATM    7  C7  UNL     1     -34.978  14.930  -4.995  1.00 20.00    -0.005 A 
HETATM    8 CL8  UNL     1     -32.970  13.603  -3.615  1.00 20.00    -0.104 Cl
ENDROOT
TORSDOF 0
ENDMDL
MODEL 6
REMARK VINA RESULT:      -4.0     12.168     13.329
REMARK  0 active torsions:
REMARK  status: ('A' for Active; 'I' for Inactive)
ROOT
HETATM    1  C1  UNL     1     -34.221  15.692  -6.811  1.00 20.00     0.014 C 
HETATM    2  C2  UNL     1     -34.168  15.259  -5.693  1.00 20.00    -0.090 C 
HETATM    3  C3  UNL     1     -34.516  16.004  -1.984  1.00 20.00     0.013 A 
HETATM    4  C4  UNL     1     -34.026  17.075  -2.961  1.00 20.00     0.013 A 
HETATM    5  C5  UNL     1     -32.747  14.787  -3.629  1.00 20.00     0.052 A 
HETATM    6  C6  UNL     1     -34.105  14.743  -4.359  1.00 20.00     0.107 A 
HETATM    7  C7  UNL     1     -33.860  15.651  -3.240  1.00 20.00    -0.005 A 
HETATM    8 CL8  UNL     1     -35.111  13.322  -4.081  1.00 20.00    -0.104 Cl
ENDROOT
TORSDOF 0
ENDMDL
MODEL 7
REMARK VINA RESULT:      -3.9     11.856     13.140
REMARK  0 active torsions:
REMARK  status: ('A' for Active; 'I' for Inactive)
ROOT
HETATM    1  C1  UNL     1     -34.409  15.204  -6.805  1.00 20.00     0.014 C 
HETATM    2  C2  UNL     1     -34.760  14.942  -5.687  1.00 20.00    -0.090 C 
HETATM    3  C3  UNL     1     -34.708  15.956  -2.026  1.00 20.00     0.013 A 
HETATM    4  C4  UNL     1     -33.532  16.279  -2.951  1.00 20.00     0.013 A 
HETATM    5  C5  UNL     1     -34.259  13.732  -3.499  1.00 20.00     0.052 A 
HETATM    6  C6  UNL     1     -35.178  14.629  -4.354  1.00 20.00     0.107 A 
HETATM    7  C7  UNL     1     -34.427  15.156  -3.216  1.00 20.00    -0.005 A 
HETATM    8 CL8  UNL     1     -36.915  14.388  -4.175  1.00 20.00    -0.104 Cl
ENDROOT
TORSDOF 0
ENDMDL
MODEL 8
REMARK VINA RESULT:      -3.9      1.675      3.211
REMARK  0 active torsions:
REMARK  status: ('A' for Active; 'I' for Inactive)
ROOT
HETATM    1  C1  UNL     1     -32.540   6.534   3.005  1.00 20.00     0.014 C 
HETATM    2  C2  UNL     1     -33.514   6.005   3.466  1.00 20.00    -0.090 C 
HETATM    3  C3  UNL     1     -35.386   5.000   6.616  1.00 20.00     0.013 A 
HETATM    4  C4  UNL     1     -33.857   5.058   6.592  1.00 20.00     0.013 A 
HETATM    5  C5  UNL     1     -34.614   3.857   4.290  1.00 20.00     0.052 A 
HETATM    6  C6  UNL     1     -34.675   5.374   4.016  1.00 20.00     0.107 A 
HETATM    7  C7  UNL     1     -34.633   4.835   5.375  1.00 20.00    -0.005 A 
HETATM    8 CL8  UNL     1     -36.204   6.013   3.414  1.00 20.00    -0.104 Cl
ENDROOT
TORSDOF 0
ENDMDL
MODEL 9
REMARK VINA RESULT:      -3.9      8.551     10.128
REMARK  0 active torsions:
REMARK  status: ('A' for Active; 'I' for Inactive)
ROOT
HETATM    1  C1  UNL     1     -42.293   7.300  -3.132  1.00 20.00     0.014 C 
HETATM    2  C2  UNL     1     -41.960   6.513  -2.289  1.00 20.00    -0.090 C 
HETATM    3  C3  UNL     1     -42.901   4.726   0.929  1.00 20.00     0.013 A 
HETATM    4  C4  UNL     1     -43.412   6.138   0.633  1.00 20.00     0.013 A 
HETATM    5  C5  UNL     1     -40.796   6.108  -0.057  1.00 20.00     0.052 A 
HETATM    6  C6  UNL     1     -41.564   5.575  -1.284  1.00 20.00     0.107 A 
HETATM    7  C7  UNL     1     -42.174   5.632   0.044  1.00 20.00    -0.005 A 
HETATM    8 CL8  UNL     1     -41.067   4.003  -1.911  1.00 20.00    -0.104 Cl
ENDROOT
TORSDOF 0
ENDMDL
