MODEL 1
REMARK VINA RESULT:      -5.3      0.000      0.000
REMARK  1 active torsions:
REMARK  status: ('A' for Active; 'I' for Inactive)
REMARK    1  A    between atoms: C5_5  and  C6_6 
ROOT
HETATM    1  C1  UNL     1     -35.619   5.673   3.712  1.00 20.00     0.024 A 
HETATM    2  C2  UNL     1     -34.840   4.254   5.774  1.00 20.00     0.275 C 
HETATM    3  C3  UNL     1     -33.902   6.426   5.533  1.00 20.00     0.285 C 
HETATM    4  C4  UNL     1     -34.796   4.563   4.314  1.00 20.00     0.030 A 
HETATM    5  C5  UNL     1     -34.189   5.907   4.152  1.00 20.00     0.051 A 
HETATM    6  N7  UNL     1     -34.644   5.547   6.461  1.00 20.00     0.084 N 
HETATM    7  H18 UNL     1     -35.565   5.961   6.615  1.00 20.00     0.315 HD
ENDROOT
BRANCH   5   8
HETATM    8  C6  UNL     1     -33.146   6.145   3.106  1.00 20.00     0.363 C 
HETATM    9  F8  UNL     1     -31.951   5.645   3.519  1.00 20.00    -0.214 F 
HETATM   10  F9  UNL     1     -32.963   7.480   2.930  1.00 20.00    -0.214 F 
ENDBRANCH   5   8
TORSDOF 1
ENDMDL
MODEL 2
REMARK VINA RESULT:      -4.3      2.582      3.107
REMARK  1 active torsions:
REMARK  status: ('A' for Active; 'I' for Inactive)
REMARK    1  A    between atoms: C5_5  and  C6_6 
ROOT
HETATM    1  C1  UNL     1     -34.719   3.899   4.882  1.00 20.00     0.024 A 
HETATM    2  C2  UNL     1     -35.258   5.683   3.038  1.00 20.00     0.275 C 
HETATM    3  C3  UNL     1     -33.226   5.948   4.247  1.00 20.00     0.285 C 
HETATM    4  C4  UNL     1     -35.471   5.114   4.402  1.00 20.00     0.030 A 
HETATM    5  C5  UNL     1     -34.216   5.298   5.172  1.00 20.00     0.051 A 
HETATM    6  N7  UNL     1     -33.795   5.821   2.887  1.00 20.00     0.084 N 
HETATM    7  H18 UNL     1     -33.440   4.953   2.480  1.00 20.00     0.315 HD
ENDROOT
BRANCH   5   8
HETATM    8  C6  UNL     1     -34.258   5.798   6.581  1.00 20.00     0.363 C 
HETATM    9  F8  UNL     1     -35.474   5.536   7.131  1.00 20.00    -0.214 F 
HETATM   10  F9  UNL     1     -34.112   7.149   6.598  1.00 20.00    -0.214 F 
ENDBRANCH   5   8
TORSDOF 1
ENDMDL
MODEL 3
REMARK VINA RESULT:      -4.0     11.822     12.664
REMARK  1 active torsions:
REMARK  status: ('A' for Active; 'I' for Inactive)
REMARK    1  A    between atoms: C5_5  and  C6_6 
ROOT
HETATM    1  C1  UNL     1     -35.737  15.432  -3.168  1.00 20.00     0.024 A 
HETATM    2  C2  UNL     1     -33.848  17.052  -2.344  1.00 20.00     0.275 C 
HETATM    3  C3  UNL     1     -33.590  16.092  -4.505  1.00 20.00     0.285 C 
HETATM    4  C4  UNL     1     -34.521  15.719  -2.325  1.00 20.00     0.030 A 
HETATM    5  C5  UNL     1     -34.344  15.102  -3.662  1.00 20.00     0.051 A 
HETATM    6  N7  UNL     1     -33.643  17.375  -3.771  1.00 20.00     0.084 N 
HETATM    7  H18 UNL     1     -34.464  17.888  -4.096  1.00 20.00     0.315 HD
ENDROOT
BRANCH   5   8
HETATM    8  C6  UNL     1     -33.947  13.664  -3.786  1.00 20.00     0.363 C 
HETATM    9  F8  UNL     1     -32.608  13.534  -3.587  1.00 20.00    -0.214 F 
HETATM   10  F9  UNL     1     -34.193  13.222  -5.047  1.00 20.00    -0.214 F 
ENDBRANCH   5   8
TORSDOF 1
ENDMDL
MODEL 4
REMARK VINA RESULT:      -4.0     11.543     12.463
REMARK  1 active torsions:
REMARK  status: ('A' for Active; 'I' for Inactive)
REMARK    1  A    between atoms: C5_5  and  C6_6 
ROOT
HETATM    1  C1  UNL     1     -36.526  14.726  -3.740  1.00 20.00     0.024 A 
HETATM    2  C2  UNL     1     -34.919  14.010  -5.684  1.00 20.00     0.275 C 
HETATM    3  C3  UNL     1     -34.132  13.714  -3.458  1.00 20.00     0.285 C 
HETATM    4  C4  UNL     1     -35.554  15.066  -4.841  1.00 20.00     0.030 A 
HETATM    5  C5  UNL     1     -35.049  14.905  -3.455  1.00 20.00     0.051 A 
HETATM    6  N7  UNL     1     -34.382  13.012  -4.736  1.00 20.00     0.084 N 
HETATM    7  H18 UNL     1     -35.110  12.314  -4.572  1.00 20.00     0.315 HD
ENDROOT
BRANCH   5   8
HETATM    8  C6  UNL     1     -34.610  16.098  -2.665  1.00 20.00     0.363 C 
HETATM    9  F8  UNL     1     -33.301  16.366  -2.920  1.00 20.00    -0.214 F 
HETATM   10  F9  UNL     1     -34.695  15.831  -1.336  1.00 20.00    -0.214 F 
ENDBRANCH   5   8
TORSDOF 1
ENDMDL
MODEL 5
REMARK VINA RESULT:      -4.0     12.152     13.075
REMARK  1 active torsions:
REMARK  status: ('A' for Active; 'I' for Inactive)
REMARK    1  A    between atoms: C5_5  and  C6_6 
ROOT
HETATM    1  C1  UNL     1     -33.555  13.643  -3.815  1.00 20.00     0.024 A 
HETATM    2  C2  UNL     1     -34.714  14.490  -6.009  1.00 20.00     0.275 C 
HETATM    3  C3  UNL     1     -33.440  16.072  -4.772  1.00 20.00     0.285 C 
HETATM    4  C4  UNL     1     -34.779  14.091  -4.571  1.00 20.00     0.030 A 
HETATM    5  C5  UNL     1     -34.008  15.087  -3.788  1.00 20.00     0.051 A 
HETATM    6  N7  UNL     1     -33.598  15.453  -6.105  1.00 20.00     0.084 N 
HETATM    7  H18 UNL     1     -32.747  14.926  -6.308  1.00 20.00     0.315 HD
ENDROOT
BRANCH   5   8
HETATM    8  C6  UNL     1     -34.563  15.643  -2.514  1.00 20.00     0.363 C 
HETATM    9  F8  UNL     1     -35.563  16.522  -2.788  1.00 20.00    -0.214 F 
HETATM   10  F9  UNL     1     -33.602  16.346  -1.858  1.00 20.00    -0.214 F 
ENDBRANCH   5   8
TORSDOF 1
ENDMDL
MODEL 6
REMARK VINA RESULT:      -3.9     11.785     12.896
REMARK  1 active torsions:
REMARK  status: ('A' for Active; 'I' for Inactive)
REMARK    1  A    between atoms: C5_5  and  C6_6 
ROOT
HETATM    1  C1  UNL     1     -34.789  15.787  -2.271  1.00 20.00     0.024 A 
HETATM    2  C2  UNL     1     -33.595  17.146  -4.167  1.00 20.00     0.275 C 
HETATM    3  C3  UNL     1     -35.247  15.571  -4.835  1.00 20.00     0.285 C 
HETATM    4  C4  UNL     1     -33.599  16.047  -3.157  1.00 20.00     0.030 A 
HETATM    5  C5  UNL     1     -34.610  15.046  -3.579  1.00 20.00     0.051 A 
HETATM    6  N7  UNL     1     -34.851  16.993  -4.928  1.00 20.00     0.084 N 
HETATM    7  H18 UNL     1     -35.569  17.549  -4.461  1.00 20.00     0.315 HD
ENDROOT
BRANCH   5   8
HETATM    8  C6  UNL     1     -34.291  13.584  -3.540  1.00 20.00     0.363 C 
HETATM    9  F8  UNL     1     -32.998  13.381  -3.907  1.00 20.00    -0.214 F 
HETATM   10  F9  UNL     1     -35.057  12.919  -4.444  1.00 20.00    -0.214 F 
ENDBRANCH   5   8
TORSDOF 1
ENDMDL
MODEL 7
REMARK VINA RESULT:      -3.9      2.607      3.483
REMARK  1 active torsions:
REMARK  status: ('A' for Active; 'I' for Inactive)
REMARK    1  A    between atoms: C5_5  and  C6_6 
ROOT
HETATM    1  C1  UNL     1     -34.005   6.780   5.659  1.00 20.00     0.024 A 
HETATM    2  C2  UNL     1     -32.903   6.245   3.341  1.00 20.00     0.275 C 
HETATM    3  C3  UNL     1     -35.088   5.390   3.729  1.00 20.00     0.285 C 
HETATM    4  C4  UNL     1     -33.034   6.001   4.809  1.00 20.00     0.030 A 
HETATM    5  C5  UNL     1     -34.387   5.444   5.057  1.00 20.00     0.051 A 
HETATM    6  N7  UNL     1     -34.280   6.217   2.807  1.00 20.00     0.084 N 
HETATM    7  H18 UNL     1     -34.646   7.170   2.839  1.00 20.00     0.315 HD
ENDROOT
BRANCH   5   8
HETATM    8  C6  UNL     1     -34.567   4.271   5.968  1.00 20.00     0.363 C 
HETATM    9  F8  UNL     1     -34.734   3.137   5.237  1.00 20.00    -0.214 F 
HETATM   10  F9  UNL     1     -35.700   4.424   6.703  1.00 20.00    -0.214 F 
ENDBRANCH   5   8
TORSDOF 1
ENDMDL
MODEL 8
REMARK VINA RESULT:      -3.9     11.711     12.610
REMARK  1 active torsions:
REMARK  status: ('A' for Active; 'I' for Inactive)
REMARK    1  A    between atoms: C5_5  and  C6_6 
ROOT
HETATM    1  C1  UNL     1     -33.309  16.142  -4.303  1.00 20.00     0.024 A 
HETATM    2  C2  UNL     1     -33.874  13.617  -3.884  1.00 20.00     0.275 C 
HETATM    3  C3  UNL     1     -35.526  15.216  -3.276  1.00 20.00     0.285 C 
HETATM    4  C4  UNL     1     -33.162  14.874  -3.503  1.00 20.00     0.030 A 
HETATM    5  C5  UNL     1     -34.184  15.870  -3.098  1.00 20.00     0.051 A 
HETATM    6  N7  UNL     1     -35.285  14.004  -4.087  1.00 20.00     0.084 N 
HETATM    7  H18 UNL     1     -35.400  14.258  -5.070  1.00 20.00     0.315 HD
ENDROOT
BRANCH   5   8
HETATM    8  C6  UNL     1     -33.990  16.697  -1.867  1.00 20.00     0.363 C 
HETATM    9  F8  UNL     1     -34.587  16.094  -0.804  1.00 20.00    -0.214 F 
HETATM   10  F9  UNL     1     -34.598  17.902  -2.017  1.00 20.00    -0.214 F 
ENDBRANCH   5   8
TORSDOF 1
ENDMDL
MODEL 9
REMARK VINA RESULT:      -3.8      9.036      9.954
REMARK  1 active torsions:
REMARK  status: ('A' for Active; 'I' for Inactive)
REMARK    1  A    between atoms: C5_5  and  C6_6 
ROOT
HETATM    1  C1  UNL     1     -42.513   5.700   0.006  1.00 20.00     0.024 A 
HETATM    2  C2  UNL     1     -40.915   7.576  -0.886  1.00 20.00     0.275 C 
HETATM    3  C3  UNL     1     -42.193   6.380  -2.497  1.00 20.00     0.285 C 
HETATM    4  C4  UNL     1     -41.137   6.201  -0.349  1.00 20.00     0.030 A 
HETATM    5  C5  UNL     1     -41.912   5.439  -1.359  1.00 20.00     0.051 A 
HETATM    6  N7  UNL     1     -41.883   7.735  -1.990  1.00 20.00     0.084 N 
HETATM    7  H18 UNL     1     -42.742   8.126  -1.599  1.00 20.00     0.315 HD
ENDROOT
BRANCH   5   8
HETATM    8  C6  UNL     1     -41.521   4.040  -1.717  1.00 20.00     0.363 C 
HETATM    9  F8  UNL     1     -40.179   3.881  -1.568  1.00 20.00    -0.214 F 
HETATM   10  F9  UNL     1     -41.794   3.802  -3.026  1.00 20.00    -0.214 F 
ENDBRANCH   5   8
TORSDOF 1
ENDMDL
