MODEL 1
REMARK VINA RESULT:      -5.7      0.000      0.000
REMARK  0 active torsions:
REMARK  status: ('A' for Active; 'I' for Inactive)
ROOT
HETATM    1  C1  UNL     1     -34.809   4.357   5.927  1.00 20.00    -0.004 C 
HETATM    2  C2  UNL     1     -34.246   5.584   6.433  1.00 20.00    -0.003 C 
HETATM    3  C3  UNL     1     -35.215   4.252   4.654  1.00 20.00    -0.025 C 
HETATM    4  C4  UNL     1     -33.920   6.591   5.610  1.00 20.00    -0.011 C 
HETATM    5  C5  UNL     1     -35.099   5.392   3.676  1.00 20.00     0.047 C 
HETATM    6  C6  UNL     1     -34.144   6.512   4.128  1.00 20.00     0.084 C 
HETATM    7 BR7  UNL     1     -32.377   6.226   3.317  1.00 20.00    -0.087 Br
ENDROOT
TORSDOF 0
ENDMDL
MODEL 2
REMARK VINA RESULT:      -4.1      1.934      3.243
REMARK  0 active torsions:
REMARK  status: ('A' for Active; 'I' for Inactive)
ROOT
HETATM    1  C1  UNL     1     -32.977   6.045   2.959  1.00 20.00    -0.004 C 
HETATM    2  C2  UNL     1     -34.286   5.513   2.676  1.00 20.00    -0.003 C 
HETATM    3  C3  UNL     1     -32.688   6.582   4.152  1.00 20.00    -0.025 C 
HETATM    4  C4  UNL     1     -35.195   5.347   3.649  1.00 20.00    -0.011 C 
HETATM    5  C5  UNL     1     -33.696   6.650   5.269  1.00 20.00     0.047 C 
HETATM    6  C6  UNL     1     -34.914   5.727   5.073  1.00 20.00     0.084 C 
HETATM    7 BR7  UNL     1     -34.618   4.045   6.045  1.00 20.00    -0.087 Br
ENDROOT
TORSDOF 0
ENDMDL
MODEL 3
REMARK VINA RESULT:      -3.9      1.502      2.415
REMARK  0 active torsions:
REMARK  status: ('A' for Active; 'I' for Inactive)
ROOT
HETATM    1  C1  UNL     1     -34.399   5.744   6.663  1.00 20.00    -0.004 C 
HETATM    2  C2  UNL     1     -34.931   4.493   6.183  1.00 20.00    -0.003 C 
HETATM    3  C3  UNL     1     -33.804   6.611   5.832  1.00 20.00    -0.025 C 
HETATM    4  C4  UNL     1     -35.034   4.239   4.870  1.00 20.00    -0.011 C 
HETATM    5  C5  UNL     1     -33.665   6.344   4.356  1.00 20.00     0.047 C 
HETATM    6  C6  UNL     1     -34.583   5.224   3.831  1.00 20.00     0.084 C 
HETATM    7 BR7  UNL     1     -36.214   6.019   3.078  1.00 20.00    -0.087 Br
ENDROOT
TORSDOF 0
ENDMDL
MODEL 4
REMARK VINA RESULT:      -3.8     12.208     13.509
REMARK  0 active torsions:
REMARK  status: ('A' for Active; 'I' for Inactive)
ROOT
HETATM    1  C1  UNL     1     -34.689  14.452  -5.924  1.00 20.00    -0.004 C 
HETATM    2  C2  UNL     1     -34.036  15.737  -5.907  1.00 20.00    -0.003 C 
HETATM    3  C3  UNL     1     -34.472  13.549  -4.957  1.00 20.00    -0.025 C 
HETATM    4  C4  UNL     1     -33.353  16.156  -4.831  1.00 20.00    -0.011 C 
HETATM    5  C5  UNL     1     -33.552  13.820  -3.796  1.00 20.00     0.047 C 
HETATM    6  C6  UNL     1     -33.208  15.308  -3.601  1.00 20.00     0.084 C 
HETATM    7 BR7  UNL     1     -34.408  16.083  -2.252  1.00 20.00    -0.087 Br
ENDROOT
TORSDOF 0
ENDMDL
MODEL 5
REMARK VINA RESULT:      -3.6      1.638      2.495
REMARK  0 active torsions:
REMARK  status: ('A' for Active; 'I' for Inactive)
ROOT
HETATM    1  C1  UNL     1     -35.378   5.389   3.600  1.00 20.00    -0.004 C 
HETATM    2  C2  UNL     1     -34.140   6.064   3.300  1.00 20.00    -0.003 C 
HETATM    3  C3  UNL     1     -35.546   4.724   4.752  1.00 20.00    -0.025 C 
HETATM    4  C4  UNL     1     -33.192   6.226   4.235  1.00 20.00    -0.011 C 
HETATM    5  C5  UNL     1     -34.469   4.650   5.802  1.00 20.00     0.047 C 
HETATM    6  C6  UNL     1     -33.352   5.696   5.630  1.00 20.00     0.084 C 
HETATM    7 BR7  UNL     1     -33.733   7.250   6.771  1.00 20.00    -0.087 Br
ENDROOT
TORSDOF 0
ENDMDL
MODEL 6
REMARK VINA RESULT:      -3.6     12.470     12.968
REMARK  0 active torsions:
REMARK  status: ('A' for Active; 'I' for Inactive)
ROOT
HETATM    1  C1  UNL     1     -34.973  13.467  -4.107  1.00 20.00    -0.004 C 
HETATM    2  C2  UNL     1     -33.548  13.592  -3.930  1.00 20.00    -0.003 C 
HETATM    3  C3  UNL     1     -35.804  14.467  -3.779  1.00 20.00    -0.025 C 
HETATM    4  C4  UNL     1     -32.985  14.771  -3.626  1.00 20.00    -0.011 C 
HETATM    5  C5  UNL     1     -35.307  15.775  -3.222  1.00 20.00     0.047 C 
HETATM    6  C6  UNL     1     -33.800  16.015  -3.430  1.00 20.00     0.084 C 
HETATM    7 BR7  UNL     1     -33.532  17.111  -5.038  1.00 20.00    -0.087 Br
ENDROOT
TORSDOF 0
ENDMDL
MODEL 7
REMARK VINA RESULT:      -3.6      8.887     10.033
REMARK  0 active torsions:
REMARK  status: ('A' for Active; 'I' for Inactive)
ROOT
HETATM    1  C1  UNL     1     -41.951   7.350  -2.000  1.00 20.00    -0.004 C 
HETATM    2  C2  UNL     1     -41.063   7.211  -0.873  1.00 20.00    -0.003 C 
HETATM    3  C3  UNL     1     -42.402   6.277  -2.666  1.00 20.00    -0.025 C 
HETATM    4  C4  UNL     1     -40.819   6.012  -0.323  1.00 20.00    -0.011 C 
HETATM    5  C5  UNL     1     -42.026   4.872  -2.275  1.00 20.00     0.047 C 
HETATM    6  C6  UNL     1     -41.430   4.752  -0.860  1.00 20.00     0.084 C 
HETATM    7 BR7  UNL     1     -42.848   4.244   0.402  1.00 20.00    -0.087 Br
ENDROOT
TORSDOF 0
ENDMDL
MODEL 8
REMARK VINA RESULT:      -3.5     12.518     12.893
REMARK  0 active torsions:
REMARK  status: ('A' for Active; 'I' for Inactive)
ROOT
HETATM    1  C1  UNL     1     -33.927  15.833  -2.830  1.00 20.00    -0.004 C 
HETATM    2  C2  UNL     1     -35.357  15.662  -2.882  1.00 20.00    -0.003 C 
HETATM    3  C3  UNL     1     -33.099  14.932  -3.376  1.00 20.00    -0.025 C 
HETATM    4  C4  UNL     1     -35.917  14.712  -3.646  1.00 20.00    -0.011 C 
HETATM    5  C5  UNL     1     -33.603  13.701  -4.082  1.00 20.00     0.047 C 
HETATM    6  C6  UNL     1     -35.093  13.763  -4.466  1.00 20.00     0.084 C 
HETATM    7 BR7  UNL     1     -35.261  14.356  -6.332  1.00 20.00    -0.087 Br
ENDROOT
TORSDOF 0
ENDMDL
MODEL 9
REMARK VINA RESULT:      -3.5     12.462     13.374
REMARK  0 active torsions:
REMARK  status: ('A' for Active; 'I' for Inactive)
ROOT
HETATM    1  C1  UNL     1     -33.450  13.687  -3.679  1.00 20.00    -0.004 C 
HETATM    2  C2  UNL     1     -32.890  15.014  -3.748  1.00 20.00    -0.003 C 
HETATM    3  C3  UNL     1     -34.696  13.436  -4.104  1.00 20.00    -0.025 C 
HETATM    4  C4  UNL     1     -33.509  15.996  -4.421  1.00 20.00    -0.011 C 
HETATM    5  C5  UNL     1     -35.578  14.508  -4.688  1.00 20.00     0.047 C 
HETATM    6  C6  UNL     1     -34.823  15.780  -5.114  1.00 20.00     0.084 C 
HETATM    7 BR7  UNL     1     -34.425  15.689  -7.036  1.00 20.00    -0.087 Br
ENDROOT
TORSDOF 0
ENDMDL
