MODEL 1
REMARK VINA RESULT:      -4.8      0.000      0.000
REMARK  2 active torsions:
REMARK  status: ('A' for Active; 'I' for Inactive)
REMARK    1  A    between atoms: C7_7  and  C9_9 
REMARK    2  A    between atoms: C8_8  and  C10_10 
ROOT
HETATM    1  C1  UNL     1     -32.038  18.910   0.141  1.00 20.00     0.012 C 
HETATM    2  C2  UNL     1     -32.979  18.459  -0.453  1.00 20.00    -0.112 C 
HETATM    3  C6  UNL     1     -34.103  17.919  -1.163  1.00 20.00     0.074 A 
HETATM    4  C9  UNL     1     -33.903  16.640  -1.946  1.00 20.00     0.011 A 
HETATM    5  C10 UNL     1     -34.695  16.616  -0.675  1.00 20.00     0.011 A 
ENDROOT
BRANCH   4   6
HETATM    6  C7  UNL     1     -34.877  16.105  -2.995  1.00 20.00    -0.008 C 
HETATM    7  C3  UNL     1     -34.583  16.858  -4.315  1.00 20.00     0.005 C 
HETATM    8  C4  UNL     1     -33.215  16.271  -4.745  1.00 20.00     0.005 C 
HETATM    9  C8  UNL     1     -32.907  15.261  -3.614  1.00 20.00    -0.008 C 
HETATM   10  C5  UNL     1     -34.319  14.717  -3.345  1.00 20.00     0.010 C 
ENDBRANCH   4   6
TORSDOF 2
ENDMDL
MODEL 2
REMARK VINA RESULT:      -4.8      1.474      2.598
REMARK  2 active torsions:
REMARK  status: ('A' for Active; 'I' for Inactive)
REMARK    1  A    between atoms: C7_7  and  C9_9 
REMARK    2  A    between atoms: C8_8  and  C10_10 
ROOT
HETATM    1  C1  UNL     1     -35.127  17.313   0.205  1.00 20.00     0.012 C 
HETATM    2  C2  UNL     1     -34.440  17.045  -0.743  1.00 20.00    -0.112 C 
HETATM    3  C6  UNL     1     -33.619  16.726  -1.876  1.00 20.00     0.074 A 
HETATM    4  C9  UNL     1     -34.248  15.952  -3.014  1.00 20.00     0.011 A 
HETATM    5  C10 UNL     1     -33.926  17.405  -3.192  1.00 20.00     0.011 A 
ENDROOT
BRANCH   4   6
HETATM    6  C7  UNL     1     -33.464  15.264  -4.131  1.00 20.00    -0.008 C 
HETATM    7  C3  UNL     1     -33.464  13.748  -3.819  1.00 20.00     0.005 C 
HETATM    8  C4  UNL     1     -34.934  13.344  -4.094  1.00 20.00     0.005 C 
HETATM    9  C8  UNL     1     -35.580  14.682  -4.525  1.00 20.00    -0.008 C 
HETATM   10  C5  UNL     1     -34.424  15.294  -5.330  1.00 20.00     0.010 C 
ENDBRANCH   4   6
TORSDOF 2
ENDMDL
MODEL 3
REMARK VINA RESULT:      -4.4      2.031      3.501
REMARK  2 active torsions:
REMARK  status: ('A' for Active; 'I' for Inactive)
REMARK    1  A    between atoms: C7_7  and  C9_9 
REMARK    2  A    between atoms: C8_8  and  C10_10 
ROOT
HETATM    1  C1  UNL     1     -34.417  16.696  -1.230  1.00 20.00     0.012 C 
HETATM    2  C2  UNL     1     -34.583  15.885  -2.101  1.00 20.00    -0.112 C 
HETATM    3  C6  UNL     1     -34.781  14.916  -3.140  1.00 20.00     0.074 A 
HETATM    4  C9  UNL     1     -34.516  15.341  -4.568  1.00 20.00     0.011 A 
HETATM    5  C10 UNL     1     -33.565  14.408  -3.882  1.00 20.00     0.011 A 
ENDROOT
BRANCH   4   6
HETATM    6  C7  UNL     1     -34.967  14.561  -5.802  1.00 20.00    -0.008 C 
HETATM    7  C3  UNL     1     -36.396  15.044  -6.148  1.00 20.00     0.005 C 
HETATM    8  C4  UNL     1     -36.151  16.477  -6.684  1.00 20.00     0.005 C 
HETATM    9  C8  UNL     1     -34.615  16.623  -6.573  1.00 20.00    -0.008 C 
HETATM   10  C5  UNL     1     -34.178  15.201  -6.955  1.00 20.00     0.010 C 
ENDBRANCH   4   6
TORSDOF 2
ENDMDL
MODEL 4
REMARK VINA RESULT:      -4.3      2.853      5.133
REMARK  2 active torsions:
REMARK  status: ('A' for Active; 'I' for Inactive)
REMARK    1  A    between atoms: C7_7  and  C9_9 
REMARK    2  A    between atoms: C8_8  and  C10_10 
ROOT
HETATM    1  C1  UNL     1     -34.891  18.015  -7.833  1.00 20.00     0.012 C 
HETATM    2  C2  UNL     1     -34.538  16.937  -7.439  1.00 20.00    -0.112 C 
HETATM    3  C6  UNL     1     -34.116  15.649  -6.968  1.00 20.00     0.074 A 
HETATM    4  C9  UNL     1     -34.802  15.079  -5.745  1.00 20.00     0.011 A 
HETATM    5  C10 UNL     1     -35.082  14.492  -7.095  1.00 20.00     0.011 A 
ENDROOT
BRANCH   4   6
HETATM    6  C7  UNL     1     -34.281  13.895  -4.932  1.00 20.00    -0.008 C 
HETATM    7  C3  UNL     1     -33.414  14.475  -3.789  1.00 20.00     0.005 C 
HETATM    8  C4  UNL     1     -34.469  15.127  -2.859  1.00 20.00     0.005 C 
HETATM    9  C8  UNL     1     -35.798  14.835  -3.596  1.00 20.00    -0.008 C 
HETATM   10  C5  UNL     1     -35.506  13.426  -4.133  1.00 20.00     0.010 C 
ENDBRANCH   4   6
TORSDOF 2
ENDMDL
MODEL 5
REMARK VINA RESULT:      -4.2     11.940     13.703
REMARK  2 active torsions:
REMARK  status: ('A' for Active; 'I' for Inactive)
REMARK    1  A    between atoms: C7_7  and  C9_9 
REMARK    2  A    between atoms: C8_8  and  C10_10 
ROOT
HETATM    1  C1  UNL     1     -41.925   8.790  -4.975  1.00 20.00     0.012 C 
HETATM    2  C2  UNL     1     -42.498   8.108  -4.170  1.00 20.00    -0.112 C 
HETATM    3  C6  UNL     1     -43.183   7.293  -3.208  1.00 20.00     0.074 A 
HETATM    4  C9  UNL     1     -42.384   6.735  -2.051  1.00 20.00     0.011 A 
HETATM    5  C10 UNL     1     -43.366   7.841  -1.810  1.00 20.00     0.011 A 
ENDROOT
BRANCH   4   6
HETATM    6  C7  UNL     1     -42.862   5.615  -1.128  1.00 20.00    -0.008 C 
HETATM    7  C3  UNL     1     -42.203   4.305  -1.624  1.00 20.00     0.005 C 
HETATM    8  C4  UNL     1     -40.717   4.501  -1.231  1.00 20.00     0.005 C 
HETATM    9  C8  UNL     1     -40.723   5.897  -0.563  1.00 20.00    -0.008 C 
HETATM   10  C5  UNL     1     -42.072   5.841   0.170  1.00 20.00     0.010 C 
ENDBRANCH   4   6
TORSDOF 2
ENDMDL
MODEL 6
REMARK VINA RESULT:      -4.1      1.302      2.425
REMARK  2 active torsions:
REMARK  status: ('A' for Active; 'I' for Inactive)
REMARK    1  A    between atoms: C7_7  and  C9_9 
REMARK    2  A    between atoms: C8_8  and  C10_10 
ROOT
HETATM    1  C1  UNL     1     -36.325  18.354   0.884  1.00 20.00     0.012 C 
HETATM    2  C2  UNL     1     -35.506  17.692   0.307  1.00 20.00    -0.112 C 
HETATM    3  C6  UNL     1     -34.528  16.902  -0.384  1.00 20.00     0.074 A 
HETATM    4  C9  UNL     1     -34.505  16.959  -1.895  1.00 20.00     0.011 A 
HETATM    5  C10 UNL     1     -33.414  17.622  -1.111  1.00 20.00     0.011 A 
ENDROOT
BRANCH   4   6
HETATM    6  C7  UNL     1     -33.761  15.968  -2.789  1.00 20.00    -0.008 C 
HETATM    7  C3  UNL     1     -34.780  14.880  -3.207  1.00 20.00     0.005 C 
HETATM    8  C4  UNL     1     -35.708  15.641  -4.188  1.00 20.00     0.005 C 
HETATM    9  C8  UNL     1     -35.096  17.063  -4.200  1.00 20.00    -0.008 C 
HETATM   10  C5  UNL     1     -33.602  16.716  -4.121  1.00 20.00     0.010 C 
ENDBRANCH   4   6
TORSDOF 2
ENDMDL
MODEL 7
REMARK VINA RESULT:      -4.0      2.188      5.036
REMARK  2 active torsions:
REMARK  status: ('A' for Active; 'I' for Inactive)
REMARK    1  A    between atoms: C7_7  and  C9_9 
REMARK    2  A    between atoms: C8_8  and  C10_10 
ROOT
HETATM    1  C1  UNL     1     -35.867  14.588  -7.916  1.00 20.00     0.012 C 
HETATM    2  C2  UNL     1     -35.260  14.399  -6.898  1.00 20.00    -0.112 C 
HETATM    3  C6  UNL     1     -34.534  14.173  -5.681  1.00 20.00     0.074 A 
HETATM    4  C9  UNL     1     -35.084  14.770  -4.404  1.00 20.00     0.011 A 
HETATM    5  C10 UNL     1     -35.167  13.291  -4.627  1.00 20.00     0.011 A 
ENDROOT
BRANCH   4   6
HETATM    6  C7  UNL     1     -34.298  14.899  -3.099  1.00 20.00    -0.008 C 
HETATM    7  C3  UNL     1     -33.055  15.770  -3.402  1.00 20.00     0.005 C 
HETATM    8  C4  UNL     1     -33.668  17.179  -3.607  1.00 20.00     0.005 C 
HETATM    9  C8  UNL     1     -35.179  16.926  -3.395  1.00 20.00    -0.008 C 
HETATM   10  C5  UNL     1     -35.125  15.888  -2.264  1.00 20.00     0.010 C 
ENDBRANCH   4   6
TORSDOF 2
ENDMDL
MODEL 8
REMARK VINA RESULT:      -4.0      1.339      4.303
REMARK  2 active torsions:
REMARK  status: ('A' for Active; 'I' for Inactive)
REMARK    1  A    between atoms: C7_7  and  C9_9 
REMARK    2  A    between atoms: C8_8  and  C10_10 
ROOT
HETATM    1  C1  UNL     1     -34.464  15.573  -6.863  1.00 20.00     0.012 C 
HETATM    2  C2  UNL     1     -33.896  15.828  -5.836  1.00 20.00    -0.112 C 
HETATM    3  C6  UNL     1     -33.219  16.134  -4.608  1.00 20.00     0.074 A 
HETATM    4  C9  UNL     1     -34.056  16.338  -3.365  1.00 20.00     0.011 A 
HETATM    5  C10 UNL     1     -33.233  15.095  -3.509  1.00 20.00     0.011 A 
ENDROOT
BRANCH   4   6
HETATM    6  C7  UNL     1     -33.545  16.968  -2.070  1.00 20.00    -0.008 C 
HETATM    7  C3  UNL     1     -33.791  18.492  -2.177  1.00 20.00     0.005 C 
HETATM    8  C4  UNL     1     -35.333  18.597  -2.058  1.00 20.00     0.005 C 
HETATM    9  C8  UNL     1     -35.763  17.120  -1.900  1.00 20.00    -0.008 C 
HETATM   10  C5  UNL     1     -34.612  16.593  -1.030  1.00 20.00     0.010 C 
ENDBRANCH   4   6
TORSDOF 2
ENDMDL
MODEL 9
REMARK VINA RESULT:      -4.0      1.289      4.247
REMARK  2 active torsions:
REMARK  status: ('A' for Active; 'I' for Inactive)
REMARK    1  A    between atoms: C7_7  and  C9_9 
REMARK    2  A    between atoms: C8_8  and  C10_10 
ROOT
HETATM    1  C1  UNL     1     -33.327  13.675  -3.792  1.00 20.00     0.012 C 
HETATM    2  C2  UNL     1     -34.134  14.441  -3.341  1.00 20.00    -0.112 C 
HETATM    3  C6  UNL     1     -35.097  15.357  -2.803  1.00 20.00     0.074 A 
HETATM    4  C9  UNL     1     -34.588  16.615  -2.134  1.00 20.00     0.011 A 
HETATM    5  C10 UNL     1     -35.253  16.704  -3.473  1.00 20.00     0.011 A 
ENDROOT
BRANCH   4   6
HETATM    6  C7  UNL     1     -35.432  17.527  -1.244  1.00 20.00    -0.008 C 
HETATM    7  C3  UNL     1     -34.908  17.361   0.203  1.00 20.00     0.005 C 
HETATM    8  C4  UNL     1     -33.530  18.068   0.149  1.00 20.00     0.005 C 
HETATM    9  C8  UNL     1     -33.448  18.542  -1.321  1.00 20.00    -0.008 C 
HETATM   10  C5  UNL     1     -34.913  18.937  -1.561  1.00 20.00     0.010 C 
ENDBRANCH   4   6
TORSDOF 2
ENDMDL
