MODEL 1
REMARK VINA RESULT:      -4.9      0.000      0.000
REMARK  2 active torsions:
REMARK  status: ('A' for Active; 'I' for Inactive)
REMARK    1  A    between atoms: C4_4  and  C10_10 
REMARK    2  A    between atoms: C5_5  and  C11_11 
ROOT
HETATM    1  C1  UNL     1     -34.426  13.725  -4.933  1.00 20.00     0.004 A 
HETATM    2  C2  UNL     1     -34.295  13.829  -3.603  1.00 20.00    -0.017 A 
HETATM    3  C3  UNL     1     -34.025  15.936  -4.582  1.00 20.00    -0.011 A 
HETATM    4  C4  UNL     1     -34.259  15.025  -5.539  1.00 20.00    -0.058 A 
HETATM    5  C5  UNL     1     -34.022  15.264  -3.231  1.00 20.00     0.034 A 
ENDROOT
BRANCH   4   6
HETATM    6  C10 UNL     1     -34.346  15.236  -7.005  1.00 20.00     0.010 C 
HETATM    7  C6  UNL     1     -35.474  14.395  -7.609  1.00 20.00     0.015 C 
HETATM    8  C7  UNL     1     -34.548  16.717  -7.343  1.00 20.00     0.015 C 
ENDBRANCH   4   6
BRANCH   5   9
HETATM    9  C11 UNL     1     -35.086  15.832  -2.303  1.00 20.00    -0.012 C 
HETATM   10  C8  UNL     1     -34.442  16.580  -1.136  1.00 20.00     0.010 C 
HETATM   11  C9  UNL     1     -36.035  16.755  -3.068  1.00 20.00     0.010 C 
ENDBRANCH   5   9
TORSDOF 2
ENDMDL
MODEL 2
REMARK VINA RESULT:      -4.9      1.996      5.571
REMARK  2 active torsions:
REMARK  status: ('A' for Active; 'I' for Inactive)
REMARK    1  A    between atoms: C4_4  and  C10_10 
REMARK    2  A    between atoms: C5_5  and  C11_11 
ROOT
HETATM    1  C1  UNL     1     -34.592  16.678  -0.683  1.00 20.00     0.004 A 
HETATM    2  C2  UNL     1     -34.852  16.057  -1.842  1.00 20.00    -0.017 A 
HETATM    3  C3  UNL     1     -33.684  18.039  -2.263  1.00 20.00    -0.011 A 
HETATM    4  C4  UNL     1     -33.871  17.903  -0.941  1.00 20.00    -0.058 A 
HETATM    5  C5  UNL     1     -34.296  16.866  -2.986  1.00 20.00     0.034 A 
ENDROOT
BRANCH   4   6
HETATM    6  C10 UNL     1     -33.440  18.816   0.145  1.00 20.00     0.010 C 
HETATM    7  C6  UNL     1     -34.049  18.392   1.485  1.00 20.00     0.015 C 
HETATM    8  C7  UNL     1     -31.913  18.876   0.251  1.00 20.00     0.015 C 
ENDBRANCH   4   6
BRANCH   5   9
HETATM    9  C11 UNL     1     -33.268  16.088  -3.797  1.00 20.00    -0.012 C 
HETATM   10  C8  UNL     1     -33.512  14.584  -3.680  1.00 20.00     0.010 C 
HETATM   11  C9  UNL     1     -33.296  16.520  -5.263  1.00 20.00     0.010 C 
ENDBRANCH   5   9
TORSDOF 2
ENDMDL
MODEL 3
REMARK VINA RESULT:      -4.8      1.363      4.241
REMARK  2 active torsions:
REMARK  status: ('A' for Active; 'I' for Inactive)
REMARK    1  A    between atoms: C4_4  and  C10_10 
REMARK    2  A    between atoms: C5_5  and  C11_11 
ROOT
HETATM    1  C1  UNL     1     -33.126  15.106  -3.382  1.00 20.00     0.004 A 
HETATM    2  C2  UNL     1     -33.718  14.181  -4.150  1.00 20.00    -0.017 A 
HETATM    3  C3  UNL     1     -35.343  15.343  -2.934  1.00 20.00    -0.011 A 
HETATM    4  C4  UNL     1     -34.128  15.825  -2.630  1.00 20.00    -0.058 A 
HETATM    5  C5  UNL     1     -35.210  14.231  -3.944  1.00 20.00     0.034 A 
ENDROOT
BRANCH   4   6
HETATM    6  C10 UNL     1     -33.783  16.915  -1.685  1.00 20.00     0.010 C 
HETATM    7  C6  UNL     1     -33.848  18.277  -2.381  1.00 20.00     0.015 C 
HETATM    8  C7  UNL     1     -34.701  16.900  -0.459  1.00 20.00     0.015 C 
ENDBRANCH   4   6
BRANCH   5   9
HETATM    9  C11 UNL     1     -35.961  14.533  -5.234  1.00 20.00    -0.012 C 
HETATM   10  C8  UNL     1     -36.618  15.911  -5.168  1.00 20.00     0.010 C 
HETATM   11  C9  UNL     1     -35.023  14.446  -6.439  1.00 20.00     0.010 C 
ENDBRANCH   5   9
TORSDOF 2
ENDMDL
MODEL 4
REMARK VINA RESULT:      -4.7     10.226     11.937
REMARK  2 active torsions:
REMARK  status: ('A' for Active; 'I' for Inactive)
REMARK    1  A    between atoms: C4_4  and  C10_10 
REMARK    2  A    between atoms: C5_5  and  C11_11 
ROOT
HETATM    1  C1  UNL     1     -33.324   6.454   2.111  1.00 20.00     0.004 A 
HETATM    2  C2  UNL     1     -33.716   5.563   3.033  1.00 20.00    -0.017 A 
HETATM    3  C3  UNL     1     -32.362   7.183   4.039  1.00 20.00    -0.011 A 
HETATM    4  C4  UNL     1     -32.487   7.455   2.731  1.00 20.00    -0.058 A 
HETATM    5  C5  UNL     1     -33.139   5.934   4.375  1.00 20.00     0.034 A 
ENDROOT
BRANCH   4   6
HETATM    6  C10 UNL     1     -31.895   8.579   1.967  1.00 20.00     0.010 C 
HETATM    7  C6  UNL     1     -31.693   8.193   0.499  1.00 20.00     0.015 C 
HETATM    8  C7  UNL     1     -32.759   9.840   2.070  1.00 20.00     0.015 C 
ENDBRANCH   4   6
BRANCH   5   9
HETATM    9  C11 UNL     1     -34.219   6.190   5.417  1.00 20.00    -0.012 C 
HETATM   10  C8  UNL     1     -34.816   4.874   5.912  1.00 20.00     0.010 C 
HETATM   11  C9  UNL     1     -33.659   6.996   6.589  1.00 20.00     0.010 C 
ENDBRANCH   5   9
TORSDOF 2
ENDMDL
MODEL 5
REMARK VINA RESULT:      -4.6      1.343      4.766
REMARK  2 active torsions:
REMARK  status: ('A' for Active; 'I' for Inactive)
REMARK    1  A    between atoms: C4_4  and  C10_10 
REMARK    2  A    between atoms: C5_5  and  C11_11 
ROOT
HETATM    1  C1  UNL     1     -33.672  17.651  -3.912  1.00 20.00     0.004 A 
HETATM    2  C2  UNL     1     -33.678  16.895  -5.019  1.00 20.00    -0.017 A 
HETATM    3  C3  UNL     1     -33.626  15.515  -3.131  1.00 20.00    -0.011 A 
HETATM    4  C4  UNL     1     -33.639  16.801  -2.745  1.00 20.00    -0.058 A 
HETATM    5  C5  UNL     1     -33.648  15.437  -4.637  1.00 20.00     0.034 A 
ENDROOT
BRANCH   4   6
HETATM    6  C10 UNL     1     -33.623  17.345  -1.365  1.00 20.00     0.010 C 
HETATM    7  C6  UNL     1     -33.659  18.875  -1.384  1.00 20.00     0.015 C 
HETATM    8  C7  UNL     1     -34.789  16.796  -0.537  1.00 20.00     0.015 C 
ENDBRANCH   4   6
BRANCH   5   9
HETATM    9  C11 UNL     1     -34.862  14.679  -5.157  1.00 20.00    -0.012 C 
HETATM   10  C8  UNL     1     -34.834  14.591  -6.682  1.00 20.00     0.010 C 
HETATM   11  C9  UNL     1     -34.929  13.280  -4.543  1.00 20.00     0.010 C 
ENDBRANCH   5   9
TORSDOF 2
ENDMDL
MODEL 6
REMARK VINA RESULT:      -4.6     10.952     13.138
REMARK  2 active torsions:
REMARK  status: ('A' for Active; 'I' for Inactive)
REMARK    1  A    between atoms: C4_4  and  C10_10 
REMARK    2  A    between atoms: C5_5  and  C11_11 
ROOT
HETATM    1  C1  UNL     1     -34.278   4.867   3.283  1.00 20.00     0.004 A 
HETATM    2  C2  UNL     1     -33.758   5.523   2.236  1.00 20.00    -0.017 A 
HETATM    3  C3  UNL     1     -33.937   6.979   4.058  1.00 20.00    -0.011 A 
HETATM    4  C4  UNL     1     -34.389   5.765   4.409  1.00 20.00    -0.058 A 
HETATM    5  C5  UNL     1     -33.483   6.954   2.619  1.00 20.00     0.034 A 
ENDROOT
BRANCH   4   6
HETATM    6  C10 UNL     1     -34.934   5.333   5.719  1.00 20.00     0.010 C 
HETATM    7  C6  UNL     1     -34.723   3.831   5.927  1.00 20.00     0.015 C 
HETATM    8  C7  UNL     1     -34.304   6.122   6.872  1.00 20.00     0.015 C 
ENDBRANCH   4   6
BRANCH   5   9
HETATM    9  C11 UNL     1     -32.011   7.318   2.474  1.00 20.00    -0.012 C 
HETATM   10  C8  UNL     1     -31.836   8.494   1.514  1.00 20.00     0.010 C 
HETATM   11  C9  UNL     1     -31.398   7.646   3.836  1.00 20.00     0.010 C 
ENDBRANCH   5   9
TORSDOF 2
ENDMDL
MODEL 7
REMARK VINA RESULT:      -4.6     10.086     12.288
REMARK  2 active torsions:
REMARK  status: ('A' for Active; 'I' for Inactive)
REMARK    1  A    between atoms: C4_4  and  C10_10 
REMARK    2  A    between atoms: C5_5  and  C11_11 
ROOT
HETATM    1  C1  UNL     1     -32.534   7.275   4.799  1.00 20.00     0.004 A 
HETATM    2  C2  UNL     1     -31.753   7.943   3.938  1.00 20.00    -0.017 A 
HETATM    3  C3  UNL     1     -32.936   6.282   2.792  1.00 20.00    -0.011 A 
HETATM    4  C4  UNL     1     -33.265   6.249   4.093  1.00 20.00    -0.058 A 
HETATM    5  C5  UNL     1     -31.926   7.377   2.552  1.00 20.00     0.034 A 
ENDROOT
BRANCH   4   6
HETATM    6  C10 UNL     1     -34.214   5.336   4.776  1.00 20.00     0.010 C 
HETATM    7  C6  UNL     1     -34.431   5.766   6.229  1.00 20.00     0.015 C 
HETATM    8  C7  UNL     1     -35.554   5.271   4.036  1.00 20.00     0.015 C 
ENDBRANCH   4   6
BRANCH   5   9
HETATM    9  C11 UNL     1     -32.430   8.418   1.561  1.00 20.00    -0.012 C 
HETATM   10  C8  UNL     1     -32.616   9.771   2.246  1.00 20.00     0.010 C 
HETATM   11  C9  UNL     1     -31.470   8.547   0.378  1.00 20.00     0.010 C 
ENDBRANCH   5   9
TORSDOF 2
ENDMDL
MODEL 8
REMARK VINA RESULT:      -4.5      1.611      5.068
REMARK  2 active torsions:
REMARK  status: ('A' for Active; 'I' for Inactive)
REMARK    1  A    between atoms: C4_4  and  C10_10 
REMARK    2  A    between atoms: C5_5  and  C11_11 
ROOT
HETATM    1  C1  UNL     1     -35.767  16.848  -2.218  1.00 20.00     0.004 A 
HETATM    2  C2  UNL     1     -35.843  16.247  -3.414  1.00 20.00    -0.017 A 
HETATM    3  C3  UNL     1     -33.654  16.099  -2.603  1.00 20.00    -0.011 A 
HETATM    4  C4  UNL     1     -34.416  16.758  -1.716  1.00 20.00    -0.058 A 
HETATM    5  C5  UNL     1     -34.491  15.700  -3.793  1.00 20.00     0.034 A 
ENDROOT
BRANCH   4   6
HETATM    6  C10 UNL     1     -34.013  17.333  -0.410  1.00 20.00     0.010 C 
HETATM    7  C6  UNL     1     -33.147  18.580  -0.609  1.00 20.00     0.015 C 
HETATM    8  C7  UNL     1     -35.235  17.669   0.452  1.00 20.00     0.015 C 
ENDBRANCH   4   6
BRANCH   5   9
HETATM    9  C11 UNL     1     -34.516  14.191  -4.000  1.00 20.00    -0.012 C 
HETATM   10  C8  UNL     1     -34.899  13.848  -5.439  1.00 20.00     0.010 C 
HETATM   11  C9  UNL     1     -33.162  13.575  -3.647  1.00 20.00     0.010 C 
ENDBRANCH   5   9
TORSDOF 2
ENDMDL
MODEL 9
REMARK VINA RESULT:      -4.5      1.255      2.834
REMARK  2 active torsions:
REMARK  status: ('A' for Active; 'I' for Inactive)
REMARK    1  A    between atoms: C4_4  and  C10_10 
REMARK    2  A    between atoms: C5_5  and  C11_11 
ROOT
HETATM    1  C1  UNL     1     -34.305  16.978  -4.173  1.00 20.00     0.004 A 
HETATM    2  C2  UNL     1     -34.630  17.776  -3.146  1.00 20.00    -0.017 A 
HETATM    3  C3  UNL     1     -34.895  15.540  -2.512  1.00 20.00    -0.011 A 
HETATM    4  C4  UNL     1     -34.469  15.597  -3.783  1.00 20.00    -0.058 A 
HETATM    5  C5  UNL     1     -35.046  16.937  -1.964  1.00 20.00     0.034 A 
ENDROOT
BRANCH   4   6
HETATM    6  C10 UNL     1     -34.189  14.471  -4.708  1.00 20.00     0.010 C 
HETATM    7  C6  UNL     1     -35.002  13.234  -4.320  1.00 20.00     0.015 C 
HETATM    8  C7  UNL     1     -34.474  14.861  -6.162  1.00 20.00     0.015 C 
ENDBRANCH   4   6
BRANCH   5   9
HETATM    9  C11 UNL     1     -34.164  17.177  -0.747  1.00 20.00    -0.012 C 
HETATM   10  C8  UNL     1     -33.284  18.410  -0.951  1.00 20.00     0.010 C 
HETATM   11  C9  UNL     1     -35.014  17.332   0.515  1.00 20.00     0.010 C 
ENDBRANCH   5   9
TORSDOF 2
ENDMDL
