MODEL 1
REMARK VINA RESULT:      -5.1      0.000      0.000
REMARK  0 active torsions:
REMARK  status: ('A' for Active; 'I' for Inactive)
ROOT
HETATM    1  C1  UNL     1     -34.490  16.811  -0.703  1.00 20.00     0.012 C 
HETATM    2  C2  UNL     1     -34.798  16.171  -1.671  1.00 20.00    -0.112 C 
HETATM    3  C3  UNL     1     -34.944  14.423  -5.531  1.00 20.00    -0.026 C 
HETATM    4  C4  UNL     1     -34.569  13.654  -4.496  1.00 20.00    -0.024 C 
HETATM    5  C5  UNL     1     -33.261  16.143  -4.996  1.00 20.00     0.009 C 
HETATM    6  C6  UNL     1     -32.827  15.246  -3.813  1.00 20.00     0.010 C 
HETATM    7  C7  UNL     1     -35.567  16.305  -4.049  1.00 20.00     0.026 C 
HETATM    8  C8  UNL     1     -35.176  15.385  -2.857  1.00 20.00     0.072 C 
HETATM    9  C9  UNL     1     -34.756  15.910  -5.308  1.00 20.00     0.009 C 
HETATM   10  C10 UNL     1     -34.037  14.424  -3.302  1.00 20.00     0.023 C 
ENDROOT
TORSDOF 0
ENDMDL
MODEL 2
REMARK VINA RESULT:      -4.9      0.932      2.327
REMARK  0 active torsions:
REMARK  status: ('A' for Active; 'I' for Inactive)
ROOT
HETATM    1  C1  UNL     1     -34.565  16.605  -0.904  1.00 20.00     0.012 C 
HETATM    2  C2  UNL     1     -34.332  16.143  -1.987  1.00 20.00    -0.112 C 
HETATM    3  C3  UNL     1     -34.641  14.262  -5.774  1.00 20.00    -0.026 C 
HETATM    4  C4  UNL     1     -34.490  15.596  -5.735  1.00 20.00    -0.024 C 
HETATM    5  C5  UNL     1     -36.575  14.332  -4.247  1.00 20.00     0.009 C 
HETATM    6  C6  UNL     1     -36.402  15.869  -4.217  1.00 20.00     0.010 C 
HETATM    7  C7  UNL     1     -34.267  14.038  -3.339  1.00 20.00     0.026 C 
HETATM    8  C8  UNL     1     -34.045  15.576  -3.316  1.00 20.00     0.072 C 
HETATM    9  C9  UNL     1     -35.210  13.657  -4.507  1.00 20.00     0.009 C 
HETATM   10  C10 UNL     1     -34.912  16.236  -4.426  1.00 20.00     0.023 C 
ENDROOT
TORSDOF 0
ENDMDL
MODEL 3
REMARK VINA RESULT:      -4.9      0.871      1.212
REMARK  0 active torsions:
REMARK  status: ('A' for Active; 'I' for Inactive)
ROOT
HETATM    1  C1  UNL     1     -33.731  17.827  -1.309  1.00 20.00     0.012 C 
HETATM    2  C2  UNL     1     -33.994  16.771  -1.813  1.00 20.00    -0.112 C 
HETATM    3  C3  UNL     1     -34.880  13.671  -4.567  1.00 20.00    -0.026 C 
HETATM    4  C4  UNL     1     -33.666  13.686  -3.992  1.00 20.00    -0.024 C 
HETATM    5  C5  UNL     1     -34.661  16.004  -5.332  1.00 20.00     0.009 C 
HETATM    6  C6  UNL     1     -33.259  16.009  -4.679  1.00 20.00     0.010 C 
HETATM    7  C7  UNL     1     -35.708  15.501  -3.122  1.00 20.00     0.026 C 
HETATM    8  C8  UNL     1     -34.316  15.474  -2.432  1.00 20.00     0.072 C 
HETATM    9  C9  UNL     1     -35.582  15.014  -4.587  1.00 20.00     0.009 C 
HETATM   10  C10 UNL     1     -33.238  15.043  -3.468  1.00 20.00     0.023 C 
ENDROOT
TORSDOF 0
ENDMDL
MODEL 4
REMARK VINA RESULT:      -4.6     11.837     13.339
REMARK  0 active torsions:
REMARK  status: ('A' for Active; 'I' for Inactive)
ROOT
HETATM    1  C1  UNL     1     -42.802   2.444  -2.623  1.00 20.00     0.012 C 
HETATM    2  C2  UNL     1     -42.231   3.463  -2.347  1.00 20.00    -0.112 C 
HETATM    3  C3  UNL     1     -41.158   7.225  -0.713  1.00 20.00    -0.026 C 
HETATM    4  C4  UNL     1     -40.509   6.132  -0.279  1.00 20.00    -0.024 C 
HETATM    5  C5  UNL     1     -43.363   6.233  -0.235  1.00 20.00     0.009 C 
HETATM    6  C6  UNL     1     -42.608   4.983   0.275  1.00 20.00     0.010 C 
HETATM    7  C7  UNL     1     -42.326   5.959  -2.491  1.00 20.00     0.026 C 
HETATM    8  C8  UNL     1     -41.531   4.713  -2.009  1.00 20.00     0.072 C 
HETATM    9  C9  UNL     1     -42.521   6.948  -1.314  1.00 20.00     0.009 C 
HETATM   10  C10 UNL     1     -41.265   4.833  -0.481  1.00 20.00     0.023 C 
ENDROOT
TORSDOF 0
ENDMDL
MODEL 5
REMARK VINA RESULT:      -4.6      1.393      3.735
REMARK  0 active torsions:
REMARK  status: ('A' for Active; 'I' for Inactive)
ROOT
HETATM    1  C1  UNL     1     -36.358  14.747  -7.875  1.00 20.00     0.012 C 
HETATM    2  C2  UNL     1     -35.475  14.672  -7.065  1.00 20.00    -0.112 C 
HETATM    3  C3  UNL     1     -33.175  14.844  -3.508  1.00 20.00    -0.026 C 
HETATM    4  C4  UNL     1     -33.582  13.641  -3.947  1.00 20.00    -0.024 C 
HETATM    5  C5  UNL     1     -35.464  15.756  -3.567  1.00 20.00     0.009 C 
HETATM    6  C6  UNL     1     -35.927  14.365  -4.060  1.00 20.00     0.010 C 
HETATM    7  C7  UNL     1     -33.971  15.983  -5.556  1.00 20.00     0.026 C 
HETATM    8  C8  UNL     1     -34.392  14.579  -6.072  1.00 20.00     0.072 C 
HETATM    9  C9  UNL     1     -34.005  16.009  -4.007  1.00 20.00     0.009 C 
HETATM   10  C10 UNL     1     -34.790  13.685  -4.863  1.00 20.00     0.023 C 
ENDROOT
TORSDOF 0
ENDMDL
MODEL 6
REMARK VINA RESULT:      -4.5      0.850      1.536
REMARK  0 active torsions:
REMARK  status: ('A' for Active; 'I' for Inactive)
ROOT
HETATM    1  C1  UNL     1     -34.749  16.871  -0.312  1.00 20.00     0.012 C 
HETATM    2  C2  UNL     1     -34.851  16.797  -1.505  1.00 20.00    -0.112 C 
HETATM    3  C3  UNL     1     -34.334  15.789  -5.591  1.00 20.00    -0.026 C 
HETATM    4  C4  UNL     1     -35.410  15.308  -4.947  1.00 20.00    -0.024 C 
HETATM    5  C5  UNL     1     -32.789  14.918  -3.879  1.00 20.00     0.009 C 
HETATM    6  C6  UNL     1     -34.032  14.356  -3.149  1.00 20.00     0.010 C 
HETATM    7  C7  UNL     1     -33.701  17.235  -3.685  1.00 20.00     0.026 C 
HETATM    8  C8  UNL     1     -34.977  16.707  -2.970  1.00 20.00     0.072 C 
HETATM    9  C9  UNL     1     -33.181  16.175  -4.687  1.00 20.00     0.009 C 
HETATM   10  C10 UNL     1     -35.263  15.251  -3.438  1.00 20.00     0.023 C 
ENDROOT
TORSDOF 0
ENDMDL
MODEL 7
REMARK VINA RESULT:      -4.5      1.059      3.186
REMARK  0 active torsions:
REMARK  status: ('A' for Active; 'I' for Inactive)
ROOT
HETATM    1  C1  UNL     1     -35.964  17.699  -6.376  1.00 20.00     0.012 C 
HETATM    2  C2  UNL     1     -35.301  16.761  -6.028  1.00 20.00    -0.112 C 
HETATM    3  C3  UNL     1     -33.313  13.789  -3.749  1.00 20.00    -0.026 C 
HETATM    4  C4  UNL     1     -34.386  13.427  -4.472  1.00 20.00    -0.024 C 
HETATM    5  C5  UNL     1     -34.549  15.608  -2.634  1.00 20.00     0.009 C 
HETATM    6  C6  UNL     1     -35.783  15.177  -3.461  1.00 20.00     0.010 C 
HETATM    7  C7  UNL     1     -33.276  16.059  -4.735  1.00 20.00     0.026 C 
HETATM    8  C8  UNL     1     -34.486  15.611  -5.602  1.00 20.00     0.072 C 
HETATM    9  C9  UNL     1     -33.256  15.264  -3.406  1.00 20.00     0.009 C 
HETATM   10  C10 UNL     1     -35.327  14.568  -4.810  1.00 20.00     0.023 C 
ENDROOT
TORSDOF 0
ENDMDL
MODEL 8
REMARK VINA RESULT:      -4.5      1.283      3.503
REMARK  0 active torsions:
REMARK  status: ('A' for Active; 'I' for Inactive)
ROOT
HETATM    1  C1  UNL     1     -34.774  13.241  -4.435  1.00 20.00     0.012 C 
HETATM    2  C2  UNL     1     -34.319  14.186  -3.853  1.00 20.00    -0.112 C 
HETATM    3  C3  UNL     1     -33.663  18.039  -2.209  1.00 20.00    -0.026 C 
HETATM    4  C4  UNL     1     -34.034  17.047  -1.382  1.00 20.00    -0.024 C 
HETATM    5  C5  UNL     1     -35.565  17.627  -3.723  1.00 20.00     0.009 C 
HETATM    6  C6  UNL     1     -35.992  16.495  -2.759  1.00 20.00     0.010 C 
HETATM    7  C7  UNL     1     -33.377  16.489  -4.118  1.00 20.00     0.026 C 
HETATM    8  C8  UNL     1     -33.759  15.345  -3.137  1.00 20.00     0.072 C 
HETATM    9  C9  UNL     1     -34.033  17.816  -3.662  1.00 20.00     0.009 C 
HETATM   10  C10 UNL     1     -34.744  15.894  -2.066  1.00 20.00     0.023 C 
ENDROOT
TORSDOF 0
ENDMDL
MODEL 9
REMARK VINA RESULT:      -4.4      1.227      3.690
REMARK  0 active torsions:
REMARK  status: ('A' for Active; 'I' for Inactive)
ROOT
HETATM    1  C1  UNL     1     -34.969  14.778  -7.918  1.00 20.00     0.012 C 
HETATM    2  C2  UNL     1     -34.620  15.115  -6.820  1.00 20.00    -0.112 C 
HETATM    3  C3  UNL     1     -34.379  15.779  -2.640  1.00 20.00    -0.026 C 
HETATM    4  C4  UNL     1     -33.556  14.870  -3.190  1.00 20.00    -0.024 C 
HETATM    5  C5  UNL     1     -36.375  14.724  -3.629  1.00 20.00     0.009 C 
HETATM    6  C6  UNL     1     -35.423  13.674  -4.249  1.00 20.00     0.010 C 
HETATM    7  C7  UNL     1     -35.185  16.550  -4.849  1.00 20.00     0.026 C 
HETATM    8  C8  UNL     1     -34.192  15.529  -5.474  1.00 20.00     0.072 C 
HETATM    9  C9  UNL     1     -35.629  16.064  -3.447  1.00 20.00     0.009 C 
HETATM   10  C10 UNL     1     -34.037  14.312  -4.516  1.00 20.00     0.023 C 
ENDROOT
TORSDOF 0
ENDMDL
