MODEL 1
REMARK VINA RESULT:      -5.2      0.000      0.000
REMARK  0 active torsions:
REMARK  status: ('A' for Active; 'I' for Inactive)
ROOT
HETATM    1  C1  UNL     1     -32.176   8.612   1.709  1.00 20.00     0.012 C 
HETATM    2  C2  UNL     1     -34.568   4.069   6.065  1.00 20.00     0.012 C 
HETATM    3  C3  UNL     1     -32.155   7.748   2.543  1.00 20.00    -0.113 C 
HETATM    4  C4  UNL     1     -34.532   5.074   5.407  1.00 20.00    -0.113 C 
HETATM    5  C5  UNL     1     -33.830   5.163   2.408  1.00 20.00     0.002 C 
HETATM    6  C6  UNL     1     -32.400   5.319   2.934  1.00 20.00     0.017 C 
HETATM    7  C7  UNL     1     -34.865   6.017   3.147  1.00 20.00     0.017 C 
HETATM    8  C8  UNL     1     -33.113   6.997   4.713  1.00 20.00     0.034 C 
HETATM    9  C9  UNL     1     -32.129   6.685   3.569  1.00 20.00     0.065 C 
HETATM   10  C10 UNL     1     -34.487   6.309   4.600  1.00 20.00     0.065 C 
ENDROOT
TORSDOF 0
ENDMDL
MODEL 2
REMARK VINA RESULT:      -5.2      0.118      3.993
REMARK  0 active torsions:
REMARK  status: ('A' for Active; 'I' for Inactive)
ROOT
HETATM    1  C1  UNL     1     -34.702   4.003   5.962  1.00 20.00     0.012 C 
HETATM    2  C2  UNL     1     -32.191   8.602   1.735  1.00 20.00     0.012 C 
HETATM    3  C3  UNL     1     -34.656   5.010   5.310  1.00 20.00    -0.113 C 
HETATM    4  C4  UNL     1     -32.196   7.736   2.567  1.00 20.00    -0.113 C 
HETATM    5  C5  UNL     1     -33.812   5.121   2.347  1.00 20.00     0.002 C 
HETATM    6  C6  UNL     1     -34.900   5.949   3.036  1.00 20.00     0.017 C 
HETATM    7  C7  UNL     1     -32.414   5.304   2.946  1.00 20.00     0.017 C 
HETATM    8  C8  UNL     1     -33.247   6.964   4.688  1.00 20.00     0.034 C 
HETATM    9  C9  UNL     1     -34.600   6.248   4.507  1.00 20.00     0.065 C 
HETATM   10  C10 UNL     1     -32.202   6.673   3.592  1.00 20.00     0.065 C 
ENDROOT
TORSDOF 0
ENDMDL
MODEL 3
REMARK VINA RESULT:      -5.0     10.964     12.778
REMARK  0 active torsions:
REMARK  status: ('A' for Active; 'I' for Inactive)
ROOT
HETATM    1  C1  UNL     1     -34.509  16.706  -0.827  1.00 20.00     0.012 C 
HETATM    2  C2  UNL     1     -34.669  14.854  -7.298  1.00 20.00     0.012 C 
HETATM    3  C3  UNL     1     -34.888  16.138  -1.815  1.00 20.00    -0.113 C 
HETATM    4  C4  UNL     1     -34.477  15.556  -6.343  1.00 20.00    -0.113 C 
HETATM    5  C5  UNL     1     -33.035  14.645  -3.776  1.00 20.00     0.002 C 
HETATM    6  C6  UNL     1     -34.448  14.244  -3.343  1.00 20.00     0.017 C 
HETATM    7  C7  UNL     1     -32.954  16.017  -4.452  1.00 20.00     0.017 C 
HETATM    8  C8  UNL     1     -35.459  16.411  -4.222  1.00 20.00     0.034 C 
HETATM    9  C9  UNL     1     -35.352  15.439  -3.030  1.00 20.00     0.065 C 
HETATM   10  C10 UNL     1     -34.244  16.421  -5.169  1.00 20.00     0.065 C 
ENDROOT
TORSDOF 0
ENDMDL
MODEL 4
REMARK VINA RESULT:      -5.0     10.958     12.448
REMARK  0 active torsions:
REMARK  status: ('A' for Active; 'I' for Inactive)
ROOT
HETATM    1  C1  UNL     1     -34.718  14.775  -7.319  1.00 20.00     0.012 C 
HETATM    2  C2  UNL     1     -34.518  16.698  -0.870  1.00 20.00     0.012 C 
HETATM    3  C3  UNL     1     -34.499  15.480  -6.372  1.00 20.00    -0.113 C 
HETATM    4  C4  UNL     1     -34.915  16.138  -1.855  1.00 20.00    -0.113 C 
HETATM    5  C5  UNL     1     -33.124  14.531  -3.781  1.00 20.00     0.002 C 
HETATM    6  C6  UNL     1     -32.966  15.887  -4.475  1.00 20.00     0.017 C 
HETATM    7  C7  UNL     1     -34.560  14.208  -3.358  1.00 20.00     0.017 C 
HETATM    8  C8  UNL     1     -35.451  16.413  -4.271  1.00 20.00     0.034 C 
HETATM    9  C9  UNL     1     -34.229  16.348  -5.208  1.00 20.00     0.065 C 
HETATM   10  C10 UNL     1     -35.403  15.451  -3.068  1.00 20.00     0.065 C 
ENDROOT
TORSDOF 0
ENDMDL
MODEL 5
REMARK VINA RESULT:      -4.8     11.314     12.868
REMARK  0 active torsions:
REMARK  status: ('A' for Active; 'I' for Inactive)
ROOT
HETATM    1  C1  UNL     1     -34.560  16.692  -1.006  1.00 20.00     0.012 C 
HETATM    2  C2  UNL     1     -35.166  14.388  -7.303  1.00 20.00     0.012 C 
HETATM    3  C3  UNL     1     -34.500  15.915  -1.919  1.00 20.00    -0.113 C 
HETATM    4  C4  UNL     1     -35.411  15.040  -6.325  1.00 20.00    -0.113 C 
HETATM    5  C5  UNL     1     -33.301  16.573  -4.682  1.00 20.00     0.002 C 
HETATM    6  C6  UNL     1     -33.203  15.251  -3.917  1.00 20.00     0.017 C 
HETATM    7  C7  UNL     1     -34.736  17.010  -4.993  1.00 20.00     0.017 C 
HETATM    8  C8  UNL     1     -35.733  14.960  -3.858  1.00 20.00     0.034 C 
HETATM    9  C9  UNL     1     -34.425  14.959  -3.043  1.00 20.00     0.065 C 
HETATM   10  C10 UNL     1     -35.714  15.841  -5.122  1.00 20.00     0.065 C 
ENDROOT
TORSDOF 0
ENDMDL
MODEL 6
REMARK VINA RESULT:      -4.8     11.361     12.766
REMARK  0 active torsions:
REMARK  status: ('A' for Active; 'I' for Inactive)
ROOT
HETATM    1  C1  UNL     1     -35.172  14.394  -7.305  1.00 20.00     0.012 C 
HETATM    2  C2  UNL     1     -34.601  16.758  -1.026  1.00 20.00     0.012 C 
HETATM    3  C3  UNL     1     -35.426  15.055  -6.334  1.00 20.00    -0.113 C 
HETATM    4  C4  UNL     1     -34.534  15.974  -1.934  1.00 20.00    -0.113 C 
HETATM    5  C5  UNL     1     -33.329  16.613  -4.698  1.00 20.00     0.002 C 
HETATM    6  C6  UNL     1     -34.763  17.042  -5.021  1.00 20.00     0.017 C 
HETATM    7  C7  UNL     1     -33.230  15.297  -3.921  1.00 20.00     0.017 C 
HETATM    8  C8  UNL     1     -35.759  14.999  -3.869  1.00 20.00     0.034 C 
HETATM    9  C9  UNL     1     -35.738  15.868  -5.142  1.00 20.00     0.065 C 
HETATM   10  C10 UNL     1     -34.454  15.010  -3.050  1.00 20.00     0.065 C 
ENDROOT
TORSDOF 0
ENDMDL
MODEL 7
REMARK VINA RESULT:      -4.7     11.298     12.340
REMARK  0 active torsions:
REMARK  status: ('A' for Active; 'I' for Inactive)
ROOT
HETATM    1  C1  UNL     1     -35.096  14.159  -6.543  1.00 20.00     0.012 C 
HETATM    2  C2  UNL     1     -34.671  16.834  -0.380  1.00 20.00     0.012 C 
HETATM    3  C3  UNL     1     -35.215  14.236  -5.351  1.00 20.00    -0.113 C 
HETATM    4  C4  UNL     1     -34.376  16.612  -1.522  1.00 20.00    -0.113 C 
HETATM    5  C5  UNL     1     -36.365  16.687  -3.876  1.00 20.00     0.002 C 
HETATM    6  C6  UNL     1     -36.560  15.211  -3.520  1.00 20.00     0.017 C 
HETATM    7  C7  UNL     1     -34.901  17.141  -3.879  1.00 20.00     0.017 C 
HETATM    8  C8  UNL     1     -34.059  14.828  -3.229  1.00 20.00     0.034 C 
HETATM    9  C9  UNL     1     -35.362  14.331  -3.884  1.00 20.00     0.065 C 
HETATM   10  C10 UNL     1     -34.013  16.339  -2.927  1.00 20.00     0.065 C 
ENDROOT
TORSDOF 0
ENDMDL
MODEL 8
REMARK VINA RESULT:      -4.6     11.088     12.513
REMARK  0 active torsions:
REMARK  status: ('A' for Active; 'I' for Inactive)
ROOT
HETATM    1  C1  UNL     1     -35.526  14.463  -7.851  1.00 20.00     0.012 C 
HETATM    2  C2  UNL     1     -34.641  16.284  -1.430  1.00 20.00     0.012 C 
HETATM    3  C3  UNL     1     -34.940  14.797  -6.857  1.00 20.00    -0.113 C 
HETATM    4  C4  UNL     1     -35.190  16.169  -2.491  1.00 20.00    -0.113 C 
HETATM    5  C5  UNL     1     -35.374  13.534  -4.079  1.00 20.00     0.002 C 
HETATM    6  C6  UNL     1     -34.053  14.019  -4.684  1.00 20.00     0.017 C 
HETATM    7  C7  UNL     1     -36.443  14.623  -3.957  1.00 20.00     0.017 C 
HETATM    8  C8  UNL     1     -34.917  16.401  -4.955  1.00 20.00     0.034 C 
HETATM    9  C9  UNL     1     -34.219  15.207  -5.635  1.00 20.00     0.065 C 
HETATM   10  C10 UNL     1     -35.865  16.030  -3.798  1.00 20.00     0.065 C 
ENDROOT
TORSDOF 0
ENDMDL
MODEL 9
REMARK VINA RESULT:      -4.6     11.241     12.682
REMARK  0 active torsions:
REMARK  status: ('A' for Active; 'I' for Inactive)
ROOT
HETATM    1  C1  UNL     1     -34.745  16.948  -0.313  1.00 20.00     0.012 C 
HETATM    2  C2  UNL     1     -34.784  14.572  -6.613  1.00 20.00     0.012 C 
HETATM    3  C3  UNL     1     -34.309  16.606  -1.378  1.00 20.00    -0.113 C 
HETATM    4  C4  UNL     1     -35.130  14.714  -5.471  1.00 20.00    -0.113 C 
HETATM    5  C5  UNL     1     -35.504  17.445  -4.094  1.00 20.00     0.002 C 
HETATM    6  C6  UNL     1     -34.024  17.266  -3.744  1.00 20.00     0.017 C 
HETATM    7  C7  UNL     1     -36.349  16.182  -3.901  1.00 20.00     0.017 C 
HETATM    8  C8  UNL     1     -34.348  14.820  -3.111  1.00 20.00     0.034 C 
HETATM    9  C9  UNL     1     -33.772  16.186  -2.689  1.00 20.00     0.065 C 
HETATM   10  C10 UNL     1     -35.554  14.886  -4.068  1.00 20.00     0.065 C 
ENDROOT
TORSDOF 0
ENDMDL
