MODEL 1
REMARK VINA RESULT:      -5.9      0.000      0.000
REMARK  0 active torsions:
REMARK  status: ('A' for Active; 'I' for Inactive)
ROOT
HETATM    1  C1  UNL     1     -35.110   3.975   5.677  1.00 20.00     0.017 A 
HETATM    2  C2  UNL     1     -35.312   4.160   4.366  1.00 20.00     0.054 A 
HETATM    3  C3  UNL     1     -34.262   6.438   4.530  1.00 20.00     0.060 A 
HETATM    4  C4  UNL     1     -34.053   6.265   5.847  1.00 20.00    -0.044 A 
HETATM    5  C5  UNL     1     -34.460   4.998   6.562  1.00 20.00     0.221 A 
HETATM    6  C6  UNL     1     -34.910   5.412   3.647  1.00 20.00     0.280 A 
HETATM    7  C7  UNL     1     -33.402   7.320   6.691  1.00 20.00     0.046 C 
HETATM    8  F8  UNL     1     -33.368   4.439   7.161  1.00 20.00    -0.240 F 
HETATM    9  F9  UNL     1     -34.062   5.094   2.627  1.00 20.00    -0.197 F 
HETATM   10  F10 UNL     1     -36.006   5.960   3.047  1.00 20.00    -0.197 F 
ENDROOT
TORSDOF 0
ENDMDL
MODEL 2
REMARK VINA RESULT:      -5.7      1.632      1.915
REMARK  0 active torsions:
REMARK  status: ('A' for Active; 'I' for Inactive)
ROOT
HETATM    1  C1  UNL     1     -35.055   4.960   3.903  1.00 20.00     0.017 A 
HETATM    2  C2  UNL     1     -34.173   5.283   2.948  1.00 20.00     0.054 A 
HETATM    3  C3  UNL     1     -32.944   6.745   4.582  1.00 20.00     0.060 A 
HETATM    4  C4  UNL     1     -33.821   6.428   5.551  1.00 20.00    -0.044 A 
HETATM    5  C5  UNL     1     -34.980   5.490   5.306  1.00 20.00     0.221 A 
HETATM    6  C6  UNL     1     -33.020   6.211   3.182  1.00 20.00     0.280 A 
HETATM    7  C7  UNL     1     -33.707   6.988   6.938  1.00 20.00     0.046 C 
HETATM    8  F8  UNL     1     -34.911   4.440   6.175  1.00 20.00    -0.240 F 
HETATM    9  F9  UNL     1     -31.856   5.568   2.880  1.00 20.00    -0.197 F 
HETATM   10  F10 UNL     1     -33.094   7.253   2.305  1.00 20.00    -0.197 F 
ENDROOT
TORSDOF 0
ENDMDL
MODEL 3
REMARK VINA RESULT:      -5.6      1.195      3.407
REMARK  0 active torsions:
REMARK  status: ('A' for Active; 'I' for Inactive)
ROOT
HETATM    1  C1  UNL     1     -35.356   4.399   4.453  1.00 20.00     0.017 A 
HETATM    2  C2  UNL     1     -35.188   4.571   5.770  1.00 20.00     0.054 A 
HETATM    3  C3  UNL     1     -33.418   6.298   5.316  1.00 20.00     0.060 A 
HETATM    4  C4  UNL     1     -33.577   6.136   3.991  1.00 20.00    -0.044 A 
HETATM    5  C5  UNL     1     -34.577   5.158   3.418  1.00 20.00     0.221 A 
HETATM    6  C6  UNL     1     -34.201   5.540   6.348  1.00 20.00     0.280 A 
HETATM    7  C7  UNL     1     -32.770   6.915   2.995  1.00 20.00     0.046 C 
HETATM    8  F8  UNL     1     -35.448   5.819   2.601  1.00 20.00    -0.240 F 
HETATM    9  F9  UNL     1     -34.855   6.422   7.156  1.00 20.00    -0.197 F 
HETATM   10  F10 UNL     1     -33.339   4.872   7.167  1.00 20.00    -0.197 F 
ENDROOT
TORSDOF 0
ENDMDL
MODEL 4
REMARK VINA RESULT:      -5.2      1.597      3.535
REMARK  0 active torsions:
REMARK  status: ('A' for Active; 'I' for Inactive)
ROOT
HETATM    1  C1  UNL     1     -33.555   6.965   5.536  1.00 20.00     0.017 A 
HETATM    2  C2  UNL     1     -33.975   6.073   6.443  1.00 20.00     0.054 A 
HETATM    3  C3  UNL     1     -34.788   4.578   4.593  1.00 20.00     0.060 A 
HETATM    4  C4  UNL     1     -34.370   5.463   3.671  1.00 20.00    -0.044 A 
HETATM    5  C5  UNL     1     -33.701   6.763   4.055  1.00 20.00     0.221 A 
HETATM    6  C6  UNL     1     -34.638   4.781   6.072  1.00 20.00     0.280 A 
HETATM    7  C7  UNL     1     -34.543   5.218   2.202  1.00 20.00     0.046 C 
HETATM    8  F8  UNL     1     -32.469   6.833   3.473  1.00 20.00    -0.240 F 
HETATM    9  F9  UNL     1     -33.928   3.743   6.601  1.00 20.00    -0.197 F 
HETATM   10  F10 UNL     1     -35.865   4.717   6.664  1.00 20.00    -0.197 F 
ENDROOT
TORSDOF 0
ENDMDL
MODEL 5
REMARK VINA RESULT:      -5.1      1.202      2.443
REMARK  0 active torsions:
REMARK  status: ('A' for Active; 'I' for Inactive)
ROOT
HETATM    1  C1  UNL     1     -33.297   6.857   4.720  1.00 20.00     0.017 A 
HETATM    2  C2  UNL     1     -33.728   6.544   3.491  1.00 20.00     0.054 A 
HETATM    3  C3  UNL     1     -35.174   4.732   4.463  1.00 20.00     0.060 A 
HETATM    4  C4  UNL     1     -34.751   5.037   5.702  1.00 20.00    -0.044 A 
HETATM    5  C5  UNL     1     -33.757   6.146   5.959  1.00 20.00     0.221 A 
HETATM    6  C6  UNL     1     -34.714   5.447   3.226  1.00 20.00     0.280 A 
HETATM    7  C7  UNL     1     -35.237   4.293   6.911  1.00 20.00     0.046 C 
HETATM    8  F8  UNL     1     -34.299   7.057   6.819  1.00 20.00    -0.240 F 
HETATM    9  F9  UNL     1     -35.796   5.962   2.574  1.00 20.00    -0.197 F 
HETATM   10  F10 UNL     1     -34.167   4.546   2.361  1.00 20.00    -0.197 F 
ENDROOT
TORSDOF 0
ENDMDL
MODEL 6
REMARK VINA RESULT:      -5.0      1.716      2.644
REMARK  0 active torsions:
REMARK  status: ('A' for Active; 'I' for Inactive)
ROOT
HETATM    1  C1  UNL     1     -33.080   5.842   3.043  1.00 20.00     0.017 A 
HETATM    2  C2  UNL     1     -34.209   5.124   2.988  1.00 20.00     0.054 A 
HETATM    3  C3  UNL     1     -34.744   5.792   5.352  1.00 20.00     0.060 A 
HETATM    4  C4  UNL     1     -33.614   6.517   5.420  1.00 20.00    -0.044 A 
HETATM    5  C5  UNL     1     -32.656   6.617   4.256  1.00 20.00     0.221 A 
HETATM    6  C6  UNL     1     -35.167   5.020   4.136  1.00 20.00     0.280 A 
HETATM    7  C7  UNL     1     -33.230   7.272   6.658  1.00 20.00     0.046 C 
HETATM    8  F8  UNL     1     -32.489   7.928   3.911  1.00 20.00    -0.240 F 
HETATM    9  F9  UNL     1     -36.398   5.447   3.736  1.00 20.00    -0.197 F 
HETATM   10  F10 UNL     1     -35.332   3.708   4.469  1.00 20.00    -0.197 F 
ENDROOT
TORSDOF 0
ENDMDL
MODEL 7
REMARK VINA RESULT:      -4.9     12.646     14.102
REMARK  0 active torsions:
REMARK  status: ('A' for Active; 'I' for Inactive)
ROOT
HETATM    1  C1  UNL     1     -34.754  13.369  -4.817  1.00 20.00     0.017 A 
HETATM    2  C2  UNL     1     -33.988  13.689  -3.766  1.00 20.00     0.054 A 
HETATM    3  C3  UNL     1     -33.432  15.891  -4.844  1.00 20.00     0.060 A 
HETATM    4  C4  UNL     1     -34.198  15.583  -5.905  1.00 20.00    -0.044 A 
HETATM    5  C5  UNL     1     -34.947  14.274  -6.000  1.00 20.00     0.221 A 
HETATM    6  C6  UNL     1     -33.243  14.985  -3.662  1.00 20.00     0.280 A 
HETATM    7  C7  UNL     1     -34.356  16.520  -7.066  1.00 20.00     0.046 C 
HETATM    8  F8  UNL     1     -36.280  14.520  -6.158  1.00 20.00    -0.240 F 
HETATM    9  F9  UNL     1     -33.628  15.637  -2.528  1.00 20.00    -0.197 F 
HETATM   10  F10 UNL     1     -31.913  14.730  -3.497  1.00 20.00    -0.197 F 
ENDROOT
TORSDOF 0
ENDMDL
MODEL 8
REMARK VINA RESULT:      -4.5      8.633     10.317
REMARK  0 active torsions:
REMARK  status: ('A' for Active; 'I' for Inactive)
ROOT
HETATM    1  C1  UNL     1     -40.730   6.310  -0.465  1.00 20.00     0.017 A 
HETATM    2  C2  UNL     1     -41.304   7.327  -1.121  1.00 20.00     0.054 A 
HETATM    3  C3  UNL     1     -42.401   5.692  -2.685  1.00 20.00     0.060 A 
HETATM    4  C4  UNL     1     -41.831   4.662  -2.035  1.00 20.00    -0.044 A 
HETATM    5  C5  UNL     1     -40.927   4.871  -0.842  1.00 20.00     0.221 A 
HETATM    6  C6  UNL     1     -42.204   7.130  -2.304  1.00 20.00     0.280 A 
HETATM    7  C7  UNL     1     -42.055   3.240  -2.453  1.00 20.00     0.046 C 
HETATM    8  F8  UNL     1     -41.424   4.193   0.233  1.00 20.00    -0.240 F 
HETATM    9  F9  UNL     1     -43.416   7.699  -2.047  1.00 20.00    -0.197 F 
HETATM   10  F10 UNL     1     -41.703   7.816  -3.372  1.00 20.00    -0.197 F 
ENDROOT
TORSDOF 0
ENDMDL
MODEL 9
REMARK VINA RESULT:      -4.5     12.343     13.677
REMARK  0 active torsions:
REMARK  status: ('A' for Active; 'I' for Inactive)
ROOT
HETATM    1  C1  UNL     1     -34.346  15.986  -5.610  1.00 20.00     0.017 A 
HETATM    2  C2  UNL     1     -34.459  14.651  -5.627  1.00 20.00     0.054 A 
HETATM    3  C3  UNL     1     -34.255  14.605  -3.122  1.00 20.00     0.060 A 
HETATM    4  C4  UNL     1     -34.141  15.945  -3.090  1.00 20.00    -0.044 A 
HETATM    5  C5  UNL     1     -34.177  16.781  -4.348  1.00 20.00     0.221 A 
HETATM    6  C6  UNL     1     -34.427  13.813  -4.385  1.00 20.00     0.280 A 
HETATM    7  C7  UNL     1     -33.970  16.695  -1.803  1.00 20.00     0.046 C 
HETATM    8  F8  UNL     1     -35.186  17.697  -4.261  1.00 20.00    -0.240 F 
HETATM    9  F9  UNL     1     -35.575  13.080  -4.305  1.00 20.00    -0.197 F 
HETATM   10  F10 UNL     1     -33.421  12.897  -4.484  1.00 20.00    -0.197 F 
ENDROOT
TORSDOF 0
ENDMDL
