MODEL 1
REMARK VINA RESULT:      -5.4      0.000      0.000
REMARK  0 active torsions:
REMARK  status: ('A' for Active; 'I' for Inactive)
ROOT
HETATM    1  C1  UNL     1     -32.510   6.573   2.516  1.00 20.00     0.021 A 
HETATM    2  C2  UNL     1     -33.614   5.669   2.854  1.00 20.00     0.029 A 
HETATM    3  C3  UNL     1     -34.946   3.937   5.672  1.00 20.00     0.025 A 
HETATM    4  C4  UNL     1     -31.969   7.343   3.485  1.00 20.00     0.107 A 
HETATM    5  C5  UNL     1     -34.098   6.223   6.315  1.00 20.00     0.101 C 
HETATM    6  C6  UNL     1     -35.075   4.930   4.814  1.00 20.00     0.038 A 
HETATM    7  C7  UNL     1     -35.025   5.232   6.285  1.00 20.00     0.028 A 
HETATM    8  C8  UNL     1     -34.005   5.632   4.139  1.00 20.00     0.044 A 
HETATM    9  N9  UNL     1     -32.422   7.289   4.789  1.00 20.00    -0.306 N 
HETATM   10  N10 UNL     1     -33.408   6.417   5.128  1.00 20.00    -0.274 N 
HETATM   11  H16 UNL     1     -31.954   7.836   5.502  1.00 20.00     0.186 HD
ENDROOT
TORSDOF 0
ENDMDL
MODEL 2
REMARK VINA RESULT:      -5.0      1.305      3.869
REMARK  0 active torsions:
REMARK  status: ('A' for Active; 'I' for Inactive)
ROOT
HETATM    1  C1  UNL     1     -34.821   5.245   6.783  1.00 20.00     0.021 A 
HETATM    2  C2  UNL     1     -33.988   6.273   6.153  1.00 20.00     0.029 A 
HETATM    3  C3  UNL     1     -31.952   6.729   3.262  1.00 20.00     0.025 A 
HETATM    4  C4  UNL     1     -35.362   4.273   6.016  1.00 20.00     0.107 A 
HETATM    5  C5  UNL     1     -34.004   5.362   2.734  1.00 20.00     0.101 C 
HETATM    6  C6  UNL     1     -33.081   7.008   3.882  1.00 20.00     0.038 A 
HETATM    7  C7  UNL     1     -33.128   6.376   2.519  1.00 20.00     0.028 A 
HETATM    8  C8  UNL     1     -33.776   6.166   4.830  1.00 20.00     0.044 A 
HETATM    9  N9  UNL     1     -35.138   4.219   4.653  1.00 20.00    -0.306 N 
HETATM   10  N10 UNL     1     -34.324   5.134   4.064  1.00 20.00    -0.274 N 
HETATM   11  H16 UNL     1     -35.510   3.444   4.118  1.00 20.00     0.186 HD
ENDROOT
TORSDOF 0
ENDMDL
MODEL 3
REMARK VINA RESULT:      -4.6      0.849      3.483
REMARK  0 active torsions:
REMARK  status: ('A' for Active; 'I' for Inactive)
ROOT
HETATM    1  C1  UNL     1     -35.287   4.872   4.555  1.00 20.00     0.021 A 
HETATM    2  C2  UNL     1     -34.494   5.247   3.381  1.00 20.00     0.029 A 
HETATM    3  C3  UNL     1     -32.378   7.887   2.257  1.00 20.00     0.025 A 
HETATM    4  C4  UNL     1     -34.951   5.373   5.764  1.00 20.00     0.107 A 
HETATM    5  C5  UNL     1     -32.031   7.411   4.709  1.00 20.00     0.101 C 
HETATM    6  C6  UNL     1     -32.473   6.643   2.686  1.00 20.00     0.038 A 
HETATM    7  C7  UNL     1     -31.606   7.615   3.436  1.00 20.00     0.028 A 
HETATM    8  C8  UNL     1     -33.484   6.111   3.573  1.00 20.00     0.044 A 
HETATM    9  N9  UNL     1     -33.886   6.239   5.917  1.00 20.00    -0.306 N 
HETATM   10  N10 UNL     1     -33.176   6.638   4.830  1.00 20.00    -0.274 N 
HETATM   11  H16 UNL     1     -33.699   6.642   6.828  1.00 20.00     0.186 HD
ENDROOT
TORSDOF 0
ENDMDL
MODEL 4
REMARK VINA RESULT:      -4.5     12.319     14.059
REMARK  0 active torsions:
REMARK  status: ('A' for Active; 'I' for Inactive)
ROOT
HETATM    1  C1  UNL     1     -33.618  13.782  -3.727  1.00 20.00     0.021 A 
HETATM    2  C2  UNL     1     -34.495  13.429  -4.847  1.00 20.00     0.029 A 
HETATM    3  C3  UNL     1     -36.442  15.011  -7.380  1.00 20.00     0.025 A 
HETATM    4  C4  UNL     1     -32.981  14.973  -3.739  1.00 20.00     0.107 A 
HETATM    5  C5  UNL     1     -34.281  16.245  -6.978  1.00 20.00     0.101 C 
HETATM    6  C6  UNL     1     -35.361  14.321  -7.078  1.00 20.00     0.038 A 
HETATM    7  C7  UNL     1     -35.216  15.651  -7.762  1.00 20.00     0.028 A 
HETATM    8  C8  UNL     1     -34.647  14.343  -5.820  1.00 20.00     0.044 A 
HETATM    9  N9  UNL     1     -33.147  15.871  -4.776  1.00 20.00    -0.306 N 
HETATM   10  N10 UNL     1     -33.998  15.580  -5.794  1.00 20.00    -0.274 N 
HETATM   11  H16 UNL     1     -32.700  16.779  -4.724  1.00 20.00     0.186 HD
ENDROOT
TORSDOF 0
ENDMDL
MODEL 5
REMARK VINA RESULT:      -4.4     10.089     10.905
REMARK  0 active torsions:
REMARK  status: ('A' for Active; 'I' for Inactive)
ROOT
HETATM    1  C1  UNL     1     -43.032   3.722  -3.382  1.00 20.00     0.021 A 
HETATM    2  C2  UNL     1     -43.042   5.183  -3.265  1.00 20.00     0.029 A 
HETATM    3  C3  UNL     1     -42.333   7.724  -0.867  1.00 20.00     0.025 A 
HETATM    4  C4  UNL     1     -42.220   3.002  -2.578  1.00 20.00     0.107 A 
HETATM    5  C5  UNL     1     -40.692   5.817  -0.698  1.00 20.00     0.101 C 
HETATM    6  C6  UNL     1     -41.964   7.100  -1.968  1.00 20.00     0.038 A 
HETATM    7  C7  UNL     1     -41.030   7.129  -0.792  1.00 20.00     0.028 A 
HETATM    8  C8  UNL     1     -42.256   5.729  -2.322  1.00 20.00     0.044 A 
HETATM    9  N9  UNL     1     -41.408   3.610  -1.640  1.00 20.00    -0.306 N 
HETATM   10  N10 UNL     1     -41.447   4.959  -1.483  1.00 20.00    -0.274 N 
HETATM   11  H16 UNL     1     -40.856   3.036  -1.013  1.00 20.00     0.186 HD
ENDROOT
TORSDOF 0
ENDMDL
MODEL 6
REMARK VINA RESULT:      -4.4     11.928     13.019
REMARK  0 active torsions:
REMARK  status: ('A' for Active; 'I' for Inactive)
ROOT
HETATM    1  C1  UNL     1     -34.436  13.362  -4.875  1.00 20.00     0.021 A 
HETATM    2  C2  UNL     1     -34.325  13.829  -3.490  1.00 20.00     0.029 A 
HETATM    3  C3  UNL     1     -33.892  16.864  -1.669  1.00 20.00     0.025 A 
HETATM    4  C4  UNL     1     -34.873  14.217  -5.826  1.00 20.00     0.107 A 
HETATM    5  C5  UNL     1     -35.387  17.199  -3.672  1.00 20.00     0.101 C 
HETATM    6  C6  UNL     1     -34.703  15.890  -2.030  1.00 20.00     0.038 A 
HETATM    7  C7  UNL     1     -35.070  17.310  -2.357  1.00 20.00     0.028 A 
HETATM    8  C8  UNL     1     -34.633  15.114  -3.249  1.00 20.00     0.044 A 
HETATM    9  N9  UNL     1     -35.204  15.525  -5.525  1.00 20.00    -0.306 N 
HETATM   10  N10 UNL     1     -35.054  15.986  -4.256  1.00 20.00    -0.274 N 
HETATM   11  H16 UNL     1     -35.470  16.154  -6.272  1.00 20.00     0.186 HD
ENDROOT
TORSDOF 0
ENDMDL
MODEL 7
REMARK VINA RESULT:      -4.3     12.221     13.778
REMARK  0 active torsions:
REMARK  status: ('A' for Active; 'I' for Inactive)
ROOT
HETATM    1  C1  UNL     1     -34.687  16.342  -7.569  1.00 20.00     0.021 A 
HETATM    2  C2  UNL     1     -34.074  16.463  -6.242  1.00 20.00     0.029 A 
HETATM    3  C3  UNL     1     -34.345  15.046  -2.982  1.00 20.00     0.025 A 
HETATM    4  C4  UNL     1     -35.282  15.180  -7.916  1.00 20.00     0.107 A 
HETATM    5  C5  UNL     1     -34.668  13.300  -4.772  1.00 20.00     0.101 C 
HETATM    6  C6  UNL     1     -33.651  15.142  -4.099  1.00 20.00     0.038 A 
HETATM    7  C7  UNL     1     -34.113  13.789  -3.634  1.00 20.00     0.028 A 
HETATM    8  C8  UNL     1     -34.176  15.405  -5.421  1.00 20.00     0.044 A 
HETATM    9  N9  UNL     1     -35.339  14.108  -7.046  1.00 20.00    -0.306 N 
HETATM   10  N10 UNL     1     -34.823  14.224  -5.794  1.00 20.00    -0.274 N 
HETATM   11  H16 UNL     1     -35.845  13.274  -7.317  1.00 20.00     0.186 HD
ENDROOT
TORSDOF 0
ENDMDL
MODEL 8
REMARK VINA RESULT:      -4.3     12.154     13.148
REMARK  0 active torsions:
REMARK  status: ('A' for Active; 'I' for Inactive)
ROOT
HETATM    1  C1  UNL     1     -34.183  17.595  -1.504  1.00 20.00     0.021 A 
HETATM    2  C2  UNL     1     -34.447  16.161  -1.658  1.00 20.00     0.029 A 
HETATM    3  C3  UNL     1     -35.442  13.833  -4.169  1.00 20.00     0.025 A 
HETATM    4  C4  UNL     1     -33.825  18.319  -2.586  1.00 20.00     0.107 A 
HETATM    5  C5  UNL     1     -33.896  15.591  -5.106  1.00 20.00     0.101 C 
HETATM    6  C6  UNL     1     -34.473  14.301  -3.408  1.00 20.00     0.038 A 
HETATM    7  C7  UNL     1     -34.305  14.313  -4.901  1.00 20.00     0.028 A 
HETATM    8  C8  UNL     1     -34.351  15.649  -2.896  1.00 20.00     0.044 A 
HETATM    9  N9  UNL     1     -33.713  17.742  -3.837  1.00 20.00    -0.306 N 
HETATM   10  N10 UNL     1     -34.007  16.427  -4.005  1.00 20.00    -0.274 N 
HETATM   11  H16 UNL     1     -33.500  18.327  -4.637  1.00 20.00     0.186 HD
ENDROOT
TORSDOF 0
ENDMDL
MODEL 9
REMARK VINA RESULT:      -4.2     11.751     12.704
REMARK  0 active torsions:
REMARK  status: ('A' for Active; 'I' for Inactive)
ROOT
HETATM    1  C1  UNL     1     -34.290  17.325  -1.404  1.00 20.00     0.021 A 
HETATM    2  C2  UNL     1     -33.715  16.336  -2.321  1.00 20.00     0.029 A 
HETATM    3  C3  UNL     1     -34.623  13.311  -3.975  1.00 20.00     0.025 A 
HETATM    4  C4  UNL     1     -35.632  17.479  -1.357  1.00 20.00     0.107 A 
HETATM    5  C5  UNL     1     -36.554  14.931  -3.898  1.00 20.00     0.101 C 
HETATM    6  C6  UNL     1     -34.377  14.602  -4.075  1.00 20.00     0.038 A 
HETATM    7  C7  UNL     1     -35.710  14.072  -4.523  1.00 20.00     0.028 A 
HETATM    8  C8  UNL     1     -34.574  15.601  -3.047  1.00 20.00     0.044 A 
HETATM    9  N9  UNL     1     -36.475  16.717  -2.144  1.00 20.00    -0.306 N 
HETATM   10  N10 UNL     1     -35.959  15.759  -2.958  1.00 20.00    -0.274 N 
HETATM   11  H16 UNL     1     -37.477  16.817  -2.040  1.00 20.00     0.186 HD
ENDROOT
TORSDOF 0
ENDMDL
