MODEL 1
REMARK VINA RESULT:      -4.8      0.000      0.000
REMARK  6 active torsions:
REMARK  status: ('A' for Active; 'I' for Inactive)
REMARK    1  A    between atoms: C2_2  and  C6_6 
REMARK    2  A    between atoms: C6_6  and  C11_11 
REMARK    3  A    between atoms: C7_7  and  C9_9 
REMARK    4  A    between atoms: C8_8  and  C11_11 
REMARK    5  A    between atoms: C9_9  and  C10_10 
REMARK    6  A    between atoms: C10_10  and  C11_11 
ROOT
HETATM    1  C11 UNL     1     -33.371   5.777   3.784  1.00 20.00    -0.011 C 
ENDROOT
BRANCH   1   2
HETATM    2  C6  UNL     1     -33.852   6.910   4.724  1.00 20.00     0.037 C 
BRANCH   2   3
HETATM    3  C2  UNL     1     -33.905   6.542   6.191  1.00 20.00    -0.093 C 
HETATM    4  C1  UNL     1     -33.455   7.378   7.140  1.00 20.00     0.014 C 
HETATM    5  C3  UNL     1     -34.442   5.183   6.538  1.00 20.00     0.042 C 
ENDBRANCH   2   3
ENDBRANCH   1   2
BRANCH   1   6
HETATM    6  C8  UNL     1     -34.516   5.279   2.875  1.00 20.00     0.000 C 
HETATM    7  C5  UNL     1     -35.902   5.699   3.344  1.00 20.00     0.005 C 
ENDBRANCH   1   6
BRANCH   1   8
HETATM    8  C10 UNL     1     -32.102   6.215   3.011  1.00 20.00     0.005 C 
BRANCH   8   9
HETATM    9  C9  UNL     1     -31.843   7.726   2.978  1.00 20.00     0.000 C 
BRANCH   9  10
HETATM   10  C7  UNL     1     -31.927   8.319   1.568  1.00 20.00    -0.005 C 
HETATM   11  C4  UNL     1     -32.492   9.730   1.533  1.00 20.00     0.005 C 
ENDBRANCH   9  10
ENDBRANCH   8   9
ENDBRANCH   1   8
TORSDOF 6
ENDMDL
MODEL 2
REMARK VINA RESULT:      -4.5      0.867      1.188
REMARK  6 active torsions:
REMARK  status: ('A' for Active; 'I' for Inactive)
REMARK    1  A    between atoms: C2_2  and  C6_6 
REMARK    2  A    between atoms: C6_6  and  C11_11 
REMARK    3  A    between atoms: C7_7  and  C9_9 
REMARK    4  A    between atoms: C8_8  and  C11_11 
REMARK    5  A    between atoms: C9_9  and  C10_10 
REMARK    6  A    between atoms: C10_10  and  C11_11 
ROOT
HETATM    1  C11 UNL     1     -32.632   6.515   3.690  1.00 20.00    -0.011 C 
ENDROOT
BRANCH   1   2
HETATM    2  C6  UNL     1     -33.983   6.821   4.384  1.00 20.00     0.037 C 
BRANCH   2   3
HETATM    3  C2  UNL     1     -34.076   6.365   5.825  1.00 20.00    -0.093 C 
HETATM    4  C1  UNL     1     -33.582   7.107   6.829  1.00 20.00     0.014 C 
HETATM    5  C3  UNL     1     -34.706   5.026   6.081  1.00 20.00     0.042 C 
ENDBRANCH   2   3
ENDBRANCH   1   2
BRANCH   1   6
HETATM    6  C8  UNL     1     -32.788   5.405   2.627  1.00 20.00     0.000 C 
HETATM    7  C5  UNL     1     -34.234   5.030   2.334  1.00 20.00     0.005 C 
ENDBRANCH   1   6
BRANCH   1   8
HETATM    8  C10 UNL     1     -31.992   7.817   3.149  1.00 20.00     0.005 C 
BRANCH   8   9
HETATM    9  C9  UNL     1     -31.829   7.883   1.626  1.00 20.00     0.000 C 
BRANCH   9  10
HETATM   10  C7  UNL     1     -32.222   9.242   1.038  1.00 20.00    -0.005 C 
HETATM   11  C4  UNL     1     -32.812  10.200   2.061  1.00 20.00     0.005 C 
ENDBRANCH   9  10
ENDBRANCH   8   9
ENDBRANCH   1   8
TORSDOF 6
ENDMDL
MODEL 3
REMARK VINA RESULT:      -4.3     10.800     12.469
REMARK  6 active torsions:
REMARK  status: ('A' for Active; 'I' for Inactive)
REMARK    1  A    between atoms: C2_2  and  C6_6 
REMARK    2  A    between atoms: C6_6  and  C11_11 
REMARK    3  A    between atoms: C7_7  and  C9_9 
REMARK    4  A    between atoms: C8_8  and  C11_11 
REMARK    5  A    between atoms: C9_9  and  C10_10 
REMARK    6  A    between atoms: C10_10  and  C11_11 
ROOT
HETATM    1  C11 UNL     1     -34.296  16.687  -2.911  1.00 20.00    -0.011 C 
ENDROOT
BRANCH   1   2
HETATM    2  C6  UNL     1     -34.043  15.175  -3.133  1.00 20.00     0.037 C 
BRANCH   2   3
HETATM    3  C2  UNL     1     -35.231  14.402  -3.663  1.00 20.00    -0.093 C 
HETATM    4  C1  UNL     1     -35.079  13.222  -4.285  1.00 20.00     0.014 C 
HETATM    5  C3  UNL     1     -36.586  15.030  -3.503  1.00 20.00     0.042 C 
ENDBRANCH   2   3
ENDBRANCH   1   2
BRANCH   1   6
HETATM    6  C8  UNL     1     -33.768  17.146  -1.534  1.00 20.00     0.000 C 
HETATM    7  C5  UNL     1     -34.729  16.878  -0.383  1.00 20.00     0.005 C 
ENDBRANCH   1   6
BRANCH   1   8
HETATM    8  C10 UNL     1     -33.745  17.511  -4.100  1.00 20.00     0.005 C 
BRANCH   8   9
HETATM    9  C9  UNL     1     -33.278  16.688  -5.307  1.00 20.00     0.000 C 
BRANCH   9  10
HETATM   10  C7  UNL     1     -34.276  16.709  -6.469  1.00 20.00    -0.005 C 
HETATM   11  C4  UNL     1     -34.397  15.376  -7.193  1.00 20.00     0.005 C 
ENDBRANCH   9  10
ENDBRANCH   8   9
ENDBRANCH   1   8
TORSDOF 6
ENDMDL
MODEL 4
REMARK VINA RESULT:      -4.3      1.008      4.759
REMARK  6 active torsions:
REMARK  status: ('A' for Active; 'I' for Inactive)
REMARK    1  A    between atoms: C2_2  and  C6_6 
REMARK    2  A    between atoms: C6_6  and  C11_11 
REMARK    3  A    between atoms: C7_7  and  C9_9 
REMARK    4  A    between atoms: C8_8  and  C11_11 
REMARK    5  A    between atoms: C9_9  and  C10_10 
REMARK    6  A    between atoms: C10_10  and  C11_11 
ROOT
HETATM    1  C11 UNL     1     -33.026   6.953   3.537  1.00 20.00    -0.011 C 
ENDROOT
BRANCH   1   2
HETATM    2  C6  UNL     1     -31.803   7.741   3.005  1.00 20.00     0.037 C 
BRANCH   2   3
HETATM    3  C2  UNL     1     -32.093   8.646   1.826  1.00 20.00    -0.093 C 
HETATM    4  C1  UNL     1     -31.690   8.331   0.585  1.00 20.00     0.014 C 
HETATM    5  C3  UNL     1     -32.811   9.933   2.110  1.00 20.00     0.042 C 
ENDBRANCH   2   3
ENDBRANCH   1   2
BRANCH   1   6
HETATM    6  C8  UNL     1     -33.167   5.590   2.825  1.00 20.00     0.000 C 
HETATM    7  C5  UNL     1     -34.580   5.285   2.349  1.00 20.00     0.005 C 
ENDBRANCH   1   6
BRANCH   1   8
HETATM    8  C10 UNL     1     -32.976   6.851   5.082  1.00 20.00     0.005 C 
BRANCH   8   9
HETATM    9  C9  UNL     1     -34.301   6.478   5.757  1.00 20.00     0.000 C 
BRANCH   9  10
HETATM   10  C7  UNL     1     -34.265   5.102   6.430  1.00 20.00    -0.005 C 
HETATM   11  C4  UNL     1     -35.034   4.032   5.671  1.00 20.00     0.005 C 
ENDBRANCH   9  10
ENDBRANCH   8   9
ENDBRANCH   1   8
TORSDOF 6
ENDMDL
MODEL 5
REMARK VINA RESULT:      -4.3     10.577     12.133
REMARK  6 active torsions:
REMARK  status: ('A' for Active; 'I' for Inactive)
REMARK    1  A    between atoms: C2_2  and  C6_6 
REMARK    2  A    between atoms: C6_6  and  C11_11 
REMARK    3  A    between atoms: C7_7  and  C9_9 
REMARK    4  A    between atoms: C8_8  and  C11_11 
REMARK    5  A    between atoms: C9_9  and  C10_10 
REMARK    6  A    between atoms: C10_10  and  C11_11 
ROOT
HETATM    1  C11 UNL     1     -33.724  16.592  -2.798  1.00 20.00    -0.011 C 
ENDROOT
BRANCH   1   2
HETATM    2  C6  UNL     1     -34.757  15.440  -2.859  1.00 20.00     0.037 C 
BRANCH   2   3
HETATM    3  C2  UNL     1     -34.275  14.189  -3.561  1.00 20.00    -0.093 C 
HETATM    4  C1  UNL     1     -32.979  13.839  -3.560  1.00 20.00     0.014 C 
HETATM    5  C3  UNL     1     -35.301  13.376  -4.298  1.00 20.00     0.042 C 
ENDBRANCH   2   3
ENDBRANCH   1   2
BRANCH   1   6
HETATM    6  C8  UNL     1     -33.974  17.627  -3.917  1.00 20.00     0.000 C 
HETATM    7  C5  UNL     1     -33.426  17.211  -5.275  1.00 20.00     0.005 C 
ENDBRANCH   1   6
BRANCH   1   8
HETATM    8  C10 UNL     1     -33.677  17.205  -1.376  1.00 20.00     0.005 C 
BRANCH   8   9
HETATM    9  C9  UNL     1     -34.839  16.814  -0.456  1.00 20.00     0.000 C 
BRANCH   9  10
HETATM   10  C7  UNL     1     -34.878  17.630   0.841  1.00 20.00    -0.005 C 
HETATM   11  C4  UNL     1     -33.658  18.517   1.039  1.00 20.00     0.005 C 
ENDBRANCH   9  10
ENDBRANCH   8   9
ENDBRANCH   1   8
TORSDOF 6
ENDMDL
MODEL 6
REMARK VINA RESULT:      -4.3     10.636     12.356
REMARK  6 active torsions:
REMARK  status: ('A' for Active; 'I' for Inactive)
REMARK    1  A    between atoms: C2_2  and  C6_6 
REMARK    2  A    between atoms: C6_6  and  C11_11 
REMARK    3  A    between atoms: C7_7  and  C9_9 
REMARK    4  A    between atoms: C8_8  and  C11_11 
REMARK    5  A    between atoms: C9_9  and  C10_10 
REMARK    6  A    between atoms: C10_10  and  C11_11 
ROOT
HETATM    1  C11 UNL     1     -33.312  15.569  -3.584  1.00 20.00    -0.011 C 
ENDROOT
BRANCH   1   2
HETATM    2  C6  UNL     1     -34.568  16.104  -2.853  1.00 20.00     0.037 C 
BRANCH   2   3
HETATM    3  C2  UNL     1     -34.283  17.039  -1.697  1.00 20.00    -0.093 C 
HETATM    4  C1  UNL     1     -34.710  16.767  -0.453  1.00 20.00     0.014 C 
HETATM    5  C3  UNL     1     -33.541  18.307  -2.007  1.00 20.00     0.042 C 
ENDBRANCH   2   3
ENDBRANCH   1   2
BRANCH   1   6
HETATM    6  C8  UNL     1     -33.344  14.029  -3.699  1.00 20.00     0.000 C 
HETATM    7  C5  UNL     1     -34.736  13.457  -3.929  1.00 20.00     0.005 C 
ENDBRANCH   1   6
BRANCH   1   8
HETATM    8  C10 UNL     1     -33.120  16.295  -4.938  1.00 20.00     0.005 C 
BRANCH   8   9
HETATM    9  C9  UNL     1     -34.399  16.872  -5.559  1.00 20.00     0.000 C 
BRANCH   9  10
HETATM   10  C7  UNL     1     -34.586  16.472  -7.026  1.00 20.00    -0.005 C 
HETATM   11  C4  UNL     1     -34.474  14.975  -7.269  1.00 20.00     0.005 C 
ENDBRANCH   9  10
ENDBRANCH   8   9
ENDBRANCH   1   8
TORSDOF 6
ENDMDL
MODEL 7
REMARK VINA RESULT:      -4.3     10.622     12.247
REMARK  6 active torsions:
REMARK  status: ('A' for Active; 'I' for Inactive)
REMARK    1  A    between atoms: C2_2  and  C6_6 
REMARK    2  A    between atoms: C6_6  and  C11_11 
REMARK    3  A    between atoms: C7_7  and  C9_9 
REMARK    4  A    between atoms: C8_8  and  C11_11 
REMARK    5  A    between atoms: C9_9  and  C10_10 
REMARK    6  A    between atoms: C10_10  and  C11_11 
ROOT
HETATM    1  C11 UNL     1     -33.665  16.257  -3.082  1.00 20.00    -0.011 C 
ENDROOT
BRANCH   1   2
HETATM    2  C6  UNL     1     -34.558  16.202  -1.818  1.00 20.00     0.037 C 
BRANCH   2   3
HETATM    3  C2  UNL     1     -34.219  17.223  -0.754  1.00 20.00    -0.093 C 
HETATM    4  C1  UNL     1     -33.149  18.026  -0.868  1.00 20.00     0.014 C 
HETATM    5  C3  UNL     1     -35.105  17.272   0.458  1.00 20.00     0.042 C 
ENDBRANCH   2   3
ENDBRANCH   1   2
BRANCH   1   6
HETATM    6  C8  UNL     1     -33.174  14.848  -3.482  1.00 20.00     0.000 C 
HETATM    7  C5  UNL     1     -34.287  13.816  -3.596  1.00 20.00     0.005 C 
ENDBRANCH   1   6
BRANCH   1   8
HETATM    8  C10 UNL     1     -34.385  17.018  -4.223  1.00 20.00     0.005 C 
BRANCH   8   9
HETATM    9  C9  UNL     1     -33.630  17.064  -5.557  1.00 20.00     0.000 C 
BRANCH   9  10
HETATM   10  C7  UNL     1     -34.488  16.622  -6.747  1.00 20.00    -0.005 C 
HETATM   11  C4  UNL     1     -34.353  15.144  -7.080  1.00 20.00     0.005 C 
ENDBRANCH   9  10
ENDBRANCH   8   9
ENDBRANCH   1   8
TORSDOF 6
ENDMDL
MODEL 8
REMARK VINA RESULT:      -4.2     10.739     12.136
REMARK  6 active torsions:
REMARK  status: ('A' for Active; 'I' for Inactive)
REMARK    1  A    between atoms: C2_2  and  C6_6 
REMARK    2  A    between atoms: C6_6  and  C11_11 
REMARK    3  A    between atoms: C7_7  and  C9_9 
REMARK    4  A    between atoms: C8_8  and  C11_11 
REMARK    5  A    between atoms: C9_9  and  C10_10 
REMARK    6  A    between atoms: C10_10  and  C11_11 
ROOT
HETATM    1  C11 UNL     1     -35.254  16.487  -2.826  1.00 20.00    -0.011 C 
ENDROOT
BRANCH   1   2
HETATM    2  C6  UNL     1     -33.987  16.451  -1.936  1.00 20.00     0.037 C 
BRANCH   2   3
HETATM    3  C2  UNL     1     -34.030  17.365  -0.731  1.00 20.00    -0.093 C 
HETATM    4  C1  UNL     1     -34.969  17.229   0.219  1.00 20.00     0.014 C 
HETATM    5  C3  UNL     1     -33.004  18.459  -0.661  1.00 20.00     0.042 C 
ENDBRANCH   2   3
ENDBRANCH   1   2
BRANCH   1   6
HETATM    6  C8  UNL     1     -35.103  17.509  -3.975  1.00 20.00     0.000 C 
HETATM    7  C5  UNL     1     -33.691  17.604  -4.534  1.00 20.00     0.005 C 
ENDBRANCH   1   6
BRANCH   1   8
HETATM    8  C10 UNL     1     -35.625  15.060  -3.301  1.00 20.00     0.005 C 
BRANCH   8   9
HETATM    9  C9  UNL     1     -34.442  14.098  -3.471  1.00 20.00     0.000 C 
BRANCH   9  10
HETATM   10  C7  UNL     1     -34.446  13.376  -4.823  1.00 20.00    -0.005 C 
HETATM   11  C4  UNL     1     -34.798  14.279  -5.995  1.00 20.00     0.005 C 
ENDBRANCH   9  10
ENDBRANCH   8   9
ENDBRANCH   1   8
TORSDOF 6
ENDMDL
MODEL 9
REMARK VINA RESULT:      -4.2     11.085     12.966
REMARK  6 active torsions:
REMARK  status: ('A' for Active; 'I' for Inactive)
REMARK    1  A    between atoms: C2_2  and  C6_6 
REMARK    2  A    between atoms: C6_6  and  C11_11 
REMARK    3  A    between atoms: C7_7  and  C9_9 
REMARK    4  A    between atoms: C8_8  and  C11_11 
REMARK    5  A    between atoms: C9_9  and  C10_10 
REMARK    6  A    between atoms: C10_10  and  C11_11 
ROOT
HETATM    1  C11 UNL     1     -33.674  16.289  -4.349  1.00 20.00    -0.011 C 
ENDROOT
BRANCH   1   2
HETATM    2  C6  UNL     1     -35.035  15.682  -4.773  1.00 20.00     0.037 C 
BRANCH   2   3
HETATM    3  C2  UNL     1     -34.941  14.377  -5.533  1.00 20.00    -0.093 C 
HETATM    4  C1  UNL     1     -34.687  13.217  -4.906  1.00 20.00     0.014 C 
HETATM    5  C3  UNL     1     -35.099  14.438  -7.025  1.00 20.00     0.042 C 
ENDBRANCH   2   3
ENDBRANCH   1   2
BRANCH   1   6
HETATM    6  C8  UNL     1     -33.542  17.753  -4.826  1.00 20.00     0.000 C 
HETATM    7  C5  UNL     1     -33.984  17.975  -6.265  1.00 20.00     0.005 C 
ENDBRANCH   1   6
BRANCH   1   8
HETATM    8  C10 UNL     1     -33.446  16.102  -2.828  1.00 20.00     0.005 C 
BRANCH   8   9
HETATM    9  C9  UNL     1     -34.720  15.980  -1.985  1.00 20.00     0.000 C 
BRANCH   9  10
HETATM   10  C7  UNL     1     -34.668  16.808  -0.697  1.00 20.00    -0.005 C 
HETATM   11  C4  UNL     1     -33.533  17.821  -0.669  1.00 20.00     0.005 C 
ENDBRANCH   9  10
ENDBRANCH   8   9
ENDBRANCH   1   8
TORSDOF 6
ENDMDL
