MODEL 1
REMARK VINA RESULT:      -5.0      0.000      0.000
REMARK  0 active torsions:
REMARK  status: ('A' for Active; 'I' for Inactive)
ROOT
HETATM    1  C1  UNL     1     -34.463  13.206  -4.888  1.00 20.00     0.001 C 
HETATM    2  C2  UNL     1     -34.256  17.536  -7.325  1.00 20.00     0.001 C 
HETATM    3  C3  UNL     1     -35.162  14.191  -5.836  1.00 20.00     0.005 C 
HETATM    4  C4  UNL     1     -35.079  16.262  -7.296  1.00 20.00     0.005 C 
HETATM    5  C5  UNL     1     -33.715  13.824  -3.706  1.00 20.00     0.005 C 
HETATM    6  C6  UNL     1     -33.905  17.764  -5.862  1.00 20.00     0.005 C 
HETATM    7  C7  UNL     1     -33.726  16.215  -2.634  1.00 20.00     0.010 A 
HETATM    8  C8  UNL     1     -34.311  15.373  -6.313  1.00 20.00    -0.010 C 
HETATM    9  C9  UNL     1     -34.450  14.990  -3.126  1.00 20.00    -0.010 A 
HETATM   10  C10 UNL     1     -33.782  16.360  -5.240  1.00 20.00    -0.006 C 
HETATM   11  C11 UNL     1     -34.507  16.272  -3.922  1.00 20.00    -0.006 A 
ENDROOT
TORSDOF 0
ENDMDL
MODEL 2
REMARK VINA RESULT:      -4.9     11.600     13.551
REMARK  0 active torsions:
REMARK  status: ('A' for Active; 'I' for Inactive)
ROOT
HETATM    1  C1  UNL     1     -35.180   4.280   4.747  1.00 20.00     0.001 C 
HETATM    2  C2  UNL     1     -32.042   7.273   2.313  1.00 20.00     0.001 C 
HETATM    3  C3  UNL     1     -34.976   5.284   3.604  1.00 20.00     0.005 C 
HETATM    4  C4  UNL     1     -33.424   6.668   2.153  1.00 20.00     0.005 C 
HETATM    5  C5  UNL     1     -34.491   4.615   6.070  1.00 20.00     0.005 C 
HETATM    6  C6  UNL     1     -31.949   7.552   3.806  1.00 20.00     0.005 C 
HETATM    7  C7  UNL     1     -33.379   6.796   7.006  1.00 20.00     0.010 A 
HETATM    8  C8  UNL     1     -33.527   5.713   3.347  1.00 20.00    -0.010 C 
HETATM    9  C9  UNL     1     -34.541   6.080   6.373  1.00 20.00    -0.010 A 
HETATM   10  C10 UNL     1     -32.780   6.449   4.489  1.00 20.00    -0.006 C 
HETATM   11  C11 UNL     1     -33.690   7.015   5.547  1.00 20.00    -0.006 A 
ENDROOT
TORSDOF 0
ENDMDL
MODEL 3
REMARK VINA RESULT:      -4.8      0.974      3.348
REMARK  0 active torsions:
REMARK  status: ('A' for Active; 'I' for Inactive)
ROOT
HETATM    1  C1  UNL     1     -34.795  13.286  -4.797  1.00 20.00     0.001 C 
HETATM    2  C2  UNL     1     -35.191  17.348  -1.955  1.00 20.00     0.001 C 
HETATM    3  C3  UNL     1     -34.270  14.075  -3.588  1.00 20.00     0.005 C 
HETATM    4  C4  UNL     1     -34.521  15.986  -1.942  1.00 20.00     0.005 C 
HETATM    5  C5  UNL     1     -35.143  14.108  -6.038  1.00 20.00     0.005 C 
HETATM    6  C6  UNL     1     -35.125  17.761  -3.418  1.00 20.00     0.005 C 
HETATM    7  C7  UNL     1     -34.612  16.571  -6.761  1.00 20.00     0.010 A 
HETATM    8  C8  UNL     1     -35.093  15.305  -3.190  1.00 20.00    -0.010 C 
HETATM    9  C9  UNL     1     -34.169  15.221  -6.265  1.00 20.00    -0.010 A 
HETATM   10  C10 UNL     1     -35.222  16.452  -4.225  1.00 20.00    -0.006 C 
HETATM   11  C11 UNL     1     -34.192  16.400  -5.323  1.00 20.00    -0.006 A 
ENDROOT
TORSDOF 0
ENDMDL
MODEL 4
REMARK VINA RESULT:      -4.7      1.986      3.680
REMARK  0 active torsions:
REMARK  status: ('A' for Active; 'I' for Inactive)
ROOT
HETATM    1  C1  UNL     1     -33.657  13.592  -3.976  1.00 20.00     0.001 C 
HETATM    2  C2  UNL     1     -35.083  17.568  -1.353  1.00 20.00     0.001 C 
HETATM    3  C3  UNL     1     -33.299  14.988  -3.446  1.00 20.00     0.005 C 
HETATM    4  C4  UNL     1     -33.826  16.967  -1.953  1.00 20.00     0.005 C 
HETATM    5  C5  UNL     1     -35.082  13.416  -4.504  1.00 20.00     0.005 C 
HETATM    6  C6  UNL     1     -36.161  17.223  -2.369  1.00 20.00     0.005 C 
HETATM    7  C7  UNL     1     -36.971  15.112  -5.152  1.00 20.00     0.010 A 
HETATM    8  C8  UNL     1     -34.302  15.604  -2.465  1.00 20.00    -0.010 C 
HETATM    9  C9  UNL     1     -35.553  14.620  -5.256  1.00 20.00    -0.010 A 
HETATM   10  C10 UNL     1     -35.741  15.871  -2.978  1.00 20.00    -0.006 C 
HETATM   11  C11 UNL     1     -35.861  15.878  -4.480  1.00 20.00    -0.006 A 
ENDROOT
TORSDOF 0
ENDMDL
MODEL 5
REMARK VINA RESULT:      -4.7      0.942      1.509
REMARK  0 active torsions:
REMARK  status: ('A' for Active; 'I' for Inactive)
ROOT
HETATM    1  C1  UNL     1     -33.454  13.637  -3.786  1.00 20.00     0.001 C 
HETATM    2  C2  UNL     1     -35.404  15.600  -7.918  1.00 20.00     0.001 C 
HETATM    3  C3  UNL     1     -34.630  13.668  -4.773  1.00 20.00     0.005 C 
HETATM    4  C4  UNL     1     -35.622  14.430  -6.977  1.00 20.00     0.005 C 
HETATM    5  C5  UNL     1     -32.849  14.992  -3.415  1.00 20.00     0.005 C 
HETATM    6  C6  UNL     1     -34.955  16.720  -6.991  1.00 20.00     0.005 C 
HETATM    7  C7  UNL     1     -33.668  17.462  -3.728  1.00 20.00     0.010 A 
HETATM    8  C8  UNL     1     -34.417  14.511  -6.034  1.00 20.00    -0.010 C 
HETATM    9  C9  UNL     1     -33.897  16.049  -3.262  1.00 20.00    -0.010 A 
HETATM   10  C10 UNL     1     -34.178  16.032  -5.853  1.00 20.00    -0.006 C 
HETATM   11  C11 UNL     1     -34.592  16.557  -4.502  1.00 20.00    -0.006 A 
ENDROOT
TORSDOF 0
ENDMDL
MODEL 6
REMARK VINA RESULT:      -4.7      1.517      3.888
REMARK  0 active torsions:
REMARK  status: ('A' for Active; 'I' for Inactive)
ROOT
HETATM    1  C1  UNL     1     -33.652  16.366  -5.746  1.00 20.00     0.001 C 
HETATM    2  C2  UNL     1     -33.824  17.471  -0.901  1.00 20.00     0.001 C 
HETATM    3  C3  UNL     1     -33.785  17.455  -4.673  1.00 20.00     0.005 C 
HETATM    4  C4  UNL     1     -33.663  18.163  -2.242  1.00 20.00     0.005 C 
HETATM    5  C5  UNL     1     -34.418  15.068  -5.489  1.00 20.00     0.005 C 
HETATM    6  C6  UNL     1     -34.811  16.351  -1.198  1.00 20.00     0.005 C 
HETATM    7  C7  UNL     1     -36.324  14.418  -3.811  1.00 20.00     0.010 A 
HETATM    8  C8  UNL     1     -33.566  16.994  -3.228  1.00 20.00    -0.010 C 
HETATM    9  C9  UNL     1     -35.759  15.321  -4.874  1.00 20.00    -0.010 A 
HETATM   10  C10 UNL     1     -34.537  15.931  -2.655  1.00 20.00    -0.006 C 
HETATM   11  C11 UNL     1     -35.816  15.788  -3.440  1.00 20.00    -0.006 A 
ENDROOT
TORSDOF 0
ENDMDL
MODEL 7
REMARK VINA RESULT:      -4.7      1.430      3.437
REMARK  0 active torsions:
REMARK  status: ('A' for Active; 'I' for Inactive)
ROOT
HETATM    1  C1  UNL     1     -35.913  18.066  -4.355  1.00 20.00     0.001 C 
HETATM    2  C2  UNL     1     -34.537  13.324  -4.944  1.00 20.00     0.001 C 
HETATM    3  C3  UNL     1     -35.065  17.054  -5.138  1.00 20.00     0.005 C 
HETATM    4  C4  UNL     1     -34.463  14.651  -5.676  1.00 20.00     0.005 C 
HETATM    5  C5  UNL     1     -35.963  17.874  -2.838  1.00 20.00     0.005 C 
HETATM    6  C6  UNL     1     -34.379  13.717  -3.483  1.00 20.00     0.005 C 
HETATM    7  C7  UNL     1     -34.532  16.450  -1.167  1.00 20.00     0.010 A 
HETATM    8  C8  UNL     1     -35.314  15.579  -4.803  1.00 20.00    -0.010 C 
HETATM    9  C9  UNL     1     -34.639  17.454  -2.283  1.00 20.00    -0.010 A 
HETATM   10  C10 UNL     1     -35.024  15.110  -3.354  1.00 20.00    -0.006 C 
HETATM   11  C11 UNL     1     -34.149  16.055  -2.571  1.00 20.00    -0.006 A 
ENDROOT
TORSDOF 0
ENDMDL
MODEL 8
REMARK VINA RESULT:      -4.6      0.896      2.586
REMARK  0 active torsions:
REMARK  status: ('A' for Active; 'I' for Inactive)
ROOT
HETATM    1  C1  UNL     1     -33.855  16.771  -3.200  1.00 20.00     0.001 C 
HETATM    2  C2  UNL     1     -35.336  16.240  -7.918  1.00 20.00     0.001 C 
HETATM    3  C3  UNL     1     -33.535  16.980  -4.687  1.00 20.00     0.005 C 
HETATM    4  C4  UNL     1     -34.275  16.967  -7.111  1.00 20.00     0.005 C 
HETATM    5  C5  UNL     1     -34.513  15.440  -2.833  1.00 20.00     0.005 C 
HETATM    6  C6  UNL     1     -35.485  14.912  -7.190  1.00 20.00     0.005 C 
HETATM    7  C7  UNL     1     -34.818  13.180  -4.123  1.00 20.00     0.010 A 
HETATM    8  C8  UNL     1     -34.676  16.672  -5.662  1.00 20.00    -0.010 C 
HETATM    9  C9  UNL     1     -33.949  14.300  -3.620  1.00 20.00    -0.010 A 
HETATM   10  C10 UNL     1     -35.215  15.219  -5.705  1.00 20.00    -0.006 C 
HETATM   11  C11 UNL     1     -34.285  14.205  -5.089  1.00 20.00    -0.006 A 
ENDROOT
TORSDOF 0
ENDMDL
MODEL 9
REMARK VINA RESULT:      -4.6      1.745      3.891
REMARK  0 active torsions:
REMARK  status: ('A' for Active; 'I' for Inactive)
ROOT
HETATM    1  C1  UNL     1     -34.016  17.357  -0.736  1.00 20.00     0.001 C 
HETATM    2  C2  UNL     1     -34.108  14.449  -4.769  1.00 20.00     0.001 C 
HETATM    3  C3  UNL     1     -34.775  16.300  -1.551  1.00 20.00     0.005 C 
HETATM    4  C4  UNL     1     -34.831  14.616  -3.445  1.00 20.00     0.005 C 
HETATM    5  C5  UNL     1     -33.336  18.467  -1.539  1.00 20.00     0.005 C 
HETATM    6  C6  UNL     1     -33.798  15.879  -5.187  1.00 20.00     0.005 C 
HETATM    7  C7  UNL     1     -33.549  19.263  -4.027  1.00 20.00     0.010 A 
HETATM    8  C8  UNL     1     -34.010  15.699  -2.735  1.00 20.00    -0.010 C 
HETATM    9  C9  UNL     1     -34.168  18.907  -2.702  1.00 20.00    -0.010 A 
HETATM   10  C10 UNL     1     -33.576  16.656  -3.875  1.00 20.00    -0.006 C 
HETATM   11  C11 UNL     1     -34.312  17.972  -3.878  1.00 20.00    -0.006 A 
ENDROOT
TORSDOF 0
ENDMDL
