MODEL 1
REMARK VINA RESULT:      -4.9      0.000      0.000
REMARK  1 active torsions:
REMARK  status: ('A' for Active; 'I' for Inactive)
REMARK    1  A    between atoms: C4_4  and  C7_7 
ROOT
HETATM    1  C1  UNL     1     -35.060   3.795   5.786  1.00 20.00     0.014 C 
HETATM    2  C2  UNL     1     -34.562   4.829   5.437  1.00 20.00    -0.091 C 
HETATM    3  C3  UNL     1     -34.531   6.761   3.805  1.00 20.00     0.046 A 
HETATM    4  C4  UNL     1     -33.192   6.082   3.716  1.00 20.00     0.024 A 
HETATM    5  C5  UNL     1     -33.964   6.064   5.020  1.00 20.00     0.103 A 
HETATM    6 CL8  UNL     1     -33.441   7.081   6.366  1.00 20.00    -0.105 Cl
ENDROOT
BRANCH   4   7
HETATM    7  C7  UNL     1     -31.958   6.895   3.516  1.00 20.00     0.003 C 
HETATM    8  C6  UNL     1     -32.086   7.892   2.393  1.00 20.00     0.005 C 
ENDBRANCH   4   7
TORSDOF 1
ENDMDL
MODEL 2
REMARK VINA RESULT:      -4.7      1.391      4.164
REMARK  1 active torsions:
REMARK  status: ('A' for Active; 'I' for Inactive)
REMARK    1  A    between atoms: C4_4  and  C7_7 
ROOT
HETATM    1  C1  UNL     1     -32.103   8.834   1.025  1.00 20.00     0.014 C 
HETATM    2  C2  UNL     1     -32.111   8.130   1.996  1.00 20.00    -0.091 C 
HETATM    3  C3  UNL     1     -32.214   5.793   2.958  1.00 20.00     0.046 A 
HETATM    4  C4  UNL     1     -33.402   6.546   3.490  1.00 20.00     0.024 A 
HETATM    5  C5  UNL     1     -32.124   7.288   3.157  1.00 20.00     0.103 A 
HETATM    6 CL8  UNL     1     -31.081   7.870   4.458  1.00 20.00    -0.105 Cl
ENDROOT
BRANCH   4   7
HETATM    7  C7  UNL     1     -33.864   6.315   4.889  1.00 20.00     0.003 C 
HETATM    8  C6  UNL     1     -34.829   5.163   5.007  1.00 20.00     0.005 C 
ENDBRANCH   4   7
TORSDOF 1
ENDMDL
MODEL 3
REMARK VINA RESULT:      -4.2      1.980      2.464
REMARK  1 active torsions:
REMARK  status: ('A' for Active; 'I' for Inactive)
REMARK    1  A    between atoms: C4_4  and  C7_7 
ROOT
HETATM    1  C1  UNL     1     -34.116   6.346   6.148  1.00 20.00     0.014 C 
HETATM    2  C2  UNL     1     -33.753   6.312   5.005  1.00 20.00    -0.091 C 
HETATM    3  C3  UNL     1     -31.876   5.925   3.354  1.00 20.00     0.046 A 
HETATM    4  C4  UNL     1     -32.351   7.339   3.164  1.00 20.00     0.024 A 
HETATM    5  C5  UNL     1     -33.319   6.274   3.639  1.00 20.00     0.103 A 
HETATM    6 CL8  UNL     1     -34.539   5.639   2.531  1.00 20.00    -0.105 Cl
ENDROOT
BRANCH   4   7
HETATM    7  C7  UNL     1     -32.403   7.929   1.796  1.00 20.00     0.003 C 
HETATM    8  C6  UNL     1     -32.477   9.434   1.807  1.00 20.00     0.005 C 
ENDBRANCH   4   7
TORSDOF 1
ENDMDL
MODEL 4
REMARK VINA RESULT:      -4.0     11.965     12.849
REMARK  1 active torsions:
REMARK  status: ('A' for Active; 'I' for Inactive)
REMARK    1  A    between atoms: C4_4  and  C7_7 
ROOT
HETATM    1  C1  UNL     1     -34.450  15.023  -6.912  1.00 20.00     0.014 C 
HETATM    2  C2  UNL     1     -34.379  14.948  -5.716  1.00 20.00    -0.091 C 
HETATM    3  C3  UNL     1     -35.560  15.022  -3.481  1.00 20.00     0.046 A 
HETATM    4  C4  UNL     1     -34.531  16.118  -3.477  1.00 20.00     0.024 A 
HETATM    5  C5  UNL     1     -34.292  14.861  -4.287  1.00 20.00     0.103 A 
HETATM    6 CL8  UNL     1     -33.122  13.663  -3.726  1.00 20.00    -0.105 Cl
ENDROOT
BRANCH   4   7
HETATM    7  C7  UNL     1     -33.782  16.431  -2.226  1.00 20.00     0.003 C 
HETATM    8  C6  UNL     1     -34.675  16.532  -1.016  1.00 20.00     0.005 C 
ENDBRANCH   4   7
TORSDOF 1
ENDMDL
MODEL 5
REMARK VINA RESULT:      -4.0     11.414     12.619
REMARK  1 active torsions:
REMARK  status: ('A' for Active; 'I' for Inactive)
REMARK    1  A    between atoms: C4_4  and  C7_7 
ROOT
HETATM    1  C1  UNL     1     -34.554  16.390  -1.526  1.00 20.00     0.014 C 
HETATM    2  C2  UNL     1     -34.827  15.655  -2.434  1.00 20.00    -0.091 C 
HETATM    3  C3  UNL     1     -34.306  13.543  -3.726  1.00 20.00     0.046 A 
HETATM    4  C4  UNL     1     -34.191  14.693  -4.688  1.00 20.00     0.024 A 
HETATM    5  C5  UNL     1     -35.154  14.777  -3.521  1.00 20.00     0.103 A 
HETATM    6 CL8  UNL     1     -36.890  14.623  -3.802  1.00 20.00    -0.105 Cl
ENDROOT
BRANCH   4   7
HETATM    7  C7  UNL     1     -34.641  14.530  -6.100  1.00 20.00     0.003 C 
HETATM    8  C6  UNL     1     -34.264  15.697  -6.976  1.00 20.00     0.005 C 
ENDBRANCH   4   7
TORSDOF 1
ENDMDL
MODEL 6
REMARK VINA RESULT:      -4.0     11.793     12.311
REMARK  1 active torsions:
REMARK  status: ('A' for Active; 'I' for Inactive)
REMARK    1  A    between atoms: C4_4  and  C7_7 
ROOT
HETATM    1  C1  UNL     1     -34.567  17.006  -0.399  1.00 20.00     0.014 C 
HETATM    2  C2  UNL     1     -34.526  16.563  -1.513  1.00 20.00    -0.091 C 
HETATM    3  C3  UNL     1     -35.725  15.396  -3.410  1.00 20.00     0.046 A 
HETATM    4  C4  UNL     1     -34.559  14.529  -3.020  1.00 20.00     0.024 A 
HETATM    5  C5  UNL     1     -34.476  16.032  -2.844  1.00 20.00     0.103 A 
HETATM    6 CL8  UNL     1     -33.485  16.991  -3.948  1.00 20.00    -0.105 Cl
ENDROOT
BRANCH   4   7
HETATM    7  C7  UNL     1     -33.797  13.792  -4.067  1.00 20.00     0.003 C 
HETATM    8  C6  UNL     1     -34.679  13.236  -5.155  1.00 20.00     0.005 C 
ENDBRANCH   4   7
TORSDOF 1
ENDMDL
MODEL 7
REMARK VINA RESULT:      -3.9     12.369     13.118
REMARK  1 active torsions:
REMARK  status: ('A' for Active; 'I' for Inactive)
REMARK    1  A    between atoms: C4_4  and  C7_7 
ROOT
HETATM    1  C1  UNL     1     -35.228  14.167  -6.168  1.00 20.00     0.014 C 
HETATM    2  C2  UNL     1     -34.546  14.837  -5.442  1.00 20.00    -0.091 C 
HETATM    3  C3  UNL     1     -32.701  14.943  -3.715  1.00 20.00     0.046 A 
HETATM    4  C4  UNL     1     -33.940  15.511  -3.078  1.00 20.00     0.024 A 
HETATM    5  C5  UNL     1     -33.732  15.638  -4.574  1.00 20.00     0.103 A 
HETATM    6 CL8  UNL     1     -33.288  17.199  -5.270  1.00 20.00    -0.105 Cl
ENDROOT
BRANCH   4   7
HETATM    7  C7  UNL     1     -33.833  16.667  -2.144  1.00 20.00     0.003 C 
HETATM    8  C6  UNL     1     -34.716  16.527  -0.931  1.00 20.00     0.005 C 
ENDBRANCH   4   7
TORSDOF 1
ENDMDL
MODEL 8
REMARK VINA RESULT:      -3.9     12.160     13.063
REMARK  1 active torsions:
REMARK  status: ('A' for Active; 'I' for Inactive)
REMARK    1  A    between atoms: C4_4  and  C7_7 
ROOT
HETATM    1  C1  UNL     1     -34.424  16.611  -1.312  1.00 20.00     0.014 C 
HETATM    2  C2  UNL     1     -34.035  16.192  -2.366  1.00 20.00    -0.091 C 
HETATM    3  C3  UNL     1     -33.429  16.661  -4.777  1.00 20.00     0.046 A 
HETATM    4  C4  UNL     1     -34.545  15.653  -4.786  1.00 20.00     0.024 A 
HETATM    5  C5  UNL     1     -33.570  15.690  -3.627  1.00 20.00     0.103 A 
HETATM    6 CL8  UNL     1     -32.340  14.432  -3.472  1.00 20.00    -0.105 Cl
ENDROOT
BRANCH   4   7
HETATM    7  C7  UNL     1     -34.555  14.563  -5.802  1.00 20.00     0.003 C 
HETATM    8  C6  UNL     1     -34.408  15.072  -7.213  1.00 20.00     0.005 C 
ENDBRANCH   4   7
TORSDOF 1
ENDMDL
MODEL 9
REMARK VINA RESULT:      -3.9      1.598      3.972
REMARK  1 active torsions:
REMARK  status: ('A' for Active; 'I' for Inactive)
REMARK    1  A    between atoms: C4_4  and  C7_7 
ROOT
HETATM    1  C1  UNL     1     -32.136   7.117   2.759  1.00 20.00     0.014 C 
HETATM    2  C2  UNL     1     -33.015   6.655   3.432  1.00 20.00    -0.091 C 
HETATM    3  C3  UNL     1     -34.184   6.557   5.673  1.00 20.00     0.046 A 
HETATM    4  C4  UNL     1     -33.685   5.171   5.371  1.00 20.00     0.024 A 
HETATM    5  C5  UNL     1     -34.065   6.102   4.237  1.00 20.00     0.103 A 
HETATM    6 CL8  UNL     1     -35.566   5.833   3.346  1.00 20.00    -0.105 Cl
ENDROOT
BRANCH   4   7
HETATM    7  C7  UNL     1     -34.503   3.985   5.755  1.00 20.00     0.003 C 
HETATM    8  C6  UNL     1     -35.493   4.284   6.851  1.00 20.00     0.005 C 
ENDBRANCH   4   7
TORSDOF 1
ENDMDL
