MODEL 1
REMARK VINA RESULT:      -4.7      0.000      0.000
REMARK  1 active torsions:
REMARK  status: ('A' for Active; 'I' for Inactive)
REMARK    1  A    between atoms: C8_8  and  C11_11 
ROOT
HETATM    1  C1  UNL     1     -34.194  15.169  -5.606  1.00 20.00    -0.084 C 
HETATM    2  C2  UNL     1     -34.437  15.340  -6.908  1.00 20.00     0.014 C 
HETATM    3  C3  UNL     1     -33.255  15.995  -4.761  1.00 20.00     0.038 C 
HETATM    4  C4  UNL     1     -33.526  13.813  -3.839  1.00 20.00     0.014 C 
HETATM    5  C5  UNL     1     -34.803  15.559  -2.818  1.00 20.00     0.010 C 
HETATM    6  C6  UNL     1     -34.751  14.075  -4.721  1.00 20.00     0.018 C 
HETATM    7  C7  UNL     1     -33.401  15.277  -3.405  1.00 20.00    -0.010 C 
HETATM    8  C8  UNL     1     -35.730  14.678  -3.689  1.00 20.00    -0.003 C 
ENDROOT
BRANCH   8   9
HETATM    9  C11 UNL     1     -36.914  15.435  -4.274  1.00 20.00    -0.018 C 
HETATM   10  C9  UNL     1     -38.227  14.716  -3.960  1.00 20.00     0.010 C 
HETATM   11  C10 UNL     1     -36.953  16.870  -3.749  1.00 20.00     0.010 C 
ENDBRANCH   8   9
TORSDOF 1
ENDMDL
MODEL 2
REMARK VINA RESULT:      -4.7      1.329      2.965
REMARK  1 active torsions:
REMARK  status: ('A' for Active; 'I' for Inactive)
REMARK    1  A    between atoms: C8_8  and  C11_11 
ROOT
HETATM    1  C1  UNL     1     -36.097  14.786  -4.152  1.00 20.00    -0.084 C 
HETATM    2  C2  UNL     1     -37.367  14.841  -3.741  1.00 20.00     0.014 C 
HETATM    3  C3  UNL     1     -35.604  15.058  -5.553  1.00 20.00     0.038 C 
HETATM    4  C4  UNL     1     -34.101  13.617  -4.391  1.00 20.00     0.014 C 
HETATM    5  C5  UNL     1     -33.475  15.921  -4.512  1.00 20.00     0.010 C 
HETATM    6  C6  UNL     1     -34.898  14.376  -3.325  1.00 20.00     0.018 C 
HETATM    7  C7  UNL     1     -34.096  14.796  -5.369  1.00 20.00    -0.010 C 
HETATM    8  C8  UNL     1     -33.978  15.595  -3.086  1.00 20.00    -0.003 C 
ENDROOT
BRANCH   8   9
HETATM    9  C11 UNL     1     -34.629  16.778  -2.385  1.00 20.00    -0.018 C 
HETATM   10  C9  UNL     1     -34.535  16.628  -0.867  1.00 20.00     0.010 C 
HETATM   11  C10 UNL     1     -33.988  18.092  -2.831  1.00 20.00     0.010 C 
ENDBRANCH   8   9
TORSDOF 1
ENDMDL
MODEL 3
REMARK VINA RESULT:      -4.7      1.218      2.711
REMARK  1 active torsions:
REMARK  status: ('A' for Active; 'I' for Inactive)
REMARK    1  A    between atoms: C8_8  and  C11_11 
ROOT
HETATM    1  C1  UNL     1     -36.005  15.475  -4.912  1.00 20.00    -0.084 C 
HETATM    2  C2  UNL     1     -37.011  16.309  -5.189  1.00 20.00     0.014 C 
HETATM    3  C3  UNL     1     -34.828  15.173  -5.807  1.00 20.00     0.038 C 
HETATM    4  C4  UNL     1     -35.241  13.362  -4.312  1.00 20.00     0.014 C 
HETATM    5  C5  UNL     1     -33.464  14.845  -3.711  1.00 20.00     0.010 C 
HETATM    6  C6  UNL     1     -35.866  14.610  -3.678  1.00 20.00     0.018 C 
HETATM    7  C7  UNL     1     -34.081  14.140  -4.940  1.00 20.00    -0.010 C 
HETATM    8  C8  UNL     1     -34.692  15.114  -2.808  1.00 20.00    -0.003 C 
ENDROOT
BRANCH   8   9
HETATM    9  C11 UNL     1     -34.797  16.558  -2.339  1.00 20.00    -0.018 C 
HETATM   10  C9  UNL     1     -34.642  16.648  -0.821  1.00 20.00     0.010 C 
HETATM   11  C10 UNL     1     -33.753  17.431  -3.035  1.00 20.00     0.010 C 
ENDBRANCH   8   9
TORSDOF 1
ENDMDL
MODEL 4
REMARK VINA RESULT:      -4.5      1.450      3.517
REMARK  1 active torsions:
REMARK  status: ('A' for Active; 'I' for Inactive)
REMARK    1  A    between atoms: C8_8  and  C11_11 
ROOT
HETATM    1  C1  UNL     1     -34.639  15.538  -2.926  1.00 20.00    -0.084 C 
HETATM    2  C2  UNL     1     -35.052  16.366  -1.961  1.00 20.00     0.014 C 
HETATM    3  C3  UNL     1     -35.384  14.331  -3.439  1.00 20.00     0.038 C 
HETATM    4  C4  UNL     1     -33.039  14.095  -3.799  1.00 20.00     0.014 C 
HETATM    5  C5  UNL     1     -34.334  14.783  -5.688  1.00 20.00     0.010 C 
HETATM    6  C6  UNL     1     -33.316  15.596  -3.657  1.00 20.00     0.018 C 
HETATM    7  C7  UNL     1     -34.378  13.812  -4.487  1.00 20.00    -0.010 C 
HETATM    8  C8  UNL     1     -33.544  15.992  -5.133  1.00 20.00    -0.003 C 
ENDROOT
BRANCH   8   9
HETATM    9  C11 UNL     1     -34.241  17.327  -5.353  1.00 20.00    -0.018 C 
HETATM   10  C9  UNL     1     -33.422  18.471  -4.755  1.00 20.00     0.010 C 
HETATM   11  C10 UNL     1     -34.489  17.570  -6.841  1.00 20.00     0.010 C 
ENDBRANCH   8   9
TORSDOF 1
ENDMDL
MODEL 5
REMARK VINA RESULT:      -4.4     11.399     12.994
REMARK  1 active torsions:
REMARK  status: ('A' for Active; 'I' for Inactive)
REMARK    1  A    between atoms: C8_8  and  C11_11 
ROOT
HETATM    1  C1  UNL     1     -42.467   6.511  -1.782  1.00 20.00    -0.084 C 
HETATM    2  C2  UNL     1     -42.869   7.081  -2.921  1.00 20.00     0.014 C 
HETATM    3  C3  UNL     1     -43.196   6.551  -0.461  1.00 20.00     0.038 C 
HETATM    4  C4  UNL     1     -40.858   6.221  -0.128  1.00 20.00     0.014 C 
HETATM    5  C5  UNL     1     -42.232   4.269   0.011  1.00 20.00     0.010 C 
HETATM    6  C6  UNL     1     -41.170   5.764  -1.557  1.00 20.00     0.018 C 
HETATM    7  C7  UNL     1     -42.211   5.758   0.421  1.00 20.00    -0.010 C 
HETATM    8  C8  UNL     1     -41.456   4.263  -1.328  1.00 20.00    -0.003 C 
ENDROOT
BRANCH   8   9
HETATM    9  C11 UNL     1     -42.194   3.558  -2.456  1.00 20.00    -0.018 C 
HETATM   10  C9  UNL     1     -41.263   2.598  -3.198  1.00 20.00     0.010 C 
HETATM   11  C10 UNL     1     -43.414   2.809  -1.920  1.00 20.00     0.010 C 
ENDBRANCH   8   9
TORSDOF 1
ENDMDL
MODEL 6
REMARK VINA RESULT:      -4.4      1.274      2.160
REMARK  1 active torsions:
REMARK  status: ('A' for Active; 'I' for Inactive)
REMARK    1  A    between atoms: C8_8  and  C11_11 
ROOT
HETATM    1  C1  UNL     1     -33.784  14.852  -3.598  1.00 20.00    -0.084 C 
HETATM    2  C2  UNL     1     -33.511  13.565  -3.832  1.00 20.00     0.014 C 
HETATM    3  C3  UNL     1     -33.136  16.036  -4.273  1.00 20.00     0.038 C 
HETATM    4  C4  UNL     1     -33.971  16.640  -2.123  1.00 20.00     0.014 C 
HETATM    5  C5  UNL     1     -35.330  17.250  -3.994  1.00 20.00     0.010 C 
HETATM    6  C6  UNL     1     -34.748  15.395  -2.565  1.00 20.00     0.018 C 
HETATM    7  C7  UNL     1     -33.852  17.193  -3.547  1.00 20.00    -0.010 C 
HETATM    8  C8  UNL     1     -35.964  16.042  -3.264  1.00 20.00    -0.003 C 
ENDROOT
BRANCH   8   9
HETATM    9  C11 UNL     1     -36.756  15.123  -4.183  1.00 20.00    -0.018 C 
HETATM   10  C9  UNL     1     -38.188  14.951  -3.675  1.00 20.00     0.010 C 
HETATM   11  C10 UNL     1     -36.760  15.660  -5.614  1.00 20.00     0.010 C 
ENDBRANCH   8   9
TORSDOF 1
ENDMDL
MODEL 7
REMARK VINA RESULT:      -4.4      1.499      3.176
REMARK  1 active torsions:
REMARK  status: ('A' for Active; 'I' for Inactive)
REMARK    1  A    between atoms: C8_8  and  C11_11 
ROOT
HETATM    1  C1  UNL     1     -34.604  16.521  -6.276  1.00 20.00    -0.084 C 
HETATM    2  C2  UNL     1     -34.067  17.736  -6.414  1.00 20.00     0.014 C 
HETATM    3  C3  UNL     1     -34.279  15.305  -7.108  1.00 20.00     0.038 C 
HETATM    4  C4  UNL     1     -36.472  15.138  -6.188  1.00 20.00     0.014 C 
HETATM    5  C5  UNL     1     -34.755  13.916  -5.057  1.00 20.00     0.010 C 
HETATM    6  C6  UNL     1     -35.697  16.124  -5.307  1.00 20.00     0.018 C 
HETATM    7  C7  UNL     1     -35.240  14.276  -6.480  1.00 20.00    -0.010 C 
HETATM    8  C8  UNL     1     -35.129  15.170  -4.232  1.00 20.00    -0.003 C 
ENDROOT
BRANCH   8   9
HETATM    9  C11 UNL     1     -33.974  15.723  -3.410  1.00 20.00    -0.018 C 
HETATM   10  C9  UNL     1     -34.417  16.010  -1.975  1.00 20.00     0.010 C 
HETATM   11  C10 UNL     1     -32.790  14.756  -3.419  1.00 20.00     0.010 C 
ENDBRANCH   8   9
TORSDOF 1
ENDMDL
MODEL 8
REMARK VINA RESULT:      -4.4      1.201      3.379
REMARK  1 active torsions:
REMARK  status: ('A' for Active; 'I' for Inactive)
REMARK    1  A    between atoms: C8_8  and  C11_11 
ROOT
HETATM    1  C1  UNL     1     -35.816  16.488  -3.249  1.00 20.00    -0.084 C 
HETATM    2  C2  UNL     1     -37.146  16.474  -3.374  1.00 20.00     0.014 C 
HETATM    3  C3  UNL     1     -35.032  16.032  -2.043  1.00 20.00     0.038 C 
HETATM    4  C4  UNL     1     -33.795  17.637  -3.299  1.00 20.00     0.014 C 
HETATM    5  C5  UNL     1     -33.200  15.346  -3.637  1.00 20.00     0.010 C 
HETATM    6  C6  UNL     1     -34.822  17.023  -4.257  1.00 20.00     0.018 C 
HETATM    7  C7  UNL     1     -33.596  16.335  -2.517  1.00 20.00    -0.010 C 
HETATM    8  C8  UNL     1     -34.000  15.860  -4.858  1.00 20.00    -0.003 C 
ENDROOT
BRANCH   8   9
HETATM    9  C11 UNL     1     -34.811  14.776  -5.553  1.00 20.00    -0.018 C 
HETATM   10  C9  UNL     1     -34.538  14.775  -7.057  1.00 20.00     0.010 C 
HETATM   11  C10 UNL     1     -34.506  13.403  -4.955  1.00 20.00     0.010 C 
ENDBRANCH   8   9
TORSDOF 1
ENDMDL
MODEL 9
REMARK VINA RESULT:      -4.3      1.350      3.246
REMARK  1 active torsions:
REMARK  status: ('A' for Active; 'I' for Inactive)
REMARK    1  A    between atoms: C8_8  and  C11_11 
ROOT
HETATM    1  C1  UNL     1     -34.870  16.386  -3.856  1.00 20.00    -0.084 C 
HETATM    2  C2  UNL     1     -35.441  17.593  -3.793  1.00 20.00     0.014 C 
HETATM    3  C3  UNL     1     -35.276  15.169  -3.063  1.00 20.00     0.038 C 
HETATM    4  C4  UNL     1     -32.984  15.035  -3.705  1.00 20.00     0.014 C 
HETATM    5  C5  UNL     1     -34.528  13.779  -5.030  1.00 20.00     0.010 C 
HETATM    6  C6  UNL     1     -33.661  16.004  -4.681  1.00 20.00     0.018 C 
HETATM    7  C7  UNL     1     -34.228  14.153  -3.561  1.00 20.00    -0.010 C 
HETATM    8  C8  UNL     1     -34.076  15.035  -5.812  1.00 20.00    -0.003 C 
ENDROOT
BRANCH   8   9
HETATM    9  C11 UNL     1     -35.131  15.566  -6.773  1.00 20.00    -0.018 C 
HETATM   10  C9  UNL     1     -34.618  16.801  -7.514  1.00 20.00     0.010 C 
HETATM   11  C10 UNL     1     -35.550  14.484  -7.768  1.00 20.00     0.010 C 
ENDBRANCH   8   9
TORSDOF 1
ENDMDL
