MODEL 1
REMARK VINA RESULT:      -4.9      0.000      0.000
REMARK  1 active torsions:
REMARK  status: ('A' for Active; 'I' for Inactive)
REMARK    1  A    between atoms: C2_2  and  C6_6 
ROOT
HETATM    1  C3  UNL     1     -34.770  17.160  -4.661  1.00 20.00     0.006 C 
HETATM    2  C4  UNL     1     -33.364  16.557  -4.501  1.00 20.00     0.006 C 
HETATM    3  C5  UNL     1     -35.729  15.324  -3.301  1.00 20.00     0.014 C 
HETATM    4  C6  UNL     1     -34.330  14.697  -3.088  1.00 20.00     0.012 C 
HETATM    5  C7  UNL     1     -35.433  16.847  -3.300  1.00 20.00    -0.006 C 
HETATM    6  C8  UNL     1     -33.411  15.954  -3.073  1.00 20.00     0.001 C 
HETATM    7  C9  UNL     1     -34.266  16.993  -2.293  1.00 20.00    -0.040 C 
HETATM    8  C10 UNL     1     -34.617  16.599  -0.845  1.00 20.00     0.015 C 
HETATM    9  C11 UNL     1     -33.652  18.404  -2.215  1.00 20.00     0.015 C 
ENDROOT
BRANCH   4  10
HETATM   10  C2  UNL     1     -33.976  13.644  -4.086  1.00 20.00    -0.032 C 
HETATM   11  C1  UNL     1     -34.806  13.207  -5.039  1.00 20.00     0.007 C 
ENDBRANCH   4  10
TORSDOF 1
ENDMDL
MODEL 2
REMARK VINA RESULT:      -4.8      1.223      3.640
REMARK  1 active torsions:
REMARK  status: ('A' for Active; 'I' for Inactive)
REMARK    1  A    between atoms: C2_2  and  C6_6 
ROOT
HETATM    1  C3  UNL     1     -34.504  13.606  -3.852  1.00 20.00     0.006 C 
HETATM    2  C4  UNL     1     -33.286  14.545  -3.848  1.00 20.00     0.006 C 
HETATM    3  C5  UNL     1     -35.949  15.451  -3.050  1.00 20.00     0.014 C 
HETATM    4  C6  UNL     1     -34.758  16.441  -3.058  1.00 20.00     0.012 C 
HETATM    5  C7  UNL     1     -35.657  14.544  -4.274  1.00 20.00    -0.006 C 
HETATM    6  C8  UNL     1     -33.905  15.909  -4.247  1.00 20.00     0.001 C 
HETATM    7  C9  UNL     1     -34.985  15.502  -5.288  1.00 20.00    -0.040 C 
HETATM    8  C10 UNL     1     -35.889  16.649  -5.780  1.00 20.00     0.015 C 
HETATM    9  C11 UNL     1     -34.434  14.818  -6.555  1.00 20.00     0.015 C 
ENDROOT
BRANCH   4  10
HETATM   10  C2  UNL     1     -34.051  16.553  -1.747  1.00 20.00    -0.032 C 
HETATM   11  C1  UNL     1     -34.664  16.790  -0.584  1.00 20.00     0.007 C 
ENDBRANCH   4  10
TORSDOF 1
ENDMDL
MODEL 3
REMARK VINA RESULT:      -4.8      1.120      3.633
REMARK  1 active torsions:
REMARK  status: ('A' for Active; 'I' for Inactive)
REMARK    1  A    between atoms: C2_2  and  C6_6 
ROOT
HETATM    1  C3  UNL     1     -33.603  17.082  -5.046  1.00 20.00     0.006 C 
HETATM    2  C4  UNL     1     -35.112  17.101  -4.752  1.00 20.00     0.006 C 
HETATM    3  C5  UNL     1     -33.241  15.509  -3.166  1.00 20.00     0.014 C 
HETATM    4  C6  UNL     1     -34.757  15.474  -2.851  1.00 20.00     0.012 C 
HETATM    5  C7  UNL     1     -33.209  15.625  -4.713  1.00 20.00    -0.006 C 
HETATM    6  C8  UNL     1     -35.384  15.655  -4.265  1.00 20.00     0.001 C 
HETATM    7  C9  UNL     1     -34.443  14.808  -5.167  1.00 20.00    -0.040 C 
HETATM    8  C10 UNL     1     -34.379  13.308  -4.824  1.00 20.00     0.015 C 
HETATM    9  C11 UNL     1     -34.752  14.890  -6.675  1.00 20.00     0.015 C 
ENDROOT
BRANCH   4  10
HETATM   10  C2  UNL     1     -35.186  16.462  -1.816  1.00 20.00    -0.032 C 
HETATM   11  C1  UNL     1     -34.411  16.874  -0.809  1.00 20.00     0.007 C 
ENDBRANCH   4  10
TORSDOF 1
ENDMDL
MODEL 4
REMARK VINA RESULT:      -4.7      1.036      3.714
REMARK  1 active torsions:
REMARK  status: ('A' for Active; 'I' for Inactive)
REMARK    1  A    between atoms: C2_2  and  C6_6 
ROOT
HETATM    1  C3  UNL     1     -35.802  16.275  -4.562  1.00 20.00     0.006 C 
HETATM    2  C4  UNL     1     -36.253  15.818  -3.164  1.00 20.00     0.006 C 
HETATM    3  C5  UNL     1     -33.530  16.742  -3.693  1.00 20.00     0.014 C 
HETATM    4  C6  UNL     1     -33.929  16.264  -2.276  1.00 20.00     0.012 C 
HETATM    5  C7  UNL     1     -34.334  15.795  -4.621  1.00 20.00    -0.006 C 
HETATM    6  C8  UNL     1     -34.974  15.154  -2.593  1.00 20.00     0.001 C 
HETATM    7  C9  UNL     1     -34.364  14.457  -3.842  1.00 20.00    -0.040 C 
HETATM    8  C10 UNL     1     -32.982  13.812  -3.624  1.00 20.00     0.015 C 
HETATM    9  C11 UNL     1     -35.253  13.365  -4.468  1.00 20.00     0.015 C 
ENDROOT
BRANCH   4  10
HETATM   10  C2  UNL     1     -34.396  17.359  -1.373  1.00 20.00    -0.032 C 
HETATM   11  C1  UNL     1     -34.743  17.178  -0.095  1.00 20.00     0.007 C 
ENDBRANCH   4  10
TORSDOF 1
ENDMDL
MODEL 5
REMARK VINA RESULT:      -4.7      1.781      2.949
REMARK  1 active torsions:
REMARK  status: ('A' for Active; 'I' for Inactive)
REMARK    1  A    between atoms: C2_2  and  C6_6 
ROOT
HETATM    1  C3  UNL     1     -36.517  14.743  -3.933  1.00 20.00     0.006 C 
HETATM    2  C4  UNL     1     -36.188  16.112  -4.552  1.00 20.00     0.006 C 
HETATM    3  C5  UNL     1     -34.746  13.682  -5.302  1.00 20.00     0.014 C 
HETATM    4  C6  UNL     1     -34.360  15.043  -5.931  1.00 20.00     0.012 C 
HETATM    5  C7  UNL     1     -35.131  14.065  -3.849  1.00 20.00    -0.006 C 
HETATM    6  C8  UNL     1     -34.655  16.032  -4.765  1.00 20.00     0.001 C 
HETATM    7  C9  UNL     1     -34.178  15.239  -3.515  1.00 20.00    -0.040 C 
HETATM    8  C10 UNL     1     -32.683  14.867  -3.505  1.00 20.00     0.015 C 
HETATM    9  C11 UNL     1     -34.456  15.933  -2.168  1.00 20.00     0.015 C 
ENDROOT
BRANCH   4  10
HETATM   10  C2  UNL     1     -35.050  15.334  -7.223  1.00 20.00    -0.032 C 
HETATM   11  C1  UNL     1     -35.749  14.432  -7.918  1.00 20.00     0.007 C 
ENDBRANCH   4  10
TORSDOF 1
ENDMDL
MODEL 6
REMARK VINA RESULT:      -4.7      1.436      2.632
REMARK  1 active torsions:
REMARK  status: ('A' for Active; 'I' for Inactive)
REMARK    1  A    between atoms: C2_2  and  C6_6 
ROOT
HETATM    1  C3  UNL     1     -32.861  14.808  -3.640  1.00 20.00     0.006 C 
HETATM    2  C4  UNL     1     -34.165  13.994  -3.584  1.00 20.00     0.006 C 
HETATM    3  C5  UNL     1     -33.800  16.217  -5.448  1.00 20.00     0.014 C 
HETATM    4  C6  UNL     1     -35.142  15.445  -5.408  1.00 20.00     0.012 C 
HETATM    5  C7  UNL     1     -33.363  16.235  -3.960  1.00 20.00    -0.006 C 
HETATM    6  C8  UNL     1     -35.246  15.058  -3.903  1.00 20.00     0.001 C 
HETATM    7  C9  UNL     1     -34.700  16.325  -3.186  1.00 20.00    -0.040 C 
HETATM    8  C10 UNL     1     -35.500  17.618  -3.438  1.00 20.00     0.015 C 
HETATM    9  C11 UNL     1     -34.571  16.193  -1.656  1.00 20.00     0.015 C 
ENDROOT
BRANCH   4  10
HETATM   10  C2  UNL     1     -35.222  14.313  -6.379  1.00 20.00    -0.032 C 
HETATM   11  C1  UNL     1     -35.354  14.468  -7.700  1.00 20.00     0.007 C 
ENDBRANCH   4  10
TORSDOF 1
ENDMDL
MODEL 7
REMARK VINA RESULT:      -4.6      1.266      2.712
REMARK  1 active torsions:
REMARK  status: ('A' for Active; 'I' for Inactive)
REMARK    1  A    between atoms: C2_2  and  C6_6 
ROOT
HETATM    1  C3  UNL     1     -34.056  14.254  -3.359  1.00 20.00     0.006 C 
HETATM    2  C4  UNL     1     -35.494  14.701  -3.675  1.00 20.00     0.006 C 
HETATM    3  C5  UNL     1     -33.165  15.992  -4.883  1.00 20.00     0.014 C 
HETATM    4  C6  UNL     1     -34.592  16.495  -5.209  1.00 20.00     0.012 C 
HETATM    5  C7  UNL     1     -33.271  15.585  -3.390  1.00 20.00    -0.006 C 
HETATM    6  C8  UNL     1     -35.342  16.231  -3.870  1.00 20.00     0.001 C 
HETATM    7  C9  UNL     1     -34.276  16.606  -2.802  1.00 20.00    -0.040 C 
HETATM    8  C10 UNL     1     -33.796  18.070  -2.839  1.00 20.00     0.015 C 
HETATM    9  C11 UNL     1     -34.699  16.331  -1.346  1.00 20.00     0.015 C 
ENDROOT
BRANCH   4  10
HETATM   10  C2  UNL     1     -35.194  15.873  -6.426  1.00 20.00    -0.032 C 
HETATM   11  C1  UNL     1     -34.542  15.035  -7.239  1.00 20.00     0.007 C 
ENDBRANCH   4  10
TORSDOF 1
ENDMDL
MODEL 8
REMARK VINA RESULT:      -4.5     11.578     13.490
REMARK  1 active torsions:
REMARK  status: ('A' for Active; 'I' for Inactive)
REMARK    1  A    between atoms: C2_2  and  C6_6 
ROOT
HETATM    1  C3  UNL     1     -40.795   4.267  -1.290  1.00 20.00     0.006 C 
HETATM    2  C4  UNL     1     -41.990   4.443  -2.242  1.00 20.00     0.006 C 
HETATM    3  C5  UNL     1     -41.030   6.615  -0.536  1.00 20.00     0.014 C 
HETATM    4  C6  UNL     1     -42.255   6.830  -1.457  1.00 20.00     0.012 C 
HETATM    5  C7  UNL     1     -41.191   5.141  -0.079  1.00 20.00    -0.006 C 
HETATM    6  C8  UNL     1     -42.909   5.417  -1.461  1.00 20.00     0.001 C 
HETATM    7  C9  UNL     1     -42.726   4.952   0.011  1.00 20.00    -0.040 C 
HETATM    8  C10 UNL     1     -43.417   5.833   1.069  1.00 20.00     0.015 C 
HETATM    9  C11 UNL     1     -43.183   3.507   0.292  1.00 20.00     0.015 C 
ENDROOT
BRANCH   4  10
HETATM   10  C2  UNL     1     -41.917   7.395  -2.798  1.00 20.00    -0.032 C 
HETATM   11  C1  UNL     1     -42.821   7.668  -3.745  1.00 20.00     0.007 C 
ENDBRANCH   4  10
TORSDOF 1
ENDMDL
MODEL 9
REMARK VINA RESULT:      -4.4     11.949     13.955
REMARK  1 active torsions:
REMARK  status: ('A' for Active; 'I' for Inactive)
REMARK    1  A    between atoms: C2_2  and  C6_6 
ROOT
HETATM    1  C3  UNL     1     -42.213   4.392   0.500  1.00 20.00     0.006 C 
HETATM    2  C4  UNL     1     -43.417   4.114  -0.416  1.00 20.00     0.006 C 
HETATM    3  C5  UNL     1     -40.697   4.363  -1.459  1.00 20.00     0.014 C 
HETATM    4  C6  UNL     1     -41.882   4.112  -2.423  1.00 20.00     0.012 C 
HETATM    5  C7  UNL     1     -41.314   5.291  -0.380  1.00 20.00    -0.006 C 
HETATM    6  C8  UNL     1     -43.041   4.872  -1.714  1.00 20.00     0.001 C 
HETATM    7  C9  UNL     1     -42.333   6.146  -1.173  1.00 20.00    -0.040 C 
HETATM    8  C10 UNL     1     -41.706   7.056  -2.246  1.00 20.00     0.015 C 
HETATM    9  C11 UNL     1     -43.223   7.058  -0.306  1.00 20.00     0.015 C 
ENDROOT
BRANCH   4  10
HETATM   10  C2  UNL     1     -42.133   2.669  -2.717  1.00 20.00    -0.032 C 
HETATM   11  C1  UNL     1     -41.468   1.966  -3.639  1.00 20.00     0.007 C 
ENDBRANCH   4  10
TORSDOF 1
ENDMDL
