MODEL 1
REMARK VINA RESULT:      -5.0      0.000      0.000
REMARK  1 active torsions:
REMARK  status: ('A' for Active; 'I' for Inactive)
REMARK    1  A    between atoms: C6_6  and  C10_10 
ROOT
HETATM    1  C1  UNL     1     -35.278  13.630  -4.319  1.00 20.00     0.142 A 
HETATM    2  C2  UNL     1     -36.163  16.628  -3.552  1.00 20.00     0.006 C 
HETATM    3  C3  UNL     1     -36.497  15.844  -4.828  1.00 20.00     0.019 C 
HETATM    4  C4  UNL     1     -34.673  14.752  -3.637  1.00 20.00     0.076 A 
HETATM    5  C5  UNL     1     -35.426  15.617  -2.656  1.00 20.00    -0.006 C 
HETATM    6  C6  UNL     1     -35.315  14.913  -5.004  1.00 20.00     0.034 A 
HETATM    7  C7  UNL     1     -34.519  16.300  -1.646  1.00 20.00     0.011 C 
HETATM    8  O11 UNL     1     -34.861  12.534  -4.633  1.00 20.00    -0.297 OA
ENDROOT
BRANCH   6   9
HETATM    9  C10 UNL     1     -34.435  15.189  -6.187  1.00 20.00    -0.006 C 
HETATM   10  C8  UNL     1     -35.015  14.582  -7.475  1.00 20.00     0.011 C 
HETATM   11  C9  UNL     1     -34.211  16.696  -6.385  1.00 20.00     0.011 C 
ENDBRANCH   6   9
TORSDOF 1
ENDMDL
MODEL 2
REMARK VINA RESULT:      -4.9      0.995      1.065
REMARK  1 active torsions:
REMARK  status: ('A' for Active; 'I' for Inactive)
REMARK    1  A    between atoms: C6_6  and  C10_10 
ROOT
HETATM    1  C1  UNL     1     -34.169  14.074  -3.622  1.00 20.00     0.142 A 
HETATM    2  C2  UNL     1     -35.916  16.673  -2.881  1.00 20.00     0.006 C 
HETATM    3  C3  UNL     1     -36.057  15.761  -4.106  1.00 20.00     0.019 C 
HETATM    4  C4  UNL     1     -33.914  15.362  -3.018  1.00 20.00     0.076 A 
HETATM    5  C5  UNL     1     -34.844  15.993  -2.010  1.00 20.00    -0.006 C 
HETATM    6  C6  UNL     1     -34.653  15.244  -4.339  1.00 20.00     0.034 A 
HETATM    7  C7  UNL     1     -34.144  16.976  -1.088  1.00 20.00     0.011 C 
HETATM    8  O11 UNL     1     -33.444  13.151  -3.934  1.00 20.00    -0.297 OA
ENDROOT
BRANCH   6   9
HETATM    9  C10 UNL     1     -33.978  15.724  -5.590  1.00 20.00    -0.006 C 
HETATM   10  C8  UNL     1     -34.444  14.932  -6.822  1.00 20.00     0.011 C 
HETATM   11  C9  UNL     1     -34.219  17.223  -5.821  1.00 20.00     0.011 C 
ENDBRANCH   6   9
TORSDOF 1
ENDMDL
MODEL 3
REMARK VINA RESULT:      -4.9      0.983      3.609
REMARK  1 active torsions:
REMARK  status: ('A' for Active; 'I' for Inactive)
REMARK    1  A    between atoms: C6_6  and  C10_10 
ROOT
HETATM    1  C1  UNL     1     -33.963  13.887  -4.278  1.00 20.00     0.142 A 
HETATM    2  C2  UNL     1     -34.112  16.222  -6.489  1.00 20.00     0.006 C 
HETATM    3  C3  UNL     1     -33.541  16.305  -5.067  1.00 20.00     0.019 C 
HETATM    4  C4  UNL     1     -34.902  14.297  -5.298  1.00 20.00     0.076 A 
HETATM    5  C5  UNL     1     -34.474  14.737  -6.676  1.00 20.00    -0.006 C 
HETATM    6  C6  UNL     1     -34.351  15.289  -4.289  1.00 20.00     0.034 A 
HETATM    7  C7  UNL     1     -35.553  14.538  -7.727  1.00 20.00     0.011 C 
HETATM    8  O11 UNL     1     -33.996  13.024  -3.425  1.00 20.00    -0.297 OA
ENDROOT
BRANCH   6   9
HETATM    9  C10 UNL     1     -35.275  15.849  -3.247  1.00 20.00    -0.006 C 
HETATM   10  C8  UNL     1     -34.544  16.096  -1.918  1.00 20.00     0.011 C 
HETATM   11  C9  UNL     1     -35.936  17.152  -3.721  1.00 20.00     0.011 C 
ENDBRANCH   6   9
TORSDOF 1
ENDMDL
MODEL 4
REMARK VINA RESULT:      -4.7      1.892      2.628
REMARK  1 active torsions:
REMARK  status: ('A' for Active; 'I' for Inactive)
REMARK    1  A    between atoms: C6_6  and  C10_10 
ROOT
HETATM    1  C1  UNL     1     -36.359  15.395  -3.303  1.00 20.00     0.142 A 
HETATM    2  C2  UNL     1     -33.665  17.085  -2.802  1.00 20.00     0.006 C 
HETATM    3  C3  UNL     1     -34.082  16.329  -4.070  1.00 20.00     0.019 C 
HETATM    4  C4  UNL     1     -35.461  15.618  -2.192  1.00 20.00     0.076 A 
HETATM    5  C5  UNL     1     -34.882  16.973  -1.866  1.00 20.00    -0.006 C 
HETATM    6  C6  UNL     1     -34.940  15.193  -3.553  1.00 20.00     0.034 A 
HETATM    7  C7  UNL     1     -34.497  17.120  -0.403  1.00 20.00     0.011 C 
HETATM    8  O11 UNL     1     -37.335  14.688  -3.445  1.00 20.00    -0.297 OA
ENDROOT
BRANCH   6   9
HETATM    9  C10 UNL     1     -34.366  13.816  -3.710  1.00 20.00    -0.006 C 
HETATM   10  C8  UNL     1     -34.729  13.204  -5.072  1.00 20.00     0.011 C 
HETATM   11  C9  UNL     1     -32.839  13.818  -3.537  1.00 20.00     0.011 C 
ENDBRANCH   6   9
TORSDOF 1
ENDMDL
MODEL 5
REMARK VINA RESULT:      -4.6      1.398      2.814
REMARK  1 active torsions:
REMARK  status: ('A' for Active; 'I' for Inactive)
REMARK    1  A    between atoms: C6_6  and  C10_10 
ROOT
HETATM    1  C1  UNL     1     -35.370  13.664  -4.837  1.00 20.00     0.142 A 
HETATM    2  C2  UNL     1     -36.904  16.482  -4.585  1.00 20.00     0.006 C 
HETATM    3  C3  UNL     1     -35.430  16.239  -4.931  1.00 20.00     0.019 C 
HETATM    4  C4  UNL     1     -36.404  14.214  -3.990  1.00 20.00     0.076 A 
HETATM    5  C5  UNL     1     -37.525  15.075  -4.520  1.00 20.00    -0.006 C 
HETATM    6  C6  UNL     1     -35.094  14.949  -4.213  1.00 20.00     0.034 A 
HETATM    7  C7  UNL     1     -38.769  15.036  -3.648  1.00 20.00     0.011 C 
HETATM    8  O11 UNL     1     -34.785  12.599  -4.838  1.00 20.00    -0.297 OA
ENDROOT
BRANCH   6   9
HETATM    9  C10 UNL     1     -34.128  15.067  -3.070  1.00 20.00    -0.006 C 
HETATM   10  C8  UNL     1     -32.671  15.010  -3.555  1.00 20.00     0.011 C 
HETATM   11  C9  UNL     1     -34.355  16.360  -2.273  1.00 20.00     0.011 C 
ENDBRANCH   6   9
TORSDOF 1
ENDMDL
MODEL 6
REMARK VINA RESULT:      -4.6      1.676      3.297
REMARK  1 active torsions:
REMARK  status: ('A' for Active; 'I' for Inactive)
REMARK    1  A    between atoms: C6_6  and  C10_10 
ROOT
HETATM    1  C1  UNL     1     -35.036  13.538  -5.251  1.00 20.00     0.142 A 
HETATM    2  C2  UNL     1     -35.369  15.823  -7.494  1.00 20.00     0.006 C 
HETATM    3  C3  UNL     1     -34.069  15.282  -6.885  1.00 20.00     0.019 C 
HETATM    4  C4  UNL     1     -35.967  14.612  -5.512  1.00 20.00     0.076 A 
HETATM    5  C5  UNL     1     -36.477  14.935  -6.896  1.00 20.00    -0.006 C 
HETATM    6  C6  UNL     1     -34.469  14.857  -5.488  1.00 20.00     0.034 A 
HETATM    7  C7  UNL     1     -37.827  15.631  -6.886  1.00 20.00     0.011 C 
HETATM    8  O11 UNL     1     -34.930  12.741  -4.341  1.00 20.00    -0.297 OA
ENDROOT
BRANCH   6   9
HETATM    9  C10 UNL     1     -33.888  15.667  -4.366  1.00 20.00    -0.006 C 
HETATM   10  C8  UNL     1     -32.719  14.936  -3.688  1.00 20.00     0.011 C 
HETATM   11  C9  UNL     1     -33.419  17.047  -4.851  1.00 20.00     0.011 C 
ENDBRANCH   6   9
TORSDOF 1
ENDMDL
MODEL 7
REMARK VINA RESULT:      -4.4      1.714      2.314
REMARK  1 active torsions:
REMARK  status: ('A' for Active; 'I' for Inactive)
REMARK    1  A    between atoms: C6_6  and  C10_10 
ROOT
HETATM    1  C1  UNL     1     -36.565  14.649  -3.994  1.00 20.00     0.142 A 
HETATM    2  C2  UNL     1     -33.612  15.804  -4.547  1.00 20.00     0.006 C 
HETATM    3  C3  UNL     1     -34.950  16.353  -5.059  1.00 20.00     0.019 C 
HETATM    4  C4  UNL     1     -35.252  14.087  -4.217  1.00 20.00     0.076 A 
HETATM    5  C5  UNL     1     -34.000  14.658  -3.596  1.00 20.00    -0.006 C 
HETATM    6  C6  UNL     1     -35.833  15.128  -5.157  1.00 20.00     0.034 A 
HETATM    7  C7  UNL     1     -32.888  13.633  -3.448  1.00 20.00     0.011 C 
HETATM    8  O11 UNL     1     -37.662  14.150  -3.852  1.00 20.00    -0.297 OA
ENDROOT
BRANCH   6   9
HETATM    9  C10 UNL     1     -36.222  14.710  -6.546  1.00 20.00    -0.006 C 
HETATM   10  C8  UNL     1     -37.402  15.540  -7.075  1.00 20.00     0.011 C 
HETATM   11  C9  UNL     1     -35.038  14.820  -7.519  1.00 20.00     0.011 C 
ENDBRANCH   6   9
TORSDOF 1
ENDMDL
MODEL 8
REMARK VINA RESULT:      -4.3      1.748      3.806
REMARK  1 active torsions:
REMARK  status: ('A' for Active; 'I' for Inactive)
REMARK    1  A    between atoms: C6_6  and  C10_10 
ROOT
HETATM    1  C1  UNL     1     -36.832  14.764  -3.661  1.00 20.00     0.142 A 
HETATM    2  C2  UNL     1     -34.052  13.793  -4.962  1.00 20.00     0.006 C 
HETATM    3  C3  UNL     1     -34.378  13.997  -3.476  1.00 20.00     0.019 C 
HETATM    4  C4  UNL     1     -36.074  15.077  -4.852  1.00 20.00     0.076 A 
HETATM    5  C5  UNL     1     -35.390  14.022  -5.688  1.00 20.00    -0.006 C 
HETATM    6  C6  UNL     1     -35.425  15.090  -3.479  1.00 20.00     0.034 A 
HETATM    7  C7  UNL     1     -35.193  14.444  -7.134  1.00 20.00     0.011 C 
HETATM    8  O11 UNL     1     -37.856  15.219  -3.193  1.00 20.00    -0.297 OA
ENDROOT
BRANCH   6   9
HETATM    9  C10 UNL     1     -35.001  16.405  -2.893  1.00 20.00    -0.006 C 
HETATM   10  C8  UNL     1     -34.780  16.301  -1.376  1.00 20.00     0.011 C 
HETATM   11  C9  UNL     1     -33.725  16.935  -3.564  1.00 20.00     0.011 C 
ENDBRANCH   6   9
TORSDOF 1
ENDMDL
MODEL 9
REMARK VINA RESULT:      -4.3      2.183      4.063
REMARK  1 active torsions:
REMARK  status: ('A' for Active; 'I' for Inactive)
REMARK    1  A    between atoms: C6_6  and  C10_10 
ROOT
HETATM    1  C1  UNL     1     -33.983  17.014  -4.608  1.00 20.00     0.142 A 
HETATM    2  C2  UNL     1     -36.235  15.005  -3.489  1.00 20.00     0.006 C 
HETATM    3  C3  UNL     1     -36.063  16.497  -3.176  1.00 20.00     0.019 C 
HETATM    4  C4  UNL     1     -34.032  15.627  -4.204  1.00 20.00     0.076 A 
HETATM    5  C5  UNL     1     -35.174  14.709  -4.565  1.00 20.00    -0.006 C 
HETATM    6  C6  UNL     1     -34.573  16.729  -3.309  1.00 20.00     0.034 A 
HETATM    7  C7  UNL     1     -34.775  13.243  -4.589  1.00 20.00     0.011 C 
HETATM    8  O11 UNL     1     -33.075  17.737  -4.966  1.00 20.00    -0.297 OA
ENDROOT
BRANCH   6   9
HETATM    9  C10 UNL     1     -33.844  17.049  -2.037  1.00 20.00    -0.006 C 
HETATM   10  C8  UNL     1     -33.551  18.553  -1.917  1.00 20.00     0.011 C 
HETATM   11  C9  UNL     1     -34.630  16.579  -0.803  1.00 20.00     0.011 C 
ENDBRANCH   6   9
TORSDOF 1
ENDMDL
