MODEL 1
REMARK VINA RESULT:      -4.9      0.000      0.000
REMARK  1 active torsions:
REMARK  status: ('A' for Active; 'I' for Inactive)
REMARK    1  A    between atoms: C3_3  and  C6_6 
ROOT
HETATM    1  C1  UNL     1     -34.371  15.085  -7.144  1.00 20.00     0.013 C 
HETATM    2  C2  UNL     1     -34.522  14.817  -5.984  1.00 20.00    -0.107 C 
HETATM    3  C5  UNL     1     -33.583  13.749  -3.900  1.00 20.00     0.033 A 
HETATM    4  C6  UNL     1     -33.791  15.210  -3.605  1.00 20.00     0.030 A 
HETATM    5  C7  UNL     1     -34.704  14.493  -4.590  1.00 20.00     0.027 A 
HETATM    6  C10 UNL     1     -36.118  14.139  -4.210  1.00 20.00     0.030 C 
ENDROOT
BRANCH   4   7
HETATM    7  C3  UNL     1     -34.272  15.604  -2.289  1.00 20.00    -0.018 C 
HETATM    8  C4  UNL     1     -34.259  16.834  -1.741  1.00 20.00    -0.091 C 
HETATM    9  C8  UNL     1     -34.798  17.076  -0.358  1.00 20.00     0.042 C 
HETATM   10  C9  UNL     1     -33.722  18.053  -2.436  1.00 20.00     0.042 C 
ENDBRANCH   4   7
TORSDOF 1
ENDMDL
MODEL 2
REMARK VINA RESULT:      -4.9     10.671     11.871
REMARK  1 active torsions:
REMARK  status: ('A' for Active; 'I' for Inactive)
REMARK    1  A    between atoms: C3_3  and  C6_6 
ROOT
HETATM    1  C1  UNL     1     -32.178   9.230   1.082  1.00 20.00     0.013 C 
HETATM    2  C2  UNL     1     -32.228   8.269   1.800  1.00 20.00    -0.107 C 
HETATM    3  C5  UNL     1     -31.800   7.283   4.082  1.00 20.00     0.033 A 
HETATM    4  C6  UNL     1     -33.278   7.183   3.816  1.00 20.00     0.030 A 
HETATM    5  C7  UNL     1     -32.289   7.113   2.661  1.00 20.00     0.027 A 
HETATM    6  C10 UNL     1     -31.999   5.805   1.973  1.00 20.00     0.030 C 
ENDROOT
BRANCH   4   7
HETATM    7  C3  UNL     1     -33.997   5.996   4.258  1.00 20.00    -0.018 C 
HETATM    8  C4  UNL     1     -34.363   5.674   5.513  1.00 20.00    -0.091 C 
HETATM    9  C8  UNL     1     -35.106   4.400   5.805  1.00 20.00     0.042 C 
HETATM   10  C9  UNL     1     -34.075   6.532   6.713  1.00 20.00     0.042 C 
ENDBRANCH   4   7
TORSDOF 1
ENDMDL
MODEL 3
REMARK VINA RESULT:      -4.7      1.605      2.767
REMARK  1 active torsions:
REMARK  status: ('A' for Active; 'I' for Inactive)
REMARK    1  A    between atoms: C3_3  and  C6_6 
ROOT
HETATM    1  C1  UNL     1     -34.705  13.265  -4.148  1.00 20.00     0.013 C 
HETATM    2  C2  UNL     1     -34.584  14.413  -3.818  1.00 20.00    -0.107 C 
HETATM    3  C5  UNL     1     -35.662  16.484  -2.863  1.00 20.00     0.033 A 
HETATM    4  C6  UNL     1     -34.550  16.082  -1.931  1.00 20.00     0.030 A 
HETATM    5  C7  UNL     1     -34.439  15.792  -3.421  1.00 20.00     0.027 A 
HETATM    6  C10 UNL     1     -33.515  16.600  -4.295  1.00 20.00     0.030 C 
ENDROOT
BRANCH   4   7
HETATM    7  C3  UNL     1     -33.741  17.119  -1.307  1.00 20.00    -0.018 C 
HETATM    8  C4  UNL     1     -33.959  17.740  -0.133  1.00 20.00    -0.091 C 
HETATM    9  C8  UNL     1     -33.019  18.798   0.374  1.00 20.00     0.042 C 
HETATM   10  C9  UNL     1     -35.128  17.445   0.764  1.00 20.00     0.042 C 
ENDBRANCH   4   7
TORSDOF 1
ENDMDL
MODEL 4
REMARK VINA RESULT:      -4.7      1.214      4.515
REMARK  1 active torsions:
REMARK  status: ('A' for Active; 'I' for Inactive)
REMARK    1  A    between atoms: C3_3  and  C6_6 
ROOT
HETATM    1  C1  UNL     1     -34.615  16.535  -1.135  1.00 20.00     0.013 C 
HETATM    2  C2  UNL     1     -34.196  16.240  -2.221  1.00 20.00    -0.107 C 
HETATM    3  C5  UNL     1     -32.737  14.717  -3.606  1.00 20.00     0.033 A 
HETATM    4  C6  UNL     1     -34.153  14.549  -4.088  1.00 20.00     0.030 A 
HETATM    5  C7  UNL     1     -33.692  15.887  -3.526  1.00 20.00     0.027 A 
HETATM    6  C10 UNL     1     -33.441  17.059  -4.438  1.00 20.00     0.030 C 
ENDROOT
BRANCH   4   7
HETATM    7  C3  UNL     1     -34.398  14.381  -5.513  1.00 20.00    -0.018 C 
HETATM    8  C4  UNL     1     -35.534  14.636  -6.190  1.00 20.00    -0.091 C 
HETATM    9  C8  UNL     1     -35.625  14.406  -7.673  1.00 20.00     0.042 C 
HETATM   10  C9  UNL     1     -36.788  15.160  -5.549  1.00 20.00     0.042 C 
ENDBRANCH   4   7
TORSDOF 1
ENDMDL
MODEL 5
REMARK VINA RESULT:      -4.5      1.744      5.401
REMARK  1 active torsions:
REMARK  status: ('A' for Active; 'I' for Inactive)
REMARK    1  A    between atoms: C3_3  and  C6_6 
ROOT
HETATM    1  C1  UNL     1     -32.044  19.074   1.305  1.00 20.00     0.013 C 
HETATM    2  C2  UNL     1     -32.935  18.593   0.660  1.00 20.00    -0.107 C 
HETATM    3  C5  UNL     1     -34.350  18.685  -1.427  1.00 20.00     0.033 A 
HETATM    4  C6  UNL     1     -33.613  17.373  -1.437  1.00 20.00     0.030 A 
HETATM    5  C7  UNL     1     -34.006  18.016  -0.115  1.00 20.00     0.027 A 
HETATM    6  C10 UNL     1     -35.141  17.459   0.705  1.00 20.00     0.030 C 
ENDROOT
BRANCH   4   7
HETATM    7  C3  UNL     1     -34.296  16.183  -1.923  1.00 20.00    -0.018 C 
HETATM    8  C4  UNL     1     -34.133  15.564  -3.108  1.00 20.00    -0.091 C 
HETATM    9  C8  UNL     1     -34.924  14.334  -3.459  1.00 20.00     0.042 C 
HETATM   10  C9  UNL     1     -33.172  16.027  -4.166  1.00 20.00     0.042 C 
ENDBRANCH   4   7
TORSDOF 1
ENDMDL
MODEL 6
REMARK VINA RESULT:      -4.5      1.268      4.917
REMARK  1 active torsions:
REMARK  status: ('A' for Active; 'I' for Inactive)
REMARK    1  A    between atoms: C3_3  and  C6_6 
ROOT
HETATM    1  C1  UNL     1     -35.086  17.567   1.270  1.00 20.00     0.013 C 
HETATM    2  C2  UNL     1     -35.100  17.408   0.080  1.00 20.00    -0.107 C 
HETATM    3  C5  UNL     1     -33.788  17.240  -2.068  1.00 20.00     0.033 A 
HETATM    4  C6  UNL     1     -34.498  15.927  -1.868  1.00 20.00     0.030 A 
HETATM    5  C7  UNL     1     -35.119  17.218  -1.350  1.00 20.00     0.027 A 
HETATM    6  C10 UNL     1     -36.301  17.837  -2.048  1.00 20.00     0.030 C 
ENDROOT
BRANCH   4   7
HETATM    7  C3  UNL     1     -35.054  15.241  -3.024  1.00 20.00    -0.018 C 
HETATM    8  C4  UNL     1     -34.457  14.315  -3.799  1.00 20.00    -0.091 C 
HETATM    9  C8  UNL     1     -35.175  13.698  -4.967  1.00 20.00     0.042 C 
HETATM   10  C9  UNL     1     -33.056  13.820  -3.579  1.00 20.00     0.042 C 
ENDBRANCH   4   7
TORSDOF 1
ENDMDL
MODEL 7
REMARK VINA RESULT:      -4.3      1.514      4.509
REMARK  1 active torsions:
REMARK  status: ('A' for Active; 'I' for Inactive)
REMARK    1  A    between atoms: C3_3  and  C6_6 
ROOT
HETATM    1  C1  UNL     1     -34.552  16.544  -1.025  1.00 20.00     0.013 C 
HETATM    2  C2  UNL     1     -34.374  16.019  -2.089  1.00 20.00    -0.107 C 
HETATM    3  C5  UNL     1     -34.160  13.876  -3.404  1.00 20.00     0.033 A 
HETATM    4  C6  UNL     1     -35.340  14.630  -3.956  1.00 20.00     0.030 A 
HETATM    5  C7  UNL     1     -34.158  15.388  -3.369  1.00 20.00     0.027 A 
HETATM    6  C10 UNL     1     -33.184  16.108  -4.265  1.00 20.00     0.030 C 
ENDROOT
BRANCH   4   7
HETATM    7  C3  UNL     1     -35.580  14.614  -5.392  1.00 20.00    -0.018 C 
HETATM    8  C4  UNL     1     -36.618  15.153  -6.060  1.00 20.00    -0.091 C 
HETATM    9  C8  UNL     1     -36.719  15.048  -7.556  1.00 20.00     0.042 C 
HETATM   10  C9  UNL     1     -37.744  15.894  -5.397  1.00 20.00     0.042 C 
ENDBRANCH   4   7
TORSDOF 1
ENDMDL
MODEL 8
REMARK VINA RESULT:      -4.2     11.039     12.439
REMARK  1 active torsions:
REMARK  status: ('A' for Active; 'I' for Inactive)
REMARK    1  A    between atoms: C3_3  and  C6_6 
ROOT
HETATM    1  C1  UNL     1     -34.804   3.476   5.975  1.00 20.00     0.013 C 
HETATM    2  C2  UNL     1     -34.724   4.476   5.317  1.00 20.00    -0.107 C 
HETATM    3  C5  UNL     1     -34.037   6.901   5.190  1.00 20.00     0.033 A 
HETATM    4  C6  UNL     1     -33.225   6.146   4.172  1.00 20.00     0.030 A 
HETATM    5  C7  UNL     1     -34.630   5.679   4.525  1.00 20.00     0.027 A 
HETATM    6  C10 UNL     1     -35.774   5.889   3.568  1.00 20.00     0.030 C 
ENDROOT
BRANCH   4   7
HETATM    7  C3  UNL     1     -32.945   6.772   2.888  1.00 20.00    -0.018 C 
HETATM    8  C4  UNL     1     -32.003   7.693   2.607  1.00 20.00    -0.091 C 
HETATM    9  C8  UNL     1     -31.843   8.243   1.217  1.00 20.00     0.042 C 
HETATM   10  C9  UNL     1     -31.046   8.245   3.625  1.00 20.00     0.042 C 
ENDBRANCH   4   7
TORSDOF 1
ENDMDL
MODEL 9
REMARK VINA RESULT:      -4.1      1.321      4.399
REMARK  1 active torsions:
REMARK  status: ('A' for Active; 'I' for Inactive)
REMARK    1  A    between atoms: C3_3  and  C6_6 
ROOT
HETATM    1  C1  UNL     1     -34.439  16.650  -1.111  1.00 20.00     0.013 C 
HETATM    2  C2  UNL     1     -34.815  15.979  -2.034  1.00 20.00    -0.107 C 
HETATM    3  C5  UNL     1     -36.760  15.035  -3.334  1.00 20.00     0.033 A 
HETATM    4  C6  UNL     1     -35.972  15.911  -4.271  1.00 20.00     0.030 A 
HETATM    5  C7  UNL     1     -35.266  15.173  -3.142  1.00 20.00     0.027 A 
HETATM    6  C10 UNL     1     -34.409  13.968  -3.428  1.00 20.00     0.030 C 
ENDROOT
BRANCH   4   7
HETATM    7  C3  UNL     1     -35.805  15.495  -5.656  1.00 20.00    -0.018 C 
HETATM    8  C4  UNL     1     -34.821  15.841  -6.508  1.00 20.00    -0.091 C 
HETATM    9  C8  UNL     1     -34.795  15.320  -7.918  1.00 20.00     0.042 C 
HETATM   10  C9  UNL     1     -33.684  16.753  -6.144  1.00 20.00     0.042 C 
ENDBRANCH   4   7
TORSDOF 1
ENDMDL
