MODEL 1
REMARK VINA RESULT:      -5.4      0.000      0.000
REMARK  2 active torsions:
REMARK  status: ('A' for Active; 'I' for Inactive)
REMARK    1  A    between atoms: C8_8  and  C10_10 
REMARK    2  A    between atoms: C10_10  and  C11_11 
ROOT
HETATM    1  C1  UNL     1     -34.543  15.037  -7.173  1.00 20.00     0.012 C 
HETATM    2  C2  UNL     1     -34.711  14.401  -6.169  1.00 20.00    -0.113 C 
HETATM    3  C3  UNL     1     -33.628  13.552  -4.105  1.00 20.00     0.017 C 
HETATM    4  C4  UNL     1     -36.078  14.190  -4.111  1.00 20.00     0.017 C 
HETATM    5  C5  UNL     1     -33.287  14.876  -3.417  1.00 20.00     0.006 C 
HETATM    6  C6  UNL     1     -35.731  15.512  -3.422  1.00 20.00     0.006 C 
HETATM    7  C7  UNL     1     -34.916  13.620  -4.934  1.00 20.00     0.064 C 
HETATM    8  C8  UNL     1     -34.458  15.396  -2.576  1.00 20.00    -0.014 C 
ENDROOT
BRANCH   8   9
HETATM    9  C10 UNL     1     -34.110  16.741  -1.939  1.00 20.00     0.004 C 
BRANCH   9  10
HETATM   10  C11 UNL     1     -34.672  16.844  -0.526  1.00 20.00    -0.004 C 
HETATM   11  C9  UNL     1     -34.085  18.034   0.215  1.00 20.00     0.005 C 
ENDBRANCH   9  10
ENDBRANCH   8   9
TORSDOF 2
ENDMDL
MODEL 2
REMARK VINA RESULT:      -4.9      1.373      1.873
REMARK  2 active torsions:
REMARK  status: ('A' for Active; 'I' for Inactive)
REMARK    1  A    between atoms: C8_8  and  C10_10 
REMARK    2  A    between atoms: C10_10  and  C11_11 
ROOT
HETATM    1  C1  UNL     1     -37.350  15.307  -6.047  1.00 20.00     0.012 C 
HETATM    2  C2  UNL     1     -36.197  14.972  -6.016  1.00 20.00    -0.113 C 
HETATM    3  C3  UNL     1     -33.853  15.780  -6.066  1.00 20.00     0.017 C 
HETATM    4  C4  UNL     1     -34.484  13.728  -4.724  1.00 20.00     0.017 C 
HETATM    5  C5  UNL     1     -33.828  16.610  -4.780  1.00 20.00     0.006 C 
HETATM    6  C6  UNL     1     -34.458  14.563  -3.442  1.00 20.00     0.006 C 
HETATM    7  C7  UNL     1     -34.781  14.563  -5.977  1.00 20.00     0.064 C 
HETATM    8  C8  UNL     1     -33.494  15.750  -3.556  1.00 20.00    -0.014 C 
ENDROOT
BRANCH   8   9
HETATM    9  C10 UNL     1     -33.522  16.592  -2.281  1.00 20.00     0.004 C 
BRANCH   9  10
HETATM   10  C11 UNL     1     -34.766  16.293  -1.451  1.00 20.00    -0.004 C 
HETATM   11  C9  UNL     1     -34.768  17.089  -0.156  1.00 20.00     0.005 C 
ENDBRANCH   9  10
ENDBRANCH   8   9
TORSDOF 2
ENDMDL
MODEL 3
REMARK VINA RESULT:      -4.8      1.604      4.792
REMARK  2 active torsions:
REMARK  status: ('A' for Active; 'I' for Inactive)
REMARK    1  A    between atoms: C8_8  and  C10_10 
REMARK    2  A    between atoms: C10_10  and  C11_11 
ROOT
HETATM    1  C1  UNL     1     -35.053  16.272  -1.890  1.00 20.00     0.012 C 
HETATM    2  C2  UNL     1     -34.221  15.819  -2.627  1.00 20.00    -0.113 C 
HETATM    3  C3  UNL     1     -33.548  13.824  -3.937  1.00 20.00     0.017 C 
HETATM    4  C4  UNL     1     -33.008  16.155  -4.763  1.00 20.00     0.017 C 
HETATM    5  C5  UNL     1     -34.713  13.746  -4.925  1.00 20.00     0.006 C 
HETATM    6  C6  UNL     1     -34.176  16.072  -5.750  1.00 20.00     0.006 C 
HETATM    7  C7  UNL     1     -33.198  15.261  -3.532  1.00 20.00     0.064 C 
HETATM    8  C8  UNL     1     -34.472  14.624  -6.158  1.00 20.00    -0.014 C 
ENDROOT
BRANCH   8   9
HETATM    9  C10 UNL     1     -35.671  14.566  -7.105  1.00 20.00     0.004 C 
BRANCH   9  10
HETATM   10  C11 UNL     1     -36.889  15.250  -6.494  1.00 20.00    -0.004 C 
HETATM   11  C9  UNL     1     -38.095  15.151  -7.415  1.00 20.00     0.005 C 
ENDBRANCH   9  10
ENDBRANCH   8   9
TORSDOF 2
ENDMDL
MODEL 4
REMARK VINA RESULT:      -4.4      1.389      4.920
REMARK  2 active torsions:
REMARK  status: ('A' for Active; 'I' for Inactive)
REMARK    1  A    between atoms: C8_8  and  C10_10 
REMARK    2  A    between atoms: C10_10  and  C11_11 
ROOT
HETATM    1  C1  UNL     1     -34.402  17.165  -0.922  1.00 20.00     0.012 C 
HETATM    2  C2  UNL     1     -34.449  16.256  -1.705  1.00 20.00    -0.113 C 
HETATM    3  C3  UNL     1     -35.805  15.186  -3.485  1.00 20.00     0.017 C 
HETATM    4  C4  UNL     1     -33.276  15.134  -3.579  1.00 20.00     0.017 C 
HETATM    5  C5  UNL     1     -35.818  16.309  -4.524  1.00 20.00     0.006 C 
HETATM    6  C6  UNL     1     -33.295  16.258  -4.618  1.00 20.00     0.006 C 
HETATM    7  C7  UNL     1     -34.509  15.139  -2.667  1.00 20.00     0.064 C 
HETATM    8  C8  UNL     1     -34.590  16.250  -5.439  1.00 20.00    -0.014 C 
ENDROOT
BRANCH   8   9
HETATM    9  C10 UNL     1     -34.603  17.410  -6.435  1.00 20.00     0.004 C 
BRANCH   9  10
HETATM   10  C11 UNL     1     -34.792  16.909  -7.862  1.00 20.00    -0.004 C 
HETATM   11  C9  UNL     1     -34.942  15.396  -7.899  1.00 20.00     0.005 C 
ENDBRANCH   9  10
ENDBRANCH   8   9
TORSDOF 2
ENDMDL
MODEL 5
REMARK VINA RESULT:      -4.4     11.160     12.357
REMARK  2 active torsions:
REMARK  status: ('A' for Active; 'I' for Inactive)
REMARK    1  A    between atoms: C8_8  and  C10_10 
REMARK    2  A    between atoms: C10_10  and  C11_11 
ROOT
HETATM    1  C1  UNL     1     -33.878   3.148   5.937  1.00 20.00     0.012 C 
HETATM    2  C2  UNL     1     -34.418   4.166   5.602  1.00 20.00    -0.113 C 
HETATM    3  C3  UNL     1     -34.354   6.640   5.767  1.00 20.00     0.017 C 
HETATM    4  C4  UNL     1     -35.188   5.507   3.663  1.00 20.00     0.017 C 
HETATM    5  C5  UNL     1     -33.014   6.920   5.082  1.00 20.00     0.006 C 
HETATM    6  C6  UNL     1     -33.847   5.790   2.983  1.00 20.00     0.006 C 
HETATM    7  C7  UNL     1     -35.080   5.419   5.191  1.00 20.00     0.064 C 
HETATM    8  C8  UNL     1     -33.168   7.037   3.561  1.00 20.00    -0.014 C 
ENDROOT
BRANCH   8   9
HETATM    9  C10 UNL     1     -31.811   7.268   2.898  1.00 20.00     0.004 C 
BRANCH   9  10
HETATM   10  C11 UNL     1     -31.958   8.059   1.603  1.00 20.00    -0.004 C 
HETATM   11  C9  UNL     1     -32.531   9.442   1.865  1.00 20.00     0.005 C 
ENDBRANCH   9  10
ENDBRANCH   8   9
TORSDOF 2
ENDMDL
MODEL 6
REMARK VINA RESULT:      -4.4      1.551      5.440
REMARK  2 active torsions:
REMARK  status: ('A' for Active; 'I' for Inactive)
REMARK    1  A    between atoms: C8_8  and  C10_10 
REMARK    2  A    between atoms: C10_10  and  C11_11 
ROOT
HETATM    1  C1  UNL     1     -31.897  18.875   0.334  1.00 20.00     0.012 C 
HETATM    2  C2  UNL     1     -33.033  18.798  -0.049  1.00 20.00    -0.113 C 
HETATM    3  C3  UNL     1     -34.547  19.161  -1.979  1.00 20.00     0.017 C 
HETATM    4  C4  UNL     1     -34.974  17.283  -0.336  1.00 20.00     0.017 C 
HETATM    5  C5  UNL     1     -33.962  18.156  -2.972  1.00 20.00     0.006 C 
HETATM    6  C6  UNL     1     -34.387  16.281  -1.334  1.00 20.00     0.006 C 
HETATM    7  C7  UNL     1     -34.427  18.704  -0.520  1.00 20.00     0.064 C 
HETATM    8  C8  UNL     1     -34.557  16.756  -2.782  1.00 20.00    -0.014 C 
ENDROOT
BRANCH   8   9
HETATM    9  C10 UNL     1     -33.921  15.762  -3.753  1.00 20.00     0.004 C 
BRANCH   9  10
HETATM   10  C11 UNL     1     -34.151  14.325  -3.299  1.00 20.00    -0.004 C 
HETATM   11  C9  UNL     1     -34.919  13.534  -4.346  1.00 20.00     0.005 C 
ENDBRANCH   9  10
ENDBRANCH   8   9
TORSDOF 2
ENDMDL
MODEL 7
REMARK VINA RESULT:      -4.3      1.278      2.278
REMARK  2 active torsions:
REMARK  status: ('A' for Active; 'I' for Inactive)
REMARK    1  A    between atoms: C8_8  and  C10_10 
REMARK    2  A    between atoms: C10_10  and  C11_11 
ROOT
HETATM    1  C1  UNL     1     -34.753  12.989  -4.940  1.00 20.00     0.012 C 
HETATM    2  C2  UNL     1     -35.032  14.148  -5.082  1.00 20.00    -0.113 C 
HETATM    3  C3  UNL     1     -36.337  16.044  -4.159  1.00 20.00     0.017 C 
HETATM    4  C4  UNL     1     -34.111  16.440  -5.297  1.00 20.00     0.017 C 
HETATM    5  C5  UNL     1     -35.663  16.194  -2.793  1.00 20.00     0.006 C 
HETATM    6  C6  UNL     1     -33.442  16.590  -3.929  1.00 20.00     0.006 C 
HETATM    7  C7  UNL     1     -35.375  15.572  -5.255  1.00 20.00     0.064 C 
HETATM    8  C8  UNL     1     -34.426  17.096  -2.867  1.00 20.00    -0.014 C 
ENDROOT
BRANCH   8   9
HETATM    9  C10 UNL     1     -33.744  17.190  -1.503  1.00 20.00     0.004 C 
BRANCH   9  10
HETATM   10  C11 UNL     1     -34.732  16.919  -0.374  1.00 20.00    -0.004 C 
HETATM   11  C9  UNL     1     -34.522  17.880   0.785  1.00 20.00     0.005 C 
ENDBRANCH   9  10
ENDBRANCH   8   9
TORSDOF 2
ENDMDL
MODEL 8
REMARK VINA RESULT:      -4.3      1.677      5.016
REMARK  2 active torsions:
REMARK  status: ('A' for Active; 'I' for Inactive)
REMARK    1  A    between atoms: C8_8  and  C10_10 
REMARK    2  A    between atoms: C10_10  and  C11_11 
ROOT
HETATM    1  C1  UNL     1     -37.122  19.076  -1.698  1.00 20.00     0.012 C 
HETATM    2  C2  UNL     1     -36.022  18.743  -1.350  1.00 20.00    -0.113 C 
HETATM    3  C3  UNL     1     -34.634  16.842  -0.566  1.00 20.00     0.017 C 
HETATM    4  C4  UNL     1     -33.628  18.674  -1.995  1.00 20.00     0.017 C 
HETATM    5  C5  UNL     1     -34.711  15.930  -1.792  1.00 20.00     0.006 C 
HETATM    6  C6  UNL     1     -33.707  17.757  -3.219  1.00 20.00     0.006 C 
HETATM    7  C7  UNL     1     -34.671  18.333  -0.922  1.00 20.00     0.064 C 
HETATM    8  C8  UNL     1     -33.633  16.277  -2.825  1.00 20.00    -0.014 C 
ENDROOT
BRANCH   8   9
HETATM    9  C10 UNL     1     -33.762  15.385  -4.059  1.00 20.00     0.004 C 
BRANCH   9  10
HETATM   10  C11 UNL     1     -33.926  13.921  -3.666  1.00 20.00    -0.004 C 
HETATM   11  C9  UNL     1     -35.101  13.284  -4.391  1.00 20.00     0.005 C 
ENDBRANCH   9  10
ENDBRANCH   8   9
TORSDOF 2
ENDMDL
MODEL 9
REMARK VINA RESULT:      -4.2      2.056      3.096
REMARK  2 active torsions:
REMARK  status: ('A' for Active; 'I' for Inactive)
REMARK    1  A    between atoms: C8_8  and  C10_10 
REMARK    2  A    between atoms: C10_10  and  C11_11 
ROOT
HETATM    1  C1  UNL     1     -37.237  17.267  -6.708  1.00 20.00     0.012 C 
HETATM    2  C2  UNL     1     -36.057  17.123  -6.873  1.00 20.00    -0.113 C 
HETATM    3  C3  UNL     1     -33.806  17.889  -6.165  1.00 20.00     0.017 C 
HETATM    4  C4  UNL     1     -34.195  15.485  -6.859  1.00 20.00     0.017 C 
HETATM    5  C5  UNL     1     -33.829  17.465  -4.695  1.00 20.00     0.006 C 
HETATM    6  C6  UNL     1     -34.217  15.067  -5.387  1.00 20.00     0.006 C 
HETATM    7  C7  UNL     1     -34.606  16.948  -7.074  1.00 20.00     0.064 C 
HETATM    8  C8  UNL     1     -33.378  16.011  -4.516  1.00 20.00    -0.014 C 
ENDROOT
BRANCH   8   9
HETATM    9  C10 UNL     1     -33.456  15.598  -3.047  1.00 20.00     0.004 C 
BRANCH   9  10
HETATM   10  C11 UNL     1     -34.792  15.999  -2.431  1.00 20.00    -0.004 C 
HETATM   11  C9  UNL     1     -34.609  16.537  -1.021  1.00 20.00     0.005 C 
ENDBRANCH   9  10
ENDBRANCH   8   9
TORSDOF 2
ENDMDL
