MODEL 1
REMARK VINA RESULT:      -4.6      0.000      0.000
REMARK  0 active torsions:
REMARK  status: ('A' for Active; 'I' for Inactive)
ROOT
HETATM    1  C1  UNL     1     -34.661  16.415  -1.240  1.00 20.00     0.013 C 
HETATM    2  C2  UNL     1     -34.585  15.932  -2.337  1.00 20.00    -0.103 C 
HETATM    3  C3  UNL     1     -34.826  15.874  -6.519  1.00 20.00    -0.004 C 
HETATM    4  C4  UNL     1     -35.974  15.608  -5.692  1.00 20.00     0.004 C 
HETATM    5  C5  UNL     1     -33.629  16.137  -5.980  1.00 20.00    -0.025 C 
HETATM    6  C6  UNL     1     -35.866  15.349  -4.373  1.00 20.00    -0.063 C 
HETATM    7  C7  UNL     1     -33.426  16.151  -4.493  1.00 20.00     0.054 C 
HETATM    8  C8  UNL     1     -34.492  15.337  -3.689  1.00 20.00     0.045 C 
HETATM    9  C9  UNL     1     -37.095  15.016  -3.566  1.00 20.00     0.045 C 
HETATM   10  C10 UNL     1     -34.021  13.875  -3.554  1.00 20.00     0.034 C 
ENDROOT
TORSDOF 0
ENDMDL
MODEL 2
REMARK VINA RESULT:      -4.6      1.218      2.095
REMARK  0 active torsions:
REMARK  status: ('A' for Active; 'I' for Inactive)
ROOT
HETATM    1  C1  UNL     1     -34.500  16.480  -1.185  1.00 20.00     0.013 C 
HETATM    2  C2  UNL     1     -34.887  15.992  -2.210  1.00 20.00    -0.103 C 
HETATM    3  C3  UNL     1     -34.530  14.417  -6.076  1.00 20.00    -0.004 C 
HETATM    4  C4  UNL     1     -34.684  15.830  -5.847  1.00 20.00     0.004 C 
HETATM    5  C5  UNL     1     -34.510  13.548  -5.059  1.00 20.00    -0.025 C 
HETATM    6  C6  UNL     1     -35.074  16.327  -4.656  1.00 20.00    -0.063 C 
HETATM    7  C7  UNL     1     -34.662  14.003  -3.637  1.00 20.00     0.054 C 
HETATM    8  C8  UNL     1     -35.365  15.390  -3.476  1.00 20.00     0.045 C 
HETATM    9  C9  UNL     1     -35.280  17.811  -4.488  1.00 20.00     0.045 C 
HETATM   10  C10 UNL     1     -36.890  15.179  -3.377  1.00 20.00     0.034 C 
ENDROOT
TORSDOF 0
ENDMDL
MODEL 3
REMARK VINA RESULT:      -4.5      1.501      2.530
REMARK  0 active torsions:
REMARK  status: ('A' for Active; 'I' for Inactive)
ROOT
HETATM    1  C1  UNL     1     -33.660  18.483  -4.561  1.00 20.00     0.013 C 
HETATM    2  C2  UNL     1     -33.921  17.425  -4.059  1.00 20.00    -0.103 C 
HETATM    3  C3  UNL     1     -34.727  13.314  -3.991  1.00 20.00    -0.004 C 
HETATM    4  C4  UNL     1     -35.768  14.285  -4.210  1.00 20.00     0.004 C 
HETATM    5  C5  UNL     1     -33.460  13.691  -3.786  1.00 20.00    -0.025 C 
HETATM    6  C6  UNL     1     -35.590  15.598  -3.964  1.00 20.00    -0.063 C 
HETATM    7  C7  UNL     1     -33.068  15.140  -3.758  1.00 20.00     0.054 C 
HETATM    8  C8  UNL     1     -34.245  16.119  -3.440  1.00 20.00     0.045 C 
HETATM    9  C9  UNL     1     -36.732  16.563  -4.151  1.00 20.00     0.045 C 
HETATM   10  C10 UNL     1     -34.350  16.309  -1.913  1.00 20.00     0.034 C 
ENDROOT
TORSDOF 0
ENDMDL
MODEL 4
REMARK VINA RESULT:      -4.5      1.148      2.249
REMARK  0 active torsions:
REMARK  status: ('A' for Active; 'I' for Inactive)
ROOT
HETATM    1  C1  UNL     1     -34.589  16.289  -1.533  1.00 20.00     0.013 C 
HETATM    2  C2  UNL     1     -34.553  16.138  -2.723  1.00 20.00    -0.103 C 
HETATM    3  C3  UNL     1     -35.798  14.641  -6.433  1.00 20.00    -0.004 C 
HETATM    4  C4  UNL     1     -34.896  13.905  -5.584  1.00 20.00     0.004 C 
HETATM    5  C5  UNL     1     -36.262  15.844  -6.073  1.00 20.00    -0.025 C 
HETATM    6  C6  UNL     1     -34.271  14.474  -4.534  1.00 20.00    -0.063 C 
HETATM    7  C7  UNL     1     -35.853  16.485  -4.779  1.00 20.00     0.054 C 
HETATM    8  C8  UNL     1     -34.507  15.951  -4.191  1.00 20.00     0.045 C 
HETATM    9  C9  UNL     1     -33.290  13.674  -3.716  1.00 20.00     0.045 C 
HETATM   10  C10 UNL     1     -33.339  16.782  -4.759  1.00 20.00     0.034 C 
ENDROOT
TORSDOF 0
ENDMDL
MODEL 5
REMARK VINA RESULT:      -4.4      1.066      2.689
REMARK  0 active torsions:
REMARK  status: ('A' for Active; 'I' for Inactive)
ROOT
HETATM    1  C1  UNL     1     -38.169  14.764  -3.883  1.00 20.00     0.013 C 
HETATM    2  C2  UNL     1     -36.981  14.713  -4.049  1.00 20.00    -0.103 C 
HETATM    3  C3  UNL     1     -33.121  16.248  -4.597  1.00 20.00    -0.004 C 
HETATM    4  C4  UNL     1     -34.015  16.035  -5.706  1.00 20.00     0.004 C 
HETATM    5  C5  UNL     1     -33.487  15.949  -3.345  1.00 20.00    -0.025 C 
HETATM    6  C6  UNL     1     -35.137  15.296  -5.594  1.00 20.00    -0.063 C 
HETATM    7  C7  UNL     1     -34.836  15.364  -3.042  1.00 20.00     0.054 C 
HETATM    8  C8  UNL     1     -35.516  14.650  -4.255  1.00 20.00     0.045 C 
HETATM    9  C9  UNL     1     -36.005  15.053  -6.802  1.00 20.00     0.045 C 
HETATM   10  C10 UNL     1     -35.085  13.169  -4.281  1.00 20.00     0.034 C 
ENDROOT
TORSDOF 0
ENDMDL
MODEL 6
REMARK VINA RESULT:      -4.4     11.495     13.350
REMARK  0 active torsions:
REMARK  status: ('A' for Active; 'I' for Inactive)
ROOT
HETATM    1  C1  UNL     1     -31.632   7.234   3.098  1.00 20.00     0.013 C 
HETATM    2  C2  UNL     1     -32.657   6.899   3.624  1.00 20.00    -0.103 C 
HETATM    3  C3  UNL     1     -35.158   4.445   5.922  1.00 20.00    -0.004 C 
HETATM    4  C4  UNL     1     -34.961   4.217   4.514  1.00 20.00     0.004 C 
HETATM    5  C5  UNL     1     -34.558   5.464   6.550  1.00 20.00    -0.025 C 
HETATM    6  C6  UNL     1     -34.395   5.137   3.708  1.00 20.00    -0.063 C 
HETATM    7  C7  UNL     1     -33.667   6.422   5.813  1.00 20.00     0.054 C 
HETATM    8  C8  UNL     1     -33.922   6.484   4.272  1.00 20.00     0.045 C 
HETATM    9  C9  UNL     1     -34.269   4.872   2.230  1.00 20.00     0.045 C 
HETATM   10  C10 UNL     1     -34.999   7.548   3.978  1.00 20.00     0.034 C 
ENDROOT
TORSDOF 0
ENDMDL
MODEL 7
REMARK VINA RESULT:      -4.4      1.738      3.629
REMARK  0 active torsions:
REMARK  status: ('A' for Active; 'I' for Inactive)
ROOT
HETATM    1  C1  UNL     1     -37.028  16.971  -5.893  1.00 20.00     0.013 C 
HETATM    2  C2  UNL     1     -36.085  16.238  -5.776  1.00 20.00    -0.103 C 
HETATM    3  C3  UNL     1     -33.260  13.931  -3.715  1.00 20.00    -0.004 C 
HETATM    4  C4  UNL     1     -33.056  15.335  -3.960  1.00 20.00     0.004 C 
HETATM    5  C5  UNL     1     -34.359  13.303  -4.152  1.00 20.00    -0.025 C 
HETATM    6  C6  UNL     1     -33.801  16.027  -4.845  1.00 20.00    -0.063 C 
HETATM    7  C7  UNL     1     -35.419  14.030  -4.928  1.00 20.00     0.054 C 
HETATM    8  C8  UNL     1     -34.922  15.334  -5.632  1.00 20.00     0.045 C 
HETATM    9  C9  UNL     1     -33.505  17.481  -5.108  1.00 20.00     0.045 C 
HETATM   10  C10 UNL     1     -34.392  14.983  -7.038  1.00 20.00     0.034 C 
ENDROOT
TORSDOF 0
ENDMDL
MODEL 8
REMARK VINA RESULT:      -4.4      1.474      2.843
REMARK  0 active torsions:
REMARK  status: ('A' for Active; 'I' for Inactive)
ROOT
HETATM    1  C1  UNL     1     -36.378  18.194  -4.244  1.00 20.00     0.013 C 
HETATM    2  C2  UNL     1     -35.624  17.280  -4.439  1.00 20.00    -0.103 C 
HETATM    3  C3  UNL     1     -34.471  13.263  -4.730  1.00 20.00    -0.004 C 
HETATM    4  C4  UNL     1     -34.437  13.971  -3.476  1.00 20.00     0.004 C 
HETATM    5  C5  UNL     1     -34.860  13.869  -5.858  1.00 20.00    -0.025 C 
HETATM    6  C6  UNL     1     -34.534  15.313  -3.405  1.00 20.00    -0.063 C 
HETATM    7  C7  UNL     1     -35.263  15.315  -5.870  1.00 20.00     0.054 C 
HETATM    8  C8  UNL     1     -34.695  16.153  -4.679  1.00 20.00     0.045 C 
HETATM    9  C9  UNL     1     -34.430  16.008  -2.071  1.00 20.00     0.045 C 
HETATM   10  C10 UNL     1     -33.316  16.725  -5.071  1.00 20.00     0.034 C 
ENDROOT
TORSDOF 0
ENDMDL
MODEL 9
REMARK VINA RESULT:      -4.3      1.434      3.719
REMARK  0 active torsions:
REMARK  status: ('A' for Active; 'I' for Inactive)
ROOT
HETATM    1  C1  UNL     1     -35.174  14.367  -5.975  1.00 20.00     0.013 C 
HETATM    2  C2  UNL     1     -34.625  14.889  -5.043  1.00 20.00    -0.103 C 
HETATM    3  C3  UNL     1     -34.258  17.504  -1.790  1.00 20.00    -0.004 C 
HETATM    4  C4  UNL     1     -33.952  17.921  -3.134  1.00 20.00     0.004 C 
HETATM    5  C5  UNL     1     -34.660  16.254  -1.527  1.00 20.00    -0.025 C 
HETATM    6  C6  UNL     1     -33.795  17.041  -4.142  1.00 20.00    -0.063 C 
HETATM    7  C7  UNL     1     -34.794  15.229  -2.615  1.00 20.00     0.054 C 
HETATM    8  C8  UNL     1     -33.949  15.534  -3.895  1.00 20.00     0.045 C 
HETATM    9  C9  UNL     1     -33.414  17.527  -5.517  1.00 20.00     0.045 C 
HETATM   10  C10 UNL     1     -32.545  14.914  -3.737  1.00 20.00     0.034 C 
ENDROOT
TORSDOF 0
ENDMDL
