MODEL 1
REMARK VINA RESULT:      -4.9      0.000      0.000
REMARK  1 active torsions:
REMARK  status: ('A' for Active; 'I' for Inactive)
REMARK    1  A    between atoms: C6_6  and  C10_10 
ROOT
HETATM    1  C1  UNL     1     -41.862   2.121  -3.228  1.00 20.00     0.017 C 
HETATM    2  C2  UNL     1     -41.762   3.200  -2.713  1.00 20.00    -0.083 C 
HETATM    3  C3  UNL     1     -42.415   5.492  -2.542  1.00 20.00    -0.002 C 
HETATM    4  C4  UNL     1     -41.641   4.484  -2.103  1.00 20.00    -0.009 C 
HETATM    5  C7  UNL     1     -40.670   4.660  -0.964  1.00 20.00     0.048 C 
HETATM    6  C8  UNL     1     -40.921   5.929  -0.146  1.00 20.00     0.006 C 
HETATM    7  C9  UNL     1     -41.159   7.126  -1.061  1.00 20.00     0.012 C 
HETATM    8  C10 UNL     1     -42.372   6.891  -1.976  1.00 20.00     0.031 C 
ENDROOT
BRANCH   8   9
HETATM    9  C6  UNL     1     -42.392   7.925  -3.062  1.00 20.00    -0.028 C 
HETATM   10  C5  UNL     1     -43.115   7.819  -4.181  1.00 20.00     0.007 C 
ENDBRANCH   8   9
TORSDOF 1
ENDMDL
MODEL 2
REMARK VINA RESULT:      -4.8     11.678     13.625
REMARK  1 active torsions:
REMARK  status: ('A' for Active; 'I' for Inactive)
REMARK    1  A    between atoms: C6_6  and  C10_10 
ROOT
HETATM    1  C1  UNL     1     -35.119  17.431   1.049  1.00 20.00     0.017 C 
HETATM    2  C2  UNL     1     -34.825  17.229  -0.096  1.00 20.00    -0.083 C 
HETATM    3  C3  UNL     1     -34.878  15.846  -2.044  1.00 20.00    -0.002 C 
HETATM    4  C4  UNL     1     -34.475  16.988  -1.458  1.00 20.00    -0.009 C 
HETATM    5  C7  UNL     1     -33.688  18.034  -2.204  1.00 20.00     0.048 C 
HETATM    6  C8  UNL     1     -33.729  17.853  -3.723  1.00 20.00     0.006 C 
HETATM    7  C9  UNL     1     -33.496  16.394  -4.101  1.00 20.00     0.012 C 
HETATM    8  C10 UNL     1     -34.564  15.482  -3.475  1.00 20.00     0.031 C 
ENDROOT
BRANCH   8   9
HETATM    9  C6  UNL     1     -34.138  14.050  -3.598  1.00 20.00    -0.028 C 
HETATM   10  C5  UNL     1     -34.606  13.209  -4.526  1.00 20.00     0.007 C 
ENDBRANCH   8   9
TORSDOF 1
ENDMDL
MODEL 3
REMARK VINA RESULT:      -4.7     11.471     13.175
REMARK  1 active torsions:
REMARK  status: ('A' for Active; 'I' for Inactive)
REMARK    1  A    between atoms: C6_6  and  C10_10 
ROOT
HETATM    1  C1  UNL     1     -34.511  16.720  -0.781  1.00 20.00     0.017 C 
HETATM    2  C2  UNL     1     -34.436  16.240  -1.877  1.00 20.00    -0.083 C 
HETATM    3  C3  UNL     1     -33.917  16.432  -4.202  1.00 20.00    -0.002 C 
HETATM    4  C4  UNL     1     -34.349  15.669  -3.182  1.00 20.00    -0.009 C 
HETATM    5  C7  UNL     1     -34.718  14.220  -3.369  1.00 20.00     0.048 C 
HETATM    6  C8  UNL     1     -34.204  13.630  -4.685  1.00 20.00     0.006 C 
HETATM    7  C9  UNL     1     -34.475  14.582  -5.847  1.00 20.00     0.012 C 
HETATM    8  C10 UNL     1     -33.788  15.939  -5.622  1.00 20.00     0.031 C 
ENDROOT
BRANCH   8   9
HETATM    9  C6  UNL     1     -34.318  16.940  -6.603  1.00 20.00    -0.028 C 
HETATM   10  C5  UNL     1     -35.008  16.616  -7.702  1.00 20.00     0.007 C 
ENDBRANCH   8   9
TORSDOF 1
ENDMDL
MODEL 4
REMARK VINA RESULT:      -4.6     13.572     15.436
REMARK  1 active torsions:
REMARK  status: ('A' for Active; 'I' for Inactive)
REMARK    1  A    between atoms: C6_6  and  C10_10 
ROOT
HETATM    1  C1  UNL     1     -33.938  15.996  -2.794  1.00 20.00     0.017 C 
HETATM    2  C2  UNL     1     -33.963  16.637  -1.780  1.00 20.00    -0.083 C 
HETATM    3  C3  UNL     1     -33.019  18.298  -0.345  1.00 20.00    -0.002 C 
HETATM    4  C4  UNL     1     -33.993  17.399  -0.575  1.00 20.00    -0.009 C 
HETATM    5  C7  UNL     1     -35.131  17.190   0.391  1.00 20.00     0.048 C 
HETATM    6  C8  UNL     1     -35.271  18.320   1.414  1.00 20.00     0.006 C 
HETATM    7  C9  UNL     1     -33.912  18.695   1.997  1.00 20.00     0.012 C 
HETATM    8  C10 UNL     1     -32.945  19.156   0.894  1.00 20.00     0.031 C 
ENDROOT
BRANCH   8   9
HETATM    9  C6  UNL     1     -31.550  19.215   1.440  1.00 20.00    -0.028 C 
HETATM   10  C5  UNL     1     -31.244  19.028   2.729  1.00 20.00     0.007 C 
ENDBRANCH   8   9
TORSDOF 1
ENDMDL
MODEL 5
REMARK VINA RESULT:      -4.6     10.410     12.175
REMARK  1 active torsions:
REMARK  status: ('A' for Active; 'I' for Inactive)
REMARK    1  A    between atoms: C6_6  and  C10_10 
ROOT
HETATM    1  C1  UNL     1     -38.751  14.764  -4.148  1.00 20.00     0.017 C 
HETATM    2  C2  UNL     1     -37.564  14.754  -3.975  1.00 20.00    -0.083 C 
HETATM    3  C3  UNL     1     -35.627  15.498  -2.791  1.00 20.00    -0.002 C 
HETATM    4  C4  UNL     1     -36.152  14.742  -3.772  1.00 20.00    -0.009 C 
HETATM    5  C7  UNL     1     -35.297  13.860  -4.645  1.00 20.00     0.048 C 
HETATM    6  C8  UNL     1     -33.895  13.624  -4.078  1.00 20.00     0.006 C 
HETATM    7  C9  UNL     1     -33.284  14.932  -3.584  1.00 20.00     0.012 C 
HETATM    8  C10 UNL     1     -34.150  15.569  -2.486  1.00 20.00     0.031 C 
ENDROOT
BRANCH   8   9
HETATM    9  C6  UNL     1     -33.704  16.980  -2.247  1.00 20.00    -0.028 C 
HETATM   10  C5  UNL     1     -33.722  17.577  -1.051  1.00 20.00     0.007 C 
ENDBRANCH   8   9
TORSDOF 1
ENDMDL
MODEL 6
REMARK VINA RESULT:      -4.5     11.089     12.974
REMARK  1 active torsions:
REMARK  status: ('A' for Active; 'I' for Inactive)
REMARK    1  A    between atoms: C6_6  and  C10_10 
ROOT
HETATM    1  C1  UNL     1     -34.892  17.163  -7.896  1.00 20.00     0.017 C 
HETATM    2  C2  UNL     1     -34.850  16.465  -6.921  1.00 20.00    -0.083 C 
HETATM    3  C3  UNL     1     -34.959  16.195  -4.550  1.00 20.00    -0.002 C 
HETATM    4  C4  UNL     1     -34.798  15.635  -5.763  1.00 20.00    -0.009 C 
HETATM    5  C7  UNL     1     -34.594  14.152  -5.937  1.00 20.00     0.048 C 
HETATM    6  C8  UNL     1     -34.959  13.341  -4.692  1.00 20.00     0.006 C 
HETATM    7  C9  UNL     1     -34.385  13.988  -3.435  1.00 20.00     0.012 C 
HETATM    8  C10 UNL     1     -34.919  15.418  -3.256  1.00 20.00     0.031 C 
ENDROOT
BRANCH   8   9
HETATM    9  C6  UNL     1     -34.113  16.130  -2.212  1.00 20.00    -0.028 C 
HETATM   10  C5  UNL     1     -34.612  16.562  -1.049  1.00 20.00     0.007 C 
ENDBRANCH   8   9
TORSDOF 1
ENDMDL
MODEL 7
REMARK VINA RESULT:      -4.4     11.275     12.164
REMARK  1 active torsions:
REMARK  status: ('A' for Active; 'I' for Inactive)
REMARK    1  A    between atoms: C6_6  and  C10_10 
ROOT
HETATM    1  C1  UNL     1     -38.140  15.708  -6.385  1.00 20.00     0.017 C 
HETATM    2  C2  UNL     1     -37.181  15.359  -5.754  1.00 20.00    -0.083 C 
HETATM    3  C3  UNL     1     -35.879  15.407  -3.751  1.00 20.00    -0.002 C 
HETATM    4  C4  UNL     1     -36.041  14.946  -5.004  1.00 20.00    -0.009 C 
HETATM    5  C7  UNL     1     -35.067  13.982  -5.632  1.00 20.00     0.048 C 
HETATM    6  C8  UNL     1     -34.139  13.312  -4.615  1.00 20.00     0.006 C 
HETATM    7  C9  UNL     1     -33.581  14.337  -3.633  1.00 20.00     0.012 C 
HETATM    8  C10 UNL     1     -34.713  15.042  -2.866  1.00 20.00     0.031 C 
ENDROOT
BRANCH   8   9
HETATM    9  C6  UNL     1     -34.166  16.242  -2.153  1.00 20.00    -0.028 C 
HETATM   10  C5  UNL     1     -34.575  16.644  -0.945  1.00 20.00     0.007 C 
ENDBRANCH   8   9
TORSDOF 1
ENDMDL
MODEL 8
REMARK VINA RESULT:      -4.3     10.180     12.122
REMARK  1 active torsions:
REMARK  status: ('A' for Active; 'I' for Inactive)
REMARK    1  A    between atoms: C6_6  and  C10_10 
ROOT
HETATM    1  C1  UNL     1     -34.525  16.905  -0.472  1.00 20.00     0.017 C 
HETATM    2  C2  UNL     1     -34.729  16.347  -1.514  1.00 20.00    -0.083 C 
HETATM    3  C3  UNL     1     -36.026  16.059  -3.500  1.00 20.00    -0.002 C 
HETATM    4  C4  UNL     1     -34.973  15.683  -2.752  1.00 20.00    -0.009 C 
HETATM    5  C7  UNL     1     -34.024  14.600  -3.197  1.00 20.00     0.048 C 
HETATM    6  C8  UNL     1     -34.148  14.261  -4.684  1.00 20.00     0.006 C 
HETATM    7  C9  UNL     1     -35.613  14.124  -5.089  1.00 20.00     0.012 C 
HETATM    8  C10 UNL     1     -36.384  15.427  -4.823  1.00 20.00     0.031 C 
ENDROOT
BRANCH   8   9
HETATM    9  C6  UNL     1     -37.857  15.171  -4.930  1.00 20.00    -0.028 C 
HETATM   10  C5  UNL     1     -38.626  14.793  -3.904  1.00 20.00     0.007 C 
ENDBRANCH   8   9
TORSDOF 1
ENDMDL
MODEL 9
REMARK VINA RESULT:      -4.3     11.727     13.397
REMARK  1 active torsions:
REMARK  status: ('A' for Active; 'I' for Inactive)
REMARK    1  A    between atoms: C6_6  and  C10_10 
ROOT
HETATM    1  C1  UNL     1     -34.858  13.215  -4.915  1.00 20.00     0.017 C 
HETATM    2  C2  UNL     1     -34.647  14.274  -4.394  1.00 20.00    -0.083 C 
HETATM    3  C3  UNL     1     -34.191  15.581  -2.446  1.00 20.00    -0.002 C 
HETATM    4  C4  UNL     1     -34.397  15.535  -3.775  1.00 20.00    -0.009 C 
HETATM    5  C7  UNL     1     -34.343  16.771  -4.635  1.00 20.00     0.048 C 
HETATM    6  C8  UNL     1     -33.679  17.962  -3.940  1.00 20.00     0.006 C 
HETATM    7  C9  UNL     1     -34.200  18.118  -2.515  1.00 20.00     0.012 C 
HETATM    8  C10 UNL     1     -33.922  16.855  -1.683  1.00 20.00     0.031 C 
ENDROOT
BRANCH   8   9
HETATM    9  C6  UNL     1     -34.708  16.910  -0.408  1.00 20.00    -0.028 C 
HETATM   10  C5  UNL     1     -34.543  17.846   0.532  1.00 20.00     0.007 C 
ENDBRANCH   8   9
TORSDOF 1
ENDMDL
