MODEL 1
REMARK VINA RESULT:      -5.3      0.000      0.000
REMARK  1 active torsions:
REMARK  status: ('A' for Active; 'I' for Inactive)
REMARK    1  A    between atoms: C5_5  and  C7_7 
ROOT
HETATM    1  C1  UNL     1     -34.689   5.617   6.590  1.00 20.00     0.001 C 
HETATM    2  C2  UNL     1     -34.895   4.187   6.087  1.00 20.00     0.001 C 
HETATM    3  C3  UNL     1     -34.002   6.372   5.455  1.00 20.00     0.018 C 
HETATM    4  C4  UNL     1     -34.323   4.148   4.672  1.00 20.00     0.018 C 
HETATM    5  C5  UNL     1     -34.372   5.601   4.180  1.00 20.00     0.054 C 
HETATM    6  C6  UNL     1     -35.780   5.978   3.690  1.00 20.00     0.024 C 
ENDROOT
BRANCH   5   7
HETATM    7  C7  UNL     1     -33.363   5.850   3.057  1.00 20.00     0.395 C 
HETATM    8  F8  UNL     1     -32.149   5.444   3.445  1.00 20.00    -0.170 F 
HETATM    9  F9  UNL     1     -33.729   5.171   1.964  1.00 20.00    -0.170 F 
HETATM   10  F10 UNL     1     -33.322   7.158   2.773  1.00 20.00    -0.170 F 
ENDBRANCH   5   7
TORSDOF 1
ENDMDL
MODEL 2
REMARK VINA RESULT:      -5.3      0.041      1.209
REMARK  1 active torsions:
REMARK  status: ('A' for Active; 'I' for Inactive)
REMARK    1  A    between atoms: C5_5  and  C7_7 
ROOT
HETATM    1  C1  UNL     1     -34.699   5.641   6.588  1.00 20.00     0.001 C 
HETATM    2  C2  UNL     1     -34.881   4.204   6.097  1.00 20.00     0.001 C 
HETATM    3  C3  UNL     1     -34.008   6.395   5.454  1.00 20.00     0.018 C 
HETATM    4  C4  UNL     1     -34.291   4.159   4.689  1.00 20.00     0.018 C 
HETATM    5  C5  UNL     1     -34.353   5.607   4.183  1.00 20.00     0.054 C 
HETATM    6  C6  UNL     1     -35.760   5.961   3.673  1.00 20.00     0.024 C 
ENDROOT
BRANCH   5   7
HETATM    7  C7  UNL     1     -33.334   5.858   3.070  1.00 20.00     0.395 C 
HETATM    8  F8  UNL     1     -33.325   7.158   2.754  1.00 20.00    -0.170 F 
HETATM    9  F9  UNL     1     -32.115   5.495   3.485  1.00 20.00    -0.170 F 
HETATM   10  F10 UNL     1     -33.666   5.143   1.988  1.00 20.00    -0.170 F 
ENDBRANCH   5   7
TORSDOF 1
ENDMDL
MODEL 3
REMARK VINA RESULT:      -4.6      2.312      3.411
REMARK  1 active torsions:
REMARK  status: ('A' for Active; 'I' for Inactive)
REMARK    1  A    between atoms: C5_5  and  C7_7 
ROOT
HETATM    1  C1  UNL     1     -32.655   6.201   2.975  1.00 20.00     0.001 C 
HETATM    2  C2  UNL     1     -32.905   7.283   4.027  1.00 20.00     0.001 C 
HETATM    3  C3  UNL     1     -33.303   4.927   3.513  1.00 20.00     0.018 C 
HETATM    4  C4  UNL     1     -33.693   6.610   5.149  1.00 20.00     0.018 C 
HETATM    5  C5  UNL     1     -34.385   5.411   4.488  1.00 20.00     0.054 C 
HETATM    6  C6  UNL     1     -35.658   5.841   3.740  1.00 20.00     0.024 C 
ENDROOT
BRANCH   5   7
HETATM    7  C7  UNL     1     -34.743   4.332   5.513  1.00 20.00     0.395 C 
HETATM    8  F8  UNL     1     -35.644   4.814   6.377  1.00 20.00    -0.170 F 
HETATM    9  F9  UNL     1     -35.256   3.268   4.885  1.00 20.00    -0.170 F 
HETATM   10  F10 UNL     1     -33.642   3.965   6.181  1.00 20.00    -0.170 F 
ENDBRANCH   5   7
TORSDOF 1
ENDMDL
MODEL 4
REMARK VINA RESULT:      -4.6      2.397      3.487
REMARK  1 active torsions:
REMARK  status: ('A' for Active; 'I' for Inactive)
REMARK    1  A    between atoms: C5_5  and  C7_7 
ROOT
HETATM    1  C1  UNL     1     -34.316   6.974   3.165  1.00 20.00     0.001 C 
HETATM    2  C2  UNL     1     -32.862   6.552   3.381  1.00 20.00     0.001 C 
HETATM    3  C3  UNL     1     -35.164   6.031   4.015  1.00 20.00     0.018 C 
HETATM    4  C4  UNL     1     -32.902   5.374   4.354  1.00 20.00     0.018 C 
HETATM    5  C5  UNL     1     -34.222   5.533   5.120  1.00 20.00     0.054 C 
HETATM    6  C6  UNL     1     -34.091   6.568   6.250  1.00 20.00     0.024 C 
ENDROOT
BRANCH   5   7
HETATM    7  C7  UNL     1     -34.696   4.202   5.707  1.00 20.00     0.395 C 
HETATM    8  F8  UNL     1     -35.655   4.426   6.613  1.00 20.00    -0.170 F 
HETATM    9  F9  UNL     1     -35.181   3.427   4.731  1.00 20.00    -0.170 F 
HETATM   10  F10 UNL     1     -33.667   3.580   6.297  1.00 20.00    -0.170 F 
ENDBRANCH   5   7
TORSDOF 1
ENDMDL
MODEL 5
REMARK VINA RESULT:      -4.4     11.922     12.532
REMARK  1 active torsions:
REMARK  status: ('A' for Active; 'I' for Inactive)
REMARK    1  A    between atoms: C5_5  and  C7_7 
ROOT
HETATM    1  C1  UNL     1     -33.682  16.551  -2.303  1.00 20.00     0.001 C 
HETATM    2  C2  UNL     1     -35.190  16.404  -2.099  1.00 20.00     0.001 C 
HETATM    3  C3  UNL     1     -33.274  15.447  -3.276  1.00 20.00     0.018 C 
HETATM    4  C4  UNL     1     -35.621  15.218  -2.960  1.00 20.00     0.018 C 
HETATM    5  C5  UNL     1     -34.553  15.110  -4.055  1.00 20.00     0.054 C 
HETATM    6  C6  UNL     1     -34.803  16.125  -5.183  1.00 20.00     0.024 C 
ENDROOT
BRANCH   5   7
HETATM    7  C7  UNL     1     -34.496  13.700  -4.649  1.00 20.00     0.395 C 
HETATM    8  F8  UNL     1     -35.521  12.976  -4.186  1.00 20.00    -0.170 F 
HETATM    9  F9  UNL     1     -34.570  13.771  -5.983  1.00 20.00    -0.170 F 
HETATM   10  F10 UNL     1     -33.345  13.113  -4.300  1.00 20.00    -0.170 F 
ENDBRANCH   5   7
TORSDOF 1
ENDMDL
MODEL 6
REMARK VINA RESULT:      -4.4      8.190      9.936
REMARK  1 active torsions:
REMARK  status: ('A' for Active; 'I' for Inactive)
REMARK    1  A    between atoms: C5_5  and  C7_7 
ROOT
HETATM    1  C1  UNL     1     -42.957   6.298  -3.272  1.00 20.00     0.001 C 
HETATM    2  C2  UNL     1     -42.416   7.648  -2.799  1.00 20.00     0.001 C 
HETATM    3  C3  UNL     1     -42.390   5.253  -2.314  1.00 20.00     0.018 C 
HETATM    4  C4  UNL     1     -41.548   7.354  -1.577  1.00 20.00     0.018 C 
HETATM    5  C5  UNL     1     -42.075   6.023  -1.024  1.00 20.00     0.054 C 
HETATM    6  C6  UNL     1     -43.341   6.232  -0.177  1.00 20.00     0.024 C 
ENDROOT
BRANCH   5   7
HETATM    7  C7  UNL     1     -41.018   5.305  -0.182  1.00 20.00     0.395 C 
HETATM    8  F8  UNL     1     -40.212   4.597  -0.982  1.00 20.00    -0.170 F 
HETATM    9  F9  UNL     1     -40.293   6.204   0.493  1.00 20.00    -0.170 F 
HETATM   10  F10 UNL     1     -41.619   4.479   0.683  1.00 20.00    -0.170 F 
ENDBRANCH   5   7
TORSDOF 1
ENDMDL
MODEL 7
REMARK VINA RESULT:      -4.4     11.888     13.367
REMARK  1 active torsions:
REMARK  status: ('A' for Active; 'I' for Inactive)
REMARK    1  A    between atoms: C5_5  and  C7_7 
ROOT
HETATM    1  C1  UNL     1     -34.349  16.333  -6.793  1.00 20.00     0.001 C 
HETATM    2  C2  UNL     1     -33.612  17.176  -5.752  1.00 20.00     0.001 C 
HETATM    3  C3  UNL     1     -34.401  14.914  -6.233  1.00 20.00     0.018 C 
HETATM    4  C4  UNL     1     -33.254  16.224  -4.611  1.00 20.00     0.018 C 
HETATM    5  C5  UNL     1     -34.270  15.079  -4.712  1.00 20.00     0.054 C 
HETATM    6  C6  UNL     1     -35.616  15.468  -4.077  1.00 20.00     0.024 C 
ENDROOT
BRANCH   5   7
HETATM    7  C7  UNL     1     -33.749  13.803  -4.049  1.00 20.00     0.395 C 
HETATM    8  F8  UNL     1     -34.473  13.535  -2.957  1.00 20.00    -0.170 F 
HETATM    9  F9  UNL     1     -33.844  12.779  -4.906  1.00 20.00    -0.170 F 
HETATM   10  F10 UNL     1     -32.467  13.971  -3.699  1.00 20.00    -0.170 F 
ENDBRANCH   5   7
TORSDOF 1
ENDMDL
MODEL 8
REMARK VINA RESULT:      -4.4     11.765     12.905
REMARK  1 active torsions:
REMARK  status: ('A' for Active; 'I' for Inactive)
REMARK    1  A    between atoms: C5_5  and  C7_7 
ROOT
HETATM    1  C1  UNL     1     -34.796  15.988  -2.203  1.00 20.00     0.001 C 
HETATM    2  C2  UNL     1     -33.674  16.708  -2.953  1.00 20.00     0.001 C 
HETATM    3  C3  UNL     1     -35.404  14.999  -3.195  1.00 20.00     0.018 C 
HETATM    4  C4  UNL     1     -33.658  16.117  -4.361  1.00 20.00     0.018 C 
HETATM    5  C5  UNL     1     -34.295  14.729  -4.220  1.00 20.00     0.054 C 
HETATM    6  C6  UNL     1     -33.282  13.701  -3.688  1.00 20.00     0.024 C 
ENDROOT
BRANCH   5   7
HETATM    7  C7  UNL     1     -34.865  14.233  -5.551  1.00 20.00     0.395 C 
HETATM    8  F8  UNL     1     -34.094  14.659  -6.557  1.00 20.00    -0.170 F 
HETATM    9  F9  UNL     1     -34.900  12.895  -5.555  1.00 20.00    -0.170 F 
HETATM   10  F10 UNL     1     -36.106  14.708  -5.712  1.00 20.00    -0.170 F 
ENDBRANCH   5   7
TORSDOF 1
ENDMDL
MODEL 9
REMARK VINA RESULT:      -4.4      8.593      9.896
REMARK  1 active torsions:
REMARK  status: ('A' for Active; 'I' for Inactive)
REMARK    1  A    between atoms: C5_5  and  C7_7 
ROOT
HETATM    1  C1  UNL     1     -40.685   4.255  -1.126  1.00 20.00     0.001 C 
HETATM    2  C2  UNL     1     -41.763   4.156  -2.206  1.00 20.00     0.001 C 
HETATM    3  C3  UNL     1     -40.676   5.711  -0.666  1.00 20.00     0.018 C 
HETATM    4  C4  UNL     1     -42.355   5.557  -2.345  1.00 20.00     0.018 C 
HETATM    5  C5  UNL     1     -42.076   6.244  -1.002  1.00 20.00     0.054 C 
HETATM    6  C6  UNL     1     -43.102   5.827   0.064  1.00 20.00     0.024 C 
ENDROOT
BRANCH   5   7
HETATM    7  C7  UNL     1     -42.080   7.769  -1.138  1.00 20.00     0.395 C 
HETATM    8  F8  UNL     1     -42.243   8.105  -2.422  1.00 20.00    -0.170 F 
HETATM    9  F9  UNL     1     -43.083   8.281  -0.415  1.00 20.00    -0.170 F 
HETATM   10  F10 UNL     1     -40.917   8.262  -0.695  1.00 20.00    -0.170 F 
ENDBRANCH   5   7
TORSDOF 1
ENDMDL
