MODEL 1
REMARK VINA RESULT:      -4.1      0.000      0.000
REMARK  0 active torsions:
REMARK  status: ('A' for Active; 'I' for Inactive)
ROOT
HETATM    1  C1  UNL     1     -34.725  15.673  -2.912  1.00 20.00    -0.059 A 
HETATM    2  C2  UNL     1     -35.711  15.191  -3.696  1.00 20.00    -0.055 A 
HETATM    3  C3  UNL     1     -33.640  15.418  -3.944  1.00 20.00     0.138 A 
HETATM    4  C4  UNL     1     -34.754  14.747  -4.812  1.00 20.00     0.077 A 
HETATM    5  C5  UNL     1     -34.706  16.317  -1.511  1.00 20.00     0.045 C 
HETATM    6  C6  UNL     1     -37.237  15.060  -3.514  1.00 20.00     0.046 C 
HETATM    7  C7  UNL     1     -34.688  13.224  -4.972  1.00 20.00     0.039 C 
HETATM    8 CL8  UNL     1     -32.180  14.471  -3.433  1.00 20.00    -0.118 Cl
HETATM    9 CL9  UNL     1     -35.032  15.525  -6.427  1.00 20.00    -0.113 Cl
ENDROOT
TORSDOF 0
ENDMDL
MODEL 2
REMARK VINA RESULT:      -4.0      0.761      3.026
REMARK  0 active torsions:
REMARK  status: ('A' for Active; 'I' for Inactive)
ROOT
HETATM    1  C1  UNL     1     -35.985  14.829  -3.865  1.00 20.00    -0.059 A 
HETATM    2  C2  UNL     1     -34.947  15.314  -3.153  1.00 20.00    -0.055 A 
HETATM    3  C3  UNL     1     -35.096  14.158  -4.897  1.00 20.00     0.138 A 
HETATM    4  C4  UNL     1     -33.890  14.816  -4.149  1.00 20.00     0.077 A 
HETATM    5  C5  UNL     1     -37.514  14.872  -3.670  1.00 20.00     0.045 C 
HETATM    6  C6  UNL     1     -34.851  16.136  -1.850  1.00 20.00     0.046 C 
HETATM    7  C7  UNL     1     -33.163  15.956  -4.869  1.00 20.00     0.039 C 
HETATM    8 CL8  UNL     1     -35.396  14.521  -6.648  1.00 20.00    -0.118 Cl
HETATM    9 CL9  UNL     1     -32.682  13.642  -3.475  1.00 20.00    -0.113 Cl
ENDROOT
TORSDOF 0
ENDMDL
MODEL 3
REMARK VINA RESULT:      -3.9      1.723      2.720
REMARK  0 active torsions:
REMARK  status: ('A' for Active; 'I' for Inactive)
ROOT
HETATM    1  C1  UNL     1     -34.457  16.500  -4.611  1.00 20.00    -0.059 A 
HETATM    2  C2  UNL     1     -34.830  15.824  -3.505  1.00 20.00    -0.055 A 
HETATM    3  C3  UNL     1     -35.249  15.605  -5.549  1.00 20.00     0.138 A 
HETATM    4  C4  UNL     1     -35.590  14.744  -4.289  1.00 20.00     0.077 A 
HETATM    5  C5  UNL     1     -33.601  17.761  -4.841  1.00 20.00     0.045 C 
HETATM    6  C6  UNL     1     -34.542  16.016  -2.001  1.00 20.00     0.046 C 
HETATM    7  C7  UNL     1     -34.933  13.363  -4.192  1.00 20.00     0.039 C 
HETATM    8 CL8  UNL     1     -34.381  14.864  -6.958  1.00 20.00    -0.118 Cl
HETATM    9 CL9  UNL     1     -37.359  14.613  -3.913  1.00 20.00    -0.113 Cl
ENDROOT
TORSDOF 0
ENDMDL
MODEL 4
REMARK VINA RESULT:      -3.9      1.852      3.001
REMARK  0 active torsions:
REMARK  status: ('A' for Active; 'I' for Inactive)
ROOT
HETATM    1  C1  UNL     1     -34.752  15.865  -2.405  1.00 20.00    -0.059 A 
HETATM    2  C2  UNL     1     -33.979  15.271  -3.338  1.00 20.00    -0.055 A 
HETATM    3  C3  UNL     1     -36.053  15.442  -3.066  1.00 20.00     0.138 A 
HETATM    4  C4  UNL     1     -35.169  14.854  -4.215  1.00 20.00     0.077 A 
HETATM    5  C5  UNL     1     -34.441  16.631  -1.104  1.00 20.00     0.045 C 
HETATM    6  C6  UNL     1     -32.453  15.124  -3.507  1.00 20.00     0.046 C 
HETATM    7  C7  UNL     1     -35.202  15.585  -5.561  1.00 20.00     0.039 C 
HETATM    8 CL8  UNL     1     -37.287  16.722  -3.423  1.00 20.00    -0.118 Cl
HETATM    9 CL9  UNL     1     -35.351  13.068  -4.477  1.00 20.00    -0.113 Cl
ENDROOT
TORSDOF 0
ENDMDL
MODEL 5
REMARK VINA RESULT:      -3.9      2.103      3.288
REMARK  0 active torsions:
REMARK  status: ('A' for Active; 'I' for Inactive)
ROOT
HETATM    1  C1  UNL     1     -33.457  15.416  -3.788  1.00 20.00    -0.059 A 
HETATM    2  C2  UNL     1     -34.103  16.307  -3.007  1.00 20.00    -0.055 A 
HETATM    3  C3  UNL     1     -33.396  16.352  -4.982  1.00 20.00     0.138 A 
HETATM    4  C4  UNL     1     -34.249  17.347  -4.128  1.00 20.00     0.077 A 
HETATM    5  C5  UNL     1     -32.912  13.995  -3.544  1.00 20.00     0.045 C 
HETATM    6  C6  UNL     1     -34.587  16.272  -1.543  1.00 20.00     0.046 C 
HETATM    7  C7  UNL     1     -35.704  17.561  -4.557  1.00 20.00     0.039 C 
HETATM    8 CL8  UNL     1     -34.017  15.748  -6.575  1.00 20.00    -0.118 Cl
HETATM    9 CL9  UNL     1     -33.457  18.947  -3.808  1.00 20.00    -0.113 Cl
ENDROOT
TORSDOF 0
ENDMDL
MODEL 6
REMARK VINA RESULT:      -3.9      2.043      2.995
REMARK  0 active torsions:
REMARK  status: ('A' for Active; 'I' for Inactive)
ROOT
HETATM    1  C1  UNL     1     -33.798  16.922  -4.262  1.00 20.00    -0.059 A 
HETATM    2  C2  UNL     1     -34.043  15.854  -5.049  1.00 20.00    -0.055 A 
HETATM    3  C3  UNL     1     -33.850  16.116  -2.976  1.00 20.00     0.138 A 
HETATM    4  C4  UNL     1     -34.254  14.896  -3.867  1.00 20.00     0.077 A 
HETATM    5  C5  UNL     1     -33.499  18.405  -4.556  1.00 20.00     0.045 C 
HETATM    6  C6  UNL     1     -34.149  15.668  -6.577  1.00 20.00     0.046 C 
HETATM    7  C7  UNL     1     -35.699  14.399  -3.752  1.00 20.00     0.039 C 
HETATM    8 CL8  UNL     1     -34.950  16.689  -1.653  1.00 20.00    -0.118 Cl
HETATM    9 CL9  UNL     1     -33.110  13.490  -3.795  1.00 20.00    -0.113 Cl
ENDROOT
TORSDOF 0
ENDMDL
MODEL 7
REMARK VINA RESULT:      -3.8      1.706      3.538
REMARK  0 active torsions:
REMARK  status: ('A' for Active; 'I' for Inactive)
ROOT
HETATM    1  C1  UNL     1     -34.223  15.556  -5.965  1.00 20.00    -0.059 A 
HETATM    2  C2  UNL     1     -34.380  14.660  -4.969  1.00 20.00    -0.055 A 
HETATM    3  C3  UNL     1     -33.234  16.404  -5.185  1.00 20.00     0.138 A 
HETATM    4  C4  UNL     1     -33.499  15.440  -3.982  1.00 20.00     0.077 A 
HETATM    5  C5  UNL     1     -34.782  15.652  -7.399  1.00 20.00     0.045 C 
HETATM    6  C6  UNL     1     -35.201  13.360  -4.836  1.00 20.00     0.046 C 
HETATM    7  C7  UNL     1     -34.289  16.008  -2.797  1.00 20.00     0.039 C 
HETATM    8 CL8  UNL     1     -33.569  18.180  -5.027  1.00 20.00    -0.118 Cl
HETATM    9 CL9  UNL     1     -32.035  14.554  -3.380  1.00 20.00    -0.113 Cl
ENDROOT
TORSDOF 0
ENDMDL
MODEL 8
REMARK VINA RESULT:      -3.8      1.704      2.695
REMARK  0 active torsions:
REMARK  status: ('A' for Active; 'I' for Inactive)
ROOT
HETATM    1  C1  UNL     1     -35.957  15.374  -3.899  1.00 20.00    -0.059 A 
HETATM    2  C2  UNL     1     -35.055  15.052  -4.848  1.00 20.00    -0.055 A 
HETATM    3  C3  UNL     1     -35.033  16.364  -3.210  1.00 20.00     0.138 A 
HETATM    4  C4  UNL     1     -33.939  15.910  -4.232  1.00 20.00     0.077 A 
HETATM    5  C5  UNL     1     -37.418  14.954  -3.642  1.00 20.00     0.045 C 
HETATM    6  C6  UNL     1     -35.096  14.110  -6.069  1.00 20.00     0.046 C 
HETATM    7  C7  UNL     1     -32.779  15.074  -3.682  1.00 20.00     0.039 C 
HETATM    8 CL8  UNL     1     -34.756  16.177  -1.428  1.00 20.00    -0.118 Cl
HETATM    9 CL9  UNL     1     -33.298  17.230  -5.297  1.00 20.00    -0.113 Cl
ENDROOT
TORSDOF 0
ENDMDL
MODEL 9
REMARK VINA RESULT:      -3.7      1.768      2.906
REMARK  0 active torsions:
REMARK  status: ('A' for Active; 'I' for Inactive)
ROOT
HETATM    1  C1  UNL     1     -34.631  15.913  -2.957  1.00 20.00    -0.059 A 
HETATM    2  C2  UNL     1     -33.759  15.259  -3.752  1.00 20.00    -0.055 A 
HETATM    3  C3  UNL     1     -35.669  16.073  -4.055  1.00 20.00     0.138 A 
HETATM    4  C4  UNL     1     -34.618  15.424  -5.014  1.00 20.00     0.077 A 
HETATM    5  C5  UNL     1     -34.619  16.297  -1.464  1.00 20.00     0.045 C 
HETATM    6  C6  UNL     1     -32.370  14.633  -3.507  1.00 20.00     0.046 C 
HETATM    7  C7  UNL     1     -33.973  16.339  -6.060  1.00 20.00     0.039 C 
HETATM    8 CL8  UNL     1     -36.310  17.737  -4.389  1.00 20.00    -0.118 Cl
HETATM    9 CL9  UNL     1     -35.155  13.877  -5.795  1.00 20.00    -0.113 Cl
ENDROOT
TORSDOF 0
ENDMDL
