MODEL 1
REMARK VINA RESULT:      -5.3      0.000      0.000
REMARK  0 active torsions:
REMARK  status: ('A' for Active; 'I' for Inactive)
ROOT
HETATM    1  C1  UNL     1     -33.874   6.385   5.643  1.00 20.00    -0.064 A 
HETATM    2  C2  UNL     1     -33.661   7.156   6.693  1.00 20.00     0.016 C 
HETATM    3  C3  UNL     1     -35.120   4.430   6.160  1.00 20.00     0.017 A 
HETATM    4  C4  UNL     1     -35.269   4.220   4.716  1.00 20.00     0.017 A 
HETATM    5  C5  UNL     1     -34.000   6.385   4.267  1.00 20.00     0.099 A 
HETATM    6  C6  UNL     1     -34.083   5.043   5.214  1.00 20.00     0.000 A 
HETATM    7 BR7  UNL     1     -32.418   6.533   3.218  1.00 20.00    -0.085 Br
ENDROOT
TORSDOF 0
ENDMDL
MODEL 2
REMARK VINA RESULT:      -4.0      1.325      2.579
REMARK  0 active torsions:
REMARK  status: ('A' for Active; 'I' for Inactive)
ROOT
HETATM    1  C1  UNL     1     -33.791   5.746   3.399  1.00 20.00    -0.064 A 
HETATM    2  C2  UNL     1     -34.377   4.943   2.532  1.00 20.00     0.016 C 
HETATM    3  C3  UNL     1     -34.739   5.620   5.574  1.00 20.00     0.017 A 
HETATM    4  C4  UNL     1     -33.585   6.389   6.052  1.00 20.00     0.017 A 
HETATM    5  C5  UNL     1     -32.605   6.389   3.699  1.00 20.00     0.099 A 
HETATM    6  C6  UNL     1     -33.985   6.513   4.583  1.00 20.00     0.000 A 
HETATM    7 BR7  UNL     1     -32.146   7.943   2.700  1.00 20.00    -0.085 Br
ENDROOT
TORSDOF 0
ENDMDL
MODEL 3
REMARK VINA RESULT:      -3.8      1.924      2.938
REMARK  0 active torsions:
REMARK  status: ('A' for Active; 'I' for Inactive)
ROOT
HETATM    1  C1  UNL     1     -33.594   6.435   5.417  1.00 20.00    -0.064 A 
HETATM    2  C2  UNL     1     -33.644   7.134   6.534  1.00 20.00     0.016 C 
HETATM    3  C3  UNL     1     -32.097   7.346   3.813  1.00 20.00     0.017 A 
HETATM    4  C4  UNL     1     -32.243   6.096   3.061  1.00 20.00     0.017 A 
HETATM    5  C5  UNL     1     -33.766   5.171   4.884  1.00 20.00     0.099 A 
HETATM    6  C6  UNL     1     -33.363   6.507   4.014  1.00 20.00     0.000 A 
HETATM    7 BR7  UNL     1     -35.543   4.542   4.616  1.00 20.00    -0.085 Br
ENDROOT
TORSDOF 0
ENDMDL
MODEL 4
REMARK VINA RESULT:      -3.7      1.721      2.321
REMARK  0 active torsions:
REMARK  status: ('A' for Active; 'I' for Inactive)
ROOT
HETATM    1  C1  UNL     1     -33.735   6.134   4.640  1.00 20.00    -0.064 A 
HETATM    2  C2  UNL     1     -33.298   6.563   3.471  1.00 20.00     0.016 C 
HETATM    3  C3  UNL     1     -35.251   4.315   4.458  1.00 20.00     0.017 A 
HETATM    4  C4  UNL     1     -35.109   4.135   5.906  1.00 20.00     0.017 A 
HETATM    5  C5  UNL     1     -33.419   6.042   5.983  1.00 20.00     0.099 A 
HETATM    6  C6  UNL     1     -34.825   5.513   5.313  1.00 20.00     0.000 A 
HETATM    7 BR7  UNL     1     -33.578   7.608   7.054  1.00 20.00    -0.085 Br
ENDROOT
TORSDOF 0
ENDMDL
MODEL 5
REMARK VINA RESULT:      -3.7     12.507     13.456
REMARK  0 active torsions:
REMARK  status: ('A' for Active; 'I' for Inactive)
ROOT
HETATM    1  C1  UNL     1     -33.945  16.149  -4.051  1.00 20.00    -0.064 A 
HETATM    2  C2  UNL     1     -33.319  16.788  -5.021  1.00 20.00     0.016 C 
HETATM    3  C3  UNL     1     -33.685  17.188  -1.931  1.00 20.00     0.017 A 
HETATM    4  C4  UNL     1     -34.743  16.300  -1.438  1.00 20.00     0.017 A 
HETATM    5  C5  UNL     1     -35.010  15.314  -3.773  1.00 20.00     0.099 A 
HETATM    6  C6  UNL     1     -33.934  15.862  -2.657  1.00 20.00     0.000 A 
HETATM    7 BR7  UNL     1     -34.845  13.469  -4.212  1.00 20.00    -0.085 Br
ENDROOT
TORSDOF 0
ENDMDL
MODEL 6
REMARK VINA RESULT:      -3.7      2.137      3.545
REMARK  0 active torsions:
REMARK  status: ('A' for Active; 'I' for Inactive)
ROOT
HETATM    1  C1  UNL     1     -34.437   5.978   3.785  1.00 20.00    -0.064 A 
HETATM    2  C2  UNL     1     -35.476   5.764   3.002  1.00 20.00     0.016 C 
HETATM    3  C3  UNL     1     -32.546   6.816   2.617  1.00 20.00     0.017 A 
HETATM    4  C4  UNL     1     -31.948   7.109   3.923  1.00 20.00     0.017 A 
HETATM    5  C5  UNL     1     -34.060   6.274   5.082  1.00 20.00     0.099 A 
HETATM    6  C6  UNL     1     -33.014   6.019   3.838  1.00 20.00     0.000 A 
HETATM    7 BR7  UNL     1     -34.124   4.881   6.377  1.00 20.00    -0.085 Br
ENDROOT
TORSDOF 0
ENDMDL
MODEL 7
REMARK VINA RESULT:      -3.6     12.194     12.744
REMARK  0 active torsions:
REMARK  status: ('A' for Active; 'I' for Inactive)
ROOT
HETATM    1  C1  UNL     1     -35.761  15.185  -3.382  1.00 20.00    -0.064 A 
HETATM    2  C2  UNL     1     -37.039  15.235  -3.705  1.00 20.00     0.016 C 
HETATM    3  C3  UNL     1     -34.631  13.322  -4.329  1.00 20.00     0.017 A 
HETATM    4  C4  UNL     1     -33.375  13.956  -3.917  1.00 20.00     0.017 A 
HETATM    5  C5  UNL     1     -34.673  15.955  -3.013  1.00 20.00     0.099 A 
HETATM    6  C6  UNL     1     -34.653  14.318  -3.164  1.00 20.00     0.000 A 
HETATM    7 BR7  UNL     1     -34.592  16.600  -1.224  1.00 20.00    -0.085 Br
ENDROOT
TORSDOF 0
ENDMDL
MODEL 8
REMARK VINA RESULT:      -3.5      9.828     10.835
REMARK  0 active torsions:
REMARK  status: ('A' for Active; 'I' for Inactive)
ROOT
HETATM    1  C1  UNL     1     -42.350   5.927  -2.448  1.00 20.00    -0.064 A 
HETATM    2  C2  UNL     1     -42.909   6.708  -3.353  1.00 20.00     0.016 C 
HETATM    3  C3  UNL     1     -41.109   7.130  -0.818  1.00 20.00     0.017 A 
HETATM    4  C4  UNL     1     -41.045   5.887  -0.043  1.00 20.00     0.017 A 
HETATM    5  C5  UNL     1     -42.461   4.709  -1.804  1.00 20.00     0.099 A 
HETATM    6  C6  UNL     1     -41.251   5.793  -1.553  1.00 20.00     0.000 A 
HETATM    7 BR7  UNL     1     -41.952   3.140  -2.753  1.00 20.00    -0.085 Br
ENDROOT
TORSDOF 0
ENDMDL
MODEL 9
REMARK VINA RESULT:      -3.5     12.523     12.891
REMARK  0 active torsions:
REMARK  status: ('A' for Active; 'I' for Inactive)
ROOT
HETATM    1  C1  UNL     1     -35.077  15.519  -2.805  1.00 20.00    -0.064 A 
HETATM    2  C2  UNL     1     -34.532  16.176  -1.799  1.00 20.00     0.016 C 
HETATM    3  C3  UNL     1     -33.676  13.807  -3.670  1.00 20.00     0.017 A 
HETATM    4  C4  UNL     1     -34.838  13.324  -4.423  1.00 20.00     0.017 A 
HETATM    5  C5  UNL     1     -36.282  15.141  -3.368  1.00 20.00     0.099 A 
HETATM    6  C6  UNL     1     -34.804  14.790  -3.998  1.00 20.00     0.000 A 
HETATM    7 BR7  UNL     1     -37.277  16.449  -4.328  1.00 20.00    -0.085 Br
ENDROOT
TORSDOF 0
ENDMDL
