MODEL 1
REMARK VINA RESULT:      -4.7      0.000      0.000
REMARK  2 active torsions:
REMARK  status: ('A' for Active; 'I' for Inactive)
REMARK    1  A    between atoms: C4_4  and  C12_12 
REMARK    2  A    between atoms: C5_5  and  C11_11 
ROOT
HETATM    1  C1  UNL     1     -35.906  16.254  -2.893  1.00 20.00     0.004 A 
HETATM    2  C2  UNL     1     -35.739  17.307  -2.081  1.00 20.00    -0.017 A 
HETATM    3  C3  UNL     1     -33.649  16.469  -2.712  1.00 20.00    -0.010 A 
HETATM    4  C4  UNL     1     -34.616  15.735  -3.284  1.00 20.00    -0.054 A 
HETATM    5  C5  UNL     1     -34.267  17.561  -1.876  1.00 20.00     0.034 A 
ENDROOT
BRANCH   4   6
HETATM    6  C12 UNL     1     -34.470  14.567  -4.186  1.00 20.00    -0.024 C 
HETATM    7  C8  UNL     1     -34.227  15.048  -5.630  1.00 20.00     0.019 C 
HETATM    8  C9  UNL     1     -35.746  13.701  -4.156  1.00 20.00     0.019 C 
HETATM    9  C10 UNL     1     -33.276  13.694  -3.744  1.00 20.00     0.019 C 
ENDBRANCH   4   6
BRANCH   5  10
HETATM   10  C11 UNL     1     -33.864  17.464  -0.411  1.00 20.00    -0.012 C 
HETATM   11  C6  UNL     1     -32.906  18.595  -0.038  1.00 20.00     0.010 C 
HETATM   12  C7  UNL     1     -35.096  17.488   0.492  1.00 20.00     0.010 C 
ENDBRANCH   5  10
TORSDOF 2
ENDMDL
MODEL 2
REMARK VINA RESULT:      -4.7      1.657      3.180
REMARK  2 active torsions:
REMARK  status: ('A' for Active; 'I' for Inactive)
REMARK    1  A    between atoms: C4_4  and  C12_12 
REMARK    2  A    between atoms: C5_5  and  C11_11 
ROOT
HETATM    1  C1  UNL     1     -34.434  14.192  -4.872  1.00 20.00     0.004 A 
HETATM    2  C2  UNL     1     -34.258  14.181  -3.543  1.00 20.00    -0.017 A 
HETATM    3  C3  UNL     1     -35.607  15.996  -4.135  1.00 20.00    -0.010 A 
HETATM    4  C4  UNL     1     -35.267  15.313  -5.240  1.00 20.00    -0.054 A 
HETATM    5  C5  UNL     1     -34.995  15.340  -2.924  1.00 20.00     0.034 A 
ENDROOT
BRANCH   4   6
HETATM    6  C12 UNL     1     -35.646  15.595  -6.646  1.00 20.00    -0.024 C 
HETATM    7  C8  UNL     1     -35.286  14.389  -7.537  1.00 20.00     0.019 C 
HETATM    8  C9  UNL     1     -34.898  16.840  -7.165  1.00 20.00     0.019 C 
HETATM    9  C10 UNL     1     -37.163  15.856  -6.751  1.00 20.00     0.019 C 
ENDBRANCH   4   6
BRANCH   5  10
HETATM   10  C11 UNL     1     -34.063  16.279  -2.169  1.00 20.00    -0.012 C 
HETATM   11  C6  UNL     1     -33.813  17.555  -2.974  1.00 20.00     0.010 C 
HETATM   12  C7  UNL     1     -34.636  16.620  -0.794  1.00 20.00     0.010 C 
ENDBRANCH   5  10
TORSDOF 2
ENDMDL
MODEL 3
REMARK VINA RESULT:      -4.7      1.222      2.164
REMARK  2 active torsions:
REMARK  status: ('A' for Active; 'I' for Inactive)
REMARK    1  A    between atoms: C4_4  and  C12_12 
REMARK    2  A    between atoms: C5_5  and  C11_11 
ROOT
HETATM    1  C1  UNL     1     -34.454  16.906  -4.497  1.00 20.00     0.004 A 
HETATM    2  C2  UNL     1     -33.693  17.640  -3.673  1.00 20.00    -0.017 A 
HETATM    3  C3  UNL     1     -34.402  15.707  -2.564  1.00 20.00    -0.010 A 
HETATM    4  C4  UNL     1     -34.893  15.711  -3.814  1.00 20.00    -0.054 A 
HETATM    5  C5  UNL     1     -33.575  16.947  -2.339  1.00 20.00     0.034 A 
ENDROOT
BRANCH   4   6
HETATM    6  C12 UNL     1     -35.751  14.693  -4.466  1.00 20.00    -0.024 C 
HETATM    7  C8  UNL     1     -37.158  14.712  -3.836  1.00 20.00     0.019 C 
HETATM    8  C9  UNL     1     -35.145  13.286  -4.289  1.00 20.00     0.019 C 
HETATM    9  C10 UNL     1     -35.877  14.985  -5.976  1.00 20.00     0.019 C 
ENDBRANCH   4   6
BRANCH   5  10
HETATM   10  C11 UNL     1     -34.114  17.800  -1.197  1.00 20.00    -0.012 C 
HETATM   11  C6  UNL     1     -34.865  16.935  -0.185  1.00 20.00     0.010 C 
HETATM   12  C7  UNL     1     -32.983  18.564  -0.512  1.00 20.00     0.010 C 
ENDBRANCH   5  10
TORSDOF 2
ENDMDL
MODEL 4
REMARK VINA RESULT:      -4.6      1.194      2.155
REMARK  2 active torsions:
REMARK  status: ('A' for Active; 'I' for Inactive)
REMARK    1  A    between atoms: C4_4  and  C12_12 
REMARK    2  A    between atoms: C5_5  and  C11_11 
ROOT
HETATM    1  C1  UNL     1     -34.123  16.984  -4.400  1.00 20.00     0.004 A 
HETATM    2  C2  UNL     1     -33.732  17.513  -3.232  1.00 20.00    -0.017 A 
HETATM    3  C3  UNL     1     -34.428  15.306  -2.895  1.00 20.00    -0.010 A 
HETATM    4  C4  UNL     1     -34.553  15.620  -4.194  1.00 20.00    -0.054 A 
HETATM    5  C5  UNL     1     -33.885  16.490  -2.136  1.00 20.00     0.034 A 
ENDROOT
BRANCH   4   6
HETATM    6  C12 UNL     1     -35.043  14.765  -5.302  1.00 20.00    -0.024 C 
HETATM    7  C8  UNL     1     -34.788  13.281  -4.970  1.00 20.00     0.019 C 
HETATM    8  C9  UNL     1     -34.311  15.115  -6.614  1.00 20.00     0.019 C 
HETATM    9  C10 UNL     1     -36.556  14.976  -5.515  1.00 20.00     0.019 C 
ENDBRANCH   4   6
BRANCH   5  10
HETATM   10  C11 UNL     1     -34.834  16.956  -1.040  1.00 20.00    -0.012 C 
HETATM   11  C6  UNL     1     -34.082  17.761   0.020  1.00 20.00     0.010 C 
HETATM   12  C7  UNL     1     -35.975  17.784  -1.628  1.00 20.00     0.010 C 
ENDBRANCH   5  10
TORSDOF 2
ENDMDL
MODEL 5
REMARK VINA RESULT:      -4.6      1.390      4.828
REMARK  2 active torsions:
REMARK  status: ('A' for Active; 'I' for Inactive)
REMARK    1  A    between atoms: C4_4  and  C12_12 
REMARK    2  A    between atoms: C5_5  and  C11_11 
ROOT
HETATM    1  C1  UNL     1     -33.823  15.537  -2.823  1.00 20.00     0.004 A 
HETATM    2  C2  UNL     1     -33.388  15.099  -4.013  1.00 20.00    -0.017 A 
HETATM    3  C3  UNL     1     -33.596  17.427  -4.067  1.00 20.00    -0.010 A 
HETATM    4  C4  UNL     1     -33.952  16.975  -2.854  1.00 20.00    -0.054 A 
HETATM    5  C5  UNL     1     -33.194  16.268  -4.943  1.00 20.00     0.034 A 
ENDROOT
BRANCH   4   6
HETATM    6  C12 UNL     1     -34.411  17.758  -1.681  1.00 20.00    -0.024 C 
HETATM    7  C8  UNL     1     -33.347  18.806  -1.301  1.00 20.00     0.019 C 
HETATM    8  C9  UNL     1     -34.648  16.827  -0.474  1.00 20.00     0.019 C 
HETATM    9  C10 UNL     1     -35.733  18.485  -2.006  1.00 20.00     0.019 C 
ENDBRANCH   4   6
BRANCH   5  10
HETATM   10  C11 UNL     1     -34.060  16.163  -6.192  1.00 20.00    -0.012 C 
HETATM   11  C6  UNL     1     -34.570  14.734  -6.377  1.00 20.00     0.010 C 
HETATM   12  C7  UNL     1     -35.230  17.143  -6.123  1.00 20.00     0.010 C 
ENDBRANCH   5  10
TORSDOF 2
ENDMDL
MODEL 6
REMARK VINA RESULT:      -4.6      1.444      4.837
REMARK  2 active torsions:
REMARK  status: ('A' for Active; 'I' for Inactive)
REMARK    1  A    between atoms: C4_4  and  C12_12 
REMARK    2  A    between atoms: C5_5  and  C11_11 
ROOT
HETATM    1  C1  UNL     1     -33.662  15.629  -2.873  1.00 20.00     0.004 A 
HETATM    2  C2  UNL     1     -33.254  15.232  -4.087  1.00 20.00    -0.017 A 
HETATM    3  C3  UNL     1     -33.627  17.540  -4.107  1.00 20.00    -0.010 A 
HETATM    4  C4  UNL     1     -33.893  17.055  -2.883  1.00 20.00    -0.054 A 
HETATM    5  C5  UNL     1     -33.186  16.419  -5.013  1.00 20.00     0.034 A 
ENDROOT
BRANCH   4   6
HETATM    6  C12 UNL     1     -34.351  17.795  -1.682  1.00 20.00    -0.024 C 
HETATM    7  C8  UNL     1     -35.628  18.592  -2.014  1.00 20.00     0.019 C 
HETATM    8  C9  UNL     1     -33.259  18.775  -1.207  1.00 20.00     0.019 C 
HETATM    9  C10 UNL     1     -34.661  16.813  -0.533  1.00 20.00     0.019 C 
ENDBRANCH   4   6
BRANCH   5  10
HETATM   10  C11 UNL     1     -34.100  16.261  -6.221  1.00 20.00    -0.012 C 
HETATM   11  C6  UNL     1     -34.542  14.806  -6.378  1.00 20.00     0.010 C 
HETATM   12  C7  UNL     1     -35.316  17.178  -6.103  1.00 20.00     0.010 C 
ENDBRANCH   5  10
TORSDOF 2
ENDMDL
MODEL 7
REMARK VINA RESULT:      -4.4      1.171      2.294
REMARK  2 active torsions:
REMARK  status: ('A' for Active; 'I' for Inactive)
REMARK    1  A    between atoms: C4_4  and  C12_12 
REMARK    2  A    between atoms: C5_5  and  C11_11 
ROOT
HETATM    1  C1  UNL     1     -33.692  17.512  -2.693  1.00 20.00     0.004 A 
HETATM    2  C2  UNL     1     -33.458  18.130  -1.527  1.00 20.00    -0.017 A 
HETATM    3  C3  UNL     1     -34.765  16.227  -1.153  1.00 20.00    -0.010 A 
HETATM    4  C4  UNL     1     -34.499  16.336  -2.464  1.00 20.00    -0.054 A 
HETATM    5  C5  UNL     1     -34.123  17.370  -0.408  1.00 20.00     0.034 A 
ENDROOT
BRANCH   4   6
HETATM    6  C12 UNL     1     -34.923  15.437  -3.565  1.00 20.00    -0.024 C 
HETATM    7  C8  UNL     1     -34.113  14.127  -3.512  1.00 20.00     0.019 C 
HETATM    8  C9  UNL     1     -34.691  16.113  -4.931  1.00 20.00     0.019 C 
HETATM    9  C10 UNL     1     -36.424  15.101  -3.434  1.00 20.00     0.019 C 
ENDBRANCH   4   6
BRANCH   5  10
HETATM   10  C11 UNL     1     -35.145  18.218   0.339  1.00 20.00    -0.012 C 
HETATM   11  C6  UNL     1     -36.449  18.313  -0.452  1.00 20.00     0.010 C 
HETATM   12  C7  UNL     1     -35.406  17.648   1.732  1.00 20.00     0.010 C 
ENDBRANCH   5  10
TORSDOF 2
ENDMDL
MODEL 8
REMARK VINA RESULT:      -4.4      1.125      4.620
REMARK  2 active torsions:
REMARK  status: ('A' for Active; 'I' for Inactive)
REMARK    1  A    between atoms: C4_4  and  C12_12 
REMARK    2  A    between atoms: C5_5  and  C11_11 
ROOT
HETATM    1  C1  UNL     1     -36.241  17.185  -2.592  1.00 20.00     0.004 A 
HETATM    2  C2  UNL     1     -36.323  16.139  -3.427  1.00 20.00    -0.017 A 
HETATM    3  C3  UNL     1     -34.575  15.792  -1.913  1.00 20.00    -0.010 A 
HETATM    4  C4  UNL     1     -35.161  16.972  -1.656  1.00 20.00    -0.054 A 
HETATM    5  C5  UNL     1     -35.260  15.128  -3.080  1.00 20.00     0.034 A 
ENDROOT
BRANCH   4   6
HETATM    6  C12 UNL     1     -34.820  17.956  -0.599  1.00 20.00    -0.024 C 
HETATM    7  C8  UNL     1     -33.312  18.274  -0.648  1.00 20.00     0.019 C 
HETATM    8  C9  UNL     1     -35.165  17.390   0.793  1.00 20.00     0.019 C 
HETATM    9  C10 UNL     1     -35.613  19.263  -0.807  1.00 20.00     0.019 C 
ENDBRANCH   4   6
BRANCH   5  10
HETATM   10  C11 UNL     1     -34.306  14.874  -4.240  1.00 20.00    -0.012 C 
HETATM   11  C6  UNL     1     -32.856  15.080  -3.803  1.00 20.00     0.010 C 
HETATM   12  C7  UNL     1     -34.500  13.465  -4.800  1.00 20.00     0.010 C 
ENDBRANCH   5  10
TORSDOF 2
ENDMDL
MODEL 9
REMARK VINA RESULT:      -4.4      1.024      4.666
REMARK  2 active torsions:
REMARK  status: ('A' for Active; 'I' for Inactive)
REMARK    1  A    between atoms: C4_4  and  C12_12 
REMARK    2  A    between atoms: C5_5  and  C11_11 
ROOT
HETATM    1  C1  UNL     1     -36.028  15.885  -2.660  1.00 20.00     0.004 A 
HETATM    2  C2  UNL     1     -35.745  14.872  -3.491  1.00 20.00    -0.017 A 
HETATM    3  C3  UNL     1     -33.757  15.876  -2.781  1.00 20.00    -0.010 A 
HETATM    4  C4  UNL     1     -34.801  16.507  -2.220  1.00 20.00    -0.054 A 
HETATM    5  C5  UNL     1     -34.252  14.756  -3.659  1.00 20.00     0.034 A 
ENDROOT
BRANCH   4   6
HETATM    6  C12 UNL     1     -34.784  17.660  -1.287  1.00 20.00    -0.024 C 
HETATM    7  C8  UNL     1     -35.992  18.576  -1.564  1.00 20.00     0.019 C 
HETATM    8  C9  UNL     1     -33.488  18.476  -1.465  1.00 20.00     0.019 C 
HETATM    9  C10 UNL     1     -34.857  17.168   0.174  1.00 20.00     0.019 C 
ENDBRANCH   4   6
BRANCH   5  10
HETATM   10  C11 UNL     1     -33.819  14.926  -5.109  1.00 20.00    -0.012 C 
HETATM   11  C6  UNL     1     -34.907  14.428  -6.060  1.00 20.00     0.010 C 
HETATM   12  C7  UNL     1     -33.479  16.386  -5.405  1.00 20.00     0.010 C 
ENDBRANCH   5  10
TORSDOF 2
ENDMDL
