MODEL 1
REMARK VINA RESULT:      -4.7      0.000      0.000
REMARK  1 active torsions:
REMARK  status: ('A' for Active; 'I' for Inactive)
REMARK    1  A    between atoms: C8_8  and  C11_11 
ROOT
HETATM    1  C1  UNL     1     -33.666  14.514  -3.809  1.00 20.00    -0.081 C 
HETATM    2  C2  UNL     1     -32.754  13.617  -3.435  1.00 20.00     0.015 C 
HETATM    3  C3  UNL     1     -35.310  14.831  -5.407  1.00 20.00     0.010 C 
HETATM    4  C4  UNL     1     -34.183  15.868  -5.605  1.00 20.00     0.010 C 
HETATM    5  C5  UNL     1     -35.580  15.547  -3.016  1.00 20.00     0.014 C 
HETATM    6  C6  UNL     1     -35.151  14.398  -3.942  1.00 20.00     0.014 C 
HETATM    7  C7  UNL     1     -33.514  15.945  -4.223  1.00 20.00     0.018 C 
HETATM    8  C8  UNL     1     -34.484  16.625  -3.232  1.00 20.00    -0.002 C 
ENDROOT
BRANCH   8   9
HETATM    9  C11 UNL     1     -33.808  17.021  -1.922  1.00 20.00    -0.018 C 
HETATM   10  C9  UNL     1     -33.513  18.520  -1.902  1.00 20.00     0.010 C 
HETATM   11  C10 UNL     1     -34.677  16.629  -0.729  1.00 20.00     0.010 C 
ENDBRANCH   8   9
TORSDOF 1
ENDMDL
MODEL 2
REMARK VINA RESULT:      -4.7      1.051      2.272
REMARK  1 active torsions:
REMARK  status: ('A' for Active; 'I' for Inactive)
REMARK    1  A    between atoms: C8_8  and  C11_11 
ROOT
HETATM    1  C1  UNL     1     -35.676  15.652  -4.160  1.00 20.00    -0.081 C 
HETATM    2  C2  UNL     1     -36.886  16.203  -4.087  1.00 20.00     0.015 C 
HETATM    3  C3  UNL     1     -34.485  14.117  -5.419  1.00 20.00     0.010 C 
HETATM    4  C4  UNL     1     -34.658  13.588  -3.980  1.00 20.00     0.010 C 
HETATM    5  C5  UNL     1     -33.469  16.239  -4.543  1.00 20.00     0.014 C 
HETATM    6  C6  UNL     1     -34.678  15.634  -5.274  1.00 20.00     0.014 C 
HETATM    7  C7  UNL     1     -34.901  14.860  -3.152  1.00 20.00     0.018 C 
HETATM    8  C8  UNL     1     -33.594  15.682  -3.099  1.00 20.00    -0.002 C 
ENDROOT
BRANCH   8   9
HETATM    9  C11 UNL     1     -33.642  16.800  -2.061  1.00 20.00    -0.018 C 
HETATM   10  C9  UNL     1     -33.880  18.150  -2.736  1.00 20.00     0.010 C 
HETATM   11  C10 UNL     1     -34.724  16.523  -1.020  1.00 20.00     0.010 C 
ENDBRANCH   8   9
TORSDOF 1
ENDMDL
MODEL 3
REMARK VINA RESULT:      -4.6      1.279      3.755
REMARK  1 active torsions:
REMARK  status: ('A' for Active; 'I' for Inactive)
REMARK    1  A    between atoms: C8_8  and  C11_11 
ROOT
HETATM    1  C1  UNL     1     -33.925  14.580  -3.712  1.00 20.00    -0.081 C 
HETATM    2  C2  UNL     1     -33.251  13.431  -3.737  1.00 20.00     0.015 C 
HETATM    3  C3  UNL     1     -34.893  16.050  -2.210  1.00 20.00     0.010 C 
HETATM    4  C4  UNL     1     -35.987  15.408  -3.089  1.00 20.00     0.010 C 
HETATM    5  C5  UNL     1     -33.661  16.814  -4.259  1.00 20.00     0.014 C 
HETATM    6  C6  UNL     1     -33.612  15.879  -3.040  1.00 20.00     0.014 C 
HETATM    7  C7  UNL     1     -35.225  14.962  -4.348  1.00 20.00     0.018 C 
HETATM    8  C8  UNL     1     -34.789  16.214  -5.140  1.00 20.00    -0.002 C 
ENDROOT
BRANCH   8   9
HETATM    9  C11 UNL     1     -34.296  15.881  -6.546  1.00 20.00    -0.018 C 
HETATM   10  C9  UNL     1     -35.006  14.639  -7.083  1.00 20.00     0.010 C 
HETATM   11  C10 UNL     1     -34.507  17.067  -7.485  1.00 20.00     0.010 C 
ENDBRANCH   8   9
TORSDOF 1
ENDMDL
MODEL 4
REMARK VINA RESULT:      -4.6      1.071      2.557
REMARK  1 active torsions:
REMARK  status: ('A' for Active; 'I' for Inactive)
REMARK    1  A    between atoms: C8_8  and  C11_11 
ROOT
HETATM    1  C1  UNL     1     -35.403  15.766  -4.912  1.00 20.00    -0.081 C 
HETATM    2  C2  UNL     1     -36.136  16.592  -5.657  1.00 20.00     0.015 C 
HETATM    3  C3  UNL     1     -34.334  13.717  -5.042  1.00 20.00     0.010 C 
HETATM    4  C4  UNL     1     -35.491  13.638  -4.024  1.00 20.00     0.010 C 
HETATM    5  C5  UNL     1     -33.363  15.684  -3.821  1.00 20.00     0.014 C 
HETATM    6  C6  UNL     1     -34.028  15.220  -5.127  1.00 20.00     0.014 C 
HETATM    7  C7  UNL     1     -35.708  15.101  -3.605  1.00 20.00     0.018 C 
HETATM    8  C8  UNL     1     -34.498  15.568  -2.768  1.00 20.00    -0.002 C 
ENDROOT
BRANCH   8   9
HETATM    9  C11 UNL     1     -34.750  16.895  -2.055  1.00 20.00    -0.018 C 
HETATM   10  C9  UNL     1     -34.681  16.712  -0.540  1.00 20.00     0.010 C 
HETATM   11  C10 UNL     1     -33.748  17.951  -2.515  1.00 20.00     0.010 C 
ENDBRANCH   8   9
TORSDOF 1
ENDMDL
MODEL 5
REMARK VINA RESULT:      -4.6      1.330      3.146
REMARK  1 active torsions:
REMARK  status: ('A' for Active; 'I' for Inactive)
REMARK    1  A    between atoms: C8_8  and  C11_11 
ROOT
HETATM    1  C1  UNL     1     -34.402  15.576  -2.989  1.00 20.00    -0.081 C 
HETATM    2  C2  UNL     1     -34.920  16.197  -1.930  1.00 20.00     0.015 C 
HETATM    3  C3  UNL     1     -33.508  13.530  -3.599  1.00 20.00     0.010 C 
HETATM    4  C4  UNL     1     -32.420  14.621  -3.685  1.00 20.00     0.010 C 
HETATM    5  C5  UNL     1     -35.001  14.869  -5.111  1.00 20.00     0.014 C 
HETATM    6  C6  UNL     1     -34.823  14.321  -3.685  1.00 20.00     0.014 C 
HETATM    7  C7  UNL     1     -33.221  15.923  -3.842  1.00 20.00     0.018 C 
HETATM    8  C8  UNL     1     -33.883  15.939  -5.238  1.00 20.00    -0.002 C 
ENDROOT
BRANCH   8   9
HETATM    9  C11 UNL     1     -34.446  17.309  -5.608  1.00 20.00    -0.018 C 
HETATM   10  C9  UNL     1     -33.510  18.420  -5.136  1.00 20.00     0.010 C 
HETATM   11  C10 UNL     1     -34.677  17.406  -7.115  1.00 20.00     0.010 C 
ENDBRANCH   8   9
TORSDOF 1
ENDMDL
MODEL 6
REMARK VINA RESULT:      -4.5      1.181      3.746
REMARK  1 active torsions:
REMARK  status: ('A' for Active; 'I' for Inactive)
REMARK    1  A    between atoms: C8_8  and  C11_11 
ROOT
HETATM    1  C1  UNL     1     -34.706  16.865  -1.927  1.00 20.00    -0.081 C 
HETATM    2  C2  UNL     1     -34.585  16.723  -0.608  1.00 20.00     0.015 C 
HETATM    3  C3  UNL     1     -34.994  18.514  -3.526  1.00 20.00     0.010 C 
HETATM    4  C4  UNL     1     -36.234  17.596  -3.494  1.00 20.00     0.010 C 
HETATM    5  C5  UNL     1     -33.503  16.524  -3.875  1.00 20.00     0.014 C 
HETATM    6  C6  UNL     1     -33.887  17.650  -2.902  1.00 20.00     0.014 C 
HETATM    7  C7  UNL     1     -35.704  16.289  -2.883  1.00 20.00     0.018 C 
HETATM    8  C8  UNL     1     -34.757  15.609  -3.896  1.00 20.00    -0.002 C 
ENDROOT
BRANCH   8   9
HETATM    9  C11 UNL     1     -34.418  14.171  -3.514  1.00 20.00    -0.018 C 
HETATM   10  C9  UNL     1     -35.138  13.187  -4.436  1.00 20.00     0.010 C 
HETATM   11  C10 UNL     1     -32.909  13.943  -3.560  1.00 20.00     0.010 C 
ENDBRANCH   8   9
TORSDOF 1
ENDMDL
MODEL 7
REMARK VINA RESULT:      -4.5      1.633      3.322
REMARK  1 active torsions:
REMARK  status: ('A' for Active; 'I' for Inactive)
REMARK    1  A    between atoms: C8_8  and  C11_11 
ROOT
HETATM    1  C1  UNL     1     -34.284  15.424  -5.048  1.00 20.00    -0.081 C 
HETATM    2  C2  UNL     1     -33.989  16.278  -6.027  1.00 20.00     0.015 C 
HETATM    3  C3  UNL     1     -33.292  13.785  -3.749  1.00 20.00     0.010 C 
HETATM    4  C4  UNL     1     -34.373  13.152  -4.650  1.00 20.00     0.010 C 
HETATM    5  C5  UNL     1     -34.973  15.413  -2.838  1.00 20.00     0.014 C 
HETATM    6  C6  UNL     1     -33.697  15.266  -3.682  1.00 20.00     0.014 C 
HETATM    7  C7  UNL     1     -35.304  14.329  -4.983  1.00 20.00     0.018 C 
HETATM    8  C8  UNL     1     -36.070  14.740  -3.706  1.00 20.00    -0.002 C 
ENDROOT
BRANCH   8   9
HETATM    9  C11 UNL     1     -37.230  15.689  -3.993  1.00 20.00    -0.018 C 
HETATM   10  C9  UNL     1     -38.567  14.992  -3.748  1.00 20.00     0.010 C 
HETATM   11  C10 UNL     1     -37.118  16.950  -3.138  1.00 20.00     0.010 C 
ENDBRANCH   8   9
TORSDOF 1
ENDMDL
MODEL 8
REMARK VINA RESULT:      -4.4      1.913      4.018
REMARK  1 active torsions:
REMARK  status: ('A' for Active; 'I' for Inactive)
REMARK    1  A    between atoms: C8_8  and  C11_11 
ROOT
HETATM    1  C1  UNL     1     -35.219  15.161  -3.798  1.00 20.00    -0.081 C 
HETATM    2  C2  UNL     1     -36.206  15.728  -3.103  1.00 20.00     0.015 C 
HETATM    3  C3  UNL     1     -33.363  13.814  -3.488  1.00 20.00     0.010 C 
HETATM    4  C4  UNL     1     -32.918  15.213  -3.965  1.00 20.00     0.010 C 
HETATM    5  C5  UNL     1     -34.886  13.598  -5.472  1.00 20.00     0.014 C 
HETATM    6  C6  UNL     1     -34.828  13.725  -3.941  1.00 20.00     0.014 C 
HETATM    7  C7  UNL     1     -34.165  15.771  -4.669  1.00 20.00     0.018 C 
HETATM    8  C8  UNL     1     -34.398  14.982  -5.977  1.00 20.00    -0.002 C 
ENDROOT
BRANCH   8   9
HETATM    9  C11 UNL     1     -35.421  15.647  -6.894  1.00 20.00    -0.018 C 
HETATM   10  C9  UNL     1     -34.807  16.857  -7.596  1.00 20.00     0.010 C 
HETATM   11  C10 UNL     1     -35.957  14.648  -7.917  1.00 20.00     0.010 C 
ENDBRANCH   8   9
TORSDOF 1
ENDMDL
MODEL 9
REMARK VINA RESULT:      -4.4      1.250      3.819
REMARK  1 active torsions:
REMARK  status: ('A' for Active; 'I' for Inactive)
REMARK    1  A    between atoms: C8_8  and  C11_11 
ROOT
HETATM    1  C1  UNL     1     -34.342  17.661  -2.978  1.00 20.00    -0.081 C 
HETATM    2  C2  UNL     1     -33.691  18.487  -3.795  1.00 20.00     0.015 C 
HETATM    3  C3  UNL     1     -35.675  17.703  -1.086  1.00 20.00     0.010 C 
HETATM    4  C4  UNL     1     -34.342  16.993  -0.769  1.00 20.00     0.010 C 
HETATM    5  C5  UNL     1     -36.082  16.134  -3.003  1.00 20.00     0.014 C 
HETATM    6  C6  UNL     1     -35.791  17.592  -2.614  1.00 20.00     0.014 C 
HETATM    7  C7  UNL     1     -33.846  16.520  -2.145  1.00 20.00     0.018 C 
HETATM    8  C8  UNL     1     -34.768  15.387  -2.649  1.00 20.00    -0.002 C 
ENDROOT
BRANCH   8   9
HETATM    9  C11 UNL     1     -34.191  14.648  -3.854  1.00 20.00    -0.018 C 
HETATM   10  C9  UNL     1     -32.725  14.292  -3.614  1.00 20.00     0.010 C 
HETATM   11  C10 UNL     1     -35.006  13.393  -4.155  1.00 20.00     0.010 C 
ENDBRANCH   8   9
TORSDOF 1
ENDMDL
