MODEL 1
REMARK VINA RESULT:      -4.8      0.000      0.000
REMARK  1 active torsions:
REMARK  status: ('A' for Active; 'I' for Inactive)
REMARK    1  A    between atoms: C6_6  and  C10_10 
ROOT
HETATM    1  C1  UNL     1     -34.462  14.426  -3.370  1.00 20.00     0.142 A 
HETATM    2  C2  UNL     1     -35.035  17.592  -3.321  1.00 20.00     0.006 C 
HETATM    3  C3  UNL     1     -35.760  16.513  -4.135  1.00 20.00     0.019 C 
HETATM    4  C4  UNL     1     -33.657  15.622  -3.275  1.00 20.00     0.076 A 
HETATM    5  C5  UNL     1     -34.012  16.836  -2.452  1.00 20.00    -0.006 C 
HETATM    6  C6  UNL     1     -34.700  15.457  -4.367  1.00 20.00     0.034 A 
HETATM    7  C7  UNL     1     -34.570  16.465  -1.082  1.00 20.00     0.011 C 
HETATM    8  O11 UNL     1     -34.182  13.247  -3.445  1.00 20.00    -0.297 OA
ENDROOT
BRANCH   6   9
HETATM    9  C10 UNL     1     -34.242  15.290  -5.786  1.00 20.00    -0.006 C 
HETATM   10  C8  UNL     1     -35.120  14.283  -6.546  1.00 20.00     0.011 C 
HETATM   11  C9  UNL     1     -34.228  16.631  -6.535  1.00 20.00     0.011 C 
ENDBRANCH   6   9
TORSDOF 1
ENDMDL
MODEL 2
REMARK VINA RESULT:      -4.8      1.502      1.751
REMARK  1 active torsions:
REMARK  status: ('A' for Active; 'I' for Inactive)
REMARK    1  A    between atoms: C6_6  and  C10_10 
ROOT
HETATM    1  C1  UNL     1     -36.448  14.955  -3.737  1.00 20.00     0.142 A 
HETATM    2  C2  UNL     1     -33.771  16.726  -3.943  1.00 20.00     0.006 C 
HETATM    3  C3  UNL     1     -35.041  16.832  -4.795  1.00 20.00     0.019 C 
HETATM    4  C4  UNL     1     -35.032  14.710  -3.590  1.00 20.00     0.076 A 
HETATM    5  C5  UNL     1     -34.066  15.638  -2.895  1.00 20.00    -0.006 C 
HETATM    6  C6  UNL     1     -35.588  15.420  -4.812  1.00 20.00     0.034 A 
HETATM    7  C7  UNL     1     -34.639  16.211  -1.603  1.00 20.00     0.011 C 
HETATM    8  O11 UNL     1     -37.418  14.225  -3.706  1.00 20.00    -0.297 OA
ENDROOT
BRANCH   6   9
HETATM    9  C10 UNL     1     -35.548  14.718  -6.138  1.00 20.00    -0.006 C 
HETATM   10  C8  UNL     1     -36.790  15.041  -6.984  1.00 20.00     0.011 C 
HETATM   11  C9  UNL     1     -34.279  15.077  -6.926  1.00 20.00     0.011 C 
ENDBRANCH   6   9
TORSDOF 1
ENDMDL
MODEL 3
REMARK VINA RESULT:      -4.4      1.406      3.542
REMARK  1 active torsions:
REMARK  status: ('A' for Active; 'I' for Inactive)
REMARK    1  A    between atoms: C6_6  and  C10_10 
ROOT
HETATM    1  C1  UNL     1     -34.939  13.689  -5.366  1.00 20.00     0.142 A 
HETATM    2  C2  UNL     1     -35.250  16.692  -6.477  1.00 20.00     0.006 C 
HETATM    3  C3  UNL     1     -33.959  15.946  -6.121  1.00 20.00     0.019 C 
HETATM    4  C4  UNL     1     -35.877  14.771  -5.175  1.00 20.00     0.076 A 
HETATM    5  C5  UNL     1     -36.386  15.673  -6.272  1.00 20.00    -0.006 C 
HETATM    6  C6  UNL     1     -34.380  14.988  -5.028  1.00 20.00     0.034 A 
HETATM    7  C7  UNL     1     -36.719  14.905  -7.546  1.00 20.00     0.011 C 
HETATM    8  O11 UNL     1     -34.838  12.587  -4.868  1.00 20.00    -0.297 OA
ENDROOT
BRANCH   6   9
HETATM    9  C10 UNL     1     -33.820  15.264  -3.663  1.00 20.00    -0.006 C 
HETATM   10  C8  UNL     1     -32.429  14.634  -3.488  1.00 20.00     0.011 C 
HETATM   11  C9  UNL     1     -33.743  16.772  -3.380  1.00 20.00     0.011 C 
ENDBRANCH   6   9
TORSDOF 1
ENDMDL
MODEL 4
REMARK VINA RESULT:      -4.4      1.642      3.791
REMARK  1 active torsions:
REMARK  status: ('A' for Active; 'I' for Inactive)
REMARK    1  A    between atoms: C6_6  and  C10_10 
ROOT
HETATM    1  C1  UNL     1     -33.600  16.012  -4.572  1.00 20.00     0.142 A 
HETATM    2  C2  UNL     1     -36.305  14.706  -3.419  1.00 20.00     0.006 C 
HETATM    3  C3  UNL     1     -35.931  16.191  -3.496  1.00 20.00     0.019 C 
HETATM    4  C4  UNL     1     -33.938  14.822  -3.825  1.00 20.00     0.076 A 
HETATM    5  C5  UNL     1     -35.142  13.952  -4.090  1.00 20.00    -0.006 C 
HETATM    6  C6  UNL     1     -34.421  16.194  -3.386  1.00 20.00     0.034 A 
HETATM    7  C7  UNL     1     -35.376  13.724  -5.579  1.00 20.00     0.011 C 
HETATM    8  O11 UNL     1     -32.542  16.488  -4.930  1.00 20.00    -0.297 OA
ENDROOT
BRANCH   6   9
HETATM    9  C10 UNL     1     -33.857  16.793  -2.131  1.00 20.00    -0.006 C 
HETATM   10  C8  UNL     1     -33.646  18.308  -2.276  1.00 20.00     0.011 C 
HETATM   11  C9  UNL     1     -34.756  16.511  -0.919  1.00 20.00     0.011 C 
ENDBRANCH   6   9
TORSDOF 1
ENDMDL
MODEL 5
REMARK VINA RESULT:      -4.4      1.559      2.536
REMARK  1 active torsions:
REMARK  status: ('A' for Active; 'I' for Inactive)
REMARK    1  A    between atoms: C6_6  and  C10_10 
ROOT
HETATM    1  C1  UNL     1     -34.972  13.641  -4.056  1.00 20.00     0.142 A 
HETATM    2  C2  UNL     1     -33.911  16.542  -3.158  1.00 20.00     0.006 C 
HETATM    3  C3  UNL     1     -35.154  15.796  -2.660  1.00 20.00     0.019 C 
HETATM    4  C4  UNL     1     -34.339  14.760  -4.714  1.00 20.00     0.076 A 
HETATM    5  C5  UNL     1     -33.211  15.576  -4.132  1.00 20.00    -0.006 C 
HETATM    6  C6  UNL     1     -35.570  14.949  -3.844  1.00 20.00     0.034 A 
HETATM    7  C7  UNL     1     -32.164  14.708  -3.442  1.00 20.00     0.011 C 
HETATM    8  O11 UNL     1     -35.409  12.584  -4.464  1.00 20.00    -0.297 OA
ENDROOT
BRANCH   6   9
HETATM    9  C10 UNL     1     -36.867  15.328  -4.497  1.00 20.00    -0.006 C 
HETATM   10  C8  UNL     1     -38.069  14.735  -3.747  1.00 20.00     0.011 C 
HETATM   11  C9  UNL     1     -37.022  16.853  -4.597  1.00 20.00     0.011 C 
ENDBRANCH   6   9
TORSDOF 1
ENDMDL
MODEL 6
REMARK VINA RESULT:      -4.4      1.179      3.665
REMARK  1 active torsions:
REMARK  status: ('A' for Active; 'I' for Inactive)
REMARK    1  A    between atoms: C6_6  and  C10_10 
ROOT
HETATM    1  C1  UNL     1     -34.687  13.780  -4.953  1.00 20.00     0.142 A 
HETATM    2  C2  UNL     1     -34.469  16.714  -6.253  1.00 20.00     0.006 C 
HETATM    3  C3  UNL     1     -33.605  16.107  -5.142  1.00 20.00     0.019 C 
HETATM    4  C4  UNL     1     -35.622  14.767  -5.442  1.00 20.00     0.076 A 
HETATM    5  C5  UNL     1     -35.429  15.592  -6.690  1.00 20.00    -0.006 C 
HETATM    6  C6  UNL     1     -34.533  15.134  -4.448  1.00 20.00     0.034 A 
HETATM    7  C7  UNL     1     -34.877  14.770  -7.849  1.00 20.00     0.011 C 
HETATM    8  O11 UNL     1     -34.833  12.703  -4.412  1.00 20.00    -0.297 OA
ENDROOT
BRANCH   6   9
HETATM    9  C10 UNL     1     -34.925  15.491  -3.043  1.00 20.00    -0.006 C 
HETATM   10  C8  UNL     1     -33.803  16.256  -2.324  1.00 20.00     0.011 C 
HETATM   11  C9  UNL     1     -36.217  16.322  -3.014  1.00 20.00     0.011 C 
ENDBRANCH   6   9
TORSDOF 1
ENDMDL
MODEL 7
REMARK VINA RESULT:      -4.2      1.871      4.039
REMARK  1 active torsions:
REMARK  status: ('A' for Active; 'I' for Inactive)
REMARK    1  A    between atoms: C6_6  and  C10_10 
ROOT
HETATM    1  C1  UNL     1     -34.143  17.367  -4.963  1.00 20.00     0.142 A 
HETATM    2  C2  UNL     1     -35.454  14.875  -6.519  1.00 20.00     0.006 C 
HETATM    3  C3  UNL     1     -35.861  15.462  -5.162  1.00 20.00     0.019 C 
HETATM    4  C4  UNL     1     -33.650  16.286  -5.785  1.00 20.00     0.076 A 
HETATM    5  C5  UNL     1     -34.323  15.783  -7.038  1.00 20.00    -0.006 C 
HETATM    6  C6  UNL     1     -34.571  16.025  -4.605  1.00 20.00     0.034 A 
HETATM    7  C7  UNL     1     -34.841  16.918  -7.914  1.00 20.00     0.011 C 
HETATM    8  O11 UNL     1     -33.587  18.253  -4.346  1.00 20.00    -0.297 OA
ENDROOT
BRANCH   6   9
HETATM    9  C10 UNL     1     -34.019  15.326  -3.397  1.00 20.00    -0.006 C 
HETATM   10  C8  UNL     1     -34.635  15.874  -2.100  1.00 20.00     0.011 C 
HETATM   11  C9  UNL     1     -34.242  13.809  -3.473  1.00 20.00     0.011 C 
ENDBRANCH   6   9
TORSDOF 1
ENDMDL
MODEL 8
REMARK VINA RESULT:      -4.2      1.879      2.438
REMARK  1 active torsions:
REMARK  status: ('A' for Active; 'I' for Inactive)
REMARK    1  A    between atoms: C6_6  and  C10_10 
ROOT
HETATM    1  C1  UNL     1     -36.330  16.411  -4.154  1.00 20.00     0.142 A 
HETATM    2  C2  UNL     1     -33.452  15.852  -2.829  1.00 20.00     0.006 C 
HETATM    3  C3  UNL     1     -33.773  16.156  -4.297  1.00 20.00     0.019 C 
HETATM    4  C4  UNL     1     -35.819  15.545  -3.116  1.00 20.00     0.076 A 
HETATM    5  C5  UNL     1     -34.797  15.950  -2.084  1.00 20.00    -0.006 C 
HETATM    6  C6  UNL     1     -35.169  15.602  -4.488  1.00 20.00     0.034 A 
HETATM    7  C7  UNL     1     -35.055  17.345  -1.527  1.00 20.00     0.011 C 
HETATM    8  O11 UNL     1     -37.428  16.536  -4.658  1.00 20.00    -0.297 OA
ENDROOT
BRANCH   6   9
HETATM    9  C10 UNL     1     -35.284  14.411  -5.394  1.00 20.00    -0.006 C 
HETATM   10  C8  UNL     1     -34.823  14.743  -6.822  1.00 20.00     0.011 C 
HETATM   11  C9  UNL     1     -34.479  13.217  -4.857  1.00 20.00     0.011 C 
ENDBRANCH   6   9
TORSDOF 1
ENDMDL
MODEL 9
REMARK VINA RESULT:      -4.2      1.953      2.715
REMARK  1 active torsions:
REMARK  status: ('A' for Active; 'I' for Inactive)
REMARK    1  A    between atoms: C6_6  and  C10_10 
ROOT
HETATM    1  C1  UNL     1     -35.574  17.451  -4.219  1.00 20.00     0.142 A 
HETATM    2  C2  UNL     1     -33.310  15.250  -3.598  1.00 20.00     0.006 C 
HETATM    3  C3  UNL     1     -33.268  16.384  -4.629  1.00 20.00     0.019 C 
HETATM    4  C4  UNL     1     -35.562  16.049  -3.869  1.00 20.00     0.076 A 
HETATM    5  C5  UNL     1     -34.644  15.425  -2.847  1.00 20.00    -0.006 C 
HETATM    6  C6  UNL     1     -34.718  16.584  -5.013  1.00 20.00     0.034 A 
HETATM    7  C7  UNL     1     -34.500  16.284  -1.595  1.00 20.00     0.011 C 
HETATM    8  O11 UNL     1     -36.467  18.222  -4.504  1.00 20.00    -0.297 OA
ENDROOT
BRANCH   6   9
HETATM    9  C10 UNL     1     -35.082  16.205  -6.419  1.00 20.00    -0.006 C 
HETATM   10  C8  UNL     1     -34.749  17.331  -7.410  1.00 20.00     0.011 C 
HETATM   11  C9  UNL     1     -34.377  14.911  -6.853  1.00 20.00     0.011 C 
ENDBRANCH   6   9
TORSDOF 1
ENDMDL
