MODEL 1
REMARK VINA RESULT:      -4.6      0.000      0.000
REMARK  1 active torsions:
REMARK  status: ('A' for Active; 'I' for Inactive)
REMARK    1  A    between atoms: C7_7  and  C11_11 
ROOT
HETATM    1  C1  UNL     1     -35.444  15.492  -4.931  1.00 20.00    -0.084 C 
HETATM    2  C2  UNL     1     -36.482  14.992  -5.609  1.00 20.00     0.014 C 
HETATM    3  C3  UNL     1     -35.362  15.582  -3.424  1.00 20.00     0.044 C 
HETATM    4  C4  UNL     1     -32.835  14.926  -3.499  1.00 20.00     0.016 A 
HETATM    5  C5  UNL     1     -34.131  15.958  -5.539  1.00 20.00     0.014 C 
HETATM    6  C6  UNL     1     -33.171  16.106  -4.375  1.00 20.00     0.003 A 
HETATM    7  C7  UNL     1     -33.917  15.900  -3.088  1.00 20.00    -0.029 A 
HETATM    8  C8  UNL     1     -34.295  17.282  -6.281  1.00 20.00     0.015 C 
ENDROOT
BRANCH   7   9
HETATM    9  C11 UNL     1     -33.672  16.806  -1.925  1.00 20.00    -0.014 C 
HETATM   10  C9  UNL     1     -33.678  18.286  -2.346  1.00 20.00     0.010 C 
HETATM   11  C10 UNL     1     -34.705  16.590  -0.807  1.00 20.00     0.010 C 
ENDBRANCH   7   9
TORSDOF 1
ENDMDL
MODEL 2
REMARK VINA RESULT:      -4.5      1.487      2.109
REMARK  1 active torsions:
REMARK  status: ('A' for Active; 'I' for Inactive)
REMARK    1  A    between atoms: C7_7  and  C11_11 
ROOT
HETATM    1  C1  UNL     1     -36.559  15.114  -6.002  1.00 20.00    -0.084 C 
HETATM    2  C2  UNL     1     -37.699  15.359  -6.657  1.00 20.00     0.014 C 
HETATM    3  C3  UNL     1     -36.287  15.507  -4.568  1.00 20.00     0.044 C 
HETATM    4  C4  UNL     1     -35.038  13.250  -4.160  1.00 20.00     0.016 A 
HETATM    5  C5  UNL     1     -35.384  14.312  -6.539  1.00 20.00     0.014 C 
HETATM    6  C6  UNL     1     -34.504  14.023  -5.339  1.00 20.00     0.003 A 
HETATM    7  C7  UNL     1     -35.035  14.763  -4.146  1.00 20.00    -0.029 A 
HETATM    8  C8  UNL     1     -34.615  15.090  -7.605  1.00 20.00     0.015 C 
ENDROOT
BRANCH   7   9
HETATM    9  C11 UNL     1     -34.096  15.475  -3.226  1.00 20.00    -0.014 C 
HETATM   10  C9  UNL     1     -33.363  16.624  -3.941  1.00 20.00     0.010 C 
HETATM   11  C10 UNL     1     -34.822  16.026  -1.987  1.00 20.00     0.010 C 
ENDBRANCH   7   9
TORSDOF 1
ENDMDL
MODEL 3
REMARK VINA RESULT:      -4.4      1.202      3.863
REMARK  1 active torsions:
REMARK  status: ('A' for Active; 'I' for Inactive)
REMARK    1  A    between atoms: C7_7  and  C11_11 
ROOT
HETATM    1  C1  UNL     1     -33.844  17.543  -3.401  1.00 20.00    -0.084 C 
HETATM    2  C2  UNL     1     -33.695  18.871  -3.347  1.00 20.00     0.014 C 
HETATM    3  C3  UNL     1     -34.022  16.747  -4.674  1.00 20.00     0.044 C 
HETATM    4  C4  UNL     1     -32.499  14.849  -3.727  1.00 20.00     0.016 A 
HETATM    5  C5  UNL     1     -33.756  16.594  -2.217  1.00 20.00     0.014 C 
HETATM    6  C6  UNL     1     -33.644  15.205  -2.814  1.00 20.00     0.003 A 
HETATM    7  C7  UNL     1     -33.827  15.289  -4.302  1.00 20.00    -0.029 A 
HETATM    8  C8  UNL     1     -34.985  16.704  -1.318  1.00 20.00     0.015 C 
ENDROOT
BRANCH   7   9
HETATM    9  C11 UNL     1     -34.677  14.286  -5.012  1.00 20.00    -0.014 C 
HETATM   10  C9  UNL     1     -36.050  14.124  -4.336  1.00 20.00     0.010 C 
HETATM   11  C10 UNL     1     -34.877  14.654  -6.492  1.00 20.00     0.010 C 
ENDBRANCH   7   9
TORSDOF 1
ENDMDL
MODEL 4
REMARK VINA RESULT:      -4.4      1.492      3.904
REMARK  1 active torsions:
REMARK  status: ('A' for Active; 'I' for Inactive)
REMARK    1  A    between atoms: C7_7  and  C11_11 
ROOT
HETATM    1  C1  UNL     1     -35.022  16.409  -1.984  1.00 20.00    -0.084 C 
HETATM    2  C2  UNL     1     -34.559  16.713  -0.767  1.00 20.00     0.014 C 
HETATM    3  C3  UNL     1     -34.749  15.111  -2.711  1.00 20.00     0.044 C 
HETATM    4  C4  UNL     1     -37.200  15.073  -3.612  1.00 20.00     0.016 A 
HETATM    5  C5  UNL     1     -35.982  17.257  -2.804  1.00 20.00     0.014 C 
HETATM    6  C6  UNL     1     -36.472  16.356  -3.921  1.00 20.00     0.003 A 
HETATM    7  C7  UNL     1     -35.712  15.062  -3.882  1.00 20.00    -0.029 A 
HETATM    8  C8  UNL     1     -35.293  18.497  -3.367  1.00 20.00     0.015 C 
ENDROOT
BRANCH   7   9
HETATM    9  C11 UNL     1     -35.211  14.447  -5.150  1.00 20.00    -0.014 C 
HETATM   10  C9  UNL     1     -34.341  15.430  -5.953  1.00 20.00     0.010 C 
HETATM   11  C10 UNL     1     -34.413  13.160  -4.882  1.00 20.00     0.010 C 
ENDBRANCH   7   9
TORSDOF 1
ENDMDL
MODEL 5
REMARK VINA RESULT:      -4.4      1.519      4.139
REMARK  1 active torsions:
REMARK  status: ('A' for Active; 'I' for Inactive)
REMARK    1  A    between atoms: C7_7  and  C11_11 
ROOT
HETATM    1  C1  UNL     1     -34.829  15.630  -3.076  1.00 20.00    -0.084 C 
HETATM    2  C2  UNL     1     -34.575  16.187  -1.887  1.00 20.00     0.014 C 
HETATM    3  C3  UNL     1     -33.905  15.693  -4.272  1.00 20.00     0.044 C 
HETATM    4  C4  UNL     1     -34.479  13.218  -4.876  1.00 20.00     0.016 A 
HETATM    5  C5  UNL     1     -36.025  14.751  -3.406  1.00 20.00     0.014 C 
HETATM    6  C6  UNL     1     -35.697  14.094  -4.732  1.00 20.00     0.003 A 
HETATM    7  C7  UNL     1     -34.423  14.677  -5.272  1.00 20.00    -0.029 A 
HETATM    8  C8  UNL     1     -37.310  15.571  -3.507  1.00 20.00     0.015 C 
ENDROOT
BRANCH   7   9
HETATM    9  C11 UNL     1     -34.315  15.030  -6.720  1.00 20.00    -0.014 C 
HETATM   10  C9  UNL     1     -35.509  14.492  -7.527  1.00 20.00     0.010 C 
HETATM   11  C10 UNL     1     -34.201  16.549  -6.929  1.00 20.00     0.010 C 
ENDBRANCH   7   9
TORSDOF 1
ENDMDL
MODEL 6
REMARK VINA RESULT:      -4.3      1.750      2.533
REMARK  1 active torsions:
REMARK  status: ('A' for Active; 'I' for Inactive)
REMARK    1  A    between atoms: C7_7  and  C11_11 
ROOT
HETATM    1  C1  UNL     1     -34.822  14.726  -3.533  1.00 20.00    -0.084 C 
HETATM    2  C2  UNL     1     -34.855  13.483  -4.026  1.00 20.00     0.014 C 
HETATM    3  C3  UNL     1     -36.027  15.480  -3.017  1.00 20.00     0.044 C 
HETATM    4  C4  UNL     1     -34.599  16.477  -1.071  1.00 20.00     0.016 A 
HETATM    5  C5  UNL     1     -33.569  15.557  -3.307  1.00 20.00     0.014 C 
HETATM    6  C6  UNL     1     -34.001  16.719  -2.434  1.00 20.00     0.003 A 
HETATM    7  C7  UNL     1     -35.493  16.689  -2.272  1.00 20.00    -0.029 A 
HETATM    8  C8  UNL     1     -32.982  16.055  -4.625  1.00 20.00     0.015 C 
ENDROOT
BRANCH   7   9
HETATM    9  C11 UNL     1     -36.284  17.954  -2.372  1.00 20.00    -0.014 C 
HETATM   10  C9  UNL     1     -35.750  18.872  -3.485  1.00 20.00     0.010 C 
HETATM   11  C10 UNL     1     -37.777  17.674  -2.613  1.00 20.00     0.010 C 
ENDBRANCH   7   9
TORSDOF 1
ENDMDL
MODEL 7
REMARK VINA RESULT:      -4.3      1.676      3.382
REMARK  1 active torsions:
REMARK  status: ('A' for Active; 'I' for Inactive)
REMARK    1  A    between atoms: C7_7  and  C11_11 
ROOT
HETATM    1  C1  UNL     1     -34.103  17.780  -4.303  1.00 20.00    -0.084 C 
HETATM    2  C2  UNL     1     -33.509  18.815  -4.905  1.00 20.00     0.014 C 
HETATM    3  C3  UNL     1     -33.459  16.431  -4.074  1.00 20.00     0.044 C 
HETATM    4  C4  UNL     1     -34.571  16.274  -1.716  1.00 20.00     0.016 A 
HETATM    5  C5  UNL     1     -35.477  17.803  -3.651  1.00 20.00     0.014 C 
HETATM    6  C6  UNL     1     -35.559  16.536  -2.824  1.00 20.00     0.003 A 
HETATM    7  C7  UNL     1     -34.348  15.690  -3.093  1.00 20.00    -0.029 A 
HETATM    8  C8  UNL     1     -36.591  17.846  -4.695  1.00 20.00     0.015 C 
ENDROOT
BRANCH   7   9
HETATM    9  C11 UNL     1     -34.491  14.214  -3.285  1.00 20.00    -0.014 C 
HETATM   10  C9  UNL     1     -35.593  13.878  -4.305  1.00 20.00     0.010 C 
HETATM   11  C10 UNL     1     -33.169  13.567  -3.730  1.00 20.00     0.010 C 
ENDBRANCH   7   9
TORSDOF 1
ENDMDL
MODEL 8
REMARK VINA RESULT:      -4.3      1.238      3.889
REMARK  1 active torsions:
REMARK  status: ('A' for Active; 'I' for Inactive)
REMARK    1  A    between atoms: C7_7  and  C11_11 
ROOT
HETATM    1  C1  UNL     1     -34.449  16.094  -2.996  1.00 20.00    -0.084 C 
HETATM    2  C2  UNL     1     -34.662  16.155  -1.677  1.00 20.00     0.014 C 
HETATM    3  C3  UNL     1     -35.456  16.496  -4.051  1.00 20.00     0.044 C 
HETATM    4  C4  UNL     1     -33.555  17.556  -5.494  1.00 20.00     0.016 A 
HETATM    5  C5  UNL     1     -33.137  15.716  -3.666  1.00 20.00     0.014 C 
HETATM    6  C6  UNL     1     -33.288  16.121  -5.119  1.00 20.00     0.003 A 
HETATM    7  C7  UNL     1     -34.698  16.575  -5.363  1.00 20.00    -0.029 A 
HETATM    8  C8  UNL     1     -32.857  14.220  -3.543  1.00 20.00     0.015 C 
ENDROOT
BRANCH   7   9
HETATM    9  C11 UNL     1     -35.424  16.140  -6.595  1.00 20.00    -0.014 C 
HETATM   10  C9  UNL     1     -34.998  14.729  -7.037  1.00 20.00     0.010 C 
HETATM   11  C10 UNL     1     -36.949  16.174  -6.399  1.00 20.00     0.010 C 
ENDBRANCH   7   9
TORSDOF 1
ENDMDL
MODEL 9
REMARK VINA RESULT:      -4.2      1.400      2.518
REMARK  1 active torsions:
REMARK  status: ('A' for Active; 'I' for Inactive)
REMARK    1  A    between atoms: C7_7  and  C11_11 
ROOT
HETATM    1  C1  UNL     1     -35.976  16.564  -6.029  1.00 20.00    -0.084 C 
HETATM    2  C2  UNL     1     -36.454  17.534  -6.816  1.00 20.00     0.014 C 
HETATM    3  C3  UNL     1     -35.627  16.733  -4.567  1.00 20.00     0.044 C 
HETATM    4  C4  UNL     1     -36.603  14.370  -4.036  1.00 20.00     0.016 A 
HETATM    5  C5  UNL     1     -35.799  15.107  -6.427  1.00 20.00     0.014 C 
HETATM    6  C6  UNL     1     -35.567  14.355  -5.131  1.00 20.00     0.003 A 
HETATM    7  C7  UNL     1     -35.441  15.337  -4.004  1.00 20.00    -0.029 A 
HETATM    8  C8  UNL     1     -34.620  14.927  -7.381  1.00 20.00     0.015 C 
ENDROOT
BRANCH   7   9
HETATM    9  C11 UNL     1     -34.379  15.158  -2.967  1.00 20.00    -0.014 C 
HETATM   10  C9  UNL     1     -32.973  15.129  -3.593  1.00 20.00     0.010 C 
HETATM   11  C10 UNL     1     -34.437  16.260  -1.895  1.00 20.00     0.010 C 
ENDBRANCH   7   9
TORSDOF 1
ENDMDL
