MODEL 1
REMARK VINA RESULT:      -5.1      0.000      0.000
REMARK  0 active torsions:
REMARK  status: ('A' for Active; 'I' for Inactive)
ROOT
HETATM    1  C1  UNL     1     -33.551   6.417   5.661  1.00 20.00    -0.011 A 
HETATM    2  C2  UNL     1     -33.430   6.256   4.335  1.00 20.00    -0.011 A 
HETATM    3  C3  UNL     1     -34.638   5.505   6.175  1.00 20.00     0.033 A 
HETATM    4  C4  UNL     1     -35.835   5.472   3.818  1.00 20.00     0.016 A 
HETATM    5  C5  UNL     1     -34.348   5.261   3.761  1.00 20.00     0.030 A 
HETATM    6  C6  UNL     1     -35.145   4.762   4.953  1.00 20.00    -0.002 A 
HETATM    7 BR7  UNL     1     -32.271   7.148   3.217  1.00 20.00    -0.056 Br
ENDROOT
TORSDOF 0
ENDMDL
MODEL 2
REMARK VINA RESULT:      -4.8      1.574      2.352
REMARK  0 active torsions:
REMARK  status: ('A' for Active; 'I' for Inactive)
ROOT
HETATM    1  C1  UNL     1     -33.827   6.370   4.224  1.00 20.00    -0.011 A 
HETATM    2  C2  UNL     1     -34.073   6.294   5.540  1.00 20.00    -0.011 A 
HETATM    3  C3  UNL     1     -34.597   5.285   3.511  1.00 20.00     0.033 A 
HETATM    4  C4  UNL     1     -34.647   3.781   5.685  1.00 20.00     0.016 A 
HETATM    5  C5  UNL     1     -35.005   5.221   5.920  1.00 20.00     0.030 A 
HETATM    6  C6  UNL     1     -35.355   4.553   4.603  1.00 20.00    -0.002 A 
HETATM    7 BR7  UNL     1     -33.364   7.366   6.858  1.00 20.00    -0.056 Br
ENDROOT
TORSDOF 0
ENDMDL
MODEL 3
REMARK VINA RESULT:      -4.8      0.621      1.998
REMARK  0 active torsions:
REMARK  status: ('A' for Active; 'I' for Inactive)
ROOT
HETATM    1  C1  UNL     1     -34.517   5.354   3.401  1.00 20.00    -0.011 A 
HETATM    2  C2  UNL     1     -33.641   6.093   4.099  1.00 20.00    -0.011 A 
HETATM    3  C3  UNL     1     -35.527   4.755   4.348  1.00 20.00     0.033 A 
HETATM    4  C4  UNL     1     -33.825   4.873   6.367  1.00 20.00     0.016 A 
HETATM    5  C5  UNL     1     -33.900   6.130   5.546  1.00 20.00     0.030 A 
HETATM    6  C6  UNL     1     -35.130   5.258   5.723  1.00 20.00    -0.002 A 
HETATM    7 BR7  UNL     1     -32.196   7.016   3.429  1.00 20.00    -0.056 Br
ENDROOT
TORSDOF 0
ENDMDL
MODEL 4
REMARK VINA RESULT:      -4.4      1.602      1.975
REMARK  0 active torsions:
REMARK  status: ('A' for Active; 'I' for Inactive)
ROOT
HETATM    1  C1  UNL     1     -34.664   4.821   6.472  1.00 20.00    -0.011 A 
HETATM    2  C2  UNL     1     -34.151   5.920   5.900  1.00 20.00    -0.011 A 
HETATM    3  C3  UNL     1     -35.109   3.862   5.395  1.00 20.00     0.033 A 
HETATM    4  C4  UNL     1     -35.440   5.833   3.665  1.00 20.00     0.016 A 
HETATM    5  C5  UNL     1     -34.148   5.891   4.430  1.00 20.00     0.030 A 
HETATM    6  C6  UNL     1     -34.773   4.551   4.086  1.00 20.00    -0.002 A 
HETATM    7 BR7  UNL     1     -33.490   7.406   6.763  1.00 20.00    -0.056 Br
ENDROOT
TORSDOF 0
ENDMDL
MODEL 5
REMARK VINA RESULT:      -4.2      1.872      3.037
REMARK  0 active torsions:
REMARK  status: ('A' for Active; 'I' for Inactive)
ROOT
HETATM    1  C1  UNL     1     -34.779   5.542   3.956  1.00 20.00    -0.011 A 
HETATM    2  C2  UNL     1     -33.838   6.138   4.704  1.00 20.00    -0.011 A 
HETATM    3  C3  UNL     1     -34.247   5.338   2.559  1.00 20.00     0.033 A 
HETATM    4  C4  UNL     1     -32.559   7.356   2.821  1.00 20.00     0.016 A 
HETATM    5  C5  UNL     1     -32.582   6.412   3.990  1.00 20.00     0.030 A 
HETATM    6  C6  UNL     1     -32.836   5.895   2.585  1.00 20.00    -0.002 A 
HETATM    7 BR7  UNL     1     -33.985   6.634   6.471  1.00 20.00    -0.056 Br
ENDROOT
TORSDOF 0
ENDMDL
MODEL 6
REMARK VINA RESULT:      -3.9      1.293      2.326
REMARK  0 active torsions:
REMARK  status: ('A' for Active; 'I' for Inactive)
ROOT
HETATM    1  C1  UNL     1     -34.835   4.102   4.846  1.00 20.00    -0.011 A 
HETATM    2  C2  UNL     1     -34.473   5.258   4.268  1.00 20.00    -0.011 A 
HETATM    3  C3  UNL     1     -35.047   4.331   6.323  1.00 20.00     0.033 A 
HETATM    4  C4  UNL     1     -33.400   6.400   6.320  1.00 20.00     0.016 A 
HETATM    5  C5  UNL     1     -34.394   6.398   5.193  1.00 20.00     0.030 A 
HETATM    6  C6  UNL     1     -34.766   5.806   6.541  1.00 20.00    -0.002 A 
HETATM    7 BR7  UNL     1     -34.069   5.522   2.492  1.00 20.00    -0.056 Br
ENDROOT
TORSDOF 0
ENDMDL
MODEL 7
REMARK VINA RESULT:      -3.7      9.012     10.044
REMARK  0 active torsions:
REMARK  status: ('A' for Active; 'I' for Inactive)
ROOT
HETATM    1  C1  UNL     1     -42.307   5.877  -2.660  1.00 20.00    -0.011 A 
HETATM    2  C2  UNL     1     -41.780   4.741  -2.177  1.00 20.00    -0.011 A 
HETATM    3  C3  UNL     1     -41.801   7.044  -1.849  1.00 20.00     0.033 A 
HETATM    4  C4  UNL     1     -41.383   5.502   0.258  1.00 20.00     0.016 A 
HETATM    5  C5  UNL     1     -40.872   4.934  -1.036  1.00 20.00     0.030 A 
HETATM    6  C6  UNL     1     -40.877   6.435  -0.810  1.00 20.00    -0.002 A 
HETATM    7 BR7  UNL     1     -42.093   3.033  -2.787  1.00 20.00    -0.056 Br
ENDROOT
TORSDOF 0
ENDMDL
MODEL 8
REMARK VINA RESULT:      -3.6      8.794      9.819
REMARK  0 active torsions:
REMARK  status: ('A' for Active; 'I' for Inactive)
ROOT
HETATM    1  C1  UNL     1     -41.215   7.106  -1.061  1.00 20.00    -0.011 A 
HETATM    2  C2  UNL     1     -41.843   6.552  -2.109  1.00 20.00    -0.011 A 
HETATM    3  C3  UNL     1     -40.630   6.015  -0.198  1.00 20.00     0.033 A 
HETATM    4  C4  UNL     1     -42.422   4.269  -1.053  1.00 20.00     0.016 A 
HETATM    5  C5  UNL     1     -41.783   5.083  -2.142  1.00 20.00     0.030 A 
HETATM    6  C6  UNL     1     -40.994   4.718  -0.897  1.00 20.00    -0.002 A 
HETATM    7 BR7  UNL     1     -42.746   7.437  -3.447  1.00 20.00    -0.056 Br
ENDROOT
TORSDOF 0
ENDMDL
MODEL 9
REMARK VINA RESULT:      -3.6      8.932     10.036
REMARK  0 active torsions:
REMARK  status: ('A' for Active; 'I' for Inactive)
ROOT
HETATM    1  C1  UNL     1     -40.708   4.767  -0.945  1.00 20.00    -0.011 A 
HETATM    2  C2  UNL     1     -41.688   4.606  -1.847  1.00 20.00    -0.011 A 
HETATM    3  C3  UNL     1     -40.774   6.167  -0.384  1.00 20.00     0.033 A 
HETATM    4  C4  UNL     1     -41.963   7.071  -2.565  1.00 20.00     0.016 A 
HETATM    5  C5  UNL     1     -42.540   5.790  -2.031  1.00 20.00     0.030 A 
HETATM    6  C6  UNL     1     -41.953   6.819  -1.081  1.00 20.00    -0.002 A 
HETATM    7 BR7  UNL     1     -42.033   3.097  -2.842  1.00 20.00    -0.056 Br
ENDROOT
TORSDOF 0
ENDMDL
