MODEL 1
REMARK VINA RESULT:      -5.5      0.000      0.000
REMARK  0 active torsions:
REMARK  status: ('A' for Active; 'I' for Inactive)
ROOT
HETATM    1  C1  UNL     1     -33.290   6.222   3.754  1.00 20.00     0.041 A 
HETATM    2  C2  UNL     1     -34.066   6.023   4.836  1.00 20.00     0.101 A 
HETATM    3  C3  UNL     1     -34.118   5.317   2.872  1.00 20.00     0.138 A 
HETATM    4  C4  UNL     1     -35.016   5.080   4.110  1.00 20.00     0.287 A 
HETATM    5  F5  UNL     1     -35.071   3.792   4.529  1.00 20.00    -0.199 F 
HETATM    6  F6  UNL     1     -36.303   5.475   3.957  1.00 20.00    -0.199 F 
HETATM    7 CL7  UNL     1     -31.843   7.183   3.463  1.00 20.00    -0.087 Cl
HETATM    8 CL8  UNL     1     -34.014   6.624   6.493  1.00 20.00    -0.081 Cl
ENDROOT
TORSDOF 0
ENDMDL
MODEL 2
REMARK VINA RESULT:      -5.2      1.060      2.562
REMARK  0 active torsions:
REMARK  status: ('A' for Active; 'I' for Inactive)
ROOT
HETATM    1  C1  UNL     1     -34.026   6.204   5.907  1.00 20.00     0.041 A 
HETATM    2  C2  UNL     1     -33.977   5.890   4.599  1.00 20.00     0.101 A 
HETATM    3  C3  UNL     1     -35.136   5.223   6.203  1.00 20.00     0.138 A 
HETATM    4  C4  UNL     1     -35.089   4.855   4.700  1.00 20.00     0.287 A 
HETATM    5  F5  UNL     1     -36.240   5.094   4.025  1.00 20.00    -0.199 F 
HETATM    6  F6  UNL     1     -34.774   3.561   4.446  1.00 20.00    -0.199 F 
HETATM    7 CL7  UNL     1     -33.129   7.338   6.913  1.00 20.00    -0.087 Cl
HETATM    8 CL8  UNL     1     -32.994   6.460   3.251  1.00 20.00    -0.081 Cl
ENDROOT
TORSDOF 0
ENDMDL
MODEL 3
REMARK VINA RESULT:      -4.6      1.679      2.096
REMARK  0 active torsions:
REMARK  status: ('A' for Active; 'I' for Inactive)
ROOT
HETATM    1  C1  UNL     1     -33.926   6.412   5.302  1.00 20.00     0.041 A 
HETATM    2  C2  UNL     1     -34.597   5.270   5.059  1.00 20.00     0.101 A 
HETATM    3  C3  UNL     1     -33.986   6.869   3.863  1.00 20.00     0.138 A 
HETATM    4  C4  UNL     1     -34.757   5.559   3.573  1.00 20.00     0.287 A 
HETATM    5  F5  UNL     1     -34.144   4.726   2.697  1.00 20.00    -0.199 F 
HETATM    6  F6  UNL     1     -36.013   5.738   3.095  1.00 20.00    -0.199 F 
HETATM    7 CL7  UNL     1     -33.232   7.121   6.757  1.00 20.00    -0.087 Cl
HETATM    8 CL8  UNL     1     -35.108   3.924   6.076  1.00 20.00    -0.081 Cl
ENDROOT
TORSDOF 0
ENDMDL
MODEL 4
REMARK VINA RESULT:      -4.5      2.480      3.166
REMARK  0 active torsions:
REMARK  status: ('A' for Active; 'I' for Inactive)
ROOT
HETATM    1  C1  UNL     1     -34.345   5.252   4.402  1.00 20.00     0.041 A 
HETATM    2  C2  UNL     1     -33.631   6.283   4.890  1.00 20.00     0.101 A 
HETATM    3  C3  UNL     1     -33.804   5.413   3.001  1.00 20.00     0.138 A 
HETATM    4  C4  UNL     1     -32.979   6.601   3.552  1.00 20.00     0.287 A 
HETATM    5  F5  UNL     1     -33.260   7.797   2.979  1.00 20.00    -0.199 F 
HETATM    6  F6  UNL     1     -31.636   6.450   3.452  1.00 20.00    -0.199 F 
HETATM    7 CL7  UNL     1     -35.490   4.124   5.122  1.00 20.00    -0.087 Cl
HETATM    8 CL8  UNL     1     -33.493   7.012   6.490  1.00 20.00    -0.081 Cl
ENDROOT
TORSDOF 0
ENDMDL
MODEL 5
REMARK VINA RESULT:      -4.1     12.464     12.915
REMARK  0 active torsions:
REMARK  status: ('A' for Active; 'I' for Inactive)
ROOT
HETATM    1  C1  UNL     1     -34.763  14.255  -5.834  1.00 20.00     0.041 A 
HETATM    2  C2  UNL     1     -33.987  15.083  -5.110  1.00 20.00     0.101 A 
HETATM    3  C3  UNL     1     -34.780  13.182  -4.772  1.00 20.00     0.138 A 
HETATM    4  C4  UNL     1     -33.887  14.125  -3.931  1.00 20.00     0.287 A 
HETATM    5  F5  UNL     1     -32.666  13.622  -3.625  1.00 20.00    -0.199 F 
HETATM    6  F6  UNL     1     -34.432  14.514  -2.752  1.00 20.00    -0.199 F 
HETATM    7 CL7  UNL     1     -35.494  14.372  -7.432  1.00 20.00    -0.087 Cl
HETATM    8 CL8  UNL     1     -33.321  16.688  -5.404  1.00 20.00    -0.081 Cl
ENDROOT
TORSDOF 0
ENDMDL
MODEL 6
REMARK VINA RESULT:      -3.9     11.917     12.380
REMARK  0 active torsions:
REMARK  status: ('A' for Active; 'I' for Inactive)
ROOT
HETATM    1  C1  UNL     1     -34.459  15.269  -2.946  1.00 20.00     0.041 A 
HETATM    2  C2  UNL     1     -35.317  14.689  -3.805  1.00 20.00     0.101 A 
HETATM    3  C3  UNL     1     -33.237  14.835  -3.719  1.00 20.00     0.138 A 
HETATM    4  C4  UNL     1     -34.214  14.164  -4.713  1.00 20.00     0.287 A 
HETATM    5  F5  UNL     1     -34.072  12.820  -4.824  1.00 20.00    -0.199 F 
HETATM    6  F6  UNL     1     -34.153  14.647  -5.978  1.00 20.00    -0.199 F 
HETATM    7 CL7  UNL     1     -34.674  16.196  -1.463  1.00 20.00    -0.087 Cl
HETATM    8 CL8  UNL     1     -37.075  14.570  -3.870  1.00 20.00    -0.081 Cl
ENDROOT
TORSDOF 0
ENDMDL
MODEL 7
REMARK VINA RESULT:      -3.9      2.102      2.538
REMARK  0 active torsions:
REMARK  status: ('A' for Active; 'I' for Inactive)
ROOT
HETATM    1  C1  UNL     1     -34.654   5.336   3.733  1.00 20.00     0.041 A 
HETATM    2  C2  UNL     1     -33.741   5.895   4.548  1.00 20.00     0.101 A 
HETATM    3  C3  UNL     1     -35.406   4.677   4.864  1.00 20.00     0.138 A 
HETATM    4  C4  UNL     1     -34.361   5.313   5.811  1.00 20.00     0.287 A 
HETATM    5  F5  UNL     1     -33.629   4.422   6.524  1.00 20.00    -0.199 F 
HETATM    6  F6  UNL     1     -34.876   6.178   6.719  1.00 20.00    -0.199 F 
HETATM    7 CL7  UNL     1     -34.893   5.360   1.987  1.00 20.00    -0.087 Cl
HETATM    8 CL8  UNL     1     -32.335   6.923   4.272  1.00 20.00    -0.081 Cl
ENDROOT
TORSDOF 0
ENDMDL
MODEL 8
REMARK VINA RESULT:      -3.9     12.047     12.566
REMARK  0 active torsions:
REMARK  status: ('A' for Active; 'I' for Inactive)
ROOT
HETATM    1  C1  UNL     1     -35.369  14.766  -3.865  1.00 20.00     0.041 A 
HETATM    2  C2  UNL     1     -34.462  15.324  -3.042  1.00 20.00     0.101 A 
HETATM    3  C3  UNL     1     -34.331  14.334  -4.875  1.00 20.00     0.138 A 
HETATM    4  C4  UNL     1     -33.281  14.974  -3.936  1.00 20.00     0.287 A 
HETATM    5  F5  UNL     1     -32.580  15.995  -4.487  1.00 20.00    -0.199 F 
HETATM    6  F6  UNL     1     -32.356  14.110  -3.452  1.00 20.00    -0.199 F 
HETATM    7 CL7  UNL     1     -37.121  14.595  -3.798  1.00 20.00    -0.087 Cl
HETATM    8 CL8  UNL     1     -34.582  16.161  -1.494  1.00 20.00    -0.081 Cl
ENDROOT
TORSDOF 0
ENDMDL
MODEL 9
REMARK VINA RESULT:      -3.9      1.337      2.394
REMARK  0 active torsions:
REMARK  status: ('A' for Active; 'I' for Inactive)
ROOT
HETATM    1  C1  UNL     1     -33.347   6.233   4.048  1.00 20.00     0.041 A 
HETATM    2  C2  UNL     1     -34.067   5.374   3.303  1.00 20.00     0.101 A 
HETATM    3  C3  UNL     1     -34.191   6.024   5.283  1.00 20.00     0.138 A 
HETATM    4  C4  UNL     1     -35.026   5.035   4.435  1.00 20.00     0.287 A 
HETATM    5  F5  UNL     1     -36.329   5.380   4.286  1.00 20.00    -0.199 F 
HETATM    6  F6  UNL     1     -35.032   3.761   4.898  1.00 20.00    -0.199 F 
HETATM    7 CL7  UNL     1     -31.937   7.235   3.714  1.00 20.00    -0.087 Cl
HETATM    8 CL8  UNL     1     -33.955   4.831   1.629  1.00 20.00    -0.081 Cl
ENDROOT
TORSDOF 0
ENDMDL
