MODEL 1
REMARK VINA RESULT:      -5.0      0.000      0.000
REMARK  0 active torsions:
REMARK  status: ('A' for Active; 'I' for Inactive)
ROOT
HETATM    1  C1  UNL     1     -34.063  17.767  -0.677  1.00 20.00     0.003 A 
HETATM    2  C2  UNL     1     -33.622  18.438  -1.751  1.00 20.00     0.034 A 
HETATM    3  C3  UNL     1     -34.549  16.448  -1.007  1.00 20.00     0.018 A 
HETATM    4  C4  UNL     1     -34.556  14.502  -6.056  1.00 20.00     0.014 A 
HETATM    5  C5  UNL     1     -34.091  15.735  -5.811  1.00 20.00     0.118 A 
HETATM    6  C6  UNL     1     -34.426  16.254  -2.311  1.00 20.00     0.042 A 
HETATM    7  C7  UNL     1     -33.837  17.496  -2.844  1.00 20.00     0.091 A 
HETATM    8  C8  UNL     1     -34.581  15.419  -3.496  1.00 20.00     0.158 A 
HETATM    9  C9  UNL     1     -35.084  13.635  -4.932  1.00 20.00     0.180 A 
HETATM   10  N10 UNL     1     -33.641  17.484  -4.127  1.00 20.00    -0.166 NA
HETATM   11  N11 UNL     1     -35.056  14.228  -3.565  1.00 20.00    -0.267 NA
HETATM   12  N12 UNL     1     -34.093  16.219  -4.533  1.00 20.00    -0.226 N 
ENDROOT
TORSDOF 0
ENDMDL
MODEL 2
REMARK VINA RESULT:      -4.9      2.775      3.941
REMARK  0 active torsions:
REMARK  status: ('A' for Active; 'I' for Inactive)
ROOT
HETATM    1  C1  UNL     1     -33.573  13.698  -3.997  1.00 20.00     0.003 A 
HETATM    2  C2  UNL     1     -33.444  14.981  -3.629  1.00 20.00     0.034 A 
HETATM    3  C3  UNL     1     -34.953  13.293  -4.121  1.00 20.00     0.018 A 
HETATM    4  C4  UNL     1     -39.094  16.648  -3.187  1.00 20.00     0.014 A 
HETATM    5  C5  UNL     1     -37.833  17.082  -3.055  1.00 20.00     0.118 A 
HETATM    6  C6  UNL     1     -35.736  14.321  -3.831  1.00 20.00     0.042 A 
HETATM    7  C7  UNL     1     -34.826  15.434  -3.507  1.00 20.00     0.091 A 
HETATM    8  C8  UNL     1     -37.059  14.910  -3.671  1.00 20.00     0.158 A 
HETATM    9  C9  UNL     1     -39.383  15.219  -3.597  1.00 20.00     0.180 A 
HETATM   10  N10 UNL     1     -35.428  16.540  -3.195  1.00 20.00    -0.166 NA
HETATM   11  N11 UNL     1     -38.200  14.345  -3.840  1.00 20.00    -0.267 NA
HETATM   12  N12 UNL     1     -36.793  16.228  -3.292  1.00 20.00    -0.226 N 
ENDROOT
TORSDOF 0
ENDMDL
MODEL 3
REMARK VINA RESULT:      -4.7     12.332     13.944
REMARK  0 active torsions:
REMARK  status: ('A' for Active; 'I' for Inactive)
ROOT
HETATM    1  C1  UNL     1     -41.727   7.570  -0.965  1.00 20.00     0.003 A 
HETATM    2  C2  UNL     1     -40.817   6.676  -0.551  1.00 20.00     0.034 A 
HETATM    3  C3  UNL     1     -42.628   7.028  -1.954  1.00 20.00     0.018 A 
HETATM    4  C4  UNL     1     -42.299   1.931  -3.742  1.00 20.00     0.014 A 
HETATM    5  C5  UNL     1     -41.434   2.379  -2.822  1.00 20.00     0.118 A 
HETATM    6  C6  UNL     1     -42.304   5.765  -2.191  1.00 20.00     0.042 A 
HETATM    7  C7  UNL     1     -41.149   5.482  -1.320  1.00 20.00     0.091 A 
HETATM    8  C8  UNL     1     -42.519   4.503  -2.887  1.00 20.00     0.158 A 
HETATM    9  C9  UNL     1     -43.379   2.837  -4.296  1.00 20.00     0.180 A 
HETATM   10  N10 UNL     1     -40.692   4.271  -1.421  1.00 20.00    -0.166 NA
HETATM   11  N11 UNL     1     -43.417   4.229  -3.764  1.00 20.00    -0.267 NA
HETATM   12  N12 UNL     1     -41.524   3.667  -2.376  1.00 20.00    -0.226 N 
ENDROOT
TORSDOF 0
ENDMDL
MODEL 4
REMARK VINA RESULT:      -4.7      1.104      4.056
REMARK  0 active torsions:
REMARK  status: ('A' for Active; 'I' for Inactive)
ROOT
HETATM    1  C1  UNL     1     -34.785  13.609  -5.204  1.00 20.00     0.003 A 
HETATM    2  C2  UNL     1     -34.352  14.698  -5.855  1.00 20.00     0.034 A 
HETATM    3  C3  UNL     1     -34.926  13.831  -3.784  1.00 20.00     0.018 A 
HETATM    4  C4  UNL     1     -33.807  18.573  -1.431  1.00 20.00     0.014 A 
HETATM    5  C5  UNL     1     -33.656  18.427  -2.754  1.00 20.00     0.118 A 
HETATM    6  C6  UNL     1     -34.581  15.078  -3.503  1.00 20.00     0.042 A 
HETATM    7  C7  UNL     1     -34.202  15.685  -4.792  1.00 20.00     0.091 A 
HETATM    8  C8  UNL     1     -34.387  16.164  -2.550  1.00 20.00     0.158 A 
HETATM    9  C9  UNL     1     -34.291  17.422  -0.573  1.00 20.00     0.180 A 
HETATM   10  N10 UNL     1     -33.831  16.926  -4.707  1.00 20.00    -0.166 NA
HETATM   11  N11 UNL     1     -34.582  16.142  -1.280  1.00 20.00    -0.267 NA
HETATM   12  N12 UNL     1     -33.941  17.226  -3.340  1.00 20.00    -0.226 N 
ENDROOT
TORSDOF 0
ENDMDL
MODEL 5
REMARK VINA RESULT:      -4.7      2.343      3.852
REMARK  0 active torsions:
REMARK  status: ('A' for Active; 'I' for Inactive)
ROOT
HETATM    1  C1  UNL     1     -34.420  18.496  -7.827  1.00 20.00     0.003 A 
HETATM    2  C2  UNL     1     -33.716  18.840  -6.739  1.00 20.00     0.034 A 
HETATM    3  C3  UNL     1     -34.844  17.116  -7.800  1.00 20.00     0.018 A 
HETATM    4  C4  UNL     1     -33.673  13.767  -3.713  1.00 20.00     0.014 A 
HETATM    5  C5  UNL     1     -33.252  15.039  -3.683  1.00 20.00     0.118 A 
HETATM    6  C6  UNL     1     -34.412  16.550  -6.683  1.00 20.00     0.042 A 
HETATM    7  C7  UNL     1     -33.681  17.607  -5.961  1.00 20.00     0.091 A 
HETATM    8  C8  UNL     1     -34.296  15.397  -5.799  1.00 20.00     0.158 A 
HETATM    9  C9  UNL     1     -34.480  13.246  -4.885  1.00 20.00     0.180 A 
HETATM   10  N10 UNL     1     -33.180  17.227  -4.825  1.00 20.00    -0.166 NA
HETATM   11  N11 UNL     1     -34.770  14.216  -5.978  1.00 20.00    -0.267 NA
HETATM   12  N12 UNL     1     -33.552  15.878  -4.719  1.00 20.00    -0.226 N 
ENDROOT
TORSDOF 0
ENDMDL
MODEL 6
REMARK VINA RESULT:      -4.7      0.932      4.564
REMARK  0 active torsions:
REMARK  status: ('A' for Active; 'I' for Inactive)
ROOT
HETATM    1  C1  UNL     1     -34.508  14.869  -6.836  1.00 20.00     0.003 A 
HETATM    2  C2  UNL     1     -34.940  14.057  -5.860  1.00 20.00     0.034 A 
HETATM    3  C3  UNL     1     -34.064  16.149  -6.337  1.00 20.00     0.018 A 
HETATM    4  C4  UNL     1     -34.162  17.447  -1.085  1.00 20.00     0.014 A 
HETATM    5  C5  UNL     1     -34.588  16.242  -1.489  1.00 20.00     0.118 A 
HETATM    6  C6  UNL     1     -34.206  16.176  -5.021  1.00 20.00     0.042 A 
HETATM    7  C7  UNL     1     -34.764  14.861  -4.656  1.00 20.00     0.091 A 
HETATM    8  C8  UNL     1     -34.086  16.859  -3.739  1.00 20.00     0.158 A 
HETATM    9  C9  UNL     1     -33.648  18.462  -2.085  1.00 20.00     0.180 A 
HETATM   10  N10 UNL     1     -34.972  14.706  -3.384  1.00 20.00    -0.166 NA
HETATM   11  N11 UNL     1     -33.647  18.045  -3.516  1.00 20.00    -0.267 NA
HETATM   12  N12 UNL     1     -34.560  15.922  -2.817  1.00 20.00    -0.226 N 
ENDROOT
TORSDOF 0
ENDMDL
MODEL 7
REMARK VINA RESULT:      -4.7      1.487      1.567
REMARK  0 active torsions:
REMARK  status: ('A' for Active; 'I' for Inactive)
ROOT
HETATM    1  C1  UNL     1     -35.293  17.722  -0.552  1.00 20.00     0.003 A 
HETATM    2  C2  UNL     1     -36.089  18.152  -1.542  1.00 20.00     0.034 A 
HETATM    3  C3  UNL     1     -34.595  16.504  -0.891  1.00 20.00     0.018 A 
HETATM    4  C4  UNL     1     -35.184  14.014  -5.659  1.00 20.00     0.014 A 
HETATM    5  C5  UNL     1     -35.859  15.142  -5.401  1.00 20.00     0.118 A 
HETATM    6  C6  UNL     1     -34.937  16.133  -2.115  1.00 20.00     0.042 A 
HETATM    7  C7  UNL     1     -35.894  17.151  -2.585  1.00 20.00     0.091 A 
HETATM    8  C8  UNL     1     -34.842  15.215  -3.243  1.00 20.00     0.158 A 
HETATM    9  C9  UNL     1     -34.248  13.417  -4.627  1.00 20.00     0.180 A 
HETATM   10  N10 UNL     1     -36.343  16.946  -3.786  1.00 20.00    -0.166 NA
HETATM   11  N11 UNL     1     -34.130  14.150  -3.335  1.00 20.00    -0.267 NA
HETATM   12  N12 UNL     1     -35.704  15.765  -4.195  1.00 20.00    -0.226 N 
ENDROOT
TORSDOF 0
ENDMDL
MODEL 8
REMARK VINA RESULT:      -4.7      0.921      2.144
REMARK  0 active torsions:
REMARK  status: ('A' for Active; 'I' for Inactive)
ROOT
HETATM    1  C1  UNL     1     -34.023  17.767  -1.027  1.00 20.00     0.003 A 
HETATM    2  C2  UNL     1     -34.593  16.562  -0.884  1.00 20.00     0.034 A 
HETATM    3  C3  UNL     1     -33.696  18.066  -2.402  1.00 20.00     0.018 A 
HETATM    4  C4  UNL     1     -34.700  14.642  -6.469  1.00 20.00     0.014 A 
HETATM    5  C5  UNL     1     -35.026  14.309  -5.213  1.00 20.00     0.118 A 
HETATM    6  C6  UNL     1     -34.056  17.047  -3.166  1.00 20.00     0.042 A 
HETATM    7  C7  UNL     1     -34.638  16.050  -2.249  1.00 20.00     0.091 A 
HETATM    8  C8  UNL     1     -34.167  16.409  -4.472  1.00 20.00     0.158 A 
HETATM    9  C9  UNL     1     -34.048  15.976  -6.773  1.00 20.00     0.180 A 
HETATM   10  N10 UNL     1     -35.053  14.968  -2.833  1.00 20.00    -0.166 NA
HETATM   11  N11 UNL     1     -33.798  16.874  -5.610  1.00 20.00    -0.267 NA
HETATM   12  N12 UNL     1     -34.768  15.179  -4.192  1.00 20.00    -0.226 N 
ENDROOT
TORSDOF 0
ENDMDL
MODEL 9
REMARK VINA RESULT:      -4.6      2.572      3.995
REMARK  0 active torsions:
REMARK  status: ('A' for Active; 'I' for Inactive)
ROOT
HETATM    1  C1  UNL     1     -32.847  14.675  -3.484  1.00 20.00     0.003 A 
HETATM    2  C2  UNL     1     -33.584  13.649  -3.933  1.00 20.00     0.034 A 
HETATM    3  C3  UNL     1     -33.652  15.815  -3.111  1.00 20.00     0.018 A 
HETATM    4  C4  UNL     1     -39.048  15.852  -3.511  1.00 20.00     0.014 A 
HETATM    5  C5  UNL     1     -38.354  14.764  -3.873  1.00 20.00     0.118 A 
HETATM    6  C6  UNL     1     -34.929  15.531  -3.318  1.00 20.00     0.042 A 
HETATM    7  C7  UNL     1     -34.949  14.155  -3.846  1.00 20.00     0.091 A 
HETATM    8  C8  UNL     1     -36.339  15.900  -3.285  1.00 20.00     0.158 A 
HETATM    9  C9  UNL     1     -38.340  17.084  -2.986  1.00 20.00     0.180 A 
HETATM   10  N10 UNL     1     -36.137  13.703  -4.109  1.00 20.00    -0.166 NA
HETATM   11  N11 UNL     1     -36.854  17.011  -2.900  1.00 20.00    -0.267 NA
HETATM   12  N12 UNL     1     -36.992  14.764  -3.769  1.00 20.00    -0.226 N 
ENDROOT
TORSDOF 0
ENDMDL
