MODEL 1
REMARK VINA RESULT:      -4.7      0.000      0.000
REMARK  0 active torsions:
REMARK  status: ('A' for Active; 'I' for Inactive)
ROOT
HETATM    1  C1  UNL     1     -32.218   6.672   2.860  1.00 20.00     0.014 C 
HETATM    2  C2  UNL     1     -33.105   6.227   3.536  1.00 20.00    -0.091 C 
HETATM    3  C3  UNL     1     -34.878   3.939   5.891  1.00 20.00     0.003 C 
HETATM    4  C4  UNL     1     -35.014   5.287   6.601  1.00 20.00     0.003 C 
HETATM    5  C5  UNL     1     -34.014   4.196   4.656  1.00 20.00     0.039 C 
HETATM    6  C6  UNL     1     -34.222   6.289   5.762  1.00 20.00     0.039 C 
HETATM    7  C7  UNL     1     -34.186   5.684   4.360  1.00 20.00     0.099 C 
HETATM    8 CL8  UNL     1     -35.729   5.982   3.503  1.00 20.00    -0.105 Cl
ENDROOT
TORSDOF 0
ENDMDL
MODEL 2
REMARK VINA RESULT:      -4.2     12.108     13.094
REMARK  0 active torsions:
REMARK  status: ('A' for Active; 'I' for Inactive)
ROOT
HETATM    1  C1  UNL     1     -34.665  16.394  -1.376  1.00 20.00     0.014 C 
HETATM    2  C2  UNL     1     -34.393  15.801  -2.384  1.00 20.00    -0.091 C 
HETATM    3  C3  UNL     1     -34.811  13.501  -5.293  1.00 20.00     0.003 C 
HETATM    4  C4  UNL     1     -34.484  14.825  -5.985  1.00 20.00     0.003 C 
HETATM    5  C5  UNL     1     -34.900  13.813  -3.799  1.00 20.00     0.039 C 
HETATM    6  C6  UNL     1     -34.395  15.871  -4.875  1.00 20.00     0.039 C 
HETATM    7  C7  UNL     1     -34.063  15.078  -3.613  1.00 20.00     0.099 C 
HETATM    8 CL8  UNL     1     -32.319  14.677  -3.559  1.00 20.00    -0.105 Cl
ENDROOT
TORSDOF 0
ENDMDL
MODEL 3
REMARK VINA RESULT:      -4.1     11.845     12.974
REMARK  0 active torsions:
REMARK  status: ('A' for Active; 'I' for Inactive)
ROOT
HETATM    1  C1  UNL     1     -34.490  16.513  -1.244  1.00 20.00     0.014 C 
HETATM    2  C2  UNL     1     -34.761  15.891  -2.235  1.00 20.00    -0.091 C 
HETATM    3  C3  UNL     1     -34.549  14.698  -5.764  1.00 20.00     0.003 C 
HETATM    4  C4  UNL     1     -34.414  13.390  -4.982  1.00 20.00     0.003 C 
HETATM    5  C5  UNL     1     -34.597  15.813  -4.720  1.00 20.00     0.039 C 
HETATM    6  C6  UNL     1     -34.383  13.782  -3.505  1.00 20.00     0.039 C 
HETATM    7  C7  UNL     1     -35.089  15.135  -3.443  1.00 20.00     0.099 C 
HETATM    8 CL8  UNL     1     -36.866  14.921  -3.488  1.00 20.00    -0.105 Cl
ENDROOT
TORSDOF 0
ENDMDL
MODEL 4
REMARK VINA RESULT:      -4.1      9.730     10.283
REMARK  0 active torsions:
REMARK  status: ('A' for Active; 'I' for Inactive)
ROOT
HETATM    1  C1  UNL     1     -41.576   2.345  -3.389  1.00 20.00     0.014 C 
HETATM    2  C2  UNL     1     -41.733   3.273  -2.644  1.00 20.00    -0.091 C 
HETATM    3  C3  UNL     1     -40.863   6.174  -0.464  1.00 20.00     0.003 C 
HETATM    4  C4  UNL     1     -41.835   6.810  -1.459  1.00 20.00     0.003 C 
HETATM    5  C5  UNL     1     -40.670   4.729  -0.924  1.00 20.00     0.039 C 
HETATM    6  C6  UNL     1     -42.176   5.719  -2.473  1.00 20.00     0.039 C 
HETATM    7  C7  UNL     1     -41.922   4.405  -1.737  1.00 20.00     0.099 C 
HETATM    8 CL8  UNL     1     -43.292   4.014  -0.653  1.00 20.00    -0.105 Cl
ENDROOT
TORSDOF 0
ENDMDL
MODEL 5
REMARK VINA RESULT:      -4.0     12.440     13.298
REMARK  0 active torsions:
REMARK  status: ('A' for Active; 'I' for Inactive)
ROOT
HETATM    1  C1  UNL     1     -34.660  14.763  -6.946  1.00 20.00     0.014 C 
HETATM    2  C2  UNL     1     -34.444  14.870  -5.770  1.00 20.00    -0.091 C 
HETATM    3  C3  UNL     1     -33.670  16.502  -2.504  1.00 20.00     0.003 C 
HETATM    4  C4  UNL     1     -34.993  15.797  -2.197  1.00 20.00     0.003 C 
HETATM    5  C5  UNL     1     -33.400  16.267  -3.991  1.00 20.00     0.039 C 
HETATM    6  C6  UNL     1     -35.457  15.176  -3.514  1.00 20.00     0.039 C 
HETATM    7  C7  UNL     1     -34.182  15.001  -4.336  1.00 20.00     0.099 C 
HETATM    8 CL8  UNL     1     -33.285  13.544  -3.809  1.00 20.00    -0.105 Cl
ENDROOT
TORSDOF 0
ENDMDL
MODEL 6
REMARK VINA RESULT:      -3.9      1.804      2.476
REMARK  0 active torsions:
REMARK  status: ('A' for Active; 'I' for Inactive)
ROOT
HETATM    1  C1  UNL     1     -32.185   8.388   2.018  1.00 20.00     0.014 C 
HETATM    2  C2  UNL     1     -32.586   7.453   2.655  1.00 20.00    -0.091 C 
HETATM    3  C3  UNL     1     -34.324   5.581   5.375  1.00 20.00     0.003 C 
HETATM    4  C4  UNL     1     -35.002   5.018   4.125  1.00 20.00     0.003 C 
HETATM    5  C5  UNL     1     -33.374   6.674   4.887  1.00 20.00     0.039 C 
HETATM    6  C6  UNL     1     -34.430   5.802   2.944  1.00 20.00     0.039 C 
HETATM    7  C7  UNL     1     -33.076   6.314   3.433  1.00 20.00     0.099 C 
HETATM    8 CL8  UNL     1     -31.843   5.020   3.344  1.00 20.00    -0.105 Cl
ENDROOT
TORSDOF 0
ENDMDL
MODEL 7
REMARK VINA RESULT:      -3.8     11.858     13.314
REMARK  0 active torsions:
REMARK  status: ('A' for Active; 'I' for Inactive)
ROOT
HETATM    1  C1  UNL     1     -33.667  18.408  -4.484  1.00 20.00     0.014 C 
HETATM    2  C2  UNL     1     -33.846  17.296  -4.069  1.00 20.00    -0.091 C 
HETATM    3  C3  UNL     1     -34.880  13.711  -4.050  1.00 20.00     0.003 C 
HETATM    4  C4  UNL     1     -33.401  13.612  -3.672  1.00 20.00     0.003 C 
HETATM    5  C5  UNL     1     -35.148  15.188  -4.337  1.00 20.00     0.039 C 
HETATM    6  C6  UNL     1     -32.848  15.035  -3.754  1.00 20.00     0.039 C 
HETATM    7  C7  UNL     1     -34.064  15.940  -3.566  1.00 20.00     0.099 C 
HETATM    8 CL8  UNL     1     -34.495  16.064  -1.833  1.00 20.00    -0.105 Cl
ENDROOT
TORSDOF 0
ENDMDL
MODEL 8
REMARK VINA RESULT:      -3.7     11.880     13.477
REMARK  0 active torsions:
REMARK  status: ('A' for Active; 'I' for Inactive)
ROOT
HETATM    1  C1  UNL     1     -35.805  14.380  -7.918  1.00 20.00     0.014 C 
HETATM    2  C2  UNL     1     -35.463  14.440  -6.769  1.00 20.00    -0.091 C 
HETATM    3  C3  UNL     1     -33.623  13.596  -3.634  1.00 20.00     0.003 C 
HETATM    4  C4  UNL     1     -33.276  15.075  -3.813  1.00 20.00     0.003 C 
HETATM    5  C5  UNL     1     -34.446  13.202  -4.861  1.00 20.00     0.039 C 
HETATM    6  C6  UNL     1     -33.902  15.499  -5.141  1.00 20.00     0.039 C 
HETATM    7  C7  UNL     1     -35.046  14.512  -5.368  1.00 20.00     0.099 C 
HETATM    8 CL8  UNL     1     -36.476  14.968  -4.394  1.00 20.00    -0.105 Cl
ENDROOT
TORSDOF 0
ENDMDL
MODEL 9
REMARK VINA RESULT:      -3.7     12.001     13.137
REMARK  0 active torsions:
REMARK  status: ('A' for Active; 'I' for Inactive)
ROOT
HETATM    1  C1  UNL     1     -37.747  14.800  -3.784  1.00 20.00     0.014 C 
HETATM    2  C2  UNL     1     -36.582  15.028  -3.607  1.00 20.00    -0.091 C 
HETATM    3  C3  UNL     1     -32.881  14.574  -3.763  1.00 20.00     0.003 C 
HETATM    4  C4  UNL     1     -33.054  15.957  -4.393  1.00 20.00     0.003 C 
HETATM    5  C5  UNL     1     -34.292  14.052  -3.491  1.00 20.00     0.039 C 
HETATM    6  C6  UNL     1     -34.561  16.199  -4.474  1.00 20.00     0.039 C 
HETATM    7  C7  UNL     1     -35.161  15.304  -3.391  1.00 20.00     0.099 C 
HETATM    8 CL8  UNL     1     -34.990  16.063  -1.779  1.00 20.00    -0.105 Cl
ENDROOT
TORSDOF 0
ENDMDL
