MODEL 1
REMARK VINA RESULT:      -4.7      0.000      0.000
REMARK  1 active torsions:
REMARK  status: ('A' for Active; 'I' for Inactive)
REMARK    1  A    between atoms: C3_3  and  C8_8 
ROOT
HETATM    1  C1  UNL     1     -32.976  15.663  -3.709  1.00 20.00    -0.025 C 
HETATM    2  C2  UNL     1     -34.067  15.623  -2.929  1.00 20.00    -0.024 C 
HETATM    3  C4  UNL     1     -34.512  17.114  -4.622  1.00 20.00     0.018 C 
HETATM    4  C5  UNL     1     -33.419  16.140  -5.072  1.00 20.00     0.013 C 
HETATM    5  C6  UNL     1     -35.243  16.062  -3.777  1.00 20.00     0.024 C 
HETATM    6  C7  UNL     1     -34.244  14.994  -5.732  1.00 20.00     0.004 C 
HETATM    7  C8  UNL     1     -35.555  14.968  -4.848  1.00 20.00     0.020 C 
HETATM    8  C9  UNL     1     -34.450  15.240  -7.224  1.00 20.00     0.012 C 
HETATM    9  C10 UNL     1     -36.865  15.268  -5.587  1.00 20.00     0.024 C 
ENDROOT
BRANCH   7  10
HETATM   10  C3  UNL     1     -35.739  13.613  -4.210  1.00 20.00     0.241 C 
HETATM   11  O11 UNL     1     -35.041  12.640  -4.476  1.00 20.00    -0.306 OA
ENDBRANCH   7  10
TORSDOF 1
ENDMDL
MODEL 2
REMARK VINA RESULT:      -4.7      1.587      2.130
REMARK  1 active torsions:
REMARK  status: ('A' for Active; 'I' for Inactive)
REMARK    1  A    between atoms: C3_3  and  C8_8 
ROOT
HETATM    1  C1  UNL     1     -34.501  16.103  -1.888  1.00 20.00    -0.025 C 
HETATM    2  C2  UNL     1     -35.412  16.947  -2.394  1.00 20.00    -0.024 C 
HETATM    3  C4  UNL     1     -33.897  16.520  -4.070  1.00 20.00     0.018 C 
HETATM    4  C5  UNL     1     -33.872  15.375  -3.053  1.00 20.00     0.013 C 
HETATM    5  C6  UNL     1     -35.401  16.774  -3.899  1.00 20.00     0.024 C 
HETATM    6  C7  UNL     1     -34.936  14.392  -3.630  1.00 20.00     0.004 C 
HETATM    7  C8  UNL     1     -35.995  15.377  -4.270  1.00 20.00     0.020 C 
HETATM    8  C9  UNL     1     -34.305  13.380  -4.582  1.00 20.00     0.012 C 
HETATM    9  C10 UNL     1     -36.201  15.244  -5.783  1.00 20.00     0.024 C 
ENDROOT
BRANCH   7  10
HETATM   10  C3  UNL     1     -37.353  15.175  -3.646  1.00 20.00     0.241 C 
HETATM   11  O11 UNL     1     -37.997  14.136  -3.750  1.00 20.00    -0.306 OA
ENDBRANCH   7  10
TORSDOF 1
ENDMDL
MODEL 3
REMARK VINA RESULT:      -4.7      1.539      2.260
REMARK  1 active torsions:
REMARK  status: ('A' for Active; 'I' for Inactive)
REMARK    1  A    between atoms: C3_3  and  C8_8 
ROOT
HETATM    1  C1  UNL     1     -33.302  13.801  -3.745  1.00 20.00    -0.025 C 
HETATM    2  C2  UNL     1     -34.545  13.356  -3.974  1.00 20.00    -0.024 C 
HETATM    3  C4  UNL     1     -34.750  15.379  -2.902  1.00 20.00     0.018 C 
HETATM    4  C5  UNL     1     -33.386  15.302  -3.594  1.00 20.00     0.013 C 
HETATM    5  C6  UNL     1     -35.461  14.563  -3.989  1.00 20.00     0.024 C 
HETATM    6  C7  UNL     1     -33.689  15.905  -4.999  1.00 20.00     0.004 C 
HETATM    7  C8  UNL     1     -35.173  15.423  -5.261  1.00 20.00     0.020 C 
HETATM    8  C9  UNL     1     -33.463  17.414  -5.022  1.00 20.00     0.012 C 
HETATM    9  C10 UNL     1     -36.216  16.535  -5.430  1.00 20.00     0.024 C 
ENDROOT
BRANCH   7  10
HETATM   10  C3  UNL     1     -35.247  14.590  -6.516  1.00 20.00     0.241 C 
HETATM   11  O11 UNL     1     -34.478  14.723  -7.462  1.00 20.00    -0.306 OA
ENDBRANCH   7  10
TORSDOF 1
ENDMDL
MODEL 4
REMARK VINA RESULT:      -4.7      1.087      2.925
REMARK  1 active torsions:
REMARK  status: ('A' for Active; 'I' for Inactive)
REMARK    1  A    between atoms: C3_3  and  C8_8 
ROOT
HETATM    1  C1  UNL     1     -35.990  16.741  -5.329  1.00 20.00    -0.025 C 
HETATM    2  C2  UNL     1     -35.428  15.786  -6.084  1.00 20.00    -0.024 C 
HETATM    3  C4  UNL     1     -33.713  16.888  -5.021  1.00 20.00     0.018 C 
HETATM    4  C5  UNL     1     -35.010  17.072  -4.228  1.00 20.00     0.013 C 
HETATM    5  C6  UNL     1     -34.076  15.469  -5.479  1.00 20.00     0.024 C 
HETATM    6  C7  UNL     1     -34.974  15.864  -3.243  1.00 20.00     0.004 C 
HETATM    7  C8  UNL     1     -34.271  14.742  -4.110  1.00 20.00     0.020 C 
HETATM    8  C9  UNL     1     -34.280  16.228  -1.934  1.00 20.00     0.012 C 
HETATM    9  C10 UNL     1     -32.939  14.214  -3.565  1.00 20.00     0.024 C 
ENDROOT
BRANCH   7  10
HETATM   10  C3  UNL     1     -35.170  13.539  -4.251  1.00 20.00     0.241 C 
HETATM   11  O11 UNL     1     -34.835  12.510  -4.828  1.00 20.00    -0.306 OA
ENDBRANCH   7  10
TORSDOF 1
ENDMDL
MODEL 5
REMARK VINA RESULT:      -4.6      1.986      3.142
REMARK  1 active torsions:
REMARK  status: ('A' for Active; 'I' for Inactive)
REMARK    1  A    between atoms: C3_3  and  C8_8 
ROOT
HETATM    1  C1  UNL     1     -33.339  13.675  -3.716  1.00 20.00    -0.025 C 
HETATM    2  C2  UNL     1     -32.608  14.800  -3.717  1.00 20.00    -0.024 C 
HETATM    3  C4  UNL     1     -34.230  15.058  -5.326  1.00 20.00     0.018 C 
HETATM    4  C5  UNL     1     -34.690  14.020  -4.298  1.00 20.00     0.013 C 
HETATM    5  C6  UNL     1     -33.477  15.901  -4.289  1.00 20.00     0.024 C 
HETATM    6  C7  UNL     1     -35.447  14.897  -3.255  1.00 20.00     0.004 C 
HETATM    7  C8  UNL     1     -34.620  16.245  -3.280  1.00 20.00     0.020 C 
HETATM    8  C9  UNL     1     -36.930  15.016  -3.596  1.00 20.00     0.012 C 
HETATM    9  C10 UNL     1     -35.393  17.494  -3.719  1.00 20.00     0.024 C 
ENDROOT
BRANCH   7  10
HETATM   10  C3  UNL     1     -34.069  16.556  -1.911  1.00 20.00     0.241 C 
HETATM   11  O11 UNL     1     -34.686  16.348  -0.871  1.00 20.00    -0.306 OA
ENDBRANCH   7  10
TORSDOF 1
ENDMDL
MODEL 6
REMARK VINA RESULT:      -4.6      1.135      1.363
REMARK  1 active torsions:
REMARK  status: ('A' for Active; 'I' for Inactive)
REMARK    1  A    between atoms: C3_3  and  C8_8 
ROOT
HETATM    1  C1  UNL     1     -33.707  16.686  -2.228  1.00 20.00    -0.025 C 
HETATM    2  C2  UNL     1     -34.752  15.926  -1.870  1.00 20.00    -0.024 C 
HETATM    3  C4  UNL     1     -35.493  17.341  -3.524  1.00 20.00     0.018 C 
HETATM    4  C5  UNL     1     -33.974  17.180  -3.631  1.00 20.00     0.013 C 
HETATM    5  C6  UNL     1     -35.714  15.902  -3.041  1.00 20.00     0.024 C 
HETATM    6  C7  UNL     1     -33.834  15.965  -4.598  1.00 20.00     0.004 C 
HETATM    7  C8  UNL     1     -35.089  15.081  -4.215  1.00 20.00     0.020 C 
HETATM    8  C9  UNL     1     -33.753  16.414  -6.054  1.00 20.00     0.012 C 
HETATM    9  C10 UNL     1     -36.109  14.849  -5.337  1.00 20.00     0.024 C 
ENDROOT
BRANCH   7  10
HETATM   10  C3  UNL     1     -34.655  13.711  -3.758  1.00 20.00     0.241 C 
HETATM   11  O11 UNL     1     -34.977  12.675  -4.329  1.00 20.00    -0.306 OA
ENDBRANCH   7  10
TORSDOF 1
ENDMDL
MODEL 7
REMARK VINA RESULT:      -4.5      1.080      2.934
REMARK  1 active torsions:
REMARK  status: ('A' for Active; 'I' for Inactive)
REMARK    1  A    between atoms: C3_3  and  C8_8 
ROOT
HETATM    1  C1  UNL     1     -35.742  15.069  -7.157  1.00 20.00    -0.025 C 
HETATM    2  C2  UNL     1     -34.417  14.995  -6.961  1.00 20.00    -0.024 C 
HETATM    3  C4  UNL     1     -35.161  16.829  -5.791  1.00 20.00     0.018 C 
HETATM    4  C5  UNL     1     -36.320  15.850  -6.000  1.00 20.00     0.013 C 
HETATM    5  C6  UNL     1     -34.112  15.716  -5.664  1.00 20.00     0.024 C 
HETATM    6  C7  UNL     1     -36.233  14.952  -4.729  1.00 20.00     0.004 C 
HETATM    7  C8  UNL     1     -34.675  14.894  -4.461  1.00 20.00     0.020 C 
HETATM    8  C9  UNL     1     -37.086  15.508  -3.591  1.00 20.00     0.012 C 
HETATM    9  C10 UNL     1     -34.206  15.474  -3.121  1.00 20.00     0.024 C 
ENDROOT
BRANCH   7  10
HETATM   10  C3  UNL     1     -34.184  13.469  -4.492  1.00 20.00     0.241 C 
HETATM   11  O11 UNL     1     -34.931  12.497  -4.528  1.00 20.00    -0.306 OA
ENDBRANCH   7  10
TORSDOF 1
ENDMDL
MODEL 8
REMARK VINA RESULT:      -4.5      1.456      2.845
REMARK  1 active torsions:
REMARK  status: ('A' for Active; 'I' for Inactive)
REMARK    1  A    between atoms: C3_3  and  C8_8 
ROOT
HETATM    1  C1  UNL     1     -35.437  17.006  -6.365  1.00 20.00    -0.025 C 
HETATM    2  C2  UNL     1     -36.383  16.071  -6.535  1.00 20.00    -0.024 C 
HETATM    3  C4  UNL     1     -34.355  15.018  -6.782  1.00 20.00     0.018 C 
HETATM    4  C5  UNL     1     -34.172  16.291  -5.951  1.00 20.00     0.013 C 
HETATM    5  C6  UNL     1     -35.753  14.730  -6.220  1.00 20.00     0.024 C 
HETATM    6  C7  UNL     1     -34.376  15.771  -4.495  1.00 20.00     0.004 C 
HETATM    7  C8  UNL     1     -35.459  14.635  -4.689  1.00 20.00     0.020 C 
HETATM    8  C9  UNL     1     -33.055  15.334  -3.866  1.00 20.00     0.012 C 
HETATM    9  C10 UNL     1     -35.021  13.220  -4.292  1.00 20.00     0.024 C 
ENDROOT
BRANCH   7  10
HETATM   10  C3  UNL     1     -36.693  14.932  -3.873  1.00 20.00     0.241 C 
HETATM   11  O11 UNL     1     -37.638  14.157  -3.772  1.00 20.00    -0.306 OA
ENDBRANCH   7  10
TORSDOF 1
ENDMDL
MODEL 9
REMARK VINA RESULT:      -4.5      1.800      3.381
REMARK  1 active torsions:
REMARK  status: ('A' for Active; 'I' for Inactive)
REMARK    1  A    between atoms: C3_3  and  C8_8 
ROOT
HETATM    1  C1  UNL     1     -34.403  13.438  -4.835  1.00 20.00    -0.025 C 
HETATM    2  C2  UNL     1     -34.968  14.087  -5.863  1.00 20.00    -0.024 C 
HETATM    3  C4  UNL     1     -36.403  14.288  -4.078  1.00 20.00     0.018 C 
HETATM    4  C5  UNL     1     -34.986  14.016  -3.567  1.00 20.00     0.013 C 
HETATM    5  C6  UNL     1     -35.922  15.110  -5.280  1.00 20.00     0.024 C 
HETATM    6  C7  UNL     1     -34.412  15.456  -3.393  1.00 20.00     0.004 C 
HETATM    7  C8  UNL     1     -35.108  16.243  -4.575  1.00 20.00     0.020 C 
HETATM    8  C9  UNL     1     -34.669  15.995  -1.988  1.00 20.00     0.012 C 
HETATM    9  C10 UNL     1     -36.018  17.405  -4.158  1.00 20.00     0.024 C 
ENDROOT
BRANCH   7  10
HETATM   10  C3  UNL     1     -34.075  16.835  -5.500  1.00 20.00     0.241 C 
HETATM   11  O11 UNL     1     -32.877  16.873  -5.240  1.00 20.00    -0.306 OA
ENDBRANCH   7  10
TORSDOF 1
ENDMDL
