MODEL 1
REMARK VINA RESULT:      -5.9      0.000      0.000
REMARK  0 active torsions:
REMARK  status: ('A' for Active; 'I' for Inactive)
ROOT
HETATM    1  C1  UNL     1     -34.674   5.264   3.629  1.00 20.00     0.022 A 
HETATM    2  C2  UNL     1     -33.576   6.741   5.345  1.00 20.00     0.022 A 
HETATM    3  C3  UNL     1     -35.057   4.424   4.601  1.00 20.00     0.054 A 
HETATM    4  C4  UNL     1     -33.961   5.898   6.314  1.00 20.00     0.054 A 
HETATM    5  C5  UNL     1     -33.870   6.514   3.883  1.00 20.00     0.135 A 
HETATM    6  C6  UNL     1     -34.730   4.638   6.048  1.00 20.00     0.280 A 
HETATM    7  C7  UNL     1     -32.561   6.458   3.095  1.00 20.00     0.061 C 
HETATM    8  F8  UNL     1     -34.573   7.587   3.408  1.00 20.00    -0.234 F 
HETATM    9  F9  UNL     1     -34.022   3.569   6.516  1.00 20.00    -0.197 F 
HETATM   10  F10 UNL     1     -35.884   4.652   6.775  1.00 20.00    -0.197 F 
ENDROOT
TORSDOF 0
ENDMDL
MODEL 2
REMARK VINA RESULT:      -5.2      1.760      3.778
REMARK  0 active torsions:
REMARK  status: ('A' for Active; 'I' for Inactive)
ROOT
HETATM    1  C1  UNL     1     -34.286   6.211   5.201  1.00 20.00     0.022 A 
HETATM    2  C2  UNL     1     -34.355   4.951   3.024  1.00 20.00     0.022 A 
HETATM    3  C3  UNL     1     -33.247   6.930   4.748  1.00 20.00     0.054 A 
HETATM    4  C4  UNL     1     -33.317   5.671   2.576  1.00 20.00     0.054 A 
HETATM    5  C5  UNL     1     -34.952   5.121   4.399  1.00 20.00     0.135 A 
HETATM    6  C6  UNL     1     -32.638   6.729   3.394  1.00 20.00     0.280 A 
HETATM    7  C7  UNL     1     -34.879   3.799   5.162  1.00 20.00     0.061 C 
HETATM    8  F8  UNL     1     -36.277   5.429   4.264  1.00 20.00    -0.234 F 
HETATM    9  F9  UNL     1     -31.318   6.414   3.533  1.00 20.00    -0.197 F 
HETATM   10  F10 UNL     1     -32.658   7.909   2.711  1.00 20.00    -0.197 F 
ENDROOT
TORSDOF 0
ENDMDL
MODEL 3
REMARK VINA RESULT:      -5.1      1.812      2.778
REMARK  0 active torsions:
REMARK  status: ('A' for Active; 'I' for Inactive)
ROOT
HETATM    1  C1  UNL     1     -33.183   6.678   4.669  1.00 20.00     0.022 A 
HETATM    2  C2  UNL     1     -33.230   5.593   2.399  1.00 20.00     0.022 A 
HETATM    3  C3  UNL     1     -34.326   6.053   4.988  1.00 20.00     0.054 A 
HETATM    4  C4  UNL     1     -34.373   4.971   2.721  1.00 20.00     0.054 A 
HETATM    5  C5  UNL     1     -32.508   6.538   3.327  1.00 20.00     0.135 A 
HETATM    6  C6  UNL     1     -35.057   5.145   4.046  1.00 20.00     0.280 A 
HETATM    7  C7  UNL     1     -32.375   7.910   2.668  1.00 20.00     0.061 C 
HETATM    8  F8  UNL     1     -31.239   6.068   3.526  1.00 20.00    -0.234 F 
HETATM    9  F9  UNL     1     -36.319   5.621   3.844  1.00 20.00    -0.197 F 
HETATM   10  F10 UNL     1     -35.220   3.924   4.632  1.00 20.00    -0.197 F 
ENDROOT
TORSDOF 0
ENDMDL
MODEL 4
REMARK VINA RESULT:      -4.9     12.518     14.003
REMARK  0 active torsions:
REMARK  status: ('A' for Active; 'I' for Inactive)
ROOT
HETATM    1  C1  UNL     1     -33.845  16.163  -5.864  1.00 20.00     0.022 A 
HETATM    2  C2  UNL     1     -34.672  13.829  -5.420  1.00 20.00     0.022 A 
HETATM    3  C3  UNL     1     -33.199  16.155  -4.689  1.00 20.00     0.054 A 
HETATM    4  C4  UNL     1     -34.025  13.824  -4.246  1.00 20.00     0.054 A 
HETATM    5  C5  UNL     1     -34.677  15.007  -6.362  1.00 20.00     0.135 A 
HETATM    6  C6  UNL     1     -33.230  14.993  -3.743  1.00 20.00     0.280 A 
HETATM    7  C7  UNL     1     -36.113  15.469  -6.606  1.00 20.00     0.061 C 
HETATM    8  F8  UNL     1     -34.179  14.602  -7.569  1.00 20.00    -0.234 F 
HETATM    9  F9  UNL     1     -33.734  15.399  -2.542  1.00 20.00    -0.197 F 
HETATM   10  F10 UNL     1     -31.953  14.590  -3.481  1.00 20.00    -0.197 F 
ENDROOT
TORSDOF 0
ENDMDL
MODEL 5
REMARK VINA RESULT:      -4.8      1.211      1.444
REMARK  0 active torsions:
REMARK  status: ('A' for Active; 'I' for Inactive)
ROOT
HETATM    1  C1  UNL     1     -35.286   4.263   4.301  1.00 20.00     0.022 A 
HETATM    2  C2  UNL     1     -34.168   6.517   4.310  1.00 20.00     0.022 A 
HETATM    3  C3  UNL     1     -35.113   4.175   5.628  1.00 20.00     0.054 A 
HETATM    4  C4  UNL     1     -33.997   6.425   5.637  1.00 20.00     0.054 A 
HETATM    5  C5  UNL     1     -34.815   5.437   3.480  1.00 20.00     0.135 A 
HETATM    6  C6  UNL     1     -34.436   5.237   6.441  1.00 20.00     0.280 A 
HETATM    7  C7  UNL     1     -33.842   4.959   2.403  1.00 20.00     0.061 C 
HETATM    8  F8  UNL     1     -35.893   5.974   2.831  1.00 20.00    -0.234 F 
HETATM    9  F9  UNL     1     -33.357   4.700   7.080  1.00 20.00    -0.197 F 
HETATM   10  F10 UNL     1     -35.276   5.650   7.433  1.00 20.00    -0.197 F 
ENDROOT
TORSDOF 0
ENDMDL
MODEL 6
REMARK VINA RESULT:      -4.7     12.772     14.333
REMARK  0 active torsions:
REMARK  status: ('A' for Active; 'I' for Inactive)
ROOT
HETATM    1  C1  UNL     1     -34.155  14.083  -4.257  1.00 20.00     0.022 A 
HETATM    2  C2  UNL     1     -33.229  16.342  -4.867  1.00 20.00     0.022 A 
HETATM    3  C3  UNL     1     -34.757  14.010  -5.453  1.00 20.00     0.054 A 
HETATM    4  C4  UNL     1     -33.832  16.265  -6.062  1.00 20.00     0.054 A 
HETATM    5  C5  UNL     1     -33.334  15.268  -3.813  1.00 20.00     0.135 A 
HETATM    6  C6  UNL     1     -34.677  15.098  -6.481  1.00 20.00     0.280 A 
HETATM    7  C7  UNL     1     -33.925  15.857  -2.532  1.00 20.00     0.061 C 
HETATM    8  F8  UNL     1     -32.074  14.834  -3.506  1.00 20.00    -0.234 F 
HETATM    9  F9  UNL     1     -35.934  15.534  -6.779  1.00 20.00    -0.197 F 
HETATM   10  F10 UNL     1     -34.188  14.583  -7.646  1.00 20.00    -0.197 F 
ENDROOT
TORSDOF 0
ENDMDL
MODEL 7
REMARK VINA RESULT:      -4.7      9.035     10.144
REMARK  0 active torsions:
REMARK  status: ('A' for Active; 'I' for Inactive)
ROOT
HETATM    1  C1  UNL     1     -41.179   7.220  -1.169  1.00 20.00     0.022 A 
HETATM    2  C2  UNL     1     -42.561   5.725  -2.648  1.00 20.00     0.022 A 
HETATM    3  C3  UNL     1     -40.723   6.143  -0.512  1.00 20.00     0.054 A 
HETATM    4  C4  UNL     1     -42.103   4.651  -1.989  1.00 20.00     0.054 A 
HETATM    5  C5  UNL     1     -42.170   7.140  -2.303  1.00 20.00     0.135 A 
HETATM    6  C6  UNL     1     -41.146   4.742  -0.837  1.00 20.00     0.280 A 
HETATM    7  C7  UNL     1     -43.417   7.954  -1.960  1.00 20.00     0.061 C 
HETATM    8  F8  UNL     1     -41.611   7.719  -3.410  1.00 20.00    -0.234 F 
HETATM    9  F9  UNL     1     -41.710   4.171   0.266  1.00 20.00    -0.197 F 
HETATM   10  F10 UNL     1     -40.041   3.989  -1.109  1.00 20.00    -0.197 F 
ENDROOT
TORSDOF 0
ENDMDL
MODEL 8
REMARK VINA RESULT:      -4.6     12.498     13.790
REMARK  0 active torsions:
REMARK  status: ('A' for Active; 'I' for Inactive)
ROOT
HETATM    1  C1  UNL     1     -35.193  14.179  -4.628  1.00 20.00     0.022 A 
HETATM    2  C2  UNL     1     -34.098  16.176  -5.699  1.00 20.00     0.022 A 
HETATM    3  C3  UNL     1     -34.301  14.230  -3.628  1.00 20.00     0.054 A 
HETATM    4  C4  UNL     1     -33.208  16.223  -4.697  1.00 20.00     0.054 A 
HETATM    5  C5  UNL     1     -35.185  15.136  -5.795  1.00 20.00     0.135 A 
HETATM    6  C6  UNL     1     -33.201  15.246  -3.559  1.00 20.00     0.280 A 
HETATM    7  C7  UNL     1     -35.042  14.357  -7.102  1.00 20.00     0.061 C 
HETATM    8  F8  UNL     1     -36.395  15.773  -5.843  1.00 20.00    -0.234 F 
HETATM    9  F9  UNL     1     -31.996  14.607  -3.519  1.00 20.00    -0.197 F 
HETATM   10  F10 UNL     1     -33.288  15.926  -2.380  1.00 20.00    -0.197 F 
ENDROOT
TORSDOF 0
ENDMDL
MODEL 9
REMARK VINA RESULT:      -4.6     12.555     13.181
REMARK  0 active torsions:
REMARK  status: ('A' for Active; 'I' for Inactive)
ROOT
HETATM    1  C1  UNL     1     -35.843  15.248  -3.025  1.00 20.00     0.022 A 
HETATM    2  C2  UNL     1     -33.467  16.070  -2.934  1.00 20.00     0.022 A 
HETATM    3  C3  UNL     1     -35.507  14.394  -4.003  1.00 20.00     0.054 A 
HETATM    4  C4  UNL     1     -33.135  15.215  -3.911  1.00 20.00     0.054 A 
HETATM    5  C5  UNL     1     -34.866  16.203  -2.387  1.00 20.00     0.135 A 
HETATM    6  C6  UNL     1     -34.122  14.293  -4.566  1.00 20.00     0.280 A 
HETATM    7  C7  UNL     1     -35.356  17.640  -2.563  1.00 20.00     0.061 C 
HETATM    8  F8  UNL     1     -34.833  15.957  -1.041  1.00 20.00    -0.234 F 
HETATM    9  F9  UNL     1     -34.157  14.547  -5.905  1.00 20.00    -0.197 F 
HETATM   10  F10 UNL     1     -33.681  13.007  -4.453  1.00 20.00    -0.197 F 
ENDROOT
TORSDOF 0
ENDMDL
