MODEL 1
REMARK VINA RESULT:      -5.4      0.000      0.000
REMARK  0 active torsions:
REMARK  status: ('A' for Active; 'I' for Inactive)
ROOT
HETATM    1  C1  UNL     1     -35.119   3.972   5.191  1.00 20.00     0.001 C 
HETATM    2  C2  UNL     1     -32.430   6.011   2.492  1.00 20.00     0.001 C 
HETATM    3  C3  UNL     1     -35.666   4.941   4.136  1.00 20.00     0.005 C 
HETATM    4  C4  UNL     1     -33.581   5.026   2.627  1.00 20.00     0.005 C 
HETATM    5  C5  UNL     1     -34.045   4.534   6.119  1.00 20.00     0.005 C 
HETATM    6  C6  UNL     1     -32.415   6.698   3.849  1.00 20.00     0.005 C 
HETATM    7  C7  UNL     1     -33.309   6.954   6.770  1.00 20.00     0.010 A 
HETATM    8  C8  UNL     1     -34.661   5.816   3.380  1.00 20.00    -0.010 C 
HETATM    9  C9  UNL     1     -34.377   5.914   6.577  1.00 20.00    -0.010 A 
HETATM   10  C10 UNL     1     -33.898   6.912   4.172  1.00 20.00    -0.006 C 
HETATM   11  C11 UNL     1     -34.279   7.078   5.617  1.00 20.00    -0.006 A 
ENDROOT
TORSDOF 0
ENDMDL
MODEL 2
REMARK VINA RESULT:      -5.1     12.197     13.806
REMARK  0 active torsions:
REMARK  status: ('A' for Active; 'I' for Inactive)
ROOT
HETATM    1  C1  UNL     1     -35.083  13.532  -4.186  1.00 20.00     0.001 C 
HETATM    2  C2  UNL     1     -33.877  17.448  -2.809  1.00 20.00     0.001 C 
HETATM    3  C3  UNL     1     -33.605  13.837  -3.908  1.00 20.00     0.005 C 
HETATM    4  C4  UNL     1     -33.947  15.962  -2.494  1.00 20.00     0.005 C 
HETATM    5  C5  UNL     1     -35.788  14.481  -5.153  1.00 20.00     0.005 C 
HETATM    6  C6  UNL     1     -34.127  17.485  -4.309  1.00 20.00     0.005 C 
HETATM    7  C7  UNL     1     -34.947  16.173  -6.956  1.00 20.00     0.010 A 
HETATM    8  C8  UNL     1     -33.210  15.297  -3.665  1.00 20.00    -0.010 C 
HETATM    9  C9  UNL     1     -34.932  14.806  -6.331  1.00 20.00    -0.010 A 
HETATM   10  C10 UNL     1     -33.322  16.296  -4.848  1.00 20.00    -0.006 C 
HETATM   11  C11 UNL     1     -33.737  15.718  -6.173  1.00 20.00    -0.006 A 
ENDROOT
TORSDOF 0
ENDMDL
MODEL 3
REMARK VINA RESULT:      -5.0     12.099     13.521
REMARK  0 active torsions:
REMARK  status: ('A' for Active; 'I' for Inactive)
ROOT
HETATM    1  C1  UNL     1     -35.111  17.764  -4.974  1.00 20.00     0.001 C 
HETATM    2  C2  UNL     1     -34.426  13.498  -4.879  1.00 20.00     0.001 C 
HETATM    3  C3  UNL     1     -33.724  17.193  -5.294  1.00 20.00     0.005 C 
HETATM    4  C4  UNL     1     -34.442  14.759  -5.730  1.00 20.00     0.005 C 
HETATM    5  C5  UNL     1     -35.715  17.338  -3.638  1.00 20.00     0.005 C 
HETATM    6  C6  UNL     1     -34.431  14.050  -3.461  1.00 20.00     0.005 C 
HETATM    7  C7  UNL     1     -34.714  16.339  -1.442  1.00 20.00     0.010 A 
HETATM    8  C8  UNL     1     -33.478  15.709  -5.004  1.00 20.00    -0.010 C 
HETATM    9  C9  UNL     1     -34.704  17.365  -2.542  1.00 20.00    -0.010 A 
HETATM   10  C10 UNL     1     -33.467  15.240  -3.525  1.00 20.00    -0.006 C 
HETATM   11  C11 UNL     1     -33.618  16.315  -2.483  1.00 20.00    -0.006 A 
ENDROOT
TORSDOF 0
ENDMDL
MODEL 4
REMARK VINA RESULT:      -4.9     12.246     13.542
REMARK  0 active torsions:
REMARK  status: ('A' for Active; 'I' for Inactive)
ROOT
HETATM    1  C1  UNL     1     -33.565  13.629  -3.867  1.00 20.00     0.001 C 
HETATM    2  C2  UNL     1     -34.695  16.014  -7.290  1.00 20.00     0.001 C 
HETATM    3  C3  UNL     1     -35.026  13.676  -4.333  1.00 20.00     0.005 C 
HETATM    4  C4  UNL     1     -34.609  14.618  -6.693  1.00 20.00     0.005 C 
HETATM    5  C5  UNL     1     -32.912  14.980  -3.589  1.00 20.00     0.005 C 
HETATM    6  C6  UNL     1     -34.524  16.910  -6.072  1.00 20.00     0.005 C 
HETATM    7  C7  UNL     1     -33.845  17.374  -3.119  1.00 20.00     0.010 A 
HETATM    8  C8  UNL     1     -35.408  14.722  -5.386  1.00 20.00    -0.010 C 
HETATM    9  C9  UNL     1     -33.827  15.895  -2.848  1.00 20.00    -0.010 A 
HETATM   10  C10 UNL     1     -35.357  16.221  -4.985  1.00 20.00    -0.006 C 
HETATM   11  C11 UNL     1     -35.012  16.517  -3.551  1.00 20.00    -0.006 A 
ENDROOT
TORSDOF 0
ENDMDL
MODEL 5
REMARK VINA RESULT:      -4.8      9.264     10.786
REMARK  0 active torsions:
REMARK  status: ('A' for Active; 'I' for Inactive)
ROOT
HETATM    1  C1  UNL     1     -42.081   4.033  -2.600  1.00 20.00     0.001 C 
HETATM    2  C2  UNL     1     -43.382   5.500   1.252  1.00 20.00     0.001 C 
HETATM    3  C3  UNL     1     -41.056   4.363  -1.508  1.00 20.00     0.005 C 
HETATM    4  C4  UNL     1     -42.675   4.387   0.494  1.00 20.00     0.005 C 
HETATM    5  C5  UNL     1     -43.056   5.153  -2.958  1.00 20.00     0.005 C 
HETATM    6  C6  UNL     1     -43.417   6.629   0.233  1.00 20.00     0.005 C 
HETATM    7  C7  UNL     1     -43.044   7.740  -2.600  1.00 20.00     0.010 A 
HETATM    8  C8  UNL     1     -41.551   5.108  -0.263  1.00 20.00    -0.010 C 
HETATM    9  C9  UNL     1     -42.371   6.474  -3.052  1.00 20.00    -0.010 A 
HETATM   10  C10 UNL     1     -42.034   6.574  -0.427  1.00 20.00    -0.006 C 
HETATM   11  C11 UNL     1     -41.894   7.173  -1.800  1.00 20.00    -0.006 A 
ENDROOT
TORSDOF 0
ENDMDL
MODEL 6
REMARK VINA RESULT:      -4.7     12.258     13.773
REMARK  0 active torsions:
REMARK  status: ('A' for Active; 'I' for Inactive)
ROOT
HETATM    1  C1  UNL     1     -36.303  14.476  -4.354  1.00 20.00     0.001 C 
HETATM    2  C2  UNL     1     -33.923  17.156  -1.941  1.00 20.00     0.001 C 
HETATM    3  C3  UNL     1     -34.958  14.015  -3.779  1.00 20.00     0.005 C 
HETATM    4  C4  UNL     1     -34.698  15.849  -1.990  1.00 20.00     0.005 C 
HETATM    5  C5  UNL     1     -36.269  15.760  -5.179  1.00 20.00     0.005 C 
HETATM    6  C6  UNL     1     -33.751  17.500  -3.413  1.00 20.00     0.005 C 
HETATM    7  C7  UNL     1     -34.366  17.080  -6.387  1.00 20.00     0.010 A 
HETATM    8  C8  UNL     1     -34.050  15.075  -3.147  1.00 20.00    -0.010 C 
HETATM    9  C9  UNL     1     -35.094  15.797  -6.097  1.00 20.00    -0.010 A 
HETATM   10  C10 UNL     1     -33.426  16.154  -4.072  1.00 20.00    -0.006 C 
HETATM   11  C11 UNL     1     -33.704  16.014  -5.543  1.00 20.00    -0.006 A 
ENDROOT
TORSDOF 0
ENDMDL
MODEL 7
REMARK VINA RESULT:      -4.7     11.903     13.365
REMARK  0 active torsions:
REMARK  status: ('A' for Active; 'I' for Inactive)
ROOT
HETATM    1  C1  UNL     1     -36.215  15.736  -2.608  1.00 20.00     0.001 C 
HETATM    2  C2  UNL     1     -33.412  17.780  -5.185  1.00 20.00     0.001 C 
HETATM    3  C3  UNL     1     -34.844  16.169  -2.075  1.00 20.00     0.005 C 
HETATM    4  C4  UNL     1     -34.266  17.859  -3.930  1.00 20.00     0.005 C 
HETATM    5  C5  UNL     1     -36.199  14.874  -3.867  1.00 20.00     0.005 C 
HETATM    6  C6  UNL     1     -33.391  16.288  -5.483  1.00 20.00     0.005 C 
HETATM    7  C7  UNL     1     -34.371  13.418  -5.034  1.00 20.00     0.010 A 
HETATM    8  C8  UNL     1     -33.805  16.660  -3.089  1.00 20.00    -0.010 C 
HETATM    9  C9  UNL     1     -35.138  13.828  -3.807  1.00 20.00    -0.010 A 
HETATM   10  C10 UNL     1     -33.227  15.638  -4.104  1.00 20.00    -0.006 C 
HETATM   11  C11 UNL     1     -33.682  14.213  -3.948  1.00 20.00    -0.006 A 
ENDROOT
TORSDOF 0
ENDMDL
MODEL 8
REMARK VINA RESULT:      -4.7     12.232     13.761
REMARK  0 active torsions:
REMARK  status: ('A' for Active; 'I' for Inactive)
ROOT
HETATM    1  C1  UNL     1     -37.391  15.661  -4.863  1.00 20.00     0.001 C 
HETATM    2  C2  UNL     1     -33.610  16.036  -2.803  1.00 20.00     0.001 C 
HETATM    3  C3  UNL     1     -36.857  14.508  -4.004  1.00 20.00     0.005 C 
HETATM    4  C4  UNL     1     -35.113  15.849  -2.666  1.00 20.00     0.005 C 
HETATM    5  C5  UNL     1     -36.447  16.177  -5.946  1.00 20.00     0.005 C 
HETATM    6  C6  UNL     1     -33.366  15.727  -4.273  1.00 20.00     0.005 C 
HETATM    7  C7  UNL     1     -34.341  15.183  -7.128  1.00 20.00     0.010 A 
HETATM    8  C8  UNL     1     -35.411  14.598  -3.505  1.00 20.00    -0.010 C 
HETATM    9  C9  UNL     1     -35.765  15.061  -6.663  1.00 20.00    -0.010 A 
HETATM   10  C10 UNL     1     -34.266  14.516  -4.550  1.00 20.00    -0.006 C 
HETATM   11  C11 UNL     1     -34.679  14.267  -5.974  1.00 20.00    -0.006 A 
ENDROOT
TORSDOF 0
ENDMDL
MODEL 9
REMARK VINA RESULT:      -4.6     12.308     13.709
REMARK  0 active torsions:
REMARK  status: ('A' for Active; 'I' for Inactive)
ROOT
HETATM    1  C1  UNL     1     -34.072  16.268  -6.461  1.00 20.00     0.001 C 
HETATM    2  C2  UNL     1     -37.655  14.965  -4.425  1.00 20.00     0.001 C 
HETATM    3  C3  UNL     1     -34.482  14.790  -6.479  1.00 20.00     0.005 C 
HETATM    4  C4  UNL     1     -36.934  15.099  -5.757  1.00 20.00     0.005 C 
HETATM    5  C5  UNL     1     -33.948  16.908  -5.081  1.00 20.00     0.005 C 
HETATM    6  C6  UNL     1     -36.534  15.167  -3.416  1.00 20.00     0.005 C 
HETATM    7  C7  UNL     1     -33.667  15.952  -2.667  1.00 20.00     0.010 A 
HETATM    8  C8  UNL     1     -35.611  14.350  -5.542  1.00 20.00    -0.010 C 
HETATM    9  C9  UNL     1     -33.260  16.006  -4.113  1.00 20.00    -0.010 A 
HETATM   10  C10 UNL     1     -35.355  14.389  -4.012  1.00 20.00    -0.006 C 
HETATM   11  C11 UNL     1     -33.970  14.784  -3.577  1.00 20.00    -0.006 A 
ENDROOT
TORSDOF 0
ENDMDL
