MODEL 1
REMARK VINA RESULT:      -6.1      0.000      0.000
REMARK  1 active torsions:
REMARK  status: ('A' for Active; 'I' for Inactive)
REMARK    1  A    between atoms: C3_3  and  C6_6 
ROOT
HETATM    1  C1  UNL     1     -32.167   9.044   1.001  1.00 20.00     0.013 C 
HETATM    2  C2  UNL     1     -32.122   8.297   1.938  1.00 20.00    -0.107 C 
HETATM    3  C5  UNL     1     -32.212   5.921   2.781  1.00 20.00     0.033 A 
HETATM    4  C6  UNL     1     -33.358   6.665   3.408  1.00 20.00     0.030 A 
HETATM    5  C7  UNL     1     -32.069   7.398   3.066  1.00 20.00     0.027 A 
HETATM    6  C10 UNL     1     -31.109   7.812   4.150  1.00 20.00     0.030 C 
ENDROOT
BRANCH   4   7
HETATM    7  C3  UNL     1     -33.714   6.382   4.792  1.00 20.00    -0.018 C 
HETATM    8  C4  UNL     1     -34.541   5.424   5.250  1.00 20.00    -0.091 C 
HETATM    9  C8  UNL     1     -34.805   5.260   6.721  1.00 20.00     0.042 C 
HETATM   10  C9  UNL     1     -35.262   4.448   4.363  1.00 20.00     0.042 C 
ENDBRANCH   4   7
TORSDOF 1
ENDMDL
MODEL 2
REMARK VINA RESULT:      -4.8      1.146      4.797
REMARK  1 active torsions:
REMARK  status: ('A' for Active; 'I' for Inactive)
REMARK    1  A    between atoms: C3_3  and  C6_6 
ROOT
HETATM    1  C1  UNL     1     -34.110   6.516   6.203  1.00 20.00     0.013 C 
HETATM    2  C2  UNL     1     -33.732   6.372   5.073  1.00 20.00    -0.107 C 
HETATM    3  C5  UNL     1     -31.841   5.775   3.514  1.00 20.00     0.033 A 
HETATM    4  C6  UNL     1     -32.239   7.195   3.217  1.00 20.00     0.030 A 
HETATM    5  C7  UNL     1     -33.278   6.199   3.715  1.00 20.00     0.027 A 
HETATM    6  C10 UNL     1     -34.312   5.635   2.777  1.00 20.00     0.030 C 
ENDROOT
BRANCH   4   7
HETATM    7  C3  UNL     1     -32.243   7.655   1.836  1.00 20.00    -0.018 C 
HETATM    8  C4  UNL     1     -32.445   8.907   1.385  1.00 20.00    -0.091 C 
HETATM    9  C8  UNL     1     -32.416   9.219  -0.086  1.00 20.00     0.042 C 
HETATM   10  C9  UNL     1     -32.710  10.085   2.280  1.00 20.00     0.042 C 
ENDBRANCH   4   7
TORSDOF 1
ENDMDL
MODEL 3
REMARK VINA RESULT:      -4.6     10.729     11.766
REMARK  1 active torsions:
REMARK  status: ('A' for Active; 'I' for Inactive)
REMARK    1  A    between atoms: C3_3  and  C6_6 
ROOT
HETATM    1  C1  UNL     1     -33.684  13.451  -4.162  1.00 20.00     0.013 C 
HETATM    2  C2  UNL     1     -34.203  14.406  -3.654  1.00 20.00    -0.107 C 
HETATM    3  C5  UNL     1     -34.141  16.889  -3.213  1.00 20.00     0.033 A 
HETATM    4  C6  UNL     1     -34.078  16.192  -1.881  1.00 20.00     0.030 A 
HETATM    5  C7  UNL     1     -34.828  15.553  -3.042  1.00 20.00     0.027 A 
HETATM    6  C10 UNL     1     -36.334  15.533  -3.066  1.00 20.00     0.030 C 
ENDROOT
BRANCH   4   7
HETATM    7  C3  UNL     1     -34.796  16.763  -0.749  1.00 20.00    -0.018 C 
HETATM    8  C4  UNL     1     -34.371  17.719   0.098  1.00 20.00    -0.091 C 
HETATM    9  C8  UNL     1     -35.242  18.203   1.225  1.00 20.00     0.042 C 
HETATM   10  C9  UNL     1     -33.025  18.380   0.005  1.00 20.00     0.042 C 
ENDBRANCH   4   7
TORSDOF 1
ENDMDL
MODEL 4
REMARK VINA RESULT:      -4.6     10.730     12.060
REMARK  1 active torsions:
REMARK  status: ('A' for Active; 'I' for Inactive)
REMARK    1  A    between atoms: C3_3  and  C6_6 
ROOT
HETATM    1  C1  UNL     1     -34.363  14.955  -7.166  1.00 20.00     0.013 C 
HETATM    2  C2  UNL     1     -34.537  14.725  -6.001  1.00 20.00    -0.107 C 
HETATM    3  C5  UNL     1     -36.154  14.110  -4.165  1.00 20.00     0.033 A 
HETATM    4  C6  UNL     1     -35.583  15.460  -3.829  1.00 20.00     0.030 A 
HETATM    5  C7  UNL     1     -34.747  14.449  -4.601  1.00 20.00     0.027 A 
HETATM    6  C10 UNL     1     -33.612  13.719  -3.931  1.00 20.00     0.030 C 
ENDROOT
BRANCH   4   7
HETATM    7  C3  UNL     1     -35.282  15.776  -2.440  1.00 20.00    -0.018 C 
HETATM    8  C4  UNL     1     -34.595  16.832  -1.966  1.00 20.00    -0.091 C 
HETATM    9  C8  UNL     1     -34.371  17.016  -0.490  1.00 20.00     0.042 C 
HETATM   10  C9  UNL     1     -34.002  17.903  -2.837  1.00 20.00     0.042 C 
ENDBRANCH   4   7
TORSDOF 1
ENDMDL
MODEL 5
REMARK VINA RESULT:      -4.5      1.137      1.794
REMARK  1 active torsions:
REMARK  status: ('A' for Active; 'I' for Inactive)
REMARK    1  A    between atoms: C3_3  and  C6_6 
ROOT
HETATM    1  C1  UNL     1     -32.143   8.569   2.145  1.00 20.00     0.013 C 
HETATM    2  C2  UNL     1     -32.526   7.485   2.489  1.00 20.00    -0.107 C 
HETATM    3  C5  UNL     1     -34.048   5.521   2.054  1.00 20.00     0.033 A 
HETATM    4  C6  UNL     1     -34.425   6.097   3.391  1.00 20.00     0.030 A 
HETATM    5  C7  UNL     1     -32.986   6.182   2.902  1.00 20.00     0.027 A 
HETATM    6  C10 UNL     1     -31.919   5.302   3.498  1.00 20.00     0.030 C 
ENDROOT
BRANCH   4   7
HETATM    7  C3  UNL     1     -34.797   5.193   4.471  1.00 20.00    -0.018 C 
HETATM    8  C4  UNL     1     -34.634   5.380   5.794  1.00 20.00    -0.091 C 
HETATM    9  C8  UNL     1     -35.076   4.341   6.788  1.00 20.00     0.042 C 
HETATM   10  C9  UNL     1     -34.012   6.609   6.394  1.00 20.00     0.042 C 
ENDBRANCH   4   7
TORSDOF 1
ENDMDL
MODEL 6
REMARK VINA RESULT:      -4.5     10.598     13.022
REMARK  1 active torsions:
REMARK  status: ('A' for Active; 'I' for Inactive)
REMARK    1  A    between atoms: C3_3  and  C6_6 
ROOT
HETATM    1  C1  UNL     1     -34.456  16.654  -0.957  1.00 20.00     0.013 C 
HETATM    2  C2  UNL     1     -34.697  16.006  -1.937  1.00 20.00    -0.107 C 
HETATM    3  C5  UNL     1     -34.104  14.030  -3.389  1.00 20.00     0.033 A 
HETATM    4  C6  UNL     1     -33.947  15.270  -4.228  1.00 20.00     0.030 A 
HETATM    5  C7  UNL     1     -34.986  15.227  -3.116  1.00 20.00     0.027 A 
HETATM    6  C10 UNL     1     -36.453  15.103  -3.440  1.00 20.00     0.030 C 
ENDROOT
BRANCH   4   7
HETATM    7  C3  UNL     1     -34.345  15.232  -5.628  1.00 20.00    -0.018 C 
HETATM    8  C4  UNL     1     -34.414  16.262  -6.492  1.00 20.00    -0.091 C 
HETATM    9  C8  UNL     1     -34.847  16.055  -7.917  1.00 20.00     0.042 C 
HETATM   10  C9  UNL     1     -34.074  17.681  -6.131  1.00 20.00     0.042 C 
ENDBRANCH   4   7
TORSDOF 1
ENDMDL
MODEL 7
REMARK VINA RESULT:      -4.5     11.285     12.245
REMARK  1 active torsions:
REMARK  status: ('A' for Active; 'I' for Inactive)
REMARK    1  A    between atoms: C3_3  and  C6_6 
ROOT
HETATM    1  C1  UNL     1     -31.843  18.915   0.325  1.00 20.00     0.013 C 
HETATM    2  C2  UNL     1     -32.890  18.569  -0.148  1.00 20.00    -0.107 C 
HETATM    3  C5  UNL     1     -35.111  17.423   0.191  1.00 20.00     0.033 A 
HETATM    4  C6  UNL     1     -34.362  16.652  -0.861  1.00 20.00     0.030 A 
HETATM    5  C7  UNL     1     -34.148  18.152  -0.717  1.00 20.00     0.027 A 
HETATM    6  C10 UNL     1     -34.726  19.111  -1.725  1.00 20.00     0.030 C 
ENDROOT
BRANCH   4   7
HETATM    7  C3  UNL     1     -35.095  16.105  -1.994  1.00 20.00    -0.018 C 
HETATM    8  C4  UNL     1     -34.590  15.554  -3.113  1.00 20.00    -0.091 C 
HETATM    9  C8  UNL     1     -35.490  15.030  -4.199  1.00 20.00     0.042 C 
HETATM   10  C9  UNL     1     -33.118  15.409  -3.383  1.00 20.00     0.042 C 
ENDBRANCH   4   7
TORSDOF 1
ENDMDL
MODEL 8
REMARK VINA RESULT:      -4.5     11.248     12.054
REMARK  1 active torsions:
REMARK  status: ('A' for Active; 'I' for Inactive)
REMARK    1  A    between atoms: C3_3  and  C6_6 
ROOT
HETATM    1  C1  UNL     1     -35.364  17.750   2.692  1.00 20.00     0.013 C 
HETATM    2  C2  UNL     1     -34.928  17.849   1.579  1.00 20.00    -0.107 C 
HETATM    3  C5  UNL     1     -35.388  18.291  -0.862  1.00 20.00     0.033 A 
HETATM    4  C6  UNL     1     -34.834  16.897  -0.753  1.00 20.00     0.030 A 
HETATM    5  C7  UNL     1     -34.405  17.968   0.239  1.00 20.00     0.027 A 
HETATM    6  C10 UNL     1     -33.033  18.587   0.157  1.00 20.00     0.030 C 
ENDROOT
BRANCH   4   7
HETATM    7  C3  UNL     1     -33.920  16.416  -1.779  1.00 20.00    -0.018 C 
HETATM    8  C4  UNL     1     -34.217  15.685  -2.869  1.00 20.00    -0.091 C 
HETATM    9  C8  UNL     1     -33.147  15.266  -3.841  1.00 20.00     0.042 C 
HETATM   10  C9  UNL     1     -35.606  15.229  -3.218  1.00 20.00     0.042 C 
ENDBRANCH   4   7
TORSDOF 1
ENDMDL
MODEL 9
REMARK VINA RESULT:      -4.5     11.056     12.111
REMARK  1 active torsions:
REMARK  status: ('A' for Active; 'I' for Inactive)
REMARK    1  A    between atoms: C3_3  and  C6_6 
ROOT
HETATM    1  C1  UNL     1     -37.901  14.828  -3.736  1.00 20.00     0.013 C 
HETATM    2  C2  UNL     1     -36.782  15.254  -3.661  1.00 20.00    -0.107 C 
HETATM    3  C5  UNL     1     -34.335  14.770  -3.283  1.00 20.00     0.033 A 
HETATM    4  C6  UNL     1     -34.782  15.710  -2.197  1.00 20.00     0.030 A 
HETATM    5  C7  UNL     1     -35.436  15.765  -3.571  1.00 20.00     0.027 A 
HETATM    6  C10 UNL     1     -35.130  16.892  -4.523  1.00 20.00     0.030 C 
ENDROOT
BRANCH   4   7
HETATM    7  C3  UNL     1     -33.877  16.763  -1.755  1.00 20.00    -0.018 C 
HETATM    8  C4  UNL     1     -33.952  17.492  -0.627  1.00 20.00    -0.091 C 
HETATM    9  C8  UNL     1     -32.929  18.550  -0.314  1.00 20.00     0.042 C 
HETATM   10  C9  UNL     1     -35.031  17.327   0.406  1.00 20.00     0.042 C 
ENDBRANCH   4   7
TORSDOF 1
ENDMDL
