MODEL 1
REMARK VINA RESULT:      -4.8      0.000      0.000
REMARK  1 active torsions:
REMARK  status: ('A' for Active; 'I' for Inactive)
REMARK    1  A    between atoms: C1_1  and  C5_5 
ROOT
HETATM    1  C1  UNL     1     -34.782  15.933  -2.077  1.00 20.00    -0.097 C 
HETATM    2  C2  UNL     1     -34.774  16.546  -1.046  1.00 20.00    -0.110 C 
HETATM    3  C7  UNL     1     -34.766  17.293   0.211  1.00 20.00     0.112 C 
ENDROOT
BRANCH   1   4
HETATM    4  C5  UNL     1     -34.790  15.186  -3.334  1.00 20.00     0.027 C 
HETATM    5  C3  UNL     1     -33.805  13.975  -3.324  1.00 20.00     0.024 C 
HETATM    6  C4  UNL     1     -32.739  14.871  -3.984  1.00 20.00     0.012 C 
HETATM    7  C6  UNL     1     -33.883  15.798  -4.497  1.00 20.00    -0.029 C 
HETATM    8  C9  UNL     1     -34.300  15.454  -5.934  1.00 20.00     0.016 C 
HETATM    9  C10 UNL     1     -33.543  17.289  -4.404  1.00 20.00     0.016 C 
HETATM   10  C8  UNL     1     -36.227  14.808  -3.687  1.00 20.00     0.030 C 
ENDBRANCH   1   4
TORSDOF 1
ENDMDL
MODEL 2
REMARK VINA RESULT:      -4.7      0.986      2.286
REMARK  1 active torsions:
REMARK  status: ('A' for Active; 'I' for Inactive)
REMARK    1  A    between atoms: C1_1  and  C5_5 
ROOT
HETATM    1  C1  UNL     1     -34.196  15.949  -2.464  1.00 20.00    -0.097 C 
HETATM    2  C2  UNL     1     -34.463  16.460  -1.412  1.00 20.00    -0.110 C 
HETATM    3  C7  UNL     1     -34.790  17.084  -0.130  1.00 20.00     0.112 C 
ENDROOT
BRANCH   1   4
HETATM    4  C5  UNL     1     -33.870  15.325  -3.745  1.00 20.00     0.027 C 
HETATM    5  C3  UNL     1     -33.530  16.368  -4.857  1.00 20.00     0.024 C 
HETATM    6  C4  UNL     1     -34.998  16.312  -5.321  1.00 20.00     0.012 C 
HETATM    7  C6  UNL     1     -35.125  14.914  -4.643  1.00 20.00    -0.029 C 
HETATM    8  C9  UNL     1     -34.899  13.769  -5.641  1.00 20.00     0.016 C 
HETATM    9  C10 UNL     1     -36.461  14.710  -3.921  1.00 20.00     0.016 C 
HETATM   10  C8  UNL     1     -32.782  14.275  -3.533  1.00 20.00     0.030 C 
ENDBRANCH   1   4
TORSDOF 1
ENDMDL
MODEL 3
REMARK VINA RESULT:      -4.7      0.990      1.100
REMARK  1 active torsions:
REMARK  status: ('A' for Active; 'I' for Inactive)
REMARK    1  A    between atoms: C1_1  and  C5_5 
ROOT
HETATM    1  C1  UNL     1     -35.140  15.762  -2.703  1.00 20.00    -0.097 C 
HETATM    2  C2  UNL     1     -34.922  16.297  -1.651  1.00 20.00    -0.110 C 
HETATM    3  C7  UNL     1     -34.657  16.948  -0.369  1.00 20.00     0.112 C 
ENDROOT
BRANCH   1   4
HETATM    4  C5  UNL     1     -35.404  15.110  -3.984  1.00 20.00     0.027 C 
HETATM    5  C3  UNL     1     -35.246  13.558  -3.918  1.00 20.00     0.024 C 
HETATM    6  C4  UNL     1     -33.795  13.712  -4.413  1.00 20.00     0.012 C 
HETATM    7  C6  UNL     1     -34.180  15.100  -5.010  1.00 20.00    -0.029 C 
HETATM    8  C9  UNL     1     -34.543  15.004  -6.498  1.00 20.00     0.016 C 
HETATM    9  C10 UNL     1     -33.097  16.165  -4.813  1.00 20.00     0.016 C 
HETATM   10  C8  UNL     1     -36.761  15.568  -4.513  1.00 20.00     0.030 C 
ENDBRANCH   1   4
TORSDOF 1
ENDMDL
MODEL 4
REMARK VINA RESULT:      -4.6      1.003      1.479
REMARK  1 active torsions:
REMARK  status: ('A' for Active; 'I' for Inactive)
REMARK    1  A    between atoms: C1_1  and  C5_5 
ROOT
HETATM    1  C1  UNL     1     -34.398  15.880  -2.417  1.00 20.00    -0.097 C 
HETATM    2  C2  UNL     1     -34.604  16.425  -1.368  1.00 20.00    -0.110 C 
HETATM    3  C7  UNL     1     -34.856  17.088  -0.089  1.00 20.00     0.112 C 
ENDROOT
BRANCH   1   4
HETATM    4  C5  UNL     1     -34.146  15.217  -3.694  1.00 20.00     0.027 C 
HETATM    5  C3  UNL     1     -32.721  15.513  -4.259  1.00 20.00     0.024 C 
HETATM    6  C4  UNL     1     -33.319  16.663  -5.092  1.00 20.00     0.012 C 
HETATM    7  C6  UNL     1     -34.714  15.975  -4.980  1.00 20.00    -0.029 C 
HETATM    8  C9  UNL     1     -35.021  15.099  -6.203  1.00 20.00     0.016 C 
HETATM    9  C10 UNL     1     -35.861  16.965  -4.755  1.00 20.00     0.016 C 
HETATM   10  C8  UNL     1     -34.457  13.728  -3.560  1.00 20.00     0.030 C 
ENDBRANCH   1   4
TORSDOF 1
ENDMDL
MODEL 5
REMARK VINA RESULT:      -4.4      1.308      1.597
REMARK  1 active torsions:
REMARK  status: ('A' for Active; 'I' for Inactive)
REMARK    1  A    between atoms: C1_1  and  C5_5 
ROOT
HETATM    1  C1  UNL     1     -35.385  15.518  -2.862  1.00 20.00    -0.097 C 
HETATM    2  C2  UNL     1     -34.937  16.115  -1.923  1.00 20.00    -0.110 C 
HETATM    3  C7  UNL     1     -34.391  16.845  -0.779  1.00 20.00     0.112 C 
ENDROOT
BRANCH   1   4
HETATM    4  C5  UNL     1     -35.931  14.789  -4.005  1.00 20.00     0.027 C 
HETATM    5  C3  UNL     1     -35.274  13.387  -4.199  1.00 20.00     0.024 C 
HETATM    6  C4  UNL     1     -34.290  14.018  -5.204  1.00 20.00     0.012 C 
HETATM    7  C6  UNL     1     -35.308  15.177  -5.423  1.00 20.00    -0.029 C 
HETATM    8  C9  UNL     1     -36.201  14.933  -6.648  1.00 20.00     0.016 C 
HETATM    9  C10 UNL     1     -34.643  16.553  -5.539  1.00 20.00     0.016 C 
HETATM   10  C8  UNL     1     -37.454  14.744  -3.894  1.00 20.00     0.030 C 
ENDBRANCH   1   4
TORSDOF 1
ENDMDL
MODEL 6
REMARK VINA RESULT:      -4.2      1.366      2.758
REMARK  1 active torsions:
REMARK  status: ('A' for Active; 'I' for Inactive)
REMARK    1  A    between atoms: C1_1  and  C5_5 
ROOT
HETATM    1  C1  UNL     1     -34.675  16.402  -3.198  1.00 20.00    -0.097 C 
HETATM    2  C2  UNL     1     -34.657  16.545  -2.007  1.00 20.00    -0.110 C 
HETATM    3  C7  UNL     1     -34.635  16.719  -0.555  1.00 20.00     0.112 C 
ENDROOT
BRANCH   1   4
HETATM    4  C5  UNL     1     -34.696  16.228  -4.649  1.00 20.00     0.027 C 
HETATM    5  C3  UNL     1     -35.941  16.890  -5.319  1.00 20.00     0.024 C 
HETATM    6  C4  UNL     1     -36.666  15.532  -5.250  1.00 20.00     0.012 C 
HETATM    7  C6  UNL     1     -35.277  14.831  -5.161  1.00 20.00    -0.029 C 
HETATM    8  C9  UNL     1     -34.785  14.354  -6.535  1.00 20.00     0.016 C 
HETATM    9  C10 UNL     1     -35.252  13.662  -4.172  1.00 20.00     0.016 C 
HETATM   10  C8  UNL     1     -33.363  16.692  -5.233  1.00 20.00     0.030 C 
ENDBRANCH   1   4
TORSDOF 1
ENDMDL
MODEL 7
REMARK VINA RESULT:      -4.2      1.245      3.332
REMARK  1 active torsions:
REMARK  status: ('A' for Active; 'I' for Inactive)
REMARK    1  A    between atoms: C1_1  and  C5_5 
ROOT
HETATM    1  C1  UNL     1     -36.388  15.368  -3.579  1.00 20.00    -0.097 C 
HETATM    2  C2  UNL     1     -37.552  15.107  -3.711  1.00 20.00    -0.110 C 
HETATM    3  C7  UNL     1     -38.970  14.788  -3.873  1.00 20.00     0.112 C 
ENDROOT
BRANCH   1   4
HETATM    4  C5  UNL     1     -34.971  15.687  -3.416  1.00 20.00     0.027 C 
HETATM    5  C3  UNL     1     -34.482  16.793  -4.404  1.00 20.00     0.024 C 
HETATM    6  C4  UNL     1     -34.016  15.687  -5.370  1.00 20.00     0.012 C 
HETATM    7  C6  UNL     1     -33.960  14.702  -4.163  1.00 20.00    -0.029 C 
HETATM    8  C9  UNL     1     -32.548  14.601  -3.570  1.00 20.00     0.016 C 
HETATM    9  C10 UNL     1     -34.476  13.300  -4.502  1.00 20.00     0.016 C 
HETATM   10  C8  UNL     1     -34.690  16.004  -1.949  1.00 20.00     0.030 C 
ENDBRANCH   1   4
TORSDOF 1
ENDMDL
MODEL 8
REMARK VINA RESULT:      -4.1      1.482      3.311
REMARK  1 active torsions:
REMARK  status: ('A' for Active; 'I' for Inactive)
REMARK    1  A    between atoms: C1_1  and  C5_5 
ROOT
HETATM    1  C1  UNL     1     -36.713  14.824  -4.508  1.00 20.00    -0.097 C 
HETATM    2  C2  UNL     1     -37.870  14.822  -4.193  1.00 20.00    -0.110 C 
HETATM    3  C7  UNL     1     -39.282  14.820  -3.810  1.00 20.00     0.112 C 
ENDROOT
BRANCH   1   4
HETATM    4  C5  UNL     1     -35.302  14.826  -4.891  1.00 20.00     0.027 C 
HETATM    5  C3  UNL     1     -34.706  13.388  -5.011  1.00 20.00     0.024 C 
HETATM    6  C4  UNL     1     -34.205  13.504  -3.558  1.00 20.00     0.012 C 
HETATM    7  C6  UNL     1     -34.270  15.056  -3.694  1.00 20.00    -0.029 C 
HETATM    8  C9  UNL     1     -32.910  15.656  -4.076  1.00 20.00     0.016 C 
HETATM    9  C10 UNL     1     -34.804  15.751  -2.438  1.00 20.00     0.016 C 
HETATM   10  C8  UNL     1     -35.121  15.673  -6.149  1.00 20.00     0.030 C 
ENDBRANCH   1   4
TORSDOF 1
ENDMDL
MODEL 9
REMARK VINA RESULT:      -4.1     11.096     13.089
REMARK  1 active torsions:
REMARK  status: ('A' for Active; 'I' for Inactive)
REMARK    1  A    between atoms: C1_1  and  C5_5 
ROOT
HETATM    1  C1  UNL     1     -42.316   7.040  -2.279  1.00 20.00    -0.097 C 
HETATM    2  C2  UNL     1     -42.292   7.676  -3.296  1.00 20.00    -0.110 C 
HETATM    3  C7  UNL     1     -42.261   8.450  -4.537  1.00 20.00     0.112 C 
ENDROOT
BRANCH   1   4
HETATM    4  C5  UNL     1     -42.347   6.266  -1.040  1.00 20.00     0.027 C 
HETATM    5  C3  UNL     1     -40.933   6.084  -0.404  1.00 20.00     0.024 C 
HETATM    6  C4  UNL     1     -40.812   4.729  -1.127  1.00 20.00     0.012 C 
HETATM    7  C6  UNL     1     -42.367   4.680  -1.227  1.00 20.00    -0.029 C 
HETATM    8  C9  UNL     1     -42.990   3.869  -0.082  1.00 20.00     0.016 C 
HETATM    9  C10 UNL     1     -42.870   4.143  -2.570  1.00 20.00     0.016 C 
HETATM   10  C8  UNL     1     -43.375   6.875  -0.089  1.00 20.00     0.030 C 
ENDBRANCH   1   4
TORSDOF 1
ENDMDL
