MODEL 1
REMARK VINA RESULT:      -5.6      0.000      0.000
REMARK  1 active torsions:
REMARK  status: ('A' for Active; 'I' for Inactive)
REMARK    1  A    between atoms: C9_9  and  C10_10 
ROOT
HETATM    1  C1  UNL     1     -35.219  17.747  -0.244  1.00 20.00     0.001 A 
HETATM    2  C2  UNL     1     -36.315  18.366  -0.998  1.00 20.00     0.001 A 
HETATM    3  C3  UNL     1     -34.506  16.712  -0.735  1.00 20.00     0.012 A 
HETATM    4  C4  UNL     1     -36.675  17.938  -2.226  1.00 20.00     0.012 A 
HETATM    5  C5  UNL     1     -34.321  15.215  -2.764  1.00 20.00     0.009 A 
HETATM    6  C6  UNL     1     -36.085  16.211  -3.975  1.00 20.00     0.009 A 
HETATM    7  C7  UNL     1     -34.851  16.216  -2.047  1.00 20.00    -0.028 A 
HETATM    8  C8  UNL     1     -35.942  16.832  -2.797  1.00 20.00    -0.028 A 
HETATM    9  C10 UNL     1     -35.048  15.117  -4.085  1.00 20.00     0.082 A 
HETATM   10  C11 UNL     1     -34.131  15.281  -5.285  1.00 20.00     0.035 C 
ENDROOT
BRANCH   9  11
HETATM   11  C9  UNL     1     -35.766  13.786  -4.135  1.00 20.00     0.189 C 
HETATM   12  O12 UNL     1     -35.026  12.781  -4.326  1.00 20.00    -0.647 OA
HETATM   13  O13 UNL     1     -37.017  13.853  -3.977  1.00 20.00    -0.647 OA
ENDBRANCH   9  11
TORSDOF 1
ENDMDL
MODEL 2
REMARK VINA RESULT:      -5.5      1.731      2.375
REMARK  1 active torsions:
REMARK  status: ('A' for Active; 'I' for Inactive)
REMARK    1  A    between atoms: C9_9  and  C10_10 
ROOT
HETATM    1  C1  UNL     1     -33.550  19.098  -0.657  1.00 20.00     0.001 A 
HETATM    2  C2  UNL     1     -34.331  18.253   0.254  1.00 20.00     0.001 A 
HETATM    3  C3  UNL     1     -33.285  18.729  -1.927  1.00 20.00     0.012 A 
HETATM    4  C4  UNL     1     -34.830  17.058  -0.124  1.00 20.00     0.012 A 
HETATM    5  C5  UNL     1     -33.684  16.852  -3.573  1.00 20.00     0.009 A 
HETATM    6  C6  UNL     1     -34.940  15.493  -2.107  1.00 20.00     0.009 A 
HETATM    7  C7  UNL     1     -33.798  17.458  -2.382  1.00 20.00    -0.028 A 
HETATM    8  C8  UNL     1     -34.575  16.618  -1.476  1.00 20.00    -0.028 A 
HETATM    9  C10 UNL     1     -34.419  15.533  -3.525  1.00 20.00     0.082 A 
HETATM   10  C11 UNL     1     -35.520  15.425  -4.567  1.00 20.00     0.035 C 
ENDROOT
BRANCH   9  11
HETATM   11  C9  UNL     1     -33.409  14.420  -3.691  1.00 20.00     0.189 C 
HETATM   12  O12 UNL     1     -32.199  14.777  -3.644  1.00 20.00    -0.647 OA
HETATM   13  O13 UNL     1     -33.908  13.271  -3.855  1.00 20.00    -0.647 OA
ENDBRANCH   9  11
TORSDOF 1
ENDMDL
MODEL 3
REMARK VINA RESULT:      -5.2      2.627      4.526
REMARK  1 active torsions:
REMARK  status: ('A' for Active; 'I' for Inactive)
REMARK    1  A    between atoms: C9_9  and  C10_10 
ROOT
HETATM    1  C1  UNL     1     -34.109  13.403  -4.498  1.00 20.00     0.001 A 
HETATM    2  C2  UNL     1     -35.572  13.504  -4.560  1.00 20.00     0.001 A 
HETATM    3  C3  UNL     1     -33.360  14.268  -3.783  1.00 20.00     0.012 A 
HETATM    4  C4  UNL     1     -36.254  14.468  -3.908  1.00 20.00     0.012 A 
HETATM    5  C5  UNL     1     -33.556  16.302  -2.294  1.00 20.00     0.009 A 
HETATM    6  C6  UNL     1     -35.908  16.465  -2.396  1.00 20.00     0.009 A 
HETATM    7  C7  UNL     1     -34.043  15.319  -3.066  1.00 20.00    -0.028 A 
HETATM    8  C8  UNL     1     -35.498  15.420  -3.128  1.00 20.00    -0.028 A 
HETATM    9  C10 UNL     1     -34.705  17.131  -1.771  1.00 20.00     0.082 A 
HETATM   10  C11 UNL     1     -34.767  17.173  -0.253  1.00 20.00     0.035 C 
ENDROOT
BRANCH   9  11
HETATM   11  C9  UNL     1     -34.584  18.526  -2.343  1.00 20.00     0.189 C 
HETATM   12  O12 UNL     1     -35.671  19.058  -2.702  1.00 20.00    -0.647 OA
HETATM   13  O13 UNL     1     -33.406  18.981  -2.387  1.00 20.00    -0.647 OA
ENDBRANCH   9  11
TORSDOF 1
ENDMDL
MODEL 4
REMARK VINA RESULT:      -5.2      1.774      2.457
REMARK  1 active torsions:
REMARK  status: ('A' for Active; 'I' for Inactive)
REMARK    1  A    between atoms: C9_9  and  C10_10 
ROOT
HETATM    1  C1  UNL     1     -33.301  19.239  -2.394  1.00 20.00     0.001 A 
HETATM    2  C2  UNL     1     -33.467  18.701  -1.038  1.00 20.00     0.001 A 
HETATM    3  C3  UNL     1     -33.656  18.540  -3.492  1.00 20.00     0.012 A 
HETATM    4  C4  UNL     1     -33.984  17.476  -0.810  1.00 20.00     0.012 A 
HETATM    5  C5  UNL     1     -34.644  16.322  -4.198  1.00 20.00     0.009 A 
HETATM    6  C6  UNL     1     -34.910  15.458  -2.018  1.00 20.00     0.009 A 
HETATM    7  C7  UNL     1     -34.216  17.222  -3.301  1.00 20.00    -0.028 A 
HETATM    8  C8  UNL     1     -34.382  16.687  -1.953  1.00 20.00    -0.028 A 
HETATM    9  C10 UNL     1     -35.149  15.101  -3.467  1.00 20.00     0.082 A 
HETATM   10  C11 UNL     1     -36.603  14.782  -3.771  1.00 20.00     0.035 C 
ENDROOT
BRANCH   9  11
HETATM   11  C9  UNL     1     -34.257  13.932  -3.821  1.00 20.00     0.189 C 
HETATM   12  O12 UNL     1     -33.016  14.163  -3.765  1.00 20.00    -0.647 OA
HETATM   13  O13 UNL     1     -34.869  12.871  -4.128  1.00 20.00    -0.647 OA
ENDBRANCH   9  11
TORSDOF 1
ENDMDL
MODEL 5
REMARK VINA RESULT:      -5.1      1.590      1.850
REMARK  1 active torsions:
REMARK  status: ('A' for Active; 'I' for Inactive)
REMARK    1  A    between atoms: C9_9  and  C10_10 
ROOT
HETATM    1  C1  UNL     1     -33.874  17.917  -0.899  1.00 20.00     0.001 A 
HETATM    2  C2  UNL     1     -33.547  18.701  -2.096  1.00 20.00     0.001 A 
HETATM    3  C3  UNL     1     -34.390  16.672  -0.977  1.00 20.00     0.012 A 
HETATM    4  C4  UNL     1     -33.741  18.225  -3.343  1.00 20.00     0.012 A 
HETATM    5  C5  UNL     1     -35.113  14.925  -2.655  1.00 20.00     0.009 A 
HETATM    6  C6  UNL     1     -34.587  16.188  -4.578  1.00 20.00     0.009 A 
HETATM    7  C7  UNL     1     -34.616  16.116  -2.290  1.00 20.00    -0.028 A 
HETATM    8  C8  UNL     1     -34.290  16.896  -3.480  1.00 20.00    -0.028 A 
HETATM    9  C10 UNL     1     -35.131  14.841  -4.163  1.00 20.00     0.082 A 
HETATM   10  C11 UNL     1     -34.320  13.676  -4.706  1.00 20.00     0.035 C 
ENDROOT
BRANCH   9  11
HETATM   11  C9  UNL     1     -36.571  14.751  -4.617  1.00 20.00     0.189 C 
HETATM   12  O12 UNL     1     -36.822  15.294  -5.729  1.00 20.00    -0.647 OA
HETATM   13  O13 UNL     1     -37.340  14.141  -3.823  1.00 20.00    -0.647 OA
ENDBRANCH   9  11
TORSDOF 1
ENDMDL
MODEL 6
REMARK VINA RESULT:      -5.1      2.779      4.465
REMARK  1 active torsions:
REMARK  status: ('A' for Active; 'I' for Inactive)
REMARK    1  A    between atoms: C9_9  and  C10_10 
ROOT
HETATM    1  C1  UNL     1     -38.595  15.621  -6.695  1.00 20.00     0.001 A 
HETATM    2  C2  UNL     1     -37.864  15.244  -7.910  1.00 20.00     0.001 A 
HETATM    3  C3  UNL     1     -38.004  15.646  -5.482  1.00 20.00     0.012 A 
HETATM    4  C4  UNL     1     -36.560  14.899  -7.888  1.00 20.00     0.012 A 
HETATM    5  C5  UNL     1     -35.785  15.222  -4.346  1.00 20.00     0.009 A 
HETATM    6  C6  UNL     1     -34.612  14.614  -6.302  1.00 20.00     0.009 A 
HETATM    7  C7  UNL     1     -36.608  15.286  -5.404  1.00 20.00    -0.028 A 
HETATM    8  C8  UNL     1     -35.881  14.911  -6.613  1.00 20.00    -0.028 A 
HETATM    9  C10 UNL     1     -34.413  14.798  -4.815  1.00 20.00     0.082 A 
HETATM   10  C11 UNL     1     -33.329  15.809  -4.479  1.00 20.00     0.035 C 
ENDROOT
BRANCH   9  11
HETATM   11  C9  UNL     1     -34.099  13.449  -4.207  1.00 20.00     0.189 C 
HETATM   12  O12 UNL     1     -32.958  13.350  -3.675  1.00 20.00    -0.647 OA
HETATM   13  O13 UNL     1     -35.022  12.594  -4.310  1.00 20.00    -0.647 OA
ENDBRANCH   9  11
TORSDOF 1
ENDMDL
MODEL 7
REMARK VINA RESULT:      -5.1      1.204      1.366
REMARK  1 active torsions:
REMARK  status: ('A' for Active; 'I' for Inactive)
REMARK    1  A    between atoms: C9_9  and  C10_10 
ROOT
HETATM    1  C1  UNL     1     -34.739  18.220  -1.361  1.00 20.00     0.001 A 
HETATM    2  C2  UNL     1     -36.167  17.958  -1.576  1.00 20.00     0.001 A 
HETATM    3  C3  UNL     1     -33.779  17.549  -2.030  1.00 20.00     0.012 A 
HETATM    4  C4  UNL     1     -36.604  17.033  -2.454  1.00 20.00     0.012 A 
HETATM    5  C5  UNL     1     -33.466  15.743  -3.772  1.00 20.00     0.009 A 
HETATM    6  C6  UNL     1     -35.763  15.324  -4.116  1.00 20.00     0.009 A 
HETATM    7  C7  UNL     1     -34.195  16.548  -2.984  1.00 20.00    -0.028 A 
HETATM    8  C8  UNL     1     -35.615  16.288  -3.198  1.00 20.00    -0.028 A 
HETATM    9  C10 UNL     1     -34.398  14.884  -4.593  1.00 20.00     0.082 A 
HETATM   10  C11 UNL     1     -34.205  15.056  -6.090  1.00 20.00     0.035 C 
ENDROOT
BRANCH   9  11
HETATM   11  C9  UNL     1     -34.196  13.441  -4.186  1.00 20.00     0.189 C 
HETATM   12  O12 UNL     1     -33.067  13.175  -3.685  1.00 20.00    -0.647 OA
HETATM   13  O13 UNL     1     -35.185  12.686  -4.400  1.00 20.00    -0.647 OA
ENDBRANCH   9  11
TORSDOF 1
ENDMDL
MODEL 8
REMARK VINA RESULT:      -5.0      1.492      2.514
REMARK  1 active torsions:
REMARK  status: ('A' for Active; 'I' for Inactive)
REMARK    1  A    between atoms: C9_9  and  C10_10 
ROOT
HETATM    1  C1  UNL     1     -36.479  18.235  -0.996  1.00 20.00     0.001 A 
HETATM    2  C2  UNL     1     -35.350  17.723  -0.212  1.00 20.00     0.001 A 
HETATM    3  C3  UNL     1     -36.749  17.788  -2.241  1.00 20.00     0.012 A 
HETATM    4  C4  UNL     1     -34.515  16.776  -0.687  1.00 20.00     0.012 A 
HETATM    5  C5  UNL     1     -35.917  16.162  -3.989  1.00 20.00     0.009 A 
HETATM    6  C6  UNL     1     -34.101  15.340  -2.726  1.00 20.00     0.009 A 
HETATM    7  C7  UNL     1     -35.885  16.773  -2.795  1.00 20.00    -0.028 A 
HETATM    8  C8  UNL     1     -34.761  16.263  -2.015  1.00 20.00    -0.028 A 
HETATM    9  C10 UNL     1     -34.784  15.167  -4.063  1.00 20.00     0.082 A 
HETATM   10  C11 UNL     1     -35.255  13.744  -4.312  1.00 20.00     0.035 C 
ENDROOT
BRANCH   9  11
HETATM   11  C9  UNL     1     -33.828  15.614  -5.146  1.00 20.00     0.189 C 
HETATM   12  O12 UNL     1     -32.808  16.240  -4.741  1.00 20.00    -0.647 OA
HETATM   13  O13 UNL     1     -34.173  15.303  -6.320  1.00 20.00    -0.647 OA
ENDBRANCH   9  11
TORSDOF 1
ENDMDL
MODEL 9
REMARK VINA RESULT:      -5.0      1.925      2.849
REMARK  1 active torsions:
REMARK  status: ('A' for Active; 'I' for Inactive)
REMARK    1  A    between atoms: C9_9  and  C10_10 
ROOT
HETATM    1  C1  UNL     1     -34.214  19.251  -3.734  1.00 20.00     0.001 A 
HETATM    2  C2  UNL     1     -33.848  19.068  -5.144  1.00 20.00     0.001 A 
HETATM    3  C3  UNL     1     -34.391  18.207  -2.898  1.00 20.00     0.012 A 
HETATM    4  C4  UNL     1     -33.668  17.846  -5.687  1.00 20.00     0.012 A 
HETATM    5  C5  UNL     1     -34.323  15.681  -2.836  1.00 20.00     0.009 A 
HETATM    6  C6  UNL     1     -33.736  15.387  -5.102  1.00 20.00     0.009 A 
HETATM    7  C7  UNL     1     -34.209  16.877  -3.430  1.00 20.00    -0.028 A 
HETATM    8  C8  UNL     1     -33.845  16.695  -4.832  1.00 20.00    -0.028 A 
HETATM    9  C10 UNL     1     -34.016  14.599  -3.844  1.00 20.00     0.082 A 
HETATM   10  C11 UNL     1     -32.858  13.707  -3.428  1.00 20.00     0.035 C 
ENDROOT
BRANCH   9  11
HETATM   11  C9  UNL     1     -35.271  13.784  -4.064  1.00 20.00     0.189 C 
HETATM   12  O12 UNL     1     -36.353  14.378  -3.802  1.00 20.00    -0.647 OA
HETATM   13  O13 UNL     1     -35.073  12.610  -4.484  1.00 20.00    -0.647 OA
ENDBRANCH   9  11
TORSDOF 1
ENDMDL
