MODEL 1
REMARK VINA RESULT:      -4.3      0.000      0.000
REMARK  0 active torsions:
REMARK  status: ('A' for Active; 'I' for Inactive)
ROOT
HETATM    1  C1  UNL     1     -34.584   5.140   5.310  1.00 20.00    -0.087 C 
HETATM    2  C2  UNL     1     -35.289   4.392   6.159  1.00 20.00     0.014 C 
HETATM    3  C3  UNL     1     -33.673   6.334   5.494  1.00 20.00     0.049 C 
HETATM    4  C4  UNL     1     -34.391   5.102   3.810  1.00 20.00     0.049 C 
HETATM    5  C5  UNL     1     -33.945   6.577   3.987  1.00 20.00     0.065 C 
HETATM    6 BR6  UNL     1     -32.406   7.113   2.937  1.00 20.00    -0.091 Br
ENDROOT
TORSDOF 0
ENDMDL
MODEL 2
REMARK VINA RESULT:      -4.2      0.958      1.650
REMARK  0 active torsions:
REMARK  status: ('A' for Active; 'I' for Inactive)
ROOT
HETATM    1  C1  UNL     1     -34.444   5.394   4.324  1.00 20.00    -0.087 C 
HETATM    2  C2  UNL     1     -35.311   4.604   4.957  1.00 20.00     0.014 C 
HETATM    3  C3  UNL     1     -34.008   5.503   2.879  1.00 20.00     0.049 C 
HETATM    4  C4  UNL     1     -33.540   6.518   4.781  1.00 20.00     0.049 C 
HETATM    5  C5  UNL     1     -32.768   6.221   3.470  1.00 20.00     0.065 C 
HETATM    6 BR6  UNL     1     -32.162   7.780   2.489  1.00 20.00    -0.091 Br
ENDROOT
TORSDOF 0
ENDMDL
MODEL 3
REMARK VINA RESULT:      -4.2      2.271      3.491
REMARK  0 active torsions:
REMARK  status: ('A' for Active; 'I' for Inactive)
ROOT
HETATM    1  C1  UNL     1     -33.025   6.607   3.404  1.00 20.00    -0.087 C 
HETATM    2  C2  UNL     1     -32.257   7.414   2.672  1.00 20.00     0.014 C 
HETATM    3  C3  UNL     1     -33.886   5.410   3.066  1.00 20.00     0.049 C 
HETATM    4  C4  UNL     1     -33.350   6.545   4.880  1.00 20.00     0.049 C 
HETATM    5  C5  UNL     1     -34.581   5.725   4.416  1.00 20.00     0.065 C 
HETATM    6 BR6  UNL     1     -35.016   4.184   5.509  1.00 20.00    -0.091 Br
ENDROOT
TORSDOF 0
ENDMDL
MODEL 4
REMARK VINA RESULT:      -3.5      2.282      3.352
REMARK  0 active torsions:
REMARK  status: ('A' for Active; 'I' for Inactive)
ROOT
HETATM    1  C1  UNL     1     -32.912   6.828   3.258  1.00 20.00    -0.087 C 
HETATM    2  C2  UNL     1     -32.182   7.646   2.501  1.00 20.00     0.014 C 
HETATM    3  C3  UNL     1     -33.207   6.779   4.742  1.00 20.00     0.049 C 
HETATM    4  C4  UNL     1     -33.759   5.613   2.953  1.00 20.00     0.049 C 
HETATM    5  C5  UNL     1     -33.579   5.301   4.461  1.00 20.00     0.065 C 
HETATM    6 BR6  UNL     1     -35.162   4.652   5.372  1.00 20.00    -0.091 Br
ENDROOT
TORSDOF 0
ENDMDL
MODEL 5
REMARK VINA RESULT:      -3.3     12.327     12.526
REMARK  0 active torsions:
REMARK  status: ('A' for Active; 'I' for Inactive)
ROOT
HETATM    1  C1  UNL     1     -34.586  15.944  -2.193  1.00 20.00    -0.087 C 
HETATM    2  C2  UNL     1     -34.572  16.601  -1.033  1.00 20.00     0.014 C 
HETATM    3  C3  UNL     1     -35.697  15.368  -3.043  1.00 20.00     0.049 C 
HETATM    4  C4  UNL     1     -33.499  15.509  -3.151  1.00 20.00     0.049 C 
HETATM    5  C5  UNL     1     -34.566  14.508  -3.663  1.00 20.00     0.065 C 
HETATM    6 BR6  UNL     1     -34.646  14.289  -5.588  1.00 20.00    -0.091 Br
ENDROOT
TORSDOF 0
ENDMDL
MODEL 6
REMARK VINA RESULT:      -3.3      9.610     10.326
REMARK  0 active torsions:
REMARK  status: ('A' for Active; 'I' for Inactive)
ROOT
HETATM    1  C1  UNL     1     -41.357   5.934  -1.412  1.00 20.00    -0.087 C 
HETATM    2  C2  UNL     1     -41.136   7.129  -0.865  1.00 20.00     0.014 C 
HETATM    3  C3  UNL     1     -42.267   5.457  -2.523  1.00 20.00     0.049 C 
HETATM    4  C4  UNL     1     -40.786   4.557  -1.159  1.00 20.00     0.049 C 
HETATM    5  C5  UNL     1     -42.069   4.063  -1.875  1.00 20.00     0.065 C 
HETATM    6 BR6  UNL     1     -41.817   2.595  -3.117  1.00 20.00    -0.091 Br
ENDROOT
TORSDOF 0
ENDMDL
MODEL 7
REMARK VINA RESULT:      -3.1      9.623     10.326
REMARK  0 active torsions:
REMARK  status: ('A' for Active; 'I' for Inactive)
ROOT
HETATM    1  C1  UNL     1     -41.718   3.765  -2.464  1.00 20.00    -0.087 C 
HETATM    2  C2  UNL     1     -41.808   2.574  -3.057  1.00 20.00     0.014 C 
HETATM    3  C3  UNL     1     -40.826   4.312  -1.371  1.00 20.00     0.049 C 
HETATM    4  C4  UNL     1     -42.461   5.070  -2.643  1.00 20.00     0.049 C 
HETATM    5  C5  UNL     1     -41.934   5.385  -1.219  1.00 20.00     0.065 C 
HETATM    6 BR6  UNL     1     -41.306   7.199  -0.946  1.00 20.00    -0.091 Br
ENDROOT
TORSDOF 0
ENDMDL
MODEL 8
REMARK VINA RESULT:      -3.1     12.278     12.480
REMARK  0 active torsions:
REMARK  status: ('A' for Active; 'I' for Inactive)
ROOT
HETATM    1  C1  UNL     1     -34.455  14.242  -3.993  1.00 20.00    -0.087 C 
HETATM    2  C2  UNL     1     -34.549  13.237  -4.864  1.00 20.00     0.014 C 
HETATM    3  C3  UNL     1     -35.479  15.013  -3.187  1.00 20.00     0.049 C 
HETATM    4  C4  UNL     1     -33.288  15.027  -3.438  1.00 20.00     0.049 C 
HETATM    5  C5  UNL     1     -34.365  16.086  -3.090  1.00 20.00     0.065 C 
HETATM    6 BR6  UNL     1     -34.172  16.932  -1.356  1.00 20.00    -0.091 Br
ENDROOT
TORSDOF 0
ENDMDL
MODEL 9
REMARK VINA RESULT:      -3.1     12.543     13.154
REMARK  0 active torsions:
REMARK  status: ('A' for Active; 'I' for Inactive)
ROOT
HETATM    1  C1  UNL     1     -34.463  16.925  -1.330  1.00 20.00    -0.087 C 
HETATM    2  C2  UNL     1     -34.783  17.074  -0.045  1.00 20.00     0.014 C 
HETATM    3  C3  UNL     1     -33.788  17.829  -2.339  1.00 20.00     0.049 C 
HETATM    4  C4  UNL     1     -34.632  15.791  -2.316  1.00 20.00     0.049 C 
HETATM    5  C5  UNL     1     -34.456  16.900  -3.385  1.00 20.00     0.065 C 
HETATM    6 BR6  UNL     1     -33.349  16.424  -4.904  1.00 20.00    -0.091 Br
ENDROOT
TORSDOF 0
ENDMDL
