MODEL 1
REMARK VINA RESULT:      -4.5      0.000      0.000
REMARK  0 active torsions:
REMARK  status: ('A' for Active; 'I' for Inactive)
ROOT
HETATM    1  C1  UNL     1     -34.749  14.928  -2.886  1.00 20.00     0.009 A 
HETATM    2  C2  UNL     1     -34.737  14.610  -4.245  1.00 20.00     0.019 A 
HETATM    3  C3  UNL     1     -34.106  16.880  -4.794  1.00 20.00     0.032 A 
HETATM    4  C4  UNL     1     -34.108  17.183  -3.435  1.00 20.00    -0.011 A 
HETATM    5  C5  UNL     1     -34.425  16.222  -2.472  1.00 20.00    -0.045 A 
HETATM    6  C6  UNL     1     -34.416  15.582  -5.196  1.00 20.00     0.011 A 
HETATM    7  C7  UNL     1     -33.813  18.541  -2.967  1.00 20.00     0.122 C 
HETATM    8  C8  UNL     1     -34.482  16.644  -1.035  1.00 20.00     0.061 C 
HETATM    9  C9  UNL     1     -33.461  17.748  -0.776  1.00 20.00     0.153 C 
HETATM   10  N10 UNL     1     -33.557  18.852  -1.742  1.00 20.00    -0.300 NA
HETATM   11 BR11 UNL     1     -34.413  15.138  -7.034  1.00 20.00    -0.051 Br
ENDROOT
TORSDOF 0
ENDMDL
MODEL 2
REMARK VINA RESULT:      -4.5      3.099      4.634
REMARK  0 active torsions:
REMARK  status: ('A' for Active; 'I' for Inactive)
ROOT
HETATM    1  C1  UNL     1     -35.260  17.151  -4.484  1.00 20.00     0.009 A 
HETATM    2  C2  UNL     1     -34.767  17.819  -3.361  1.00 20.00     0.019 A 
HETATM    3  C3  UNL     1     -34.086  15.714  -2.381  1.00 20.00     0.032 A 
HETATM    4  C4  UNL     1     -34.569  15.060  -3.511  1.00 20.00    -0.011 A 
HETATM    5  C5  UNL     1     -35.155  15.761  -4.568  1.00 20.00    -0.045 A 
HETATM    6  C6  UNL     1     -34.181  17.103  -2.314  1.00 20.00     0.011 A 
HETATM    7  C7  UNL     1     -34.514  13.598  -3.615  1.00 20.00     0.122 C 
HETATM    8  C8  UNL     1     -35.721  14.980  -5.715  1.00 20.00     0.061 C 
HETATM    9  C9  UNL     1     -34.901  13.712  -5.936  1.00 20.00     0.153 C 
HETATM   10  N10 UNL     1     -34.708  12.935  -4.704  1.00 20.00    -0.300 NA
HETATM   11 BR11 UNL     1     -33.527  18.020  -0.795  1.00 20.00    -0.051 Br
ENDROOT
TORSDOF 0
ENDMDL
MODEL 3
REMARK VINA RESULT:      -4.4      3.220      4.733
REMARK  0 active torsions:
REMARK  status: ('A' for Active; 'I' for Inactive)
ROOT
HETATM    1  C1  UNL     1     -33.574  18.793  -2.117  1.00 20.00     0.009 A 
HETATM    2  C2  UNL     1     -33.891  18.882  -0.759  1.00 20.00     0.019 A 
HETATM    3  C3  UNL     1     -34.683  16.595  -0.772  1.00 20.00     0.032 A 
HETATM    4  C4  UNL     1     -34.350  16.514  -2.122  1.00 20.00    -0.011 A 
HETATM    5  C5  UNL     1     -33.795  17.599  -2.805  1.00 20.00    -0.045 A 
HETATM    6  C6  UNL     1     -34.443  17.787  -0.090  1.00 20.00     0.011 A 
HETATM    7  C7  UNL     1     -34.608  15.290  -2.887  1.00 20.00     0.122 C 
HETATM    8  C8  UNL     1     -33.536  17.459  -4.275  1.00 20.00     0.061 C 
HETATM    9  C9  UNL     1     -33.164  16.015  -4.602  1.00 20.00     0.153 C 
HETATM   10  N10 UNL     1     -34.119  15.041  -4.054  1.00 20.00    -0.300 NA
HETATM   11 BR11 UNL     1     -34.877  17.925   1.745  1.00 20.00    -0.051 Br
ENDROOT
TORSDOF 0
ENDMDL
MODEL 4
REMARK VINA RESULT:      -4.4      3.131      4.025
REMARK  0 active torsions:
REMARK  status: ('A' for Active; 'I' for Inactive)
ROOT
HETATM    1  C1  UNL     1     -33.303  16.980  -4.686  1.00 20.00     0.009 A 
HETATM    2  C2  UNL     1     -33.816  17.861  -5.640  1.00 20.00     0.019 A 
HETATM    3  C3  UNL     1     -35.060  16.059  -6.668  1.00 20.00     0.032 A 
HETATM    4  C4  UNL     1     -34.553  15.192  -5.704  1.00 20.00    -0.011 A 
HETATM    5  C5  UNL     1     -33.678  15.635  -4.709  1.00 20.00    -0.045 A 
HETATM    6  C6  UNL     1     -34.692  17.402  -6.627  1.00 20.00     0.011 A 
HETATM    7  C7  UNL     1     -34.893  13.765  -5.723  1.00 20.00     0.122 C 
HETATM    8  C8  UNL     1     -33.114  14.627  -3.754  1.00 20.00     0.061 C 
HETATM    9  C9  UNL     1     -34.134  13.519  -3.505  1.00 20.00     0.153 C 
HETATM   10  N10 UNL     1     -34.673  12.949  -4.749  1.00 20.00    -0.300 NA
HETATM   11 BR11 UNL     1     -35.370  18.606  -7.918  1.00 20.00    -0.051 Br
ENDROOT
TORSDOF 0
ENDMDL
MODEL 5
REMARK VINA RESULT:      -4.4      2.931      4.237
REMARK  0 active torsions:
REMARK  status: ('A' for Active; 'I' for Inactive)
ROOT
HETATM    1  C1  UNL     1     -34.399  15.220  -2.776  1.00 20.00     0.009 A 
HETATM    2  C2  UNL     1     -34.144  16.443  -2.151  1.00 20.00     0.019 A 
HETATM    3  C3  UNL     1     -33.728  17.478  -4.299  1.00 20.00     0.032 A 
HETATM    4  C4  UNL     1     -33.997  16.257  -4.911  1.00 20.00    -0.011 A 
HETATM    5  C5  UNL     1     -34.334  15.124  -4.167  1.00 20.00    -0.045 A 
HETATM    6  C6  UNL     1     -33.810  17.568  -2.911  1.00 20.00     0.011 A 
HETATM    7  C7  UNL     1     -33.897  16.108  -6.367  1.00 20.00     0.122 C 
HETATM    8  C8  UNL     1     -34.533  13.827  -4.893  1.00 20.00     0.061 C 
HETATM    9  C9  UNL     1     -35.113  14.091  -6.280  1.00 20.00     0.153 C 
HETATM   10  N10 UNL     1     -34.356  15.103  -7.032  1.00 20.00    -0.300 NA
HETATM   11 BR11 UNL     1     -33.459  19.215  -2.050  1.00 20.00    -0.051 Br
ENDROOT
TORSDOF 0
ENDMDL
MODEL 6
REMARK VINA RESULT:      -4.3     12.777     14.025
REMARK  0 active torsions:
REMARK  status: ('A' for Active; 'I' for Inactive)
ROOT
HETATM    1  C1  UNL     1     -40.834   3.974  -1.721  1.00 20.00     0.009 A 
HETATM    2  C2  UNL     1     -41.432   3.120  -2.650  1.00 20.00     0.019 A 
HETATM    3  C3  UNL     1     -43.209   4.722  -3.013  1.00 20.00     0.032 A 
HETATM    4  C4  UNL     1     -42.596   5.571  -2.095  1.00 20.00    -0.011 A 
HETATM    5  C5  UNL     1     -41.413   5.214  -1.444  1.00 20.00    -0.045 A 
HETATM    6  C6  UNL     1     -42.615   3.493  -3.294  1.00 20.00     0.011 A 
HETATM    7  C7  UNL     1     -43.198   6.863  -1.748  1.00 20.00     0.122 C 
HETATM    8  C8  UNL     1     -40.856   6.148  -0.412  1.00 20.00     0.061 C 
HETATM    9  C9  UNL     1     -41.171   7.592  -0.793  1.00 20.00     0.153 C 
HETATM   10  N10 UNL     1     -42.592   7.804  -1.107  1.00 20.00    -0.300 NA
HETATM   11 BR11 UNL     1     -43.417   2.322  -4.543  1.00 20.00    -0.051 Br
ENDROOT
TORSDOF 0
ENDMDL
MODEL 7
REMARK VINA RESULT:      -4.3      3.238      4.740
REMARK  0 active torsions:
REMARK  status: ('A' for Active; 'I' for Inactive)
ROOT
HETATM    1  C1  UNL     1     -33.204  15.755  -4.609  1.00 20.00     0.009 A 
HETATM    2  C2  UNL     1     -33.317  16.089  -3.258  1.00 20.00     0.019 A 
HETATM    3  C3  UNL     1     -35.730  16.084  -3.435  1.00 20.00     0.032 A 
HETATM    4  C4  UNL     1     -35.606  15.738  -4.778  1.00 20.00    -0.011 A 
HETATM    5  C5  UNL     1     -34.355  15.569  -5.377  1.00 20.00    -0.045 A 
HETATM    6  C6  UNL     1     -34.576  16.252  -2.673  1.00 20.00     0.011 A 
HETATM    7  C7  UNL     1     -36.792  15.575  -5.625  1.00 20.00     0.122 C 
HETATM    8  C8  UNL     1     -34.302  15.273  -6.846  1.00 20.00     0.061 C 
HETATM    9  C9  UNL     1     -35.518  14.445  -7.254  1.00 20.00     0.153 C 
HETATM   10  N10 UNL     1     -36.786  15.028  -6.793  1.00 20.00    -0.300 NA
HETATM   11 BR11 UNL     1     -34.712  16.713  -0.844  1.00 20.00    -0.051 Br
ENDROOT
TORSDOF 0
ENDMDL
MODEL 8
REMARK VINA RESULT:      -4.2      3.171      4.303
REMARK  0 active torsions:
REMARK  status: ('A' for Active; 'I' for Inactive)
ROOT
HETATM    1  C1  UNL     1     -33.950  16.825  -2.670  1.00 20.00     0.009 A 
HETATM    2  C2  UNL     1     -35.048  17.608  -2.307  1.00 20.00     0.019 A 
HETATM    3  C3  UNL     1     -36.559  15.945  -3.205  1.00 20.00     0.032 A 
HETATM    4  C4  UNL     1     -35.458  15.167  -3.550  1.00 20.00    -0.011 A 
HETATM    5  C5  UNL     1     -34.152  15.590  -3.289  1.00 20.00    -0.045 A 
HETATM    6  C6  UNL     1     -36.348  17.169  -2.573  1.00 20.00     0.011 A 
HETATM    7  C7  UNL     1     -35.631  13.883  -4.239  1.00 20.00     0.122 C 
HETATM    8  C8  UNL     1     -33.017  14.732  -3.760  1.00 20.00     0.061 C 
HETATM    9  C9  UNL     1     -33.420  13.261  -3.709  1.00 20.00     0.153 C 
HETATM   10  N10 UNL     1     -34.704  12.997  -4.376  1.00 20.00    -0.300 NA
HETATM   11 BR11 UNL     1     -37.824  18.245  -2.084  1.00 20.00    -0.051 Br
ENDROOT
TORSDOF 0
ENDMDL
MODEL 9
REMARK VINA RESULT:      -4.2      3.485      4.795
REMARK  0 active torsions:
REMARK  status: ('A' for Active; 'I' for Inactive)
ROOT
HETATM    1  C1  UNL     1     -35.153  17.665   1.099  1.00 20.00     0.009 A 
HETATM    2  C2  UNL     1     -35.117  17.386  -0.269  1.00 20.00     0.019 A 
HETATM    3  C3  UNL     1     -32.879  18.295  -0.419  1.00 20.00     0.032 A 
HETATM    4  C4  UNL     1     -32.921  18.556   0.948  1.00 20.00    -0.011 A 
HETATM    5  C5  UNL     1     -34.045  18.247   1.718  1.00 20.00    -0.045 A 
HETATM    6  C6  UNL     1     -33.984  17.699  -1.025  1.00 20.00     0.011 A 
HETATM    7  C7  UNL     1     -31.792  19.204   1.624  1.00 20.00     0.122 C 
HETATM    8  C8  UNL     1     -34.044  18.629   3.168  1.00 20.00     0.061 C 
HETATM    9  C9  UNL     1     -32.626  18.543   3.727  1.00 20.00     0.153 C 
HETATM   10  N10 UNL     1     -31.643  19.263   2.904  1.00 20.00    -0.300 NA
HETATM   11 BR11 UNL     1     -33.955  17.324  -2.878  1.00 20.00    -0.051 Br
ENDROOT
TORSDOF 0
ENDMDL
