MODEL 1
REMARK VINA RESULT:      -4.8      0.000      0.000
REMARK  2 active torsions:
REMARK  status: ('A' for Active; 'I' for Inactive)
REMARK    1  A    between atoms: C6_6  and  C10_10 
REMARK    2  A    between atoms: C7_7  and  C11_11 
ROOT
HETATM    1  C1  UNL     1     -33.625  13.700  -3.670  1.00 20.00    -0.025 C 
HETATM    2  C2  UNL     1     -32.670  14.641  -3.688  1.00 20.00    -0.025 C 
HETATM    3  C3  UNL     1     -34.225  15.231  -5.285  1.00 20.00     0.017 C 
HETATM    4  C4  UNL     1     -34.881  14.326  -4.235  1.00 20.00     0.013 C 
HETATM    5  C5  UNL     1     -33.284  15.892  -4.270  1.00 20.00     0.013 C 
HETATM    6  C6  UNL     1     -35.393  15.348  -3.182  1.00 20.00    -0.002 C 
HETATM    7  C7  UNL     1     -34.323  16.491  -3.283  1.00 20.00    -0.002 C 
ENDROOT
BRANCH   6   8
HETATM    8  C10 UNL     1     -36.799  15.851  -3.491  1.00 20.00     0.001 C 
HETATM    9  C8  UNL     1     -37.700  14.742  -3.930  1.00 20.00     0.005 C 
ENDBRANCH   6   8
BRANCH   7  10
HETATM   10  C11 UNL     1     -33.751  16.901  -1.931  1.00 20.00     0.001 C 
HETATM   11  C9  UNL     1     -34.673  16.551  -0.807  1.00 20.00     0.005 C 
ENDBRANCH   7  10
TORSDOF 2
ENDMDL
MODEL 2
REMARK VINA RESULT:      -4.7      1.449      3.617
REMARK  2 active torsions:
REMARK  status: ('A' for Active; 'I' for Inactive)
REMARK    1  A    between atoms: C6_6  and  C10_10 
REMARK    2  A    between atoms: C7_7  and  C11_11 
ROOT
HETATM    1  C1  UNL     1     -33.326  13.823  -3.777  1.00 20.00    -0.025 C 
HETATM    2  C2  UNL     1     -34.618  13.470  -3.857  1.00 20.00    -0.025 C 
HETATM    3  C3  UNL     1     -34.541  15.497  -2.761  1.00 20.00     0.017 C 
HETATM    4  C4  UNL     1     -33.282  15.327  -3.620  1.00 20.00     0.013 C 
HETATM    5  C5  UNL     1     -35.436  14.735  -3.746  1.00 20.00     0.013 C 
HETATM    6  C6  UNL     1     -33.716  15.940  -4.980  1.00 20.00    -0.002 C 
HETATM    7  C7  UNL     1     -35.250  15.609  -5.017  1.00 20.00    -0.002 C 
ENDROOT
BRANCH   6   8
HETATM    8  C10 UNL     1     -33.452  17.440  -5.057  1.00 20.00     0.001 C 
HETATM    9  C8  UNL     1     -34.715  18.215  -5.249  1.00 20.00     0.005 C 
ENDBRANCH   6   8
BRANCH   7  10
HETATM   10  C11 UNL     1     -35.691  14.942  -6.314  1.00 20.00     0.001 C 
HETATM   11  C9  UNL     1     -34.581  14.882  -7.314  1.00 20.00     0.005 C 
ENDBRANCH   7  10
TORSDOF 2
ENDMDL
MODEL 3
REMARK VINA RESULT:      -4.7      0.742      3.136
REMARK  2 active torsions:
REMARK  status: ('A' for Active; 'I' for Inactive)
REMARK    1  A    between atoms: C6_6  and  C10_10 
REMARK    2  A    between atoms: C7_7  and  C11_11 
ROOT
HETATM    1  C1  UNL     1     -33.691  16.231  -5.218  1.00 20.00    -0.025 C 
HETATM    2  C2  UNL     1     -34.190  15.047  -5.600  1.00 20.00    -0.025 C 
HETATM    3  C3  UNL     1     -32.934  14.667  -3.704  1.00 20.00     0.017 C 
HETATM    4  C4  UNL     1     -33.385  16.132  -3.740  1.00 20.00     0.013 C 
HETATM    5  C5  UNL     1     -34.211  14.155  -4.382  1.00 20.00     0.013 C 
HETATM    6  C6  UNL     1     -34.748  16.084  -2.995  1.00 20.00    -0.002 C 
HETATM    7  C7  UNL     1     -35.278  14.654  -3.368  1.00 20.00    -0.002 C 
ENDROOT
BRANCH   6   8
HETATM    8  C10 UNL     1     -34.598  16.264  -1.488  1.00 20.00     0.001 C 
HETATM    9  C8  UNL     1     -33.741  17.441  -1.154  1.00 20.00     0.005 C 
ENDBRANCH   6   8
BRANCH   7  10
HETATM   10  C11 UNL     1     -36.705  14.662  -3.902  1.00 20.00     0.001 C 
HETATM   11  C9  UNL     1     -37.308  16.029  -3.859  1.00 20.00     0.005 C 
ENDBRANCH   7  10
TORSDOF 2
ENDMDL
MODEL 4
REMARK VINA RESULT:      -4.7      1.464      2.877
REMARK  2 active torsions:
REMARK  status: ('A' for Active; 'I' for Inactive)
REMARK    1  A    between atoms: C6_6  and  C10_10 
REMARK    2  A    between atoms: C7_7  and  C11_11 
ROOT
HETATM    1  C1  UNL     1     -34.931  15.529  -2.575  1.00 20.00    -0.025 C 
HETATM    2  C2  UNL     1     -33.686  16.022  -2.643  1.00 20.00    -0.025 C 
HETATM    3  C3  UNL     1     -33.674  14.006  -3.762  1.00 20.00     0.017 C 
HETATM    4  C4  UNL     1     -35.098  14.572  -3.734  1.00 20.00     0.013 C 
HETATM    5  C5  UNL     1     -33.020  15.391  -3.843  1.00 20.00     0.013 C 
HETATM    6  C6  UNL     1     -35.146  15.430  -5.029  1.00 20.00    -0.002 C 
HETATM    7  C7  UNL     1     -33.661  15.921  -5.155  1.00 20.00    -0.002 C 
ENDROOT
BRANCH   6   8
HETATM    8  C10 UNL     1     -35.590  14.627  -6.247  1.00 20.00     0.001 C 
HETATM    9  C8  UNL     1     -34.657  14.810  -7.400  1.00 20.00     0.005 C 
ENDBRANCH   6   8
BRANCH   7  10
HETATM   10  C11 UNL     1     -33.539  17.426  -5.358  1.00 20.00     0.001 C 
HETATM   11  C9  UNL     1     -34.878  18.083  -5.466  1.00 20.00     0.005 C 
ENDBRANCH   7  10
TORSDOF 2
ENDMDL
MODEL 5
REMARK VINA RESULT:      -4.6      1.247      3.453
REMARK  2 active torsions:
REMARK  status: ('A' for Active; 'I' for Inactive)
REMARK    1  A    between atoms: C6_6  and  C10_10 
REMARK    2  A    between atoms: C7_7  and  C11_11 
ROOT
HETATM    1  C1  UNL     1     -33.702  17.004  -1.707  1.00 20.00    -0.025 C 
HETATM    2  C2  UNL     1     -34.754  16.207  -1.469  1.00 20.00    -0.025 C 
HETATM    3  C3  UNL     1     -35.359  17.628  -3.181  1.00 20.00     0.017 C 
HETATM    4  C4  UNL     1     -33.832  17.506  -3.128  1.00 20.00     0.013 C 
HETATM    5  C5  UNL     1     -35.590  16.181  -2.727  1.00 20.00     0.013 C 
HETATM    6  C6  UNL     1     -33.558  16.296  -4.064  1.00 20.00    -0.002 C 
HETATM    7  C7  UNL     1     -34.841  15.418  -3.855  1.00 20.00    -0.002 C 
ENDROOT
BRANCH   6   8
HETATM    8  C10 UNL     1     -33.380  16.712  -5.520  1.00 20.00     0.001 C 
HETATM    9  C8  UNL     1     -34.356  16.021  -6.417  1.00 20.00     0.005 C 
ENDBRANCH   6   8
BRANCH   7  10
HETATM   10  C11 UNL     1     -34.529  13.961  -3.534  1.00 20.00     0.001 C 
HETATM   11  C9  UNL     1     -33.064  13.673  -3.626  1.00 20.00     0.005 C 
ENDBRANCH   7  10
TORSDOF 2
ENDMDL
MODEL 6
REMARK VINA RESULT:      -4.6      1.375      2.909
REMARK  2 active torsions:
REMARK  status: ('A' for Active; 'I' for Inactive)
REMARK    1  A    between atoms: C6_6  and  C10_10 
REMARK    2  A    between atoms: C7_7  and  C11_11 
ROOT
HETATM    1  C1  UNL     1     -34.359  13.463  -4.731  1.00 20.00    -0.025 C 
HETATM    2  C2  UNL     1     -34.606  14.211  -5.816  1.00 20.00    -0.025 C 
HETATM    3  C3  UNL     1     -36.309  14.618  -4.316  1.00 20.00     0.017 C 
HETATM    4  C4  UNL     1     -35.071  14.114  -3.566  1.00 20.00     0.013 C 
HETATM    5  C5  UNL     1     -35.486  15.358  -5.378  1.00 20.00     0.013 C 
HETATM    6  C6  UNL     1     -34.311  15.431  -3.247  1.00 20.00    -0.002 C 
HETATM    7  C7  UNL     1     -34.687  16.336  -4.473  1.00 20.00    -0.002 C 
ENDROOT
BRANCH   6   8
HETATM    8  C10 UNL     1     -34.744  16.052  -1.923  1.00 20.00     0.001 C 
HETATM    9  C8  UNL     1     -33.761  17.067  -1.439  1.00 20.00     0.005 C 
ENDBRANCH   6   8
BRANCH   7  10
HETATM   10  C11 UNL     1     -33.477  16.974  -5.144  1.00 20.00     0.001 C 
HETATM   11  C9  UNL     1     -33.537  18.468  -5.093  1.00 20.00     0.005 C 
ENDBRANCH   7  10
TORSDOF 2
ENDMDL
MODEL 7
REMARK VINA RESULT:      -4.5     11.254     12.868
REMARK  2 active torsions:
REMARK  status: ('A' for Active; 'I' for Inactive)
REMARK    1  A    between atoms: C6_6  and  C10_10 
REMARK    2  A    between atoms: C7_7  and  C11_11 
ROOT
HETATM    1  C1  UNL     1     -42.982   5.669   0.354  1.00 20.00    -0.025 C 
HETATM    2  C2  UNL     1     -42.918   6.900  -0.173  1.00 20.00    -0.025 C 
HETATM    3  C3  UNL     1     -40.774   6.050  -0.187  1.00 20.00     0.017 C 
HETATM    4  C4  UNL     1     -41.786   4.899  -0.160  1.00 20.00     0.013 C 
HETATM    5  C5  UNL     1     -41.678   6.955  -1.034  1.00 20.00     0.013 C 
HETATM    6  C6  UNL     1     -42.032   4.631  -1.671  1.00 20.00    -0.002 C 
HETATM    7  C7  UNL     1     -41.856   6.062  -2.293  1.00 20.00    -0.002 C 
ENDROOT
BRANCH   6   8
HETATM    8  C10 UNL     1     -41.045   3.627  -2.257  1.00 20.00     0.001 C 
HETATM    9  C8  UNL     1     -41.732   2.606  -3.105  1.00 20.00     0.005 C 
ENDBRANCH   6   8
BRANCH   7  10
HETATM   10  C11 UNL     1     -43.009   6.470  -3.201  1.00 20.00     0.001 C 
HETATM   11  C9  UNL     1     -42.735   7.762  -3.902  1.00 20.00     0.005 C 
ENDBRANCH   7  10
TORSDOF 2
ENDMDL
MODEL 8
REMARK VINA RESULT:      -4.5      1.355      2.467
REMARK  2 active torsions:
REMARK  status: ('A' for Active; 'I' for Inactive)
REMARK    1  A    between atoms: C6_6  and  C10_10 
REMARK    2  A    between atoms: C7_7  and  C11_11 
ROOT
HETATM    1  C1  UNL     1     -33.367  17.115  -5.175  1.00 20.00    -0.025 C 
HETATM    2  C2  UNL     1     -33.960  18.008  -4.370  1.00 20.00    -0.025 C 
HETATM    3  C3  UNL     1     -35.565  16.459  -4.954  1.00 20.00     0.017 C 
HETATM    4  C4  UNL     1     -34.172  15.836  -5.095  1.00 20.00     0.013 C 
HETATM    5  C5  UNL     1     -35.163  17.330  -3.758  1.00 20.00     0.013 C 
HETATM    6  C6  UNL     1     -33.928  15.233  -3.684  1.00 20.00    -0.002 C 
HETATM    7  C7  UNL     1     -34.710  16.231  -2.758  1.00 20.00    -0.002 C 
ENDROOT
BRANCH   6   8
HETATM    8  C10 UNL     1     -34.451  13.806  -3.559  1.00 20.00     0.001 C 
HETATM    9  C8  UNL     1     -34.534  13.128  -4.888  1.00 20.00     0.005 C 
ENDBRANCH   6   8
BRANCH   7  10
HETATM   10  C11 UNL     1     -33.881  16.742  -1.587  1.00 20.00     0.001 C 
HETATM   11  C9  UNL     1     -34.717  16.962  -0.367  1.00 20.00     0.005 C 
ENDBRANCH   7  10
TORSDOF 2
ENDMDL
MODEL 9
REMARK VINA RESULT:      -4.4      1.305      3.025
REMARK  2 active torsions:
REMARK  status: ('A' for Active; 'I' for Inactive)
REMARK    1  A    between atoms: C6_6  and  C10_10 
REMARK    2  A    between atoms: C7_7  and  C11_11 
ROOT
HETATM    1  C1  UNL     1     -35.150  16.481  -6.177  1.00 20.00    -0.025 C 
HETATM    2  C2  UNL     1     -33.918  15.961  -6.286  1.00 20.00    -0.025 C 
HETATM    3  C3  UNL     1     -33.783  17.704  -4.782  1.00 20.00     0.017 C 
HETATM    4  C4  UNL     1     -35.223  17.183  -4.839  1.00 20.00     0.013 C 
HETATM    5  C5  UNL     1     -33.168  16.320  -5.025  1.00 20.00     0.013 C 
HETATM    6  C6  UNL     1     -35.226  16.078  -3.746  1.00 20.00    -0.002 C 
HETATM    7  C7  UNL     1     -33.751  15.545  -3.812  1.00 20.00    -0.002 C 
ENDROOT
BRANCH   6   8
HETATM    8  C10 UNL     1     -35.576  16.622  -2.365  1.00 20.00     0.001 C 
HETATM    9  C8  UNL     1     -34.467  16.408  -1.387  1.00 20.00     0.005 C 
ENDBRANCH   6   8
BRANCH   7  10
HETATM   10  C11 UNL     1     -33.664  14.028  -3.928  1.00 20.00     0.001 C 
HETATM   11  C9  UNL     1     -35.015  13.402  -4.060  1.00 20.00     0.005 C 
ENDBRANCH   7  10
TORSDOF 2
ENDMDL
