MODEL 1
REMARK VINA RESULT:      -6.1      0.000      0.000
REMARK  0 active torsions:
REMARK  status: ('A' for Active; 'I' for Inactive)
ROOT
HETATM    1  C1  UNL     1     -35.436   4.910   3.982  1.00 20.00     0.017 A 
HETATM    2  C2  UNL     1     -35.362   4.823   5.316  1.00 20.00     0.054 A 
HETATM    3  C3  UNL     1     -33.280   6.232   5.290  1.00 20.00     0.060 A 
HETATM    4  C4  UNL     1     -33.341   6.327   3.950  1.00 20.00    -0.044 A 
HETATM    5  C5  UNL     1     -34.440   5.665   3.150  1.00 20.00     0.221 A 
HETATM    6  C6  UNL     1     -34.276   5.473   6.118  1.00 20.00     0.280 A 
HETATM    7  C7  UNL     1     -32.324   7.098   3.162  1.00 20.00     0.046 C 
HETATM    8  F8  UNL     1     -33.891   4.818   2.233  1.00 20.00    -0.240 F 
HETATM    9  F9  UNL     1     -34.834   6.316   7.035  1.00 20.00    -0.197 F 
HETATM   10  F10 UNL     1     -33.624   4.524   6.849  1.00 20.00    -0.197 F 
ENDROOT
TORSDOF 0
ENDMDL
MODEL 2
REMARK VINA RESULT:      -5.6      1.197      3.410
REMARK  0 active torsions:
REMARK  status: ('A' for Active; 'I' for Inactive)
ROOT
HETATM    1  C1  UNL     1     -35.050   4.005   5.555  1.00 20.00     0.017 A 
HETATM    2  C2  UNL     1     -35.198   4.164   4.234  1.00 20.00     0.054 A 
HETATM    3  C3  UNL     1     -34.148   6.443   4.393  1.00 20.00     0.060 A 
HETATM    4  C4  UNL     1     -33.994   6.297   5.721  1.00 20.00    -0.044 A 
HETATM    5  C5  UNL     1     -34.436   5.046   6.445  1.00 20.00     0.221 A 
HETATM    6  C6  UNL     1     -34.764   5.400   3.506  1.00 20.00     0.280 A 
HETATM    7  C7  UNL     1     -33.370   7.365   6.569  1.00 20.00     0.046 C 
HETATM    8  F8  UNL     1     -35.327   5.376   7.424  1.00 20.00    -0.240 F 
HETATM    9  F9  UNL     1     -33.877   5.061   2.527  1.00 20.00    -0.197 F 
HETATM   10  F10 UNL     1     -35.834   5.939   2.854  1.00 20.00    -0.197 F 
ENDROOT
TORSDOF 0
ENDMDL
MODEL 3
REMARK VINA RESULT:      -5.4      1.516      2.960
REMARK  0 active torsions:
REMARK  status: ('A' for Active; 'I' for Inactive)
ROOT
HETATM    1  C1  UNL     1     -34.354   5.574   6.583  1.00 20.00     0.017 A 
HETATM    2  C2  UNL     1     -35.236   4.874   5.860  1.00 20.00     0.054 A 
HETATM    3  C3  UNL     1     -34.145   5.688   3.746  1.00 20.00     0.060 A 
HETATM    4  C4  UNL     1     -33.253   6.397   4.460  1.00 20.00    -0.044 A 
HETATM    5  C5  UNL     1     -33.269   6.412   5.971  1.00 20.00     0.221 A 
HETATM    6  C6  UNL     1     -35.231   4.854   4.361  1.00 20.00     0.280 A 
HETATM    7  C7  UNL     1     -32.182   7.216   3.803  1.00 20.00     0.046 C 
HETATM    8  F8  UNL     1     -33.394   7.696   6.414  1.00 20.00    -0.240 F 
HETATM    9  F9  UNL     1     -35.109   3.566   3.927  1.00 20.00    -0.197 F 
HETATM   10  F10 UNL     1     -36.442   5.278   3.899  1.00 20.00    -0.197 F 
ENDROOT
TORSDOF 0
ENDMDL
MODEL 4
REMARK VINA RESULT:      -5.2      2.000      3.384
REMARK  0 active torsions:
REMARK  status: ('A' for Active; 'I' for Inactive)
ROOT
HETATM    1  C1  UNL     1     -34.400   5.059   2.728  1.00 20.00     0.017 A 
HETATM    2  C2  UNL     1     -33.367   5.841   2.391  1.00 20.00     0.054 A 
HETATM    3  C3  UNL     1     -33.145   6.573   4.786  1.00 20.00     0.060 A 
HETATM    4  C4  UNL     1     -34.182   5.793   5.137  1.00 20.00    -0.044 A 
HETATM    5  C5  UNL     1     -34.925   4.946   4.130  1.00 20.00     0.221 A 
HETATM    6  C6  UNL     1     -32.625   6.685   3.382  1.00 20.00     0.280 A 
HETATM    7  C7  UNL     1     -34.667   5.710   6.555  1.00 20.00     0.046 C 
HETATM    8  F8  UNL     1     -36.248   5.280   4.139  1.00 20.00    -0.240 F 
HETATM    9  F9  UNL     1     -31.303   6.348   3.363  1.00 20.00    -0.197 F 
HETATM   10  F10 UNL     1     -32.671   7.990   2.988  1.00 20.00    -0.197 F 
ENDROOT
TORSDOF 0
ENDMDL
MODEL 5
REMARK VINA RESULT:      -5.1      1.936      2.698
REMARK  0 active torsions:
REMARK  status: ('A' for Active; 'I' for Inactive)
ROOT
HETATM    1  C1  UNL     1     -33.501   6.158   2.982  1.00 20.00     0.017 A 
HETATM    2  C2  UNL     1     -34.451   5.218   3.060  1.00 20.00     0.054 A 
HETATM    3  C3  UNL     1     -34.648   5.626   5.532  1.00 20.00     0.060 A 
HETATM    4  C4  UNL     1     -33.695   6.572   5.469  1.00 20.00    -0.044 A 
HETATM    5  C5  UNL     1     -33.015   6.937   4.170  1.00 20.00     0.221 A 
HETATM    6  C6  UNL     1     -35.129   4.847   4.343  1.00 20.00     0.280 A 
HETATM    7  C7  UNL     1     -33.246   7.328   6.685  1.00 20.00     0.046 C 
HETATM    8  F8  UNL     1     -31.667   6.766   4.295  1.00 20.00    -0.240 F 
HETATM    9  F9  UNL     1     -36.476   5.017   4.208  1.00 20.00    -0.197 F 
HETATM   10  F10 UNL     1     -34.956   3.514   4.577  1.00 20.00    -0.197 F 
ENDROOT
TORSDOF 0
ENDMDL
MODEL 6
REMARK VINA RESULT:      -4.9     12.035     13.348
REMARK  0 active torsions:
REMARK  status: ('A' for Active; 'I' for Inactive)
ROOT
HETATM    1  C1  UNL     1     -35.155  13.684  -4.387  1.00 20.00     0.017 A 
HETATM    2  C2  UNL     1     -34.218  13.939  -3.465  1.00 20.00     0.054 A 
HETATM    3  C3  UNL     1     -33.394  15.875  -4.840  1.00 20.00     0.060 A 
HETATM    4  C4  UNL     1     -34.330  15.630  -5.775  1.00 20.00    -0.044 A 
HETATM    5  C5  UNL     1     -35.317  14.494  -5.640  1.00 20.00     0.221 A 
HETATM    6  C6  UNL     1     -33.234  15.061  -3.589  1.00 20.00     0.280 A 
HETATM    7  C7  UNL     1     -34.455  16.472  -7.010  1.00 20.00     0.046 C 
HETATM    8  F8  UNL     1     -35.213  13.668  -6.721  1.00 20.00    -0.240 F 
HETATM    9  F9  UNL     1     -33.342  15.879  -2.503  1.00 20.00    -0.197 F 
HETATM   10  F10 UNL     1     -31.967  14.559  -3.538  1.00 20.00    -0.197 F 
ENDROOT
TORSDOF 0
ENDMDL
MODEL 7
REMARK VINA RESULT:      -4.8     12.139     13.841
REMARK  0 active torsions:
REMARK  status: ('A' for Active; 'I' for Inactive)
ROOT
HETATM    1  C1  UNL     1     -33.213  16.446  -5.018  1.00 20.00     0.017 A 
HETATM    2  C2  UNL     1     -33.119  15.600  -3.985  1.00 20.00     0.054 A 
HETATM    3  C3  UNL     1     -34.505  13.919  -5.239  1.00 20.00     0.060 A 
HETATM    4  C4  UNL     1     -34.608  14.760  -6.283  1.00 20.00    -0.044 A 
HETATM    5  C5  UNL     1     -33.965  16.127  -6.277  1.00 20.00     0.221 A 
HETATM    6  C6  UNL     1     -33.754  14.243  -3.980  1.00 20.00     0.280 A 
HETATM    7  C7  UNL     1     -35.367  14.393  -7.524  1.00 20.00     0.046 C 
HETATM    8  F8  UNL     1     -34.918  17.082  -6.482  1.00 20.00    -0.240 F 
HETATM    9  F9  UNL     1     -32.795  13.296  -3.771  1.00 20.00    -0.197 F 
HETATM   10  F10 UNL     1     -34.599  14.143  -2.914  1.00 20.00    -0.197 F 
ENDROOT
TORSDOF 0
ENDMDL
MODEL 8
REMARK VINA RESULT:      -4.7     12.113     12.897
REMARK  0 active torsions:
REMARK  status: ('A' for Active; 'I' for Inactive)
ROOT
HETATM    1  C1  UNL     1     -33.432  13.695  -3.903  1.00 20.00     0.017 A 
HETATM    2  C2  UNL     1     -32.890  14.841  -3.472  1.00 20.00     0.054 A 
HETATM    3  C3  UNL     1     -35.179  15.872  -3.343  1.00 20.00     0.060 A 
HETATM    4  C4  UNL     1     -35.737  14.727  -3.776  1.00 20.00    -0.044 A 
HETATM    5  C5  UNL     1     -34.907  13.507  -4.105  1.00 20.00     0.221 A 
HETATM    6  C6  UNL     1     -33.702  16.056  -3.146  1.00 20.00     0.280 A 
HETATM    7  C7  UNL     1     -37.219  14.586  -3.957  1.00 20.00     0.046 C 
HETATM    8  F8  UNL     1     -35.137  13.133  -5.397  1.00 20.00    -0.240 F 
HETATM    9  F9  UNL     1     -33.464  16.425  -1.854  1.00 20.00    -0.197 F 
HETATM   10  F10 UNL     1     -33.274  17.105  -3.906  1.00 20.00    -0.197 F 
ENDROOT
TORSDOF 0
ENDMDL
MODEL 9
REMARK VINA RESULT:      -4.7      9.081     10.411
REMARK  0 active torsions:
REMARK  status: ('A' for Active; 'I' for Inactive)
ROOT
HETATM    1  C1  UNL     1     -40.797   6.235  -0.361  1.00 20.00     0.017 A 
HETATM    2  C2  UNL     1     -40.967   4.914  -0.494  1.00 20.00     0.054 A 
HETATM    3  C3  UNL     1     -42.276   5.297  -2.606  1.00 20.00     0.060 A 
HETATM    4  C4  UNL     1     -42.113   6.626  -2.485  1.00 20.00    -0.044 A 
HETATM    5  C5  UNL     1     -41.348   7.237  -1.334  1.00 20.00     0.221 A 
HETATM    6  C6  UNL     1     -41.726   4.298  -1.630  1.00 20.00     0.280 A 
HETATM    7  C7  UNL     1     -42.680   7.588  -3.487  1.00 20.00     0.046 C 
HETATM    8  F8  UNL     1     -42.152   8.113  -0.664  1.00 20.00    -0.240 F 
HETATM    9  F9  UNL     1     -40.916   3.421  -2.291  1.00 20.00    -0.197 F 
HETATM   10  F10 UNL     1     -42.747   3.542  -1.134  1.00 20.00    -0.197 F 
ENDROOT
TORSDOF 0
ENDMDL
