MODEL 1
REMARK VINA RESULT:      -5.9      0.000      0.000
REMARK  1 active torsions:
REMARK  status: ('A' for Active; 'I' for Inactive)
REMARK    1  A    between atoms: C1_1  and  C6_6 
ROOT
HETATM    1  C1  UNL     1     -33.354   5.981   3.451  1.00 20.00    -0.029 A 
HETATM    2  C2  UNL     1     -34.038   5.999   4.609  1.00 20.00     0.168 A 
HETATM    3  C3  UNL     1     -34.317   5.041   2.772  1.00 20.00     0.124 A 
HETATM    4  C7  UNL     1     -35.111   5.042   4.102  1.00 20.00     0.300 A 
HETATM    5  F8  UNL     1     -33.849   6.619   5.781  1.00 20.00    -0.204 F 
HETATM    6  F9  UNL     1     -35.211   3.831   4.701  1.00 20.00    -0.198 F 
HETATM    7  F10 UNL     1     -36.378   5.513   4.002  1.00 20.00    -0.198 F 
ENDROOT
BRANCH   1   8
HETATM    8  C6  UNL     1     -32.063   6.687   3.019  1.00 20.00     0.018 A 
HETATM    9  C4  UNL     1     -32.028   8.033   2.292  1.00 20.00     0.010 A 
HETATM   10  C5  UNL     1     -31.506   7.941   3.695  1.00 20.00     0.010 A 
ENDBRANCH   1   8
TORSDOF 1
ENDMDL
MODEL 2
REMARK VINA RESULT:      -5.5      1.036      1.972
REMARK  1 active torsions:
REMARK  status: ('A' for Active; 'I' for Inactive)
REMARK    1  A    between atoms: C1_1  and  C6_6 
ROOT
HETATM    1  C1  UNL     1     -33.345   6.013   3.545  1.00 20.00    -0.029 A 
HETATM    2  C2  UNL     1     -34.189   5.161   2.936  1.00 20.00     0.168 A 
HETATM    3  C3  UNL     1     -34.112   6.017   4.841  1.00 20.00     0.124 A 
HETATM    4  C7  UNL     1     -35.101   5.044   4.152  1.00 20.00     0.300 A 
HETATM    5  F8  UNL     1     -34.226   4.617   1.712  1.00 20.00    -0.204 F 
HETATM    6  F9  UNL     1     -36.367   5.511   4.038  1.00 20.00    -0.198 F 
HETATM    7  F10 UNL     1     -35.205   3.831   4.747  1.00 20.00    -0.198 F 
ENDROOT
BRANCH   1   8
HETATM    8  C6  UNL     1     -32.065   6.702   3.056  1.00 20.00     0.018 A 
HETATM    9  C4  UNL     1     -32.045   8.043   2.319  1.00 20.00     0.010 A 
HETATM   10  C5  UNL     1     -31.469   7.955   3.700  1.00 20.00     0.010 A 
ENDBRANCH   1   8
TORSDOF 1
ENDMDL
MODEL 3
REMARK VINA RESULT:      -5.4      1.538      1.889
REMARK  1 active torsions:
REMARK  status: ('A' for Active; 'I' for Inactive)
REMARK    1  A    between atoms: C1_1  and  C6_6 
ROOT
HETATM    1  C1  UNL     1     -33.870   6.105   4.613  1.00 20.00    -0.029 A 
HETATM    2  C2  UNL     1     -33.814   6.220   5.952  1.00 20.00     0.168 A 
HETATM    3  C3  UNL     1     -34.686   4.838   4.648  1.00 20.00     0.124 A 
HETATM    4  C7  UNL     1     -34.622   4.950   6.192  1.00 20.00     0.300 A 
HETATM    5  F8  UNL     1     -33.253   7.114   6.778  1.00 20.00    -0.204 F 
HETATM    6  F9  UNL     1     -34.002   3.915   6.808  1.00 20.00    -0.198 F 
HETATM    7  F10 UNL     1     -35.828   5.075   6.798  1.00 20.00    -0.198 F 
ENDROOT
BRANCH   1   8
HETATM    8  C6  UNL     1     -33.299   6.980   3.490  1.00 20.00     0.018 A 
HETATM    9  C4  UNL     1     -31.845   7.452   3.432  1.00 20.00     0.010 A 
HETATM   10  C5  UNL     1     -32.341   6.471   2.413  1.00 20.00     0.010 A 
ENDBRANCH   1   8
TORSDOF 1
ENDMDL
MODEL 4
REMARK VINA RESULT:      -5.3      2.149      3.951
REMARK  1 active torsions:
REMARK  status: ('A' for Active; 'I' for Inactive)
REMARK    1  A    between atoms: C1_1  and  C6_6 
ROOT
HETATM    1  C1  UNL     1     -34.096   5.764   4.160  1.00 20.00    -0.029 A 
HETATM    2  C2  UNL     1     -33.165   6.661   4.530  1.00 20.00     0.168 A 
HETATM    3  C3  UNL     1     -33.699   5.789   2.707  1.00 20.00     0.124 A 
HETATM    4  C7  UNL     1     -32.627   6.831   3.114  1.00 20.00     0.300 A 
HETATM    5  F8  UNL     1     -32.831   7.212   5.704  1.00 20.00    -0.204 F 
HETATM    6  F9  UNL     1     -32.768   8.044   2.527  1.00 20.00    -0.198 F 
HETATM    7  F10 UNL     1     -31.349   6.449   2.875  1.00 20.00    -0.198 F 
ENDROOT
BRANCH   1   8
HETATM    8  C6  UNL     1     -35.158   5.007   4.967  1.00 20.00     0.018 A 
HETATM    9  C4  UNL     1     -34.891   3.698   5.712  1.00 20.00     0.010 A 
HETATM   10  C5  UNL     1     -35.187   4.942   6.495  1.00 20.00     0.010 A 
ENDBRANCH   1   8
TORSDOF 1
ENDMDL
MODEL 5
REMARK VINA RESULT:      -5.3      2.299      4.147
REMARK  1 active torsions:
REMARK  status: ('A' for Active; 'I' for Inactive)
REMARK    1  A    between atoms: C1_1  and  C6_6 
ROOT
HETATM    1  C1  UNL     1     -34.051   5.863   4.251  1.00 20.00    -0.029 A 
HETATM    2  C2  UNL     1     -33.695   5.801   2.956  1.00 20.00     0.168 A 
HETATM    3  C3  UNL     1     -33.044   6.932   4.589  1.00 20.00     0.124 A 
HETATM    4  C7  UNL     1     -32.614   6.866   3.102  1.00 20.00     0.300 A 
HETATM    5  F8  UNL     1     -34.122   5.072   1.916  1.00 20.00    -0.204 F 
HETATM    6  F9  UNL     1     -31.328   6.491   2.902  1.00 20.00    -0.198 F 
HETATM    7  F10 UNL     1     -32.774   8.025   2.417  1.00 20.00    -0.198 F 
ENDROOT
BRANCH   1   8
HETATM    8  C6  UNL     1     -35.115   5.103   5.053  1.00 20.00     0.018 A 
HETATM    9  C4  UNL     1     -34.869   3.756   5.735  1.00 20.00     0.010 A 
HETATM   10  C5  UNL     1     -35.107   4.973   6.577  1.00 20.00     0.010 A 
ENDBRANCH   1   8
TORSDOF 1
ENDMDL
MODEL 6
REMARK VINA RESULT:      -4.6     11.221     11.864
REMARK  1 active torsions:
REMARK  status: ('A' for Active; 'I' for Inactive)
REMARK    1  A    between atoms: C1_1  and  C6_6 
ROOT
HETATM    1  C1  UNL     1     -34.352  15.586  -2.776  1.00 20.00    -0.029 A 
HETATM    2  C2  UNL     1     -33.623  14.723  -3.505  1.00 20.00     0.168 A 
HETATM    3  C3  UNL     1     -35.665  15.152  -3.375  1.00 20.00     0.124 A 
HETATM    4  C7  UNL     1     -34.839  14.159  -4.231  1.00 20.00     0.300 A 
HETATM    5  F8  UNL     1     -32.313  14.455  -3.577  1.00 20.00    -0.204 F 
HETATM    6  F9  UNL     1     -34.925  14.358  -5.568  1.00 20.00    -0.198 F 
HETATM    7  F10 UNL     1     -35.144  12.854  -4.030  1.00 20.00    -0.198 F 
ENDROOT
BRANCH   1   8
HETATM    8  C6  UNL     1     -33.948  16.621  -1.717  1.00 20.00     0.018 A 
HETATM    9  C4  UNL     1     -34.691  17.937  -1.484  1.00 20.00     0.010 A 
HETATM   10  C5  UNL     1     -34.730  16.874  -0.427  1.00 20.00     0.010 A 
ENDBRANCH   1   8
TORSDOF 1
ENDMDL
MODEL 7
REMARK VINA RESULT:      -4.5     11.443     12.013
REMARK  1 active torsions:
REMARK  status: ('A' for Active; 'I' for Inactive)
REMARK    1  A    between atoms: C1_1  and  C6_6 
ROOT
HETATM    1  C1  UNL     1     -34.339  15.812  -3.044  1.00 20.00    -0.029 A 
HETATM    2  C2  UNL     1     -35.081  14.821  -3.568  1.00 20.00     0.168 A 
HETATM    3  C3  UNL     1     -33.100  15.439  -3.817  1.00 20.00     0.124 A 
HETATM    4  C7  UNL     1     -33.939  14.286  -4.423  1.00 20.00     0.300 A 
HETATM    5  F8  UNL     1     -36.354  14.435  -3.402  1.00 20.00    -0.204 F 
HETATM    6  F9  UNL     1     -33.473  13.044  -4.148  1.00 20.00    -0.198 F 
HETATM    7  F10 UNL     1     -34.081  14.339  -5.770  1.00 20.00    -0.198 F 
ENDROOT
BRANCH   1   8
HETATM    8  C6  UNL     1     -34.676  16.911  -2.029  1.00 20.00     0.018 A 
HETATM    9  C4  UNL     1     -34.647  16.710  -0.512  1.00 20.00     0.010 A 
HETATM   10  C5  UNL     1     -33.639  17.615  -1.153  1.00 20.00     0.010 A 
ENDBRANCH   1   8
TORSDOF 1
ENDMDL
MODEL 8
REMARK VINA RESULT:      -4.5      1.723      2.319
REMARK  1 active torsions:
REMARK  status: ('A' for Active; 'I' for Inactive)
REMARK    1  A    between atoms: C1_1  and  C6_6 
ROOT
HETATM    1  C1  UNL     1     -32.768   7.296   2.965  1.00 20.00    -0.029 A 
HETATM    2  C2  UNL     1     -32.518   6.019   3.305  1.00 20.00     0.168 A 
HETATM    3  C3  UNL     1     -34.156   7.294   3.552  1.00 20.00     0.124 A 
HETATM    4  C7  UNL     1     -33.888   5.818   3.942  1.00 20.00     0.300 A 
HETATM    5  F8  UNL     1     -31.461   5.211   3.143  1.00 20.00    -0.204 F 
HETATM    6  F9  UNL     1     -34.726   4.922   3.368  1.00 20.00    -0.198 F 
HETATM    7  F10 UNL     1     -33.935   5.570   5.274  1.00 20.00    -0.198 F 
ENDROOT
BRANCH   1   8
HETATM    8  C6  UNL     1     -31.911   8.344   2.245  1.00 20.00     0.018 A 
HETATM    9  C4  UNL     1     -31.910   8.550   0.729  1.00 20.00     0.010 A 
HETATM   10  C5  UNL     1     -32.472   9.620   1.615  1.00 20.00     0.010 A 
ENDBRANCH   1   8
TORSDOF 1
ENDMDL
MODEL 9
REMARK VINA RESULT:      -4.3     11.659     13.003
REMARK  1 active torsions:
REMARK  status: ('A' for Active; 'I' for Inactive)
REMARK    1  A    between atoms: C1_1  and  C6_6 
ROOT
HETATM    1  C1  UNL     1     -34.621  14.362  -5.909  1.00 20.00    -0.029 A 
HETATM    2  C2  UNL     1     -33.841  15.116  -5.114  1.00 20.00     0.168 A 
HETATM    3  C3  UNL     1     -34.783  13.263  -4.890  1.00 20.00     0.124 A 
HETATM    4  C7  UNL     1     -33.877  14.114  -3.965  1.00 20.00     0.300 A 
HETATM    5  F8  UNL     1     -33.244  16.305  -5.268  1.00 20.00    -0.204 F 
HETATM    6  F9  UNL     1     -32.713  13.519  -3.611  1.00 20.00    -0.198 F 
HETATM    7  F10 UNL     1     -34.462  14.505  -2.807  1.00 20.00    -0.198 F 
ENDROOT
BRANCH   1   8
HETATM    8  C6  UNL     1     -35.140  14.585  -7.335  1.00 20.00     0.018 A 
HETATM    9  C4  UNL     1     -36.581  14.977  -7.666  1.00 20.00     0.010 A 
HETATM   10  C5  UNL     1     -35.476  15.958  -7.917  1.00 20.00     0.010 A 
ENDBRANCH   1   8
TORSDOF 1
ENDMDL
