MODEL 1
REMARK VINA RESULT:      -5.1      0.000      0.000
REMARK  1 active torsions:
REMARK  status: ('A' for Active; 'I' for Inactive)
REMARK    1  A    between atoms: C1_1  and  C5_5 
ROOT
HETATM    1  C1  UNL     1     -34.095  16.237  -2.450  1.00 20.00    -0.097 C 
HETATM    2  C2  UNL     1     -34.427  16.624  -1.362  1.00 20.00    -0.110 C 
HETATM    3  C7  UNL     1     -34.832  17.094  -0.038  1.00 20.00     0.112 C 
ENDROOT
BRANCH   1   4
HETATM    4  C5  UNL     1     -33.691  15.767  -3.772  1.00 20.00     0.027 C 
HETATM    5  C3  UNL     1     -32.532  14.722  -3.715  1.00 20.00     0.024 C 
HETATM    6  C4  UNL     1     -33.584  13.595  -3.749  1.00 20.00     0.012 C 
HETATM    7  C6  UNL     1     -34.592  14.600  -4.385  1.00 20.00    -0.029 C 
HETATM    8  C9  UNL     1     -36.015  14.456  -3.838  1.00 20.00     0.016 C 
HETATM    9  C10 UNL     1     -34.617  14.495  -5.918  1.00 20.00     0.016 C 
HETATM   10  C8  UNL     1     -33.393  16.968  -4.666  1.00 20.00     0.030 C 
ENDBRANCH   1   4
TORSDOF 1
ENDMDL
MODEL 2
REMARK VINA RESULT:      -4.8      0.899      2.301
REMARK  1 active torsions:
REMARK  status: ('A' for Active; 'I' for Inactive)
REMARK    1  A    between atoms: C1_1  and  C5_5 
ROOT
HETATM    1  C1  UNL     1     -34.665  15.575  -2.606  1.00 20.00    -0.097 C 
HETATM    2  C2  UNL     1     -34.647  16.227  -1.597  1.00 20.00    -0.110 C 
HETATM    3  C7  UNL     1     -34.624  17.021  -0.370  1.00 20.00     0.112 C 
ENDROOT
BRANCH   1   4
HETATM    4  C5  UNL     1     -34.688  14.782  -3.832  1.00 20.00     0.027 C 
HETATM    5  C3  UNL     1     -36.077  14.120  -4.098  1.00 20.00     0.024 C 
HETATM    6  C4  UNL     1     -36.447  15.321  -4.992  1.00 20.00     0.012 C 
HETATM    7  C6  UNL     1     -34.926  15.610  -5.176  1.00 20.00    -0.029 C 
HETATM    8  C9  UNL     1     -34.587  17.103  -5.144  1.00 20.00     0.016 C 
HETATM    9  C10 UNL     1     -34.376  14.985  -6.466  1.00 20.00     0.016 C 
HETATM   10  C8  UNL     1     -33.527  13.790  -3.814  1.00 20.00     0.030 C 
ENDBRANCH   1   4
TORSDOF 1
ENDMDL
MODEL 3
REMARK VINA RESULT:      -4.5      1.069      2.279
REMARK  1 active torsions:
REMARK  status: ('A' for Active; 'I' for Inactive)
REMARK    1  A    between atoms: C1_1  and  C5_5 
ROOT
HETATM    1  C1  UNL     1     -35.139  15.950  -2.584  1.00 20.00    -0.097 C 
HETATM    2  C2  UNL     1     -34.853  16.455  -1.532  1.00 20.00    -0.110 C 
HETATM    3  C7  UNL     1     -34.506  17.069  -0.252  1.00 20.00     0.112 C 
ENDROOT
BRANCH   1   4
HETATM    4  C5  UNL     1     -35.486  15.337  -3.863  1.00 20.00     0.027 C 
HETATM    5  C3  UNL     1     -35.317  16.315  -5.069  1.00 20.00     0.024 C 
HETATM    6  C4  UNL     1     -33.903  15.745  -5.297  1.00 20.00     0.012 C 
HETATM    7  C6  UNL     1     -34.334  14.457  -4.533  1.00 20.00    -0.029 C 
HETATM    8  C9  UNL     1     -33.244  13.912  -3.605  1.00 20.00     0.016 C 
HETATM    9  C10 UNL     1     -34.796  13.348  -5.490  1.00 20.00     0.016 C 
HETATM   10  C8  UNL     1     -36.878  14.716  -3.765  1.00 20.00     0.030 C 
ENDBRANCH   1   4
TORSDOF 1
ENDMDL
MODEL 4
REMARK VINA RESULT:      -4.3     11.570     13.699
REMARK  1 active torsions:
REMARK  status: ('A' for Active; 'I' for Inactive)
REMARK    1  A    between atoms: C1_1  and  C5_5 
ROOT
HETATM    1  C1  UNL     1     -41.819   3.988  -1.839  1.00 20.00    -0.097 C 
HETATM    2  C2  UNL     1     -41.615   3.144  -2.669  1.00 20.00    -0.110 C 
HETATM    3  C7  UNL     1     -41.366   2.116  -3.678  1.00 20.00     0.112 C 
ENDROOT
BRANCH   1   4
HETATM    4  C5  UNL     1     -42.068   5.014  -0.830  1.00 20.00     0.027 C 
HETATM    5  C3  UNL     1     -40.770   5.774  -0.408  1.00 20.00     0.024 C 
HETATM    6  C4  UNL     1     -41.102   6.862  -1.448  1.00 20.00     0.012 C 
HETATM    7  C6  UNL     1     -42.594   6.412  -1.395  1.00 20.00    -0.029 C 
HETATM    8  C9  UNL     1     -43.270   6.399  -2.768  1.00 20.00     0.016 C 
HETATM    9  C10 UNL     1     -43.417   7.270  -0.423  1.00 20.00     0.016 C 
HETATM   10  C8  UNL     1     -42.828   4.398   0.342  1.00 20.00     0.030 C 
ENDBRANCH   1   4
TORSDOF 1
ENDMDL
MODEL 5
REMARK VINA RESULT:      -4.2      1.049      4.128
REMARK  1 active torsions:
REMARK  status: ('A' for Active; 'I' for Inactive)
REMARK    1  A    between atoms: C1_1  and  C5_5 
ROOT
HETATM    1  C1  UNL     1     -35.072  14.792  -5.350  1.00 20.00    -0.097 C 
HETATM    2  C2  UNL     1     -35.334  14.610  -6.508  1.00 20.00    -0.110 C 
HETATM    3  C7  UNL     1     -35.652  14.389  -7.918  1.00 20.00     0.112 C 
ENDROOT
BRANCH   1   4
HETATM    4  C5  UNL     1     -34.754  15.012  -3.942  1.00 20.00     0.027 C 
HETATM    5  C3  UNL     1     -33.760  13.950  -3.373  1.00 20.00     0.024 C 
HETATM    6  C4  UNL     1     -32.597  14.914  -3.680  1.00 20.00     0.012 C 
HETATM    7  C6  UNL     1     -33.614  16.095  -3.662  1.00 20.00    -0.029 C 
HETATM    8  C9  UNL     1     -33.355  17.133  -4.757  1.00 20.00     0.016 C 
HETATM    9  C10 UNL     1     -33.661  16.792  -2.294  1.00 20.00     0.016 C 
HETATM   10  C8  UNL     1     -36.050  15.132  -3.143  1.00 20.00     0.030 C 
ENDBRANCH   1   4
TORSDOF 1
ENDMDL
MODEL 6
REMARK VINA RESULT:      -4.1      1.327      3.497
REMARK  1 active torsions:
REMARK  status: ('A' for Active; 'I' for Inactive)
REMARK    1  A    between atoms: C1_1  and  C5_5 
ROOT
HETATM    1  C1  UNL     1     -36.451  14.768  -4.215  1.00 20.00    -0.097 C 
HETATM    2  C2  UNL     1     -37.609  14.911  -3.930  1.00 20.00    -0.110 C 
HETATM    3  C7  UNL     1     -39.019  15.086  -3.583  1.00 20.00     0.112 C 
ENDROOT
BRANCH   1   4
HETATM    4  C5  UNL     1     -35.043  14.594  -4.561  1.00 20.00     0.027 C 
HETATM    5  C3  UNL     1     -34.600  15.494  -5.758  1.00 20.00     0.024 C 
HETATM    6  C4  UNL     1     -34.113  16.551  -4.747  1.00 20.00     0.012 C 
HETATM    7  C6  UNL     1     -34.013  15.428  -3.670  1.00 20.00    -0.029 C 
HETATM    8  C9  UNL     1     -34.492  15.875  -2.286  1.00 20.00     0.016 C 
HETATM    9  C10 UNL     1     -32.591  14.859  -3.564  1.00 20.00     0.016 C 
HETATM   10  C8  UNL     1     -34.753  13.109  -4.767  1.00 20.00     0.030 C 
ENDBRANCH   1   4
TORSDOF 1
ENDMDL
MODEL 7
REMARK VINA RESULT:      -4.1      1.594      3.291
REMARK  1 active torsions:
REMARK  status: ('A' for Active; 'I' for Inactive)
REMARK    1  A    between atoms: C1_1  and  C5_5 
ROOT
HETATM    1  C1  UNL     1     -36.734  14.993  -3.695  1.00 20.00    -0.097 C 
HETATM    2  C2  UNL     1     -37.930  14.929  -3.788  1.00 20.00    -0.110 C 
HETATM    3  C7  UNL     1     -39.386  14.853  -3.900  1.00 20.00     0.112 C 
ENDROOT
BRANCH   1   4
HETATM    4  C5  UNL     1     -35.280  15.069  -3.583  1.00 20.00     0.027 C 
HETATM    5  C3  UNL     1     -34.587  13.679  -3.748  1.00 20.00     0.024 C 
HETATM    6  C4  UNL     1     -34.384  13.989  -5.245  1.00 20.00     0.012 C 
HETATM    7  C6  UNL     1     -34.516  15.507  -4.915  1.00 20.00    -0.029 C 
HETATM    8  C9  UNL     1     -35.322  16.284  -5.959  1.00 20.00     0.016 C 
HETATM    9  C10 UNL     1     -33.145  16.173  -4.723  1.00 20.00     0.016 C 
HETATM   10  C8  UNL     1     -34.910  15.792  -2.290  1.00 20.00     0.030 C 
ENDBRANCH   1   4
TORSDOF 1
ENDMDL
MODEL 8
REMARK VINA RESULT:      -4.0      1.229      4.122
REMARK  1 active torsions:
REMARK  status: ('A' for Active; 'I' for Inactive)
REMARK    1  A    between atoms: C1_1  and  C5_5 
ROOT
HETATM    1  C1  UNL     1     -34.732  14.772  -5.499  1.00 20.00    -0.097 C 
HETATM    2  C2  UNL     1     -35.199  14.586  -6.590  1.00 20.00    -0.110 C 
HETATM    3  C7  UNL     1     -35.767  14.361  -7.918  1.00 20.00     0.112 C 
ENDROOT
BRANCH   1   4
HETATM    4  C5  UNL     1     -34.164  14.997  -4.172  1.00 20.00     0.027 C 
HETATM    5  C3  UNL     1     -32.877  15.881  -4.208  1.00 20.00     0.024 C 
HETATM    6  C4  UNL     1     -33.752  17.119  -3.930  1.00 20.00     0.012 C 
HETATM    7  C6  UNL     1     -34.840  16.176  -3.333  1.00 20.00    -0.029 C 
HETATM    8  C9  UNL     1     -36.266  16.578  -3.718  1.00 20.00     0.016 C 
HETATM    9  C10 UNL     1     -34.730  16.069  -1.804  1.00 20.00     0.016 C 
HETATM   10  C8  UNL     1     -33.970  13.655  -3.471  1.00 20.00     0.030 C 
ENDBRANCH   1   4
TORSDOF 1
ENDMDL
MODEL 9
REMARK VINA RESULT:      -3.8      1.740      3.548
REMARK  1 active torsions:
REMARK  status: ('A' for Active; 'I' for Inactive)
REMARK    1  A    between atoms: C1_1  and  C5_5 
ROOT
HETATM    1  C1  UNL     1     -35.920  15.843  -5.262  1.00 20.00    -0.097 C 
HETATM    2  C2  UNL     1     -36.998  15.671  -5.765  1.00 20.00    -0.110 C 
HETATM    3  C7  UNL     1     -38.309  15.462  -6.377  1.00 20.00     0.112 C 
ENDROOT
BRANCH   1   4
HETATM    4  C5  UNL     1     -34.611  16.051  -4.651  1.00 20.00     0.027 C 
HETATM    5  C3  UNL     1     -34.682  16.908  -3.347  1.00 20.00     0.024 C 
HETATM    6  C4  UNL     1     -34.743  15.604  -2.526  1.00 20.00     0.012 C 
HETATM    7  C6  UNL     1     -34.091  14.855  -3.728  1.00 20.00    -0.029 C 
HETATM    8  C9  UNL     1     -34.695  13.470  -3.976  1.00 20.00     0.016 C 
HETATM    9  C10 UNL     1     -32.568  14.732  -3.570  1.00 20.00     0.016 C 
HETATM   10  C8  UNL     1     -33.646  16.602  -5.697  1.00 20.00     0.030 C 
ENDBRANCH   1   4
TORSDOF 1
ENDMDL
