MODEL 1
REMARK VINA RESULT:      -5.5      0.000      0.000
REMARK  0 active torsions:
REMARK  status: ('A' for Active; 'I' for Inactive)
ROOT
HETATM    1  C1  UNL     1     -31.683   7.685   3.268  1.00 20.00     0.001 C 
HETATM    2  C2  UNL     1     -32.609   6.720   2.510  1.00 20.00     0.005 C 
HETATM    3  C3  UNL     1     -32.093   7.617   4.747  1.00 20.00     0.005 C 
HETATM    4  C4  UNL     1     -34.516   5.141   3.293  1.00 20.00     0.011 C 
HETATM    5  C5  UNL     1     -35.491   4.947   4.461  1.00 20.00     0.079 C 
HETATM    6  C6  UNL     1     -33.920   6.261   5.999  1.00 20.00     0.084 C 
HETATM    7  C7  UNL     1     -33.718   6.420   3.506  1.00 20.00    -0.010 C 
HETATM    8  C8  UNL     1     -32.955   6.365   4.828  1.00 20.00    -0.005 C 
HETATM    9  C9  UNL     1     -34.798   5.024   5.821  1.00 20.00     0.244 C 
HETATM   10  F10 UNL     1     -34.031   3.913   5.984  1.00 20.00    -0.206 F 
HETATM   11  F11 UNL     1     -35.732   4.990   6.805  1.00 20.00    -0.206 F 
ENDROOT
TORSDOF 0
ENDMDL
MODEL 2
REMARK VINA RESULT:      -5.3      2.510      3.928
REMARK  0 active torsions:
REMARK  status: ('A' for Active; 'I' for Inactive)
ROOT
HETATM    1  C1  UNL     1     -35.185   5.023   6.356  1.00 20.00     0.001 C 
HETATM    2  C2  UNL     1     -35.240   4.541   4.897  1.00 20.00     0.005 C 
HETATM    3  C3  UNL     1     -34.106   6.116   6.416  1.00 20.00     0.005 C 
HETATM    4  C4  UNL     1     -33.949   5.262   2.762  1.00 20.00     0.011 C 
HETATM    5  C5  UNL     1     -32.654   5.967   2.340  1.00 20.00     0.079 C 
HETATM    6  C6  UNL     1     -32.545   7.142   4.613  1.00 20.00     0.084 C 
HETATM    7  C7  UNL     1     -33.973   5.110   4.276  1.00 20.00    -0.010 C 
HETATM    8  C8  UNL     1     -33.867   6.472   4.957  1.00 20.00    -0.005 C 
HETATM    9  C9  UNL     1     -32.426   7.274   3.096  1.00 20.00     0.244 C 
HETATM   10  F10 UNL     1     -33.330   8.193   2.663  1.00 20.00    -0.206 F 
HETATM   11  F11 UNL     1     -31.201   7.769   2.783  1.00 20.00    -0.206 F 
ENDROOT
TORSDOF 0
ENDMDL
MODEL 3
REMARK VINA RESULT:      -5.0     12.482     13.705
REMARK  0 active torsions:
REMARK  status: ('A' for Active; 'I' for Inactive)
ROOT
HETATM    1  C1  UNL     1     -35.187  15.742  -7.918  1.00 20.00     0.001 C 
HETATM    2  C2  UNL     1     -35.304  14.387  -7.201  1.00 20.00     0.005 C 
HETATM    3  C3  UNL     1     -34.570  16.722  -6.907  1.00 20.00     0.005 C 
HETATM    4  C4  UNL     1     -34.643  13.603  -4.815  1.00 20.00     0.011 C 
HETATM    5  C5  UNL     1     -34.355  14.166  -3.418  1.00 20.00     0.079 C 
HETATM    6  C6  UNL     1     -33.792  16.444  -4.446  1.00 20.00     0.084 C 
HETATM    7  C7  UNL     1     -35.090  14.730  -5.734  1.00 20.00    -0.010 C 
HETATM    8  C8  UNL     1     -34.021  15.818  -5.813  1.00 20.00    -0.005 C 
HETATM    9  C9  UNL     1     -33.395  15.354  -3.452  1.00 20.00     0.244 C 
HETATM   10  F10 UNL     1     -32.152  14.901  -3.770  1.00 20.00    -0.206 F 
HETATM   11  F11 UNL     1     -33.298  15.891  -2.210  1.00 20.00    -0.206 F 
ENDROOT
TORSDOF 0
ENDMDL
MODEL 4
REMARK VINA RESULT:      -4.9     11.839     12.944
REMARK  0 active torsions:
REMARK  status: ('A' for Active; 'I' for Inactive)
ROOT
HETATM    1  C1  UNL     1     -34.224  17.827  -1.478  1.00 20.00     0.001 C 
HETATM    2  C2  UNL     1     -33.608  17.980  -2.879  1.00 20.00     0.005 C 
HETATM    3  C3  UNL     1     -34.807  16.407  -1.407  1.00 20.00     0.005 C 
HETATM    4  C4  UNL     1     -33.398  16.349  -4.889  1.00 20.00     0.011 C 
HETATM    5  C5  UNL     1     -34.038  15.075  -5.455  1.00 20.00     0.079 C 
HETATM    6  C6  UNL     1     -34.890  14.457  -3.120  1.00 20.00     0.084 C 
HETATM    7  C7  UNL     1     -34.168  16.797  -3.655  1.00 20.00    -0.010 C 
HETATM    8  C8  UNL     1     -34.179  15.696  -2.597  1.00 20.00    -0.005 C 
HETATM    9  C9  UNL     1     -34.203  13.984  -4.399  1.00 20.00     0.244 C 
HETATM   10  F10 UNL     1     -32.974  13.494  -4.082  1.00 20.00    -0.206 F 
HETATM   11  F11 UNL     1     -34.901  12.947  -4.927  1.00 20.00    -0.206 F 
ENDROOT
TORSDOF 0
ENDMDL
MODEL 5
REMARK VINA RESULT:      -4.8     12.521     13.721
REMARK  0 active torsions:
REMARK  status: ('A' for Active; 'I' for Inactive)
ROOT
HETATM    1  C1  UNL     1     -34.065  17.589  -1.857  1.00 20.00     0.001 C 
HETATM    2  C2  UNL     1     -34.469  16.109  -1.756  1.00 20.00     0.005 C 
HETATM    3  C3  UNL     1     -33.788  17.868  -3.343  1.00 20.00     0.005 C 
HETATM    4  C4  UNL     1     -34.760  14.245  -3.541  1.00 20.00     0.011 C 
HETATM    5  C5  UNL     1     -34.323  13.890  -4.968  1.00 20.00     0.079 C 
HETATM    6  C6  UNL     1     -33.893  16.367  -5.459  1.00 20.00     0.084 C 
HETATM    7  C7  UNL     1     -34.067  15.528  -3.103  1.00 20.00    -0.010 C 
HETATM    8  C8  UNL     1     -34.400  16.673  -4.058  1.00 20.00    -0.005 C 
HETATM    9  C9  UNL     1     -34.505  15.053  -5.942  1.00 20.00     0.244 C 
HETATM   10  F10 UNL     1     -35.835  15.240  -6.156  1.00 20.00    -0.206 F 
HETATM   11  F11 UNL     1     -33.969  14.722  -7.144  1.00 20.00    -0.206 F 
ENDROOT
TORSDOF 0
ENDMDL
MODEL 6
REMARK VINA RESULT:      -4.8     12.629     13.963
REMARK  0 active torsions:
REMARK  status: ('A' for Active; 'I' for Inactive)
ROOT
HETATM    1  C1  UNL     1     -33.989  18.341  -6.378  1.00 20.00     0.001 C 
HETATM    2  C2  UNL     1     -33.489  17.999  -4.964  1.00 20.00     0.005 C 
HETATM    3  C3  UNL     1     -34.485  17.025  -6.998  1.00 20.00     0.005 C 
HETATM    4  C4  UNL     1     -33.417  15.778  -3.619  1.00 20.00     0.011 C 
HETATM    5  C5  UNL     1     -33.439  14.260  -3.834  1.00 20.00     0.079 C 
HETATM    6  C6  UNL     1     -34.585  14.591  -6.101  1.00 20.00     0.084 C 
HETATM    7  C7  UNL     1     -33.389  16.481  -4.969  1.00 20.00    -0.010 C 
HETATM    8  C8  UNL     1     -34.601  16.083  -5.809  1.00 20.00    -0.005 C 
HETATM    9  C9  UNL     1     -34.552  13.819  -4.783  1.00 20.00     0.244 C 
HETATM   10  F10 UNL     1     -35.748  13.972  -4.154  1.00 20.00    -0.206 F 
HETATM   11  F11 UNL     1     -34.425  12.493  -5.041  1.00 20.00    -0.206 F 
ENDROOT
TORSDOF 0
ENDMDL
MODEL 7
REMARK VINA RESULT:      -4.8     11.880     12.714
REMARK  0 active torsions:
REMARK  status: ('A' for Active; 'I' for Inactive)
ROOT
HETATM    1  C1  UNL     1     -34.811  13.218  -4.740  1.00 20.00     0.001 C 
HETATM    2  C2  UNL     1     -36.084  14.017  -4.419  1.00 20.00     0.005 C 
HETATM    3  C3  UNL     1     -33.652  13.932  -4.026  1.00 20.00     0.005 C 
HETATM    4  C4  UNL     1     -36.511  16.130  -2.971  1.00 20.00     0.011 C 
HETATM    5  C5  UNL     1     -35.766  17.336  -2.385  1.00 20.00     0.079 C 
HETATM    6  C6  UNL     1     -33.555  16.051  -2.529  1.00 20.00     0.084 C 
HETATM    7  C7  UNL     1     -35.560  15.325  -3.846  1.00 20.00    -0.010 C 
HETATM    8  C8  UNL     1     -34.349  14.859  -3.041  1.00 20.00    -0.005 C 
HETATM    9  C9  UNL     1     -34.467  16.940  -1.685  1.00 20.00     0.244 C 
HETATM   10  F10 UNL     1     -34.774  16.286  -0.533  1.00 20.00    -0.206 F 
HETATM   11  F11 UNL     1     -33.792  18.059  -1.320  1.00 20.00    -0.206 F 
ENDROOT
TORSDOF 0
ENDMDL
MODEL 8
REMARK VINA RESULT:      -4.8      9.181     10.676
REMARK  0 active torsions:
REMARK  status: ('A' for Active; 'I' for Inactive)
ROOT
HETATM    1  C1  UNL     1     -42.762   2.978  -3.559  1.00 20.00     0.001 C 
HETATM    2  C2  UNL     1     -43.404   4.370  -3.439  1.00 20.00     0.005 C 
HETATM    3  C3  UNL     1     -41.585   2.950  -2.571  1.00 20.00     0.005 C 
HETATM    4  C4  UNL     1     -42.869   6.425  -1.944  1.00 20.00     0.011 C 
HETATM    5  C5  UNL     1     -41.721   7.030  -1.126  1.00 20.00     0.079 C 
HETATM    6  C6  UNL     1     -40.637   4.718  -0.922  1.00 20.00     0.084 C 
HETATM    7  C7  UNL     1     -42.373   5.182  -2.670  1.00 20.00    -0.010 C 
HETATM    8  C8  UNL     1     -41.833   4.156  -1.677  1.00 20.00    -0.005 C 
HETATM    9  C9  UNL     1     -41.049   6.007  -0.213  1.00 20.00     0.244 C 
HETATM   10  F10 UNL     1     -41.904   5.697   0.799  1.00 20.00    -0.206 F 
HETATM   11  F11 UNL     1     -39.959   6.568   0.369  1.00 20.00    -0.206 F 
ENDROOT
TORSDOF 0
ENDMDL
MODEL 9
REMARK VINA RESULT:      -4.8      2.307      4.221
REMARK  0 active torsions:
REMARK  status: ('A' for Active; 'I' for Inactive)
ROOT
HETATM    1  C1  UNL     1     -35.418   4.276   6.052  1.00 20.00     0.001 C 
HETATM    2  C2  UNL     1     -34.518   5.370   6.648  1.00 20.00     0.005 C 
HETATM    3  C3  UNL     1     -35.211   4.318   4.530  1.00 20.00     0.005 C 
HETATM    4  C4  UNL     1     -32.856   7.052   5.574  1.00 20.00     0.011 C 
HETATM    5  C5  UNL     1     -32.546   7.717   4.227  1.00 20.00     0.079 C 
HETATM    6  C6  UNL     1     -33.728   5.804   3.002  1.00 20.00     0.084 C 
HETATM    7  C7  UNL     1     -34.117   6.210   5.445  1.00 20.00    -0.010 C 
HETATM    8  C8  UNL     1     -33.949   5.150   4.358  1.00 20.00    -0.005 C 
HETATM    9  C9  UNL     1     -32.505   6.716   3.074  1.00 20.00     0.244 C 
HETATM   10  F10 UNL     1     -31.391   5.946   3.204  1.00 20.00    -0.206 F 
HETATM   11  F11 UNL     1     -32.372   7.384   1.901  1.00 20.00    -0.206 F 
ENDROOT
TORSDOF 0
ENDMDL
