MODEL 1
REMARK VINA RESULT:      -5.3      0.000      0.000
REMARK  0 active torsions:
REMARK  status: ('A' for Active; 'I' for Inactive)
ROOT
HETATM    1  C1  UNL     1     -34.592  16.674  -0.702  1.00 20.00     0.012 C 
HETATM    2  C2  UNL     1     -34.727  16.423  -1.868  1.00 20.00    -0.112 C 
HETATM    3  C3  UNL     1     -33.413  13.689  -3.806  1.00 20.00    -0.026 C 
HETATM    4  C4  UNL     1     -32.762  14.845  -3.599  1.00 20.00    -0.024 C 
HETATM    5  C5  UNL     1     -34.587  14.586  -5.780  1.00 20.00     0.009 C 
HETATM    6  C6  UNL     1     -33.818  15.909  -5.547  1.00 20.00     0.010 C 
HETATM    7  C7  UNL     1     -35.616  14.750  -3.503  1.00 20.00     0.026 C 
HETATM    8  C8  UNL     1     -34.893  16.112  -3.300  1.00 20.00     0.072 C 
HETATM    9  C9  UNL     1     -34.780  13.845  -4.438  1.00 20.00     0.009 C 
HETATM   10  C10 UNL     1     -33.523  16.083  -4.037  1.00 20.00     0.023 C 
ENDROOT
TORSDOF 0
ENDMDL
MODEL 2
REMARK VINA RESULT:      -4.9      1.037      3.630
REMARK  0 active torsions:
REMARK  status: ('A' for Active; 'I' for Inactive)
ROOT
HETATM    1  C1  UNL     1     -34.915  14.815  -7.840  1.00 20.00     0.012 C 
HETATM    2  C2  UNL     1     -34.889  15.238  -6.717  1.00 20.00    -0.112 C 
HETATM    3  C3  UNL     1     -33.409  13.832  -3.752  1.00 20.00    -0.026 C 
HETATM    4  C4  UNL     1     -34.654  13.558  -4.173  1.00 20.00    -0.024 C 
HETATM    5  C5  UNL     1     -34.162  15.815  -2.494  1.00 20.00     0.009 C 
HETATM    6  C6  UNL     1     -35.597  15.481  -2.967  1.00 20.00     0.010 C 
HETATM    7  C7  UNL     1     -33.399  16.028  -4.870  1.00 20.00     0.026 C 
HETATM    8  C8  UNL     1     -34.857  15.758  -5.338  1.00 20.00     0.072 C 
HETATM    9  C9  UNL     1     -33.134  15.304  -3.529  1.00 20.00     0.009 C 
HETATM   10  C10 UNL     1     -35.543  14.777  -4.345  1.00 20.00     0.023 C 
ENDROOT
TORSDOF 0
ENDMDL
MODEL 3
REMARK VINA RESULT:      -4.9      0.936      2.242
REMARK  0 active torsions:
REMARK  status: ('A' for Active; 'I' for Inactive)
ROOT
HETATM    1  C1  UNL     1     -34.615  16.636  -0.868  1.00 20.00     0.012 C 
HETATM    2  C2  UNL     1     -34.341  16.130  -1.922  1.00 20.00    -0.112 C 
HETATM    3  C3  UNL     1     -36.419  15.508  -4.794  1.00 20.00    -0.026 C 
HETATM    4  C4  UNL     1     -36.287  14.658  -3.764  1.00 20.00    -0.024 C 
HETATM    5  C5  UNL     1     -34.454  14.569  -5.952  1.00 20.00     0.009 C 
HETATM    6  C6  UNL     1     -34.321  13.580  -4.770  1.00 20.00     0.010 C 
HETATM    7  C7  UNL     1     -34.205  16.511  -4.390  1.00 20.00     0.026 C 
HETATM    8  C8  UNL     1     -34.004  15.511  -3.217  1.00 20.00     0.072 C 
HETATM    9  C9  UNL     1     -35.116  15.880  -5.469  1.00 20.00     0.009 C 
HETATM   10  C10 UNL     1     -34.857  14.236  -3.475  1.00 20.00     0.023 C 
ENDROOT
TORSDOF 0
ENDMDL
MODEL 4
REMARK VINA RESULT:      -4.8      0.910      2.348
REMARK  0 active torsions:
REMARK  status: ('A' for Active; 'I' for Inactive)
ROOT
HETATM    1  C1  UNL     1     -34.617  17.009  -0.772  1.00 20.00     0.012 C 
HETATM    2  C2  UNL     1     -34.500  16.223  -1.673  1.00 20.00    -0.112 C 
HETATM    3  C3  UNL     1     -35.301  16.578  -5.164  1.00 20.00    -0.026 C 
HETATM    4  C4  UNL     1     -36.174  16.168  -4.231  1.00 20.00    -0.024 C 
HETATM    5  C5  UNL     1     -34.470  14.286  -5.537  1.00 20.00     0.009 C 
HETATM    6  C6  UNL     1     -35.494  13.819  -4.475  1.00 20.00     0.010 C 
HETATM    7  C7  UNL     1     -33.368  15.782  -3.859  1.00 20.00     0.026 C 
HETATM    8  C8  UNL     1     -34.357  15.259  -2.779  1.00 20.00     0.072 C 
HETATM    9  C9  UNL     1     -34.041  15.743  -5.251  1.00 20.00     0.009 C 
HETATM   10  C10 UNL     1     -35.728  14.949  -3.443  1.00 20.00     0.023 C 
ENDROOT
TORSDOF 0
ENDMDL
MODEL 5
REMARK VINA RESULT:      -4.8      1.169      2.726
REMARK  0 active torsions:
REMARK  status: ('A' for Active; 'I' for Inactive)
ROOT
HETATM    1  C1  UNL     1     -33.483  18.530  -5.253  1.00 20.00     0.012 C 
HETATM    2  C2  UNL     1     -33.596  17.336  -5.186  1.00 20.00    -0.112 C 
HETATM    3  C3  UNL     1     -35.630  15.331  -2.995  1.00 20.00    -0.026 C 
HETATM    4  C4  UNL     1     -34.390  15.750  -2.696  1.00 20.00    -0.024 C 
HETATM    5  C5  UNL     1     -34.783  13.314  -4.134  1.00 20.00     0.009 C 
HETATM    6  C6  UNL     1     -33.358  13.794  -3.767  1.00 20.00     0.010 C 
HETATM    7  C7  UNL     1     -35.192  15.425  -5.419  1.00 20.00     0.026 C 
HETATM    8  C8  UNL     1     -33.737  15.871  -5.103  1.00 20.00     0.072 C 
HETATM    9  C9  UNL     1     -35.728  14.530  -4.276  1.00 20.00     0.009 C 
HETATM   10  C10 UNL     1     -33.328  15.340  -3.700  1.00 20.00     0.023 C 
ENDROOT
TORSDOF 0
ENDMDL
MODEL 6
REMARK VINA RESULT:      -4.7     11.795     13.378
REMARK  0 active torsions:
REMARK  status: ('A' for Active; 'I' for Inactive)
ROOT
HETATM    1  C1  UNL     1     -42.940   2.314  -2.568  1.00 20.00     0.012 C 
HETATM    2  C2  UNL     1     -42.395   3.372  -2.411  1.00 20.00    -0.112 C 
HETATM    3  C3  UNL     1     -42.526   5.643   0.379  1.00 20.00    -0.026 C 
HETATM    4  C4  UNL     1     -43.396   5.658  -0.644  1.00 20.00    -0.024 C 
HETATM    5  C5  UNL     1     -40.948   7.119  -0.811  1.00 20.00     0.009 C 
HETATM    6  C6  UNL     1     -41.965   7.146  -1.977  1.00 20.00     0.010 C 
HETATM    7  C7  UNL     1     -40.754   4.630  -1.002  1.00 20.00     0.026 C 
HETATM    8  C8  UNL     1     -41.725   4.671  -2.216  1.00 20.00     0.072 C 
HETATM    9  C9  UNL     1     -41.076   5.790  -0.031  1.00 20.00     0.009 C 
HETATM   10  C10 UNL     1     -42.757   5.817  -2.012  1.00 20.00     0.023 C 
ENDROOT
TORSDOF 0
ENDMDL
MODEL 7
REMARK VINA RESULT:      -4.7      1.146      2.289
REMARK  0 active torsions:
REMARK  status: ('A' for Active; 'I' for Inactive)
ROOT
HETATM    1  C1  UNL     1     -34.627  16.899  -0.467  1.00 20.00     0.012 C 
HETATM    2  C2  UNL     1     -34.650  16.339  -1.529  1.00 20.00    -0.112 C 
HETATM    3  C3  UNL     1     -33.689  17.531  -4.787  1.00 20.00    -0.026 C 
HETATM    4  C4  UNL     1     -34.914  17.689  -4.260  1.00 20.00    -0.024 C 
HETATM    5  C5  UNL     1     -34.263  15.318  -5.713  1.00 20.00     0.009 C 
HETATM    6  C6  UNL     1     -35.679  15.517  -5.119  1.00 20.00     0.010 C 
HETATM    7  C7  UNL     1     -33.249  15.520  -3.432  1.00 20.00     0.026 C 
HETATM    8  C8  UNL     1     -34.678  15.653  -2.834  1.00 20.00     0.072 C 
HETATM    9  C9  UNL     1     -33.225  16.092  -4.869  1.00 20.00     0.009 C 
HETATM   10  C10 UNL     1     -35.594  16.396  -3.848  1.00 20.00     0.023 C 
ENDROOT
TORSDOF 0
ENDMDL
MODEL 8
REMARK VINA RESULT:      -4.6      1.132      3.035
REMARK  0 active torsions:
REMARK  status: ('A' for Active; 'I' for Inactive)
ROOT
HETATM    1  C1  UNL     1     -38.262  14.791  -4.176  1.00 20.00     0.012 C 
HETATM    2  C2  UNL     1     -37.104  14.768  -3.857  1.00 20.00    -0.112 C 
HETATM    3  C3  UNL     1     -34.160  15.502  -5.794  1.00 20.00    -0.026 C 
HETATM    4  C4  UNL     1     -34.738  14.292  -5.734  1.00 20.00    -0.024 C 
HETATM    5  C5  UNL     1     -32.791  15.062  -3.791  1.00 20.00     0.009 C 
HETATM    6  C6  UNL     1     -33.447  13.661  -3.740  1.00 20.00     0.010 C 
HETATM    7  C7  UNL     1     -35.037  16.150  -3.584  1.00 20.00     0.026 C 
HETATM    8  C8  UNL     1     -35.683  14.740  -3.466  1.00 20.00     0.072 C 
HETATM    9  C9  UNL     1     -33.758  16.071  -4.451  1.00 20.00     0.009 C 
HETATM   10  C10 UNL     1     -34.876  13.730  -4.330  1.00 20.00     0.023 C 
ENDROOT
TORSDOF 0
ENDMDL
MODEL 9
REMARK VINA RESULT:      -4.6      1.273      2.611
REMARK  0 active torsions:
REMARK  status: ('A' for Active; 'I' for Inactive)
ROOT
HETATM    1  C1  UNL     1     -35.042  17.294   0.299  1.00 20.00     0.012 C 
HETATM    2  C2  UNL     1     -34.454  17.043  -0.718  1.00 20.00    -0.112 C 
HETATM    3  C3  UNL     1     -35.700  16.685  -4.076  1.00 20.00    -0.026 C 
HETATM    4  C4  UNL     1     -35.642  15.682  -3.185  1.00 20.00    -0.024 C 
HETATM    5  C5  UNL     1     -33.391  16.277  -4.838  1.00 20.00     0.009 C 
HETATM    6  C6  UNL     1     -33.338  15.110  -3.823  1.00 20.00     0.010 C 
HETATM    7  C7  UNL     1     -33.853  17.901  -2.989  1.00 20.00     0.026 C 
HETATM    8  C8  UNL     1     -33.733  16.736  -1.967  1.00 20.00     0.072 C 
HETATM    9  C9  UNL     1     -34.373  17.362  -4.343  1.00 20.00     0.009 C 
HETATM   10  C10 UNL     1     -34.257  15.424  -2.618  1.00 20.00     0.023 C 
ENDROOT
TORSDOF 0
ENDMDL
