MODEL 1
REMARK VINA RESULT:      -4.5      0.000      0.000
REMARK  1 active torsions:
REMARK  status: ('A' for Active; 'I' for Inactive)
REMARK    1  A    between atoms: C8_8  and  C9_9 
ROOT
HETATM    1  C1  UNL     1     -38.016  14.772  -3.837  1.00 20.00     0.014 C 
HETATM    2  C2  UNL     1     -34.491  16.312  -1.683  1.00 20.00     0.014 C 
HETATM    3  C3  UNL     1     -36.819  14.770  -3.739  1.00 20.00    -0.094 C 
HETATM    4  C4  UNL     1     -34.900  15.609  -2.565  1.00 20.00    -0.094 C 
HETATM    5  C7  UNL     1     -34.657  13.477  -3.898  1.00 20.00     0.043 A 
HETATM    6  C9  UNL     1     -34.535  14.623  -4.870  1.00 20.00     0.025 A 
HETATM    7  C10 UNL     1     -35.389  14.768  -3.622  1.00 20.00     0.089 A 
ENDROOT
BRANCH   6   8
HETATM    8  C8  UNL     1     -35.090  14.551  -6.287  1.00 20.00    -0.008 A 
HETATM    9  C5  UNL     1     -35.559  15.766  -7.037  1.00 20.00     0.005 A 
HETATM   10  C6  UNL     1     -34.323  15.038  -7.485  1.00 20.00     0.005 A 
ENDBRANCH   6   8
TORSDOF 1
ENDMDL
MODEL 2
REMARK VINA RESULT:      -4.5      1.957      4.521
REMARK  1 active torsions:
REMARK  status: ('A' for Active; 'I' for Inactive)
REMARK    1  A    between atoms: C8_8  and  C9_9 
ROOT
HETATM    1  C1  UNL     1     -33.494  18.069  -5.542  1.00 20.00     0.014 C 
HETATM    2  C2  UNL     1     -35.151  14.007  -5.990  1.00 20.00     0.014 C 
HETATM    3  C3  UNL     1     -33.635  16.982  -5.051  1.00 20.00    -0.094 C 
HETATM    4  C4  UNL     1     -34.536  14.770  -5.296  1.00 20.00    -0.094 C 
HETATM    5  C7  UNL     1     -32.672  15.131  -3.630  1.00 20.00     0.043 A 
HETATM    6  C9  UNL     1     -33.954  15.555  -2.959  1.00 20.00     0.025 A 
HETATM    7  C10 UNL     1     -33.802  15.683  -4.465  1.00 20.00     0.089 A 
ENDROOT
BRANCH   6   8
HETATM    8  C8  UNL     1     -34.018  16.736  -1.998  1.00 20.00    -0.008 A 
HETATM    9  C5  UNL     1     -35.291  17.485  -1.718  1.00 20.00     0.005 A 
HETATM   10  C6  UNL     1     -34.662  16.645  -0.642  1.00 20.00     0.005 A 
ENDBRANCH   6   8
TORSDOF 1
ENDMDL
MODEL 3
REMARK VINA RESULT:      -4.4      1.229      4.478
REMARK  1 active torsions:
REMARK  status: ('A' for Active; 'I' for Inactive)
REMARK    1  A    between atoms: C8_8  and  C9_9 
ROOT
HETATM    1  C1  UNL     1     -33.296  13.461  -3.766  1.00 20.00     0.014 C 
HETATM    2  C2  UNL     1     -35.189  16.395  -6.459  1.00 20.00     0.014 C 
HETATM    3  C3  UNL     1     -34.107  14.339  -3.884  1.00 20.00    -0.094 C 
HETATM    4  C4  UNL     1     -35.138  15.936  -5.351  1.00 20.00    -0.094 C 
HETATM    5  C7  UNL     1     -36.363  15.273  -3.244  1.00 20.00     0.043 A 
HETATM    6  C9  UNL     1     -35.349  16.318  -2.855  1.00 20.00     0.025 A 
HETATM    7  C10 UNL     1     -35.077  15.387  -4.025  1.00 20.00     0.089 A 
ENDROOT
BRANCH   6   8
HETATM    8  C8  UNL     1     -34.601  16.273  -1.529  1.00 20.00    -0.008 A 
HETATM    9  C5  UNL     1     -33.658  17.360  -1.093  1.00 20.00     0.005 A 
HETATM   10  C6  UNL     1     -34.958  17.157  -0.366  1.00 20.00     0.005 A 
ENDBRANCH   6   8
TORSDOF 1
ENDMDL
MODEL 4
REMARK VINA RESULT:      -4.3      1.827      2.164
REMARK  1 active torsions:
REMARK  status: ('A' for Active; 'I' for Inactive)
REMARK    1  A    between atoms: C8_8  and  C9_9 
ROOT
HETATM    1  C1  UNL     1     -36.765  14.768  -3.714  1.00 20.00     0.014 C 
HETATM    2  C2  UNL     1     -34.647  16.802  -0.426  1.00 20.00     0.014 C 
HETATM    3  C3  UNL     1     -35.747  15.288  -3.345  1.00 20.00    -0.094 C 
HETATM    4  C4  UNL     1     -34.594  16.395  -1.553  1.00 20.00    -0.094 C 
HETATM    5  C7  UNL     1     -33.224  15.334  -3.391  1.00 20.00     0.043 A 
HETATM    6  C9  UNL     1     -33.679  16.678  -3.899  1.00 20.00     0.025 A 
HETATM    7  C10 UNL     1     -34.532  15.909  -2.904  1.00 20.00     0.089 A 
ENDROOT
BRANCH   6   8
HETATM    8  C8  UNL     1     -34.060  16.912  -5.356  1.00 20.00    -0.008 A 
HETATM    9  C5  UNL     1     -35.122  17.892  -5.770  1.00 20.00     0.005 A 
HETATM   10  C6  UNL     1     -33.681  18.161  -6.103  1.00 20.00     0.005 A 
ENDBRANCH   6   8
TORSDOF 1
ENDMDL
MODEL 5
REMARK VINA RESULT:      -4.3     11.294     12.873
REMARK  1 active torsions:
REMARK  status: ('A' for Active; 'I' for Inactive)
REMARK    1  A    between atoms: C8_8  and  C9_9 
ROOT
HETATM    1  C1  UNL     1     -33.325   7.547   6.985  1.00 20.00     0.014 C 
HETATM    2  C2  UNL     1     -34.990   3.624   5.857  1.00 20.00     0.014 C 
HETATM    3  C3  UNL     1     -33.686   6.829   6.094  1.00 20.00    -0.094 C 
HETATM    4  C4  UNL     1     -34.594   4.692   5.480  1.00 20.00    -0.094 C 
HETATM    5  C7  UNL     1     -34.803   6.603   3.841  1.00 20.00     0.043 A 
HETATM    6  C9  UNL     1     -33.415   6.034   3.683  1.00 20.00     0.025 A 
HETATM    7  C10 UNL     1     -34.119   5.970   5.029  1.00 20.00     0.089 A 
ENDROOT
BRANCH   6   8
HETATM    8  C8  UNL     1     -32.205   6.911   3.387  1.00 20.00    -0.008 A 
HETATM    9  C5  UNL     1     -31.785   7.269   1.988  1.00 20.00     0.005 A 
HETATM   10  C6  UNL     1     -32.330   8.330   2.904  1.00 20.00     0.005 A 
ENDBRANCH   6   8
TORSDOF 1
ENDMDL
MODEL 6
REMARK VINA RESULT:      -4.3      9.936     11.382
REMARK  1 active torsions:
REMARK  status: ('A' for Active; 'I' for Inactive)
REMARK    1  A    between atoms: C8_8  and  C9_9 
ROOT
HETATM    1  C1  UNL     1     -34.793   5.110   2.275  1.00 20.00     0.014 C 
HETATM    2  C2  UNL     1     -33.925   6.549   6.351  1.00 20.00     0.014 C 
HETATM    3  C3  UNL     1     -34.048   5.731   2.983  1.00 20.00    -0.094 C 
HETATM    4  C4  UNL     1     -33.576   6.513   5.203  1.00 20.00    -0.094 C 
HETATM    5  C7  UNL     1     -31.679   6.399   3.539  1.00 20.00     0.043 A 
HETATM    6  C9  UNL     1     -32.426   7.681   3.270  1.00 20.00     0.025 A 
HETATM    7  C10 UNL     1     -33.158   6.472   3.829  1.00 20.00     0.089 A 
ENDROOT
BRANCH   6   8
HETATM    8  C8  UNL     1     -32.622   8.229   1.863  1.00 20.00    -0.008 A 
HETATM    9  C5  UNL     1     -32.516   9.693   1.540  1.00 20.00     0.005 A 
HETATM   10  C6  UNL     1     -31.482   8.733   1.022  1.00 20.00     0.005 A 
ENDBRANCH   6   8
TORSDOF 1
ENDMDL
MODEL 7
REMARK VINA RESULT:      -4.3      2.206      4.492
REMARK  1 active torsions:
REMARK  status: ('A' for Active; 'I' for Inactive)
REMARK    1  A    between atoms: C8_8  and  C9_9 
ROOT
HETATM    1  C1  UNL     1     -37.135  16.029  -3.430  1.00 20.00     0.014 C 
HETATM    2  C2  UNL     1     -33.620  13.396  -3.811  1.00 20.00     0.014 C 
HETATM    3  C3  UNL     1     -35.939  15.935  -3.366  1.00 20.00    -0.094 C 
HETATM    4  C4  UNL     1     -34.025  14.500  -3.574  1.00 20.00    -0.094 C 
HETATM    5  C7  UNL     1     -33.681  16.996  -3.747  1.00 20.00     0.043 A 
HETATM    6  C9  UNL     1     -33.746  16.659  -2.279  1.00 20.00     0.025 A 
HETATM    7  C10 UNL     1     -34.511  15.821  -3.290  1.00 20.00     0.089 A 
ENDROOT
BRANCH   6   8
HETATM    8  C8  UNL     1     -34.399  17.583  -1.259  1.00 20.00    -0.008 A 
HETATM    9  C5  UNL     1     -34.853  17.109   0.093  1.00 20.00     0.005 A 
HETATM   10  C6  UNL     1     -33.690  18.054  -0.019  1.00 20.00     0.005 A 
ENDBRANCH   6   8
TORSDOF 1
ENDMDL
MODEL 8
REMARK VINA RESULT:      -4.2     10.198     11.801
REMARK  1 active torsions:
REMARK  status: ('A' for Active; 'I' for Inactive)
REMARK    1  A    between atoms: C8_8  and  C9_9 
ROOT
HETATM    1  C1  UNL     1     -41.261   3.638  -2.135  1.00 20.00     0.014 C 
HETATM    2  C2  UNL     1     -43.330   5.217   1.424  1.00 20.00     0.014 C 
HETATM    3  C3  UNL     1     -41.537   4.607  -1.481  1.00 20.00    -0.094 C 
HETATM    4  C4  UNL     1     -42.664   5.466   0.458  1.00 20.00    -0.094 C 
HETATM    5  C7  UNL     1     -40.837   6.862  -0.590  1.00 20.00     0.043 A 
HETATM    6  C9  UNL     1     -42.091   7.097  -1.395  1.00 20.00     0.025 A 
HETATM    7  C10 UNL     1     -41.867   5.764  -0.700  1.00 20.00     0.089 A 
ENDROOT
BRANCH   6   8
HETATM    8  C8  UNL     1     -42.063   7.295  -2.905  1.00 20.00    -0.008 A 
HETATM    9  C5  UNL     1     -43.234   6.962  -3.788  1.00 20.00     0.005 A 
HETATM   10  C6  UNL     1     -42.823   8.395  -3.593  1.00 20.00     0.005 A 
ENDBRANCH   6   8
TORSDOF 1
ENDMDL
MODEL 9
REMARK VINA RESULT:      -4.2      2.047      3.426
REMARK  1 active torsions:
REMARK  status: ('A' for Active; 'I' for Inactive)
REMARK    1  A    between atoms: C8_8  and  C9_9 
ROOT
HETATM    1  C1  UNL     1     -33.597  18.405  -3.847  1.00 20.00     0.014 C 
HETATM    2  C2  UNL     1     -34.812  17.275   0.238  1.00 20.00     0.014 C 
HETATM    3  C3  UNL     1     -34.215  17.639  -3.159  1.00 20.00    -0.094 C 
HETATM    4  C4  UNL     1     -34.877  17.025  -0.934  1.00 20.00    -0.094 C 
HETATM    5  C7  UNL     1     -36.254  16.179  -2.875  1.00 20.00     0.043 A 
HETATM    6  C9  UNL     1     -35.061  15.266  -2.748  1.00 20.00     0.025 A 
HETATM    7  C10 UNL     1     -34.954  16.725  -2.336  1.00 20.00     0.089 A 
ENDROOT
BRANCH   6   8
HETATM    8  C8  UNL     1     -34.365  14.663  -3.962  1.00 20.00    -0.008 A 
HETATM    9  C5  UNL     1     -33.334  13.574  -3.848  1.00 20.00     0.005 A 
HETATM   10  C6  UNL     1     -34.671  13.280  -4.469  1.00 20.00     0.005 A 
ENDBRANCH   6   8
TORSDOF 1
ENDMDL
