MODEL 1
REMARK VINA RESULT:      -4.7      0.000      0.000
REMARK  0 active torsions:
REMARK  status: ('A' for Active; 'I' for Inactive)
ROOT
HETATM    1  C1  UNL     1     -33.733  15.989  -2.690  1.00 20.00    -0.012 C 
HETATM    2  C2  UNL     1     -34.806  16.647  -3.170  1.00 20.00    -0.016 C 
HETATM    3  C3  UNL     1     -33.573  13.835  -3.753  1.00 20.00    -0.010 C 
HETATM    4  C4  UNL     1     -34.448  13.238  -4.836  1.00 20.00     0.014 C 
HETATM    5  C5  UNL     1     -33.291  15.177  -3.816  1.00 20.00     0.051 C 
HETATM    6  C6  UNL     1     -34.958  16.340  -4.601  1.00 20.00     0.034 C 
HETATM    7  C7  UNL     1     -33.764  15.875  -5.076  1.00 20.00     0.224 C 
HETATM    8  C8  UNL     1     -34.976  14.154  -5.715  1.00 20.00     0.216 C 
HETATM    9  C9  UNL     1     -35.951  15.259  -5.092  1.00 20.00     0.066 C 
HETATM   10  N10 UNL     1     -33.946  15.017  -6.167  1.00 20.00     0.115 N 
HETATM   11  H17 UNL     1     -34.133  15.480  -7.053  1.00 20.00     0.318 HD
ENDROOT
TORSDOF 0
ENDMDL
MODEL 2
REMARK VINA RESULT:      -4.7      1.275      2.935
REMARK  0 active torsions:
REMARK  status: ('A' for Active; 'I' for Inactive)
ROOT
HETATM    1  C1  UNL     1     -35.888  14.272  -5.564  1.00 20.00    -0.012 C 
HETATM    2  C2  UNL     1     -36.173  14.177  -4.251  1.00 20.00    -0.016 C 
HETATM    3  C3  UNL     1     -34.049  15.793  -5.878  1.00 20.00    -0.010 C 
HETATM    4  C4  UNL     1     -33.236  16.533  -4.836  1.00 20.00     0.014 C 
HETATM    5  C5  UNL     1     -34.452  14.512  -5.592  1.00 20.00     0.051 C 
HETATM    6  C6  UNL     1     -34.920  14.239  -3.482  1.00 20.00     0.034 C 
HETATM    7  C7  UNL     1     -33.882  13.928  -4.314  1.00 20.00     0.224 C 
HETATM    8  C8  UNL     1     -33.093  15.868  -3.641  1.00 20.00     0.216 C 
HETATM    9  C9  UNL     1     -34.438  15.559  -2.833  1.00 20.00     0.066 C 
HETATM   10  N10 UNL     1     -32.690  14.533  -3.894  1.00 20.00     0.115 N 
HETATM   11  H17 UNL     1     -32.224  14.071  -3.119  1.00 20.00     0.318 HD
ENDROOT
TORSDOF 0
ENDMDL
MODEL 3
REMARK VINA RESULT:      -4.6      0.964      2.930
REMARK  0 active torsions:
REMARK  status: ('A' for Active; 'I' for Inactive)
ROOT
HETATM    1  C1  UNL     1     -36.359  14.353  -4.212  1.00 20.00    -0.012 C 
HETATM    2  C2  UNL     1     -35.563  13.284  -4.409  1.00 20.00    -0.016 C 
HETATM    3  C3  UNL     1     -35.108  16.094  -3.117  1.00 20.00    -0.010 C 
HETATM    4  C4  UNL     1     -33.647  16.111  -2.719  1.00 20.00     0.014 C 
HETATM    5  C5  UNL     1     -35.448  15.486  -4.300  1.00 20.00     0.051 C 
HETATM    6  C6  UNL     1     -34.205  13.749  -4.730  1.00 20.00     0.034 C 
HETATM    7  C7  UNL     1     -34.277  15.046  -5.156  1.00 20.00     0.224 C 
HETATM    8  C8  UNL     1     -32.818  15.391  -3.547  1.00 20.00     0.216 C 
HETATM    9  C9  UNL     1     -33.101  13.820  -3.647  1.00 20.00     0.066 C 
HETATM   10  N10 UNL     1     -33.088  15.738  -4.895  1.00 20.00     0.115 N 
HETATM   11  H17 UNL     1     -32.330  15.552  -5.546  1.00 20.00     0.318 HD
ENDROOT
TORSDOF 0
ENDMDL
MODEL 4
REMARK VINA RESULT:      -4.6      1.303      1.778
REMARK  0 active torsions:
REMARK  status: ('A' for Active; 'I' for Inactive)
ROOT
HETATM    1  C1  UNL     1     -34.153  17.307  -3.012  1.00 20.00    -0.012 C 
HETATM    2  C2  UNL     1     -33.686  17.483  -4.264  1.00 20.00    -0.016 C 
HETATM    3  C3  UNL     1     -35.295  15.193  -2.872  1.00 20.00    -0.010 C 
HETATM    4  C4  UNL     1     -35.471  14.132  -3.939  1.00 20.00     0.014 C 
HETATM    5  C5  UNL     1     -34.099  15.865  -2.820  1.00 20.00     0.051 C 
HETATM    6  C6  UNL     1     -33.239  16.186  -4.796  1.00 20.00     0.034 C 
HETATM    7  C7  UNL     1     -33.023  15.335  -3.749  1.00 20.00     0.224 C 
HETATM    8  C8  UNL     1     -34.432  14.043  -4.836  1.00 20.00     0.216 C 
HETATM    9  C9  UNL     1     -34.146  15.342  -5.724  1.00 20.00     0.066 C 
HETATM   10  N10 UNL     1     -33.205  14.000  -4.128  1.00 20.00     0.115 N 
HETATM   11  H17 UNL     1     -32.429  13.588  -4.639  1.00 20.00     0.318 HD
ENDROOT
TORSDOF 0
ENDMDL
MODEL 5
REMARK VINA RESULT:      -4.6      1.299      2.808
REMARK  0 active torsions:
REMARK  status: ('A' for Active; 'I' for Inactive)
ROOT
HETATM    1  C1  UNL     1     -34.893  14.512  -6.981  1.00 20.00    -0.012 C 
HETATM    2  C2  UNL     1     -34.212  15.673  -6.916  1.00 20.00    -0.016 C 
HETATM    3  C3  UNL     1     -34.642  13.318  -4.906  1.00 20.00    -0.010 C 
HETATM    4  C4  UNL     1     -33.908  13.736  -3.648  1.00 20.00     0.014 C 
HETATM    5  C5  UNL     1     -35.322  14.282  -5.609  1.00 20.00     0.051 C 
HETATM    6  C6  UNL     1     -34.316  16.215  -5.553  1.00 20.00     0.034 C 
HETATM    7  C7  UNL     1     -35.391  15.639  -4.935  1.00 20.00     0.224 C 
HETATM    8  C8  UNL     1     -33.902  15.090  -3.411  1.00 20.00     0.216 C 
HETATM    9  C9  UNL     1     -33.188  16.003  -4.514  1.00 20.00     0.066 C 
HETATM   10  N10 UNL     1     -35.220  15.594  -3.546  1.00 20.00     0.115 N 
HETATM   11  H17 UNL     1     -35.396  16.471  -3.062  1.00 20.00     0.318 HD
ENDROOT
TORSDOF 0
ENDMDL
MODEL 6
REMARK VINA RESULT:      -4.6     12.133     13.242
REMARK  0 active torsions:
REMARK  status: ('A' for Active; 'I' for Inactive)
ROOT
HETATM    1  C1  UNL     1     -41.071   6.859  -0.706  1.00 20.00    -0.012 C 
HETATM    2  C2  UNL     1     -41.638   6.916  -1.927  1.00 20.00    -0.016 C 
HETATM    3  C3  UNL     1     -42.131   5.129   0.590  1.00 20.00    -0.010 C 
HETATM    4  C4  UNL     1     -43.227   4.167   0.181  1.00 20.00     0.014 C 
HETATM    5  C5  UNL     1     -41.174   5.453  -0.340  1.00 20.00     0.051 C 
HETATM    6  C6  UNL     1     -41.981   5.553  -2.361  1.00 20.00     0.034 C 
HETATM    7  C7  UNL     1     -41.242   4.664  -1.633  1.00 20.00     0.224 C 
HETATM    8  C8  UNL     1     -43.211   3.812  -1.147  1.00 20.00     0.216 C 
HETATM    9  C9  UNL     1     -43.416   4.995  -2.204  1.00 20.00     0.066 C 
HETATM   10  N10 UNL     1     -41.895   3.431  -1.514  1.00 20.00     0.115 N 
HETATM   11  H17 UNL     1     -41.835   2.831  -2.332  1.00 20.00     0.318 HD
ENDROOT
TORSDOF 0
ENDMDL
MODEL 7
REMARK VINA RESULT:      -4.5      1.085      1.936
REMARK  0 active torsions:
REMARK  status: ('A' for Active; 'I' for Inactive)
ROOT
HETATM    1  C1  UNL     1     -34.768  15.897  -2.184  1.00 20.00    -0.012 C 
HETATM    2  C2  UNL     1     -33.664  16.454  -2.719  1.00 20.00    -0.016 C 
HETATM    3  C3  UNL     1     -36.122  14.958  -3.938  1.00 20.00    -0.010 C 
HETATM    4  C4  UNL     1     -35.848  14.898  -5.427  1.00 20.00     0.014 C 
HETATM    5  C5  UNL     1     -35.066  14.787  -3.078  1.00 20.00     0.051 C 
HETATM    6  C6  UNL     1     -33.216  15.635  -3.856  1.00 20.00     0.034 C 
HETATM    7  C7  UNL     1     -33.760  14.387  -3.737  1.00 20.00     0.224 C 
HETATM    8  C8  UNL     1     -34.517  14.799  -5.760  1.00 20.00     0.216 C 
HETATM    9  C9  UNL     1     -33.578  16.014  -5.313  1.00 20.00     0.066 C 
HETATM   10  N10 UNL     1     -33.916  13.775  -4.986  1.00 20.00     0.115 N 
HETATM   11  H17 UNL     1     -33.067  13.381  -5.382  1.00 20.00     0.318 HD
ENDROOT
TORSDOF 0
ENDMDL
MODEL 8
REMARK VINA RESULT:      -4.5      1.184      2.571
REMARK  0 active torsions:
REMARK  status: ('A' for Active; 'I' for Inactive)
ROOT
HETATM    1  C1  UNL     1     -34.105  13.673  -3.636  1.00 20.00    -0.012 C 
HETATM    2  C2  UNL     1     -34.545  13.173  -4.807  1.00 20.00    -0.016 C 
HETATM    3  C3  UNL     1     -33.310  15.920  -3.972  1.00 20.00    -0.010 C 
HETATM    4  C4  UNL     1     -33.309  16.752  -5.237  1.00 20.00     0.014 C 
HETATM    5  C5  UNL     1     -34.385  15.098  -3.739  1.00 20.00     0.051 C 
HETATM    6  C6  UNL     1     -35.193  14.247  -5.574  1.00 20.00     0.034 C 
HETATM    7  C7  UNL     1     -35.535  15.253  -4.715  1.00 20.00     0.224 C 
HETATM    8  C8  UNL     1     -34.354  16.493  -6.094  1.00 20.00     0.216 C 
HETATM    9  C9  UNL     1     -34.437  15.011  -6.689  1.00 20.00     0.066 C 
HETATM   10  N10 UNL     1     -35.568  16.493  -5.364  1.00 20.00     0.115 N 
HETATM   11  H17 UNL     1     -36.403  16.666  -5.918  1.00 20.00     0.318 HD
ENDROOT
TORSDOF 0
ENDMDL
MODEL 9
REMARK VINA RESULT:      -4.5      1.294      2.480
REMARK  0 active torsions:
REMARK  status: ('A' for Active; 'I' for Inactive)
ROOT
HETATM    1  C1  UNL     1     -35.918  14.046  -4.164  1.00 20.00    -0.012 C 
HETATM    2  C2  UNL     1     -35.843  15.010  -3.226  1.00 20.00    -0.016 C 
HETATM    3  C3  UNL     1     -34.684  14.726  -6.115  1.00 20.00    -0.010 C 
HETATM    4  C4  UNL     1     -33.873  15.985  -6.340  1.00 20.00     0.014 C 
HETATM    5  C5  UNL     1     -34.649  14.147  -4.871  1.00 20.00     0.051 C 
HETATM    6  C6  UNL     1     -34.505  15.621  -3.273  1.00 20.00     0.034 C 
HETATM    7  C7  UNL     1     -33.653  14.760  -3.905  1.00 20.00     0.224 C 
HETATM    8  C8  UNL     1     -33.274  16.490  -5.209  1.00 20.00     0.216 C 
HETATM    9  C9  UNL     1     -34.252  16.948  -4.029  1.00 20.00     0.066 C 
HETATM   10  N10 UNL     1     -32.603  15.444  -4.529  1.00 20.00     0.115 N 
HETATM   11  H17 UNL     1     -31.857  15.746  -3.907  1.00 20.00     0.318 HD
ENDROOT
TORSDOF 0
ENDMDL
