MODEL 1
REMARK VINA RESULT:      -4.9      0.000      0.000
REMARK  0 active torsions:
REMARK  status: ('A' for Active; 'I' for Inactive)
ROOT
HETATM    1  C1  UNL     1     -33.748   6.265   5.858  1.00 20.00     0.129 C 
HETATM    2  C2  UNL     1     -33.964   6.375   4.540  1.00 20.00     0.136 C 
HETATM    3  C3  UNL     1     -34.249   5.125   6.688  1.00 20.00     0.073 C 
HETATM    4  C4  UNL     1     -35.305   4.281   5.975  1.00 20.00     0.008 C 
HETATM    5  C5  UNL     1     -34.916   4.031   4.517  1.00 20.00     0.016 C 
HETATM    6  C6  UNL     1     -34.718   5.346   3.722  1.00 20.00     0.009 C 
HETATM    7  C7  UNL     1     -36.081   5.945   3.329  1.00 20.00     0.022 C 
HETATM    8  C8  UNL     1     -33.930   5.032   2.439  1.00 20.00     0.022 C 
HETATM    9  F9  UNL     1     -33.054   7.248   6.477  1.00 20.00    -0.208 F 
HETATM   10  F10 UNL     1     -33.476   7.468   3.908  1.00 20.00    -0.207 F 
ENDROOT
TORSDOF 0
ENDMDL
MODEL 2
REMARK VINA RESULT:      -4.7      9.086     10.346
REMARK  0 active torsions:
REMARK  status: ('A' for Active; 'I' for Inactive)
ROOT
HETATM    1  C1  UNL     1     -41.899   6.775  -2.273  1.00 20.00     0.129 C 
HETATM    2  C2  UNL     1     -42.311   5.529  -2.550  1.00 20.00     0.136 C 
HETATM    3  C3  UNL     1     -40.999   7.114  -1.126  1.00 20.00     0.073 C 
HETATM    4  C4  UNL     1     -40.866   5.981  -0.110  1.00 20.00     0.008 C 
HETATM    5  C5  UNL     1     -40.707   4.630  -0.810  1.00 20.00     0.016 C 
HETATM    6  C6  UNL     1     -41.895   4.309  -1.754  1.00 20.00     0.009 C 
HETATM    7  C7  UNL     1     -43.109   3.824  -0.941  1.00 20.00     0.022 C 
HETATM    8  C8  UNL     1     -41.468   3.189  -2.718  1.00 20.00     0.022 C 
HETATM    9  F9  UNL     1     -42.336   7.783  -3.061  1.00 20.00    -0.208 F 
HETATM   10  F10 UNL     1     -43.143   5.359  -3.603  1.00 20.00    -0.207 F 
ENDROOT
TORSDOF 0
ENDMDL
MODEL 3
REMARK VINA RESULT:      -4.6     12.674     13.858
REMARK  0 active torsions:
REMARK  status: ('A' for Active; 'I' for Inactive)
ROOT
HETATM    1  C1  UNL     1     -34.288  15.560  -6.139  1.00 20.00     0.129 C 
HETATM    2  C2  UNL     1     -33.681  15.954  -5.011  1.00 20.00     0.136 C 
HETATM    3  C3  UNL     1     -35.060  14.284  -6.262  1.00 20.00     0.073 C 
HETATM    4  C4  UNL     1     -34.814  13.319  -5.104  1.00 20.00     0.008 C 
HETATM    5  C5  UNL     1     -34.801  14.058  -3.765  1.00 20.00     0.016 C 
HETATM    6  C6  UNL     1     -33.724  15.171  -3.715  1.00 20.00     0.009 C 
HETATM    7  C7  UNL     1     -32.332  14.560  -3.472  1.00 20.00     0.022 C 
HETATM    8  C8  UNL     1     -34.054  16.123  -2.552  1.00 20.00     0.022 C 
HETATM    9  F9  UNL     1     -34.181  16.349  -7.233  1.00 20.00    -0.208 F 
HETATM   10  F10 UNL     1     -32.994  17.120  -5.038  1.00 20.00    -0.207 F 
ENDROOT
TORSDOF 0
ENDMDL
MODEL 4
REMARK VINA RESULT:      -4.6     12.559     14.042
REMARK  0 active torsions:
REMARK  status: ('A' for Active; 'I' for Inactive)
ROOT
HETATM    1  C1  UNL     1     -34.727  14.675  -6.557  1.00 20.00     0.129 C 
HETATM    2  C2  UNL     1     -34.577  14.117  -5.348  1.00 20.00     0.136 C 
HETATM    3  C3  UNL     1     -34.273  16.062  -6.892  1.00 20.00     0.073 C 
HETATM    4  C4  UNL     1     -33.934  16.898  -5.658  1.00 20.00     0.008 C 
HETATM    5  C5  UNL     1     -33.143  16.078  -4.638  1.00 20.00     0.016 C 
HETATM    6  C6  UNL     1     -33.905  14.809  -4.179  1.00 20.00     0.009 C 
HETATM    7  C7  UNL     1     -34.988  15.177  -3.148  1.00 20.00     0.022 C 
HETATM    8  C8  UNL     1     -32.904  13.845  -3.519  1.00 20.00     0.022 C 
HETATM    9  F9  UNL     1     -35.339  13.955  -7.524  1.00 20.00    -0.208 F 
HETATM   10  F10 UNL     1     -35.052  12.863  -5.168  1.00 20.00    -0.207 F 
ENDROOT
TORSDOF 0
ENDMDL
MODEL 5
REMARK VINA RESULT:      -4.5      8.564      9.751
REMARK  0 active torsions:
REMARK  status: ('A' for Active; 'I' for Inactive)
ROOT
HETATM    1  C1  UNL     1     -41.367   7.426  -1.100  1.00 20.00     0.129 C 
HETATM    2  C2  UNL     1     -41.168   6.251  -0.488  1.00 20.00     0.136 C 
HETATM    3  C3  UNL     1     -42.275   7.605  -2.276  1.00 20.00     0.073 C 
HETATM    4  C4  UNL     1     -42.689   6.284  -2.923  1.00 20.00     0.008 C 
HETATM    5  C5  UNL     1     -43.036   5.238  -1.862  1.00 20.00     0.016 C 
HETATM    6  C6  UNL     1     -41.858   4.964  -0.893  1.00 20.00     0.009 C 
HETATM    7  C7  UNL     1     -40.817   4.046  -1.559  1.00 20.00     0.022 C 
HETATM    8  C8  UNL     1     -42.406   4.260   0.361  1.00 20.00     0.022 C 
HETATM    9  F9  UNL     1     -40.695   8.508  -0.643  1.00 20.00    -0.208 F 
HETATM   10  F10 UNL     1     -40.302   6.218   0.551  1.00 20.00    -0.207 F 
ENDROOT
TORSDOF 0
ENDMDL
MODEL 6
REMARK VINA RESULT:      -4.5     12.158     12.930
REMARK  0 active torsions:
REMARK  status: ('A' for Active; 'I' for Inactive)
ROOT
HETATM    1  C1  UNL     1     -34.347  14.008  -4.044  1.00 20.00     0.129 C 
HETATM    2  C2  UNL     1     -33.772  15.069  -3.461  1.00 20.00     0.136 C 
HETATM    3  C3  UNL     1     -35.818  13.894  -4.290  1.00 20.00     0.073 C 
HETATM    4  C4  UNL     1     -36.639  14.930  -3.523  1.00 20.00     0.008 C 
HETATM    5  C5  UNL     1     -35.976  16.307  -3.578  1.00 20.00     0.016 C 
HETATM    6  C6  UNL     1     -34.537  16.295  -3.004  1.00 20.00     0.009 C 
HETATM    7  C7  UNL     1     -34.574  16.297  -1.465  1.00 20.00     0.022 C 
HETATM    8  C8  UNL     1     -33.806  17.563  -3.481  1.00 20.00     0.022 C 
HETATM    9  F9  UNL     1     -33.556  12.974  -4.413  1.00 20.00    -0.208 F 
HETATM   10  F10 UNL     1     -32.432  15.039  -3.274  1.00 20.00    -0.207 F 
ENDROOT
TORSDOF 0
ENDMDL
MODEL 7
REMARK VINA RESULT:      -4.4     12.455     13.781
REMARK  0 active torsions:
REMARK  status: ('A' for Active; 'I' for Inactive)
ROOT
HETATM    1  C1  UNL     1     -33.599  14.320  -4.165  1.00 20.00     0.129 C 
HETATM    2  C2  UNL     1     -34.517  14.090  -5.115  1.00 20.00     0.136 C 
HETATM    3  C3  UNL     1     -33.007  15.667  -3.895  1.00 20.00     0.073 C 
HETATM    4  C4  UNL     1     -33.284  16.680  -5.005  1.00 20.00     0.008 C 
HETATM    5  C5  UNL     1     -34.732  16.584  -5.488  1.00 20.00     0.016 C 
HETATM    6  C6  UNL     1     -35.088  15.169  -6.012  1.00 20.00     0.009 C 
HETATM    7  C7  UNL     1     -34.527  14.966  -7.431  1.00 20.00     0.022 C 
HETATM    8  C8  UNL     1     -36.620  15.035  -6.064  1.00 20.00     0.022 C 
HETATM    9  F9  UNL     1     -33.169  13.274  -3.423  1.00 20.00    -0.208 F 
HETATM   10  F10 UNL     1     -34.956  12.820  -5.274  1.00 20.00    -0.207 F 
ENDROOT
TORSDOF 0
ENDMDL
MODEL 8
REMARK VINA RESULT:      -4.3     12.263     13.002
REMARK  0 active torsions:
REMARK  status: ('A' for Active; 'I' for Inactive)
ROOT
HETATM    1  C1  UNL     1     -36.380  14.470  -3.855  1.00 20.00     0.129 C 
HETATM    2  C2  UNL     1     -36.024  15.597  -3.223  1.00 20.00     0.136 C 
HETATM    3  C3  UNL     1     -35.400  13.451  -4.347  1.00 20.00     0.073 C 
HETATM    4  C4  UNL     1     -33.961  13.963  -4.368  1.00 20.00     0.008 C 
HETATM    5  C5  UNL     1     -33.640  14.757  -3.101  1.00 20.00     0.016 C 
HETATM    6  C6  UNL     1     -34.590  15.966  -2.904  1.00 20.00     0.009 C 
HETATM    7  C7  UNL     1     -34.174  17.129  -3.823  1.00 20.00     0.022 C 
HETATM    8  C8  UNL     1     -34.493  16.434  -1.442  1.00 20.00     0.022 C 
HETATM    9  F9  UNL     1     -37.696  14.249  -4.078  1.00 20.00    -0.208 F 
HETATM   10  F10 UNL     1     -37.007  16.449  -2.849  1.00 20.00    -0.207 F 
ENDROOT
TORSDOF 0
ENDMDL
MODEL 9
REMARK VINA RESULT:      -4.3     12.384     13.561
REMARK  0 active torsions:
REMARK  status: ('A' for Active; 'I' for Inactive)
ROOT
HETATM    1  C1  UNL     1     -33.199  14.830  -3.963  1.00 20.00     0.129 C 
HETATM    2  C2  UNL     1     -33.624  15.753  -4.837  1.00 20.00     0.136 C 
HETATM    3  C3  UNL     1     -33.871  13.508  -3.762  1.00 20.00     0.073 C 
HETATM    4  C4  UNL     1     -35.263  13.440  -4.387  1.00 20.00     0.008 C 
HETATM    5  C5  UNL     1     -35.275  14.080  -5.776  1.00 20.00     0.016 C 
HETATM    6  C6  UNL     1     -34.819  15.561  -5.748  1.00 20.00     0.009 C 
HETATM    7  C7  UNL     1     -35.961  16.464  -5.246  1.00 20.00     0.022 C 
HETATM    8  C8  UNL     1     -34.447  15.988  -7.179  1.00 20.00     0.022 C 
HETATM    9  F9  UNL     1     -32.115  15.116  -3.207  1.00 20.00    -0.208 F 
HETATM   10  F10 UNL     1     -32.941  16.919  -4.907  1.00 20.00    -0.207 F 
ENDROOT
TORSDOF 0
ENDMDL
