MODEL 1
REMARK VINA RESULT:      -4.4      0.000      0.000
REMARK  1 active torsions:
REMARK  status: ('A' for Active; 'I' for Inactive)
REMARK    1  A    between atoms: C8_8  and  N9_9 
ROOT
HETATM    1  C1  UNL     1     -35.800  15.131  -3.243  1.00 20.00     0.050 C 
HETATM    2  C2  UNL     1     -36.433  14.195  -3.958  1.00 20.00     0.136 C 
HETATM    3  C3  UNL     1     -34.329  15.018  -3.126  1.00 20.00     0.033 C 
HETATM    4  C4  UNL     1     -33.693  13.780  -3.706  1.00 20.00     0.085 C 
HETATM    5  C7  UNL     1     -34.469  13.377  -4.947  1.00 20.00     0.180 C 
HETATM    6  N9  UNL     1     -33.593  15.892  -2.523  1.00 20.00    -0.289 NA
HETATM    7  O10 UNL     1     -35.861  13.177  -4.676  1.00 20.00    -0.363 OA
ENDROOT
BRANCH   6   8
HETATM    8  C8  UNL     1     -34.333  17.010  -1.957  1.00 20.00     0.108 A 
HETATM    9  C5  UNL     1     -34.616  16.989  -0.482  1.00 20.00     0.029 A 
HETATM   10  C6  UNL     1     -33.595  17.941  -1.036  1.00 20.00     0.029 A 
ENDBRANCH   6   8
TORSDOF 1
ENDMDL
MODEL 2
REMARK VINA RESULT:      -4.1     11.163     11.842
REMARK  1 active torsions:
REMARK  status: ('A' for Active; 'I' for Inactive)
REMARK    1  A    between atoms: C8_8  and  N9_9 
ROOT
HETATM    1  C1  UNL     1     -34.446   5.602   3.699  1.00 20.00     0.050 C 
HETATM    2  C2  UNL     1     -35.338   4.794   4.280  1.00 20.00     0.136 C 
HETATM    3  C3  UNL     1     -33.575   6.404   4.587  1.00 20.00     0.033 C 
HETATM    4  C4  UNL     1     -33.867   6.342   6.064  1.00 20.00     0.085 C 
HETATM    5  C7  UNL     1     -34.346   4.941   6.401  1.00 20.00     0.180 C 
HETATM    6  N9  UNL     1     -32.628   7.168   4.155  1.00 20.00    -0.289 NA
HETATM    7  O10 UNL     1     -35.484   4.555   5.622  1.00 20.00    -0.363 OA
ENDROOT
BRANCH   6   8
HETATM    8  C8  UNL     1     -32.484   7.185   2.707  1.00 20.00     0.108 A 
HETATM    9  C5  UNL     1     -32.818   8.458   1.983  1.00 20.00     0.029 A 
HETATM   10  C6  UNL     1     -31.386   8.029   2.123  1.00 20.00     0.029 A 
ENDBRANCH   6   8
TORSDOF 1
ENDMDL
MODEL 3
REMARK VINA RESULT:      -4.1      1.200      1.817
REMARK  1 active torsions:
REMARK  status: ('A' for Active; 'I' for Inactive)
REMARK    1  A    between atoms: C8_8  and  N9_9 
ROOT
HETATM    1  C1  UNL     1     -34.068  14.490  -3.498  1.00 20.00     0.050 C 
HETATM    2  C2  UNL     1     -34.177  13.528  -4.420  1.00 20.00     0.136 C 
HETATM    3  C3  UNL     1     -34.724  15.785  -3.786  1.00 20.00     0.033 C 
HETATM    4  C4  UNL     1     -35.336  15.949  -5.154  1.00 20.00     0.085 C 
HETATM    5  C7  UNL     1     -35.898  14.609  -5.593  1.00 20.00     0.180 C 
HETATM    6  N9  UNL     1     -34.753  16.770  -2.951  1.00 20.00    -0.289 NA
HETATM    7  O10 UNL     1     -34.907  13.575  -5.580  1.00 20.00    -0.363 OA
ENDROOT
BRANCH   6   8
HETATM    8  C8  UNL     1     -34.079  16.506  -1.689  1.00 20.00     0.108 A 
HETATM    9  C5  UNL     1     -33.567  17.682  -0.907  1.00 20.00     0.029 A 
HETATM   10  C6  UNL     1     -34.772  16.928  -0.424  1.00 20.00     0.029 A 
ENDBRANCH   6   8
TORSDOF 1
ENDMDL
MODEL 4
REMARK VINA RESULT:      -4.0     11.844     13.740
REMARK  1 active torsions:
REMARK  status: ('A' for Active; 'I' for Inactive)
REMARK    1  A    between atoms: C8_8  and  N9_9 
ROOT
HETATM    1  C1  UNL     1     -41.052   4.542  -1.321  1.00 20.00     0.050 C 
HETATM    2  C2  UNL     1     -40.708   5.630  -0.622  1.00 20.00     0.136 C 
HETATM    3  C3  UNL     1     -42.089   4.703  -2.363  1.00 20.00     0.033 C 
HETATM    4  C4  UNL     1     -42.767   6.047  -2.448  1.00 20.00     0.085 C 
HETATM    5  C7  UNL     1     -41.749   7.121  -2.105  1.00 20.00     0.180 C 
HETATM    6  N9  UNL     1     -42.460   3.750  -3.152  1.00 20.00    -0.289 NA
HETATM    7  O10 UNL     1     -41.153   6.912  -0.820  1.00 20.00    -0.363 OA
ENDROOT
BRANCH   6   8
HETATM    8  C8  UNL     1     -41.771   2.487  -2.932  1.00 20.00     0.108 A 
HETATM    9  C5  UNL     1     -42.525   1.219  -3.212  1.00 20.00     0.029 A 
HETATM   10  C6  UNL     1     -41.429   1.658  -4.138  1.00 20.00     0.029 A 
ENDBRANCH   6   8
TORSDOF 1
ENDMDL
MODEL 5
REMARK VINA RESULT:      -4.0      2.499      4.694
REMARK  1 active torsions:
REMARK  status: ('A' for Active; 'I' for Inactive)
REMARK    1  A    between atoms: C8_8  and  N9_9 
ROOT
HETATM    1  C1  UNL     1     -34.603  16.454  -1.080  1.00 20.00     0.050 C 
HETATM    2  C2  UNL     1     -34.638  17.325  -0.067  1.00 20.00     0.136 C 
HETATM    3  C3  UNL     1     -34.048  16.928  -2.367  1.00 20.00     0.033 C 
HETATM    4  C4  UNL     1     -33.701  18.392  -2.461  1.00 20.00     0.085 C 
HETATM    5  C7  UNL     1     -33.192  18.853  -1.106  1.00 20.00     0.180 C 
HETATM    6  N9  UNL     1     -33.894  16.168  -3.400  1.00 20.00    -0.289 NA
HETATM    7  O10 UNL     1     -34.134  18.600  -0.058  1.00 20.00    -0.363 OA
ENDROOT
BRANCH   6   8
HETATM    8  C8  UNL     1     -34.319  14.791  -3.200  1.00 20.00     0.108 A 
HETATM    9  C5  UNL     1     -34.770  14.014  -4.404  1.00 20.00     0.029 A 
HETATM   10  C6  UNL     1     -33.449  13.703  -3.762  1.00 20.00     0.029 A 
ENDBRANCH   6   8
TORSDOF 1
ENDMDL
MODEL 6
REMARK VINA RESULT:      -3.9      1.244      1.272
REMARK  1 active torsions:
REMARK  status: ('A' for Active; 'I' for Inactive)
REMARK    1  A    between atoms: C8_8  and  N9_9 
ROOT
HETATM    1  C1  UNL     1     -35.847  16.155  -4.253  1.00 20.00     0.050 C 
HETATM    2  C2  UNL     1     -36.286  15.795  -5.464  1.00 20.00     0.136 C 
HETATM    3  C3  UNL     1     -35.070  15.156  -3.487  1.00 20.00     0.033 C 
HETATM    4  C4  UNL     1     -34.964  13.774  -4.080  1.00 20.00     0.085 C 
HETATM    5  C7  UNL     1     -34.903  13.904  -5.592  1.00 20.00     0.180 C 
HETATM    6  N9  UNL     1     -34.532  15.400  -2.338  1.00 20.00    -0.289 NA
HETATM    7  O10 UNL     1     -36.024  14.621  -6.121  1.00 20.00    -0.363 OA
ENDROOT
BRANCH   6   8
HETATM    8  C8  UNL     1     -34.754  16.752  -1.848  1.00 20.00     0.108 A 
HETATM    9  C5  UNL     1     -34.800  16.959  -0.360  1.00 20.00     0.029 A 
HETATM   10  C6  UNL     1     -33.614  17.437  -1.147  1.00 20.00     0.029 A 
ENDBRANCH   6   8
TORSDOF 1
ENDMDL
MODEL 7
REMARK VINA RESULT:      -3.9      2.477      4.716
REMARK  1 active torsions:
REMARK  status: ('A' for Active; 'I' for Inactive)
REMARK    1  A    between atoms: C8_8  and  N9_9 
ROOT
HETATM    1  C1  UNL     1     -33.864  17.377  -2.896  1.00 20.00     0.050 C 
HETATM    2  C2  UNL     1     -33.622  18.615  -2.451  1.00 20.00     0.136 C 
HETATM    3  C3  UNL     1     -34.505  16.430  -1.956  1.00 20.00     0.033 C 
HETATM    4  C4  UNL     1     -34.698  16.904  -0.538  1.00 20.00     0.085 C 
HETATM    5  C7  UNL     1     -35.000  18.392  -0.565  1.00 20.00     0.180 C 
HETATM    6  N9  UNL     1     -34.855  15.231  -2.282  1.00 20.00    -0.289 NA
HETATM    7  O10 UNL     1     -33.980  19.140  -1.236  1.00 20.00    -0.363 OA
ENDROOT
BRANCH   6   8
HETATM    8  C8  UNL     1     -34.563  14.875  -3.662  1.00 20.00     0.108 A 
HETATM    9  C5  UNL     1     -33.592  13.755  -3.908  1.00 20.00     0.029 A 
HETATM   10  C6  UNL     1     -35.057  13.546  -4.161  1.00 20.00     0.029 A 
ENDBRANCH   6   8
TORSDOF 1
ENDMDL
MODEL 8
REMARK VINA RESULT:      -3.8      2.109      2.691
REMARK  1 active torsions:
REMARK  status: ('A' for Active; 'I' for Inactive)
REMARK    1  A    between atoms: C8_8  and  N9_9 
ROOT
HETATM    1  C1  UNL     1     -34.097  17.666  -2.969  1.00 20.00     0.050 C 
HETATM    2  C2  UNL     1     -33.636  17.549  -4.219  1.00 20.00     0.136 C 
HETATM    3  C3  UNL     1     -34.289  16.420  -2.195  1.00 20.00     0.033 C 
HETATM    4  C4  UNL     1     -34.081  15.121  -2.932  1.00 20.00     0.085 C 
HETATM    5  C7  UNL     1     -32.967  15.317  -3.945  1.00 20.00     0.180 C 
HETATM    6  N9  UNL     1     -34.661  16.400  -0.958  1.00 20.00    -0.289 NA
HETATM    7  O10 UNL     1     -33.235  16.397  -4.846  1.00 20.00    -0.363 OA
ENDROOT
BRANCH   6   8
HETATM    8  C8  UNL     1     -34.884  17.715  -0.377  1.00 20.00     0.108 A 
HETATM    9  C5  UNL     1     -35.449  17.781   1.013  1.00 20.00     0.029 A 
HETATM   10  C6  UNL     1     -34.008  18.129   0.772  1.00 20.00     0.029 A 
ENDBRANCH   6   8
TORSDOF 1
ENDMDL
MODEL 9
REMARK VINA RESULT:      -3.8      2.964      3.996
REMARK  1 active torsions:
REMARK  status: ('A' for Active; 'I' for Inactive)
REMARK    1  A    between atoms: C8_8  and  N9_9 
ROOT
HETATM    1  C1  UNL     1     -34.772  14.352  -5.502  1.00 20.00     0.050 C 
HETATM    2  C2  UNL     1     -34.748  13.272  -4.715  1.00 20.00     0.136 C 
HETATM    3  C3  UNL     1     -33.965  15.518  -5.082  1.00 20.00     0.033 C 
HETATM    4  C4  UNL     1     -33.300  15.435  -3.731  1.00 20.00     0.085 C 
HETATM    5  C7  UNL     1     -32.883  13.995  -3.489  1.00 20.00     0.180 C 
HETATM    6  N9  UNL     1     -33.847  16.594  -5.786  1.00 20.00    -0.289 NA
HETATM    7  O10 UNL     1     -33.986  13.087  -3.590  1.00 20.00    -0.363 OA
ENDROOT
BRANCH   6   8
HETATM    8  C8  UNL     1     -34.582  16.573  -7.042  1.00 20.00     0.108 A 
HETATM    9  C5  UNL     1     -35.773  17.479  -7.173  1.00 20.00     0.029 A 
HETATM   10  C6  UNL     1     -34.507  17.792  -7.917  1.00 20.00     0.029 A 
ENDBRANCH   6   8
TORSDOF 1
ENDMDL
