MODEL 1
REMARK VINA RESULT:      -5.2      0.000      0.000
REMARK  1 active torsions:
REMARK  status: ('A' for Active; 'I' for Inactive)
REMARK    1  A    between atoms: C4_4  and  C6_6 
ROOT
HETATM    1  C1  UNL     1     -32.246   8.724   1.747  1.00 20.00     0.012 C 
HETATM    2  C2  UNL     1     -32.231   7.682   2.341  1.00 20.00    -0.109 C 
HETATM    3  C3  UNL     1     -32.674   6.644   4.482  1.00 20.00    -0.003 C 
HETATM    4  C4  UNL     1     -33.839   6.190   4.978  1.00 20.00    -0.061 C 
HETATM    5  C7  UNL     1     -34.823   5.413   4.142  1.00 20.00     0.038 C 
HETATM    6  C8  UNL     1     -34.545   5.497   2.638  1.00 20.00     0.006 C 
HETATM    7  C9  UNL     1     -33.055   5.342   2.342  1.00 20.00     0.021 C 
HETATM    8  C10 UNL     1     -32.213   6.401   3.070  1.00 20.00     0.087 C 
ENDROOT
BRANCH   4   9
HETATM    9  C6  UNL     1     -34.212   6.426   6.353  1.00 20.00    -0.004 C 
HETATM   10  C5  UNL     1     -33.579   7.380   7.055  1.00 20.00     0.012 C 
ENDBRANCH   4   9
TORSDOF 1
ENDMDL
MODEL 2
REMARK VINA RESULT:      -4.6     11.219     11.874
REMARK  1 active torsions:
REMARK  status: ('A' for Active; 'I' for Inactive)
REMARK    1  A    between atoms: C4_4  and  C6_6 
ROOT
HETATM    1  C1  UNL     1     -34.432  15.167  -7.322  1.00 20.00     0.012 C 
HETATM    2  C2  UNL     1     -34.355  14.691  -6.223  1.00 20.00    -0.109 C 
HETATM    3  C3  UNL     1     -33.689  15.138  -3.939  1.00 20.00    -0.003 C 
HETATM    4  C4  UNL     1     -34.390  15.723  -2.952  1.00 20.00    -0.061 C 
HETATM    5  C7  UNL     1     -35.846  15.422  -2.709  1.00 20.00     0.038 C 
HETATM    6  C8  UNL     1     -36.519  14.684  -3.871  1.00 20.00     0.006 C 
HETATM    7  C9  UNL     1     -35.624  13.570  -4.411  1.00 20.00     0.021 C 
HETATM    8  C10 UNL     1     -34.260  14.105  -4.874  1.00 20.00     0.087 C 
ENDROOT
BRANCH   4   9
HETATM    9  C6  UNL     1     -33.778  16.683  -2.065  1.00 20.00    -0.004 C 
HETATM   10  C5  UNL     1     -34.342  16.934  -0.872  1.00 20.00     0.012 C 
ENDBRANCH   4   9
TORSDOF 1
ENDMDL
MODEL 3
REMARK VINA RESULT:      -4.5      9.213     11.118
REMARK  1 active torsions:
REMARK  status: ('A' for Active; 'I' for Inactive)
REMARK    1  A    between atoms: C4_4  and  C6_6 
ROOT
HETATM    1  C1  UNL     1     -42.327   8.493  -4.476  1.00 20.00     0.012 C 
HETATM    2  C2  UNL     1     -42.654   7.829  -3.531  1.00 20.00    -0.109 C 
HETATM    3  C3  UNL     1     -42.604   5.596  -2.598  1.00 20.00    -0.003 C 
HETATM    4  C4  UNL     1     -41.632   4.996  -1.889  1.00 20.00    -0.061 C 
HETATM    5  C7  UNL     1     -40.865   5.711  -0.806  1.00 20.00     0.038 C 
HETATM    6  C8  UNL     1     -41.045   7.232  -0.834  1.00 20.00     0.006 C 
HETATM    7  C9  UNL     1     -42.506   7.612  -1.064  1.00 20.00     0.021 C 
HETATM    8  C10 UNL     1     -43.055   7.015  -2.369  1.00 20.00     0.087 C 
ENDROOT
BRANCH   4   9
HETATM    9  C6  UNL     1     -41.267   3.621  -2.131  1.00 20.00    -0.004 C 
HETATM   10  C5  UNL     1     -42.026   2.868  -2.944  1.00 20.00     0.012 C 
ENDBRANCH   4   9
TORSDOF 1
ENDMDL
MODEL 4
REMARK VINA RESULT:      -4.5     10.467     12.023
REMARK  1 active torsions:
REMARK  status: ('A' for Active; 'I' for Inactive)
REMARK    1  A    between atoms: C4_4  and  C6_6 
ROOT
HETATM    1  C1  UNL     1     -33.431  13.352  -3.797  1.00 20.00     0.012 C 
HETATM    2  C2  UNL     1     -34.167  14.273  -3.572  1.00 20.00    -0.109 C 
HETATM    3  C3  UNL     1     -34.782  15.928  -1.917  1.00 20.00    -0.003 C 
HETATM    4  C4  UNL     1     -34.228  17.128  -1.674  1.00 20.00    -0.061 C 
HETATM    5  C7  UNL     1     -33.806  18.060  -2.781  1.00 20.00     0.038 C 
HETATM    6  C8  UNL     1     -33.740  17.386  -4.154  1.00 20.00     0.006 C 
HETATM    7  C9  UNL     1     -34.950  16.482  -4.384  1.00 20.00     0.021 C 
HETATM    8  C10 UNL     1     -35.073  15.402  -3.298  1.00 20.00     0.087 C 
ENDROOT
BRANCH   4   9
HETATM    9  C6  UNL     1     -34.004  17.593  -0.325  1.00 20.00    -0.004 C 
HETATM   10  C5  UNL     1     -34.976  17.453   0.592  1.00 20.00     0.012 C 
ENDBRANCH   4   9
TORSDOF 1
ENDMDL
MODEL 5
REMARK VINA RESULT:      -4.5     11.115     12.854
REMARK  1 active torsions:
REMARK  status: ('A' for Active; 'I' for Inactive)
REMARK    1  A    between atoms: C4_4  and  C6_6 
ROOT
HETATM    1  C1  UNL     1     -34.760  16.749  -1.164  1.00 20.00     0.012 C 
HETATM    2  C2  UNL     1     -34.531  15.927  -2.009  1.00 20.00    -0.109 C 
HETATM    3  C3  UNL     1     -35.441  14.825  -3.962  1.00 20.00    -0.003 C 
HETATM    4  C4  UNL     1     -35.433  15.230  -5.244  1.00 20.00    -0.061 C 
HETATM    5  C7  UNL     1     -34.223  15.861  -5.882  1.00 20.00     0.038 C 
HETATM    6  C8  UNL     1     -33.162  16.306  -4.871  1.00 20.00     0.006 C 
HETATM    7  C9  UNL     1     -32.948  15.246  -3.792  1.00 20.00     0.021 C 
HETATM    8  C10 UNL     1     -34.250  14.918  -3.045  1.00 20.00     0.087 C 
ENDROOT
BRANCH   4   9
HETATM    9  C6  UNL     1     -36.598  15.083  -6.084  1.00 20.00    -0.004 C 
HETATM   10  C5  UNL     1     -36.447  15.015  -7.418  1.00 20.00     0.012 C 
ENDBRANCH   4   9
TORSDOF 1
ENDMDL
MODEL 6
REMARK VINA RESULT:      -4.5     11.018     12.365
REMARK  1 active torsions:
REMARK  status: ('A' for Active; 'I' for Inactive)
REMARK    1  A    between atoms: C4_4  and  C6_6 
ROOT
HETATM    1  C1  UNL     1     -34.923  17.247   0.244  1.00 20.00     0.012 C 
HETATM    2  C2  UNL     1     -34.407  16.993  -0.809  1.00 20.00    -0.109 C 
HETATM    3  C3  UNL     1     -34.326  15.377  -2.609  1.00 20.00    -0.003 C 
HETATM    4  C4  UNL     1     -35.123  15.270  -3.687  1.00 20.00    -0.061 C 
HETATM    5  C7  UNL     1     -35.572  16.470  -4.480  1.00 20.00     0.038 C 
HETATM    6  C8  UNL     1     -35.337  17.800  -3.758  1.00 20.00     0.006 C 
HETATM    7  C9  UNL     1     -33.960  17.836  -3.098  1.00 20.00     0.021 C 
HETATM    8  C10 UNL     1     -33.772  16.682  -2.102  1.00 20.00     0.087 C 
ENDROOT
BRANCH   4   9
HETATM    9  C6  UNL     1     -35.596  13.985  -4.145  1.00 20.00    -0.004 C 
HETATM   10  C5  UNL     1     -34.766  13.181  -4.830  1.00 20.00     0.012 C 
ENDBRANCH   4   9
TORSDOF 1
ENDMDL
MODEL 7
REMARK VINA RESULT:      -4.4     10.801     11.982
REMARK  1 active torsions:
REMARK  status: ('A' for Active; 'I' for Inactive)
REMARK    1  A    between atoms: C4_4  and  C6_6 
ROOT
HETATM    1  C1  UNL     1     -38.798  14.708  -4.113  1.00 20.00     0.012 C 
HETATM    2  C2  UNL     1     -37.696  15.039  -4.456  1.00 20.00    -0.109 C 
HETATM    3  C3  UNL     1     -35.672  16.148  -3.728  1.00 20.00    -0.003 C 
HETATM    4  C4  UNL     1     -34.627  15.643  -3.050  1.00 20.00    -0.061 C 
HETATM    5  C7  UNL     1     -34.044  14.287  -3.360  1.00 20.00     0.038 C 
HETATM    6  C8  UNL     1     -34.947  13.424  -4.245  1.00 20.00     0.006 C 
HETATM    7  C9  UNL     1     -35.543  14.240  -5.391  1.00 20.00     0.021 C 
HETATM    8  C10 UNL     1     -36.344  15.446  -4.878  1.00 20.00     0.087 C 
ENDROOT
BRANCH   4   9
HETATM    9  C6  UNL     1     -34.001  16.379  -1.977  1.00 20.00    -0.004 C 
HETATM   10  C5  UNL     1     -34.700  16.642  -0.860  1.00 20.00     0.012 C 
ENDBRANCH   4   9
TORSDOF 1
ENDMDL
MODEL 8
REMARK VINA RESULT:      -4.4     10.761     12.267
REMARK  1 active torsions:
REMARK  status: ('A' for Active; 'I' for Inactive)
REMARK    1  A    between atoms: C4_4  and  C6_6 
ROOT
HETATM    1  C1  UNL     1     -38.080  15.432  -5.768  1.00 20.00     0.012 C 
HETATM    2  C2  UNL     1     -36.879  15.444  -5.763  1.00 20.00    -0.109 C 
HETATM    3  C3  UNL     1     -34.935  16.130  -4.495  1.00 20.00    -0.003 C 
HETATM    4  C4  UNL     1     -34.307  15.488  -3.495  1.00 20.00    -0.061 C 
HETATM    5  C7  UNL     1     -34.043  14.004  -3.531  1.00 20.00     0.038 C 
HETATM    6  C8  UNL     1     -34.845  13.267  -4.607  1.00 20.00     0.006 C 
HETATM    7  C9  UNL     1     -34.842  14.039  -5.925  1.00 20.00     0.021 C 
HETATM    8  C10 UNL     1     -35.406  15.459  -5.759  1.00 20.00     0.087 C 
ENDROOT
BRANCH   4   9
HETATM    9  C6  UNL     1     -33.848  16.192  -2.322  1.00 20.00    -0.004 C 
HETATM   10  C5  UNL     1     -34.706  16.432  -1.317  1.00 20.00     0.012 C 
ENDBRANCH   4   9
TORSDOF 1
ENDMDL
MODEL 9
REMARK VINA RESULT:      -4.3     11.297     12.412
REMARK  1 active torsions:
REMARK  status: ('A' for Active; 'I' for Inactive)
REMARK    1  A    between atoms: C4_4  and  C6_6 
ROOT
HETATM    1  C1  UNL     1     -34.767  16.996  -7.380  1.00 20.00     0.012 C 
HETATM    2  C2  UNL     1     -34.393  16.213  -6.551  1.00 20.00    -0.109 C 
HETATM    3  C3  UNL     1     -33.564  16.009  -4.286  1.00 20.00    -0.003 C 
HETATM    4  C4  UNL     1     -34.254  15.939  -3.135  1.00 20.00    -0.061 C 
HETATM    5  C7  UNL     1     -35.504  15.109  -2.994  1.00 20.00     0.038 C 
HETATM    6  C8  UNL     1     -36.091  14.657  -4.335  1.00 20.00     0.006 C 
HETATM    7  C9  UNL     1     -34.995  14.169  -5.281  1.00 20.00     0.021 C 
HETATM    8  C10 UNL     1     -33.933  15.251  -5.533  1.00 20.00     0.087 C 
ENDROOT
BRANCH   4   9
HETATM    9  C6  UNL     1     -33.831  16.664  -1.960  1.00 20.00    -0.004 C 
HETATM   10  C5  UNL     1     -34.610  16.663  -0.866  1.00 20.00     0.012 C 
ENDBRANCH   4   9
TORSDOF 1
ENDMDL
