MODEL 1
REMARK VINA RESULT:      -6.0      0.000      0.000
REMARK  0 active torsions:
REMARK  status: ('A' for Active; 'I' for Inactive)
ROOT
HETATM    1  C1  UNL     1     -34.996   4.852   3.732  1.00 20.00     0.019 A 
HETATM    2  C2  UNL     1     -34.012   5.374   2.987  1.00 20.00     0.054 A 
HETATM    3  C3  UNL     1     -33.193   6.675   4.976  1.00 20.00     0.096 A 
HETATM    4  C4  UNL     1     -34.177   6.153   5.720  1.00 20.00     0.133 A 
HETATM    5  C5  UNL     1     -35.190   5.186   5.183  1.00 20.00     0.254 A 
HETATM    6  C6  UNL     1     -33.000   6.343   3.524  1.00 20.00     0.282 A 
HETATM    7  F7  UNL     1     -34.263   6.517   7.019  1.00 20.00    -0.207 F 
HETATM    8  F8  UNL     1     -35.153   4.038   5.919  1.00 20.00    -0.238 F 
HETATM    9  F9  UNL     1     -31.747   5.837   3.339  1.00 20.00    -0.197 F 
HETATM   10  F10 UNL     1     -33.039   7.491   2.789  1.00 20.00    -0.197 F 
ENDROOT
TORSDOF 0
ENDMDL
MODEL 2
REMARK VINA RESULT:      -5.8      1.738      2.037
REMARK  0 active torsions:
REMARK  status: ('A' for Active; 'I' for Inactive)
ROOT
HETATM    1  C1  UNL     1     -35.088   3.949   5.689  1.00 20.00     0.019 A 
HETATM    2  C2  UNL     1     -35.289   4.167   4.382  1.00 20.00     0.054 A 
HETATM    3  C3  UNL     1     -34.236   6.440   4.598  1.00 20.00     0.096 A 
HETATM    4  C4  UNL     1     -34.036   6.221   5.904  1.00 20.00     0.133 A 
HETATM    5  C5  UNL     1     -34.440   4.954   6.597  1.00 20.00     0.254 A 
HETATM    6  C6  UNL     1     -34.886   5.437   3.690  1.00 20.00     0.282 A 
HETATM    7  F7  UNL     1     -33.441   7.191   6.635  1.00 20.00    -0.207 F 
HETATM    8  F8  UNL     1     -33.345   4.392   7.185  1.00 20.00    -0.238 F 
HETATM    9  F9  UNL     1     -34.038   5.141   2.663  1.00 20.00    -0.197 F 
HETATM   10  F10 UNL     1     -35.981   5.999   3.104  1.00 20.00    -0.197 F 
ENDROOT
TORSDOF 0
ENDMDL
MODEL 3
REMARK VINA RESULT:      -5.8      1.323      3.824
REMARK  0 active torsions:
REMARK  status: ('A' for Active; 'I' for Inactive)
ROOT
HETATM    1  C1  UNL     1     -33.588   6.874   5.422  1.00 20.00     0.019 A 
HETATM    2  C2  UNL     1     -33.967   5.979   6.344  1.00 20.00     0.054 A 
HETATM    3  C3  UNL     1     -34.909   4.510   4.534  1.00 20.00     0.096 A 
HETATM    4  C4  UNL     1     -34.531   5.406   3.613  1.00 20.00     0.133 A 
HETATM    5  C5  UNL     1     -33.830   6.688   3.951  1.00 20.00     0.254 A 
HETATM    6  C6  UNL     1     -34.670   4.697   6.005  1.00 20.00     0.282 A 
HETATM    7  F7  UNL     1     -34.794   5.142   2.314  1.00 20.00    -0.207 F 
HETATM    8  F8  UNL     1     -32.639   6.741   3.288  1.00 20.00    -0.238 F 
HETATM    9  F9  UNL     1     -33.945   3.644   6.481  1.00 20.00    -0.197 F 
HETATM   10  F10 UNL     1     -35.861   4.646   6.667  1.00 20.00    -0.197 F 
ENDROOT
TORSDOF 0
ENDMDL
MODEL 4
REMARK VINA RESULT:      -5.8      1.520      2.690
REMARK  0 active torsions:
REMARK  status: ('A' for Active; 'I' for Inactive)
ROOT
HETATM    1  C1  UNL     1     -33.551   6.701   5.126  1.00 20.00     0.019 A 
HETATM    2  C2  UNL     1     -33.907   6.514   3.847  1.00 20.00     0.054 A 
HETATM    3  C3  UNL     1     -35.308   4.540   4.525  1.00 20.00     0.096 A 
HETATM    4  C4  UNL     1     -34.951   4.727   5.803  1.00 20.00     0.133 A 
HETATM    5  C5  UNL     1     -34.033   5.826   6.247  1.00 20.00     0.254 A 
HETATM    6  C6  UNL     1     -34.825   5.412   3.403  1.00 20.00     0.282 A 
HETATM    7  F7  UNL     1     -35.442   3.884   6.738  1.00 20.00    -0.207 F 
HETATM    8  F8  UNL     1     -34.666   6.595   7.180  1.00 20.00    -0.238 F 
HETATM    9  F9  UNL     1     -35.898   5.952   2.757  1.00 20.00    -0.197 F 
HETATM   10  F10 UNL     1     -34.191   4.644   2.473  1.00 20.00    -0.197 F 
ENDROOT
TORSDOF 0
ENDMDL
MODEL 5
REMARK VINA RESULT:      -5.4      1.400      3.307
REMARK  0 active torsions:
REMARK  status: ('A' for Active; 'I' for Inactive)
ROOT
HETATM    1  C1  UNL     1     -35.415   4.321   4.491  1.00 20.00     0.019 A 
HETATM    2  C2  UNL     1     -35.174   4.437   5.804  1.00 20.00     0.054 A 
HETATM    3  C3  UNL     1     -33.647   6.382   5.355  1.00 20.00     0.096 A 
HETATM    4  C4  UNL     1     -33.888   6.266   4.042  1.00 20.00     0.133 A 
HETATM    5  C5  UNL     1     -34.797   5.223   3.462  1.00 20.00     0.254 A 
HETATM    6  C6  UNL     1     -34.263   5.480   6.384  1.00 20.00     0.282 A 
HETATM    7  F7  UNL     1     -33.283   7.130   3.198  1.00 20.00    -0.207 F 
HETATM    8  F8  UNL     1     -35.783   5.832   2.743  1.00 20.00    -0.238 F 
HETATM    9  F9  UNL     1     -34.955   6.232   7.288  1.00 20.00    -0.197 F 
HETATM   10  F10 UNL     1     -33.276   4.870   7.100  1.00 20.00    -0.197 F 
ENDROOT
TORSDOF 0
ENDMDL
MODEL 6
REMARK VINA RESULT:      -5.3      1.253      3.163
REMARK  0 active torsions:
REMARK  status: ('A' for Active; 'I' for Inactive)
ROOT
HETATM    1  C1  UNL     1     -33.155   5.795   2.821  1.00 20.00     0.019 A 
HETATM    2  C2  UNL     1     -34.303   5.109   2.914  1.00 20.00     0.054 A 
HETATM    3  C3  UNL     1     -34.529   5.807   5.318  1.00 20.00     0.096 A 
HETATM    4  C4  UNL     1     -33.381   6.493   5.225  1.00 20.00     0.133 A 
HETATM    5  C5  UNL     1     -32.565   6.563   3.969  1.00 20.00     0.254 A 
HETATM    6  C6  UNL     1     -35.118   5.037   4.172  1.00 20.00     0.282 A 
HETATM    7  F7  UNL     1     -32.937   7.154   6.317  1.00 20.00    -0.207 F 
HETATM    8  F8  UNL     1     -32.407   7.868   3.605  1.00 20.00    -0.238 F 
HETATM    9  F9  UNL     1     -36.378   5.496   3.920  1.00 20.00    -0.197 F 
HETATM   10  F10 UNL     1     -35.274   3.733   4.536  1.00 20.00    -0.197 F 
ENDROOT
TORSDOF 0
ENDMDL
MODEL 7
REMARK VINA RESULT:      -4.9     12.017     13.386
REMARK  0 active torsions:
REMARK  status: ('A' for Active; 'I' for Inactive)
ROOT
HETATM    1  C1  UNL     1     -33.763  16.280  -5.788  1.00 20.00     0.019 A 
HETATM    2  C2  UNL     1     -33.123  16.309  -4.611  1.00 20.00     0.054 A 
HETATM    3  C3  UNL     1     -33.890  13.964  -4.134  1.00 20.00     0.096 A 
HETATM    4  C4  UNL     1     -34.530  13.935  -5.310  1.00 20.00     0.133 A 
HETATM    5  C5  UNL     1     -34.540  15.088  -6.269  1.00 20.00     0.254 A 
HETATM    6  C6  UNL     1     -33.115  15.155  -3.652  1.00 20.00     0.282 A 
HETATM    7  F7  UNL     1     -35.200  12.812  -5.651  1.00 20.00    -0.207 F 
HETATM    8  F8  UNL     1     -34.044  14.681  -7.472  1.00 20.00    -0.238 F 
HETATM    9  F9  UNL     1     -31.826  14.784  -3.402  1.00 20.00    -0.197 F 
HETATM   10  F10 UNL     1     -33.613  15.563  -2.450  1.00 20.00    -0.197 F 
ENDROOT
TORSDOF 0
ENDMDL
MODEL 8
REMARK VINA RESULT:      -4.8     11.787     13.364
REMARK  0 active torsions:
REMARK  status: ('A' for Active; 'I' for Inactive)
ROOT
HETATM    1  C1  UNL     1     -34.736  13.382  -4.889  1.00 20.00     0.019 A 
HETATM    2  C2  UNL     1     -33.998  13.686  -3.811  1.00 20.00     0.054 A 
HETATM    3  C3  UNL     1     -33.377  15.887  -4.855  1.00 20.00     0.096 A 
HETATM    4  C4  UNL     1     -34.114  15.583  -5.931  1.00 20.00     0.133 A 
HETATM    5  C5  UNL     1     -34.875  14.298  -6.071  1.00 20.00     0.254 A 
HETATM    6  C6  UNL     1     -33.236  14.971  -3.674  1.00 20.00     0.282 A 
HETATM    7  F7  UNL     1     -34.176  16.478  -6.942  1.00 20.00    -0.207 F 
HETATM    8  F8  UNL     1     -36.195  14.574  -6.275  1.00 20.00    -0.238 F 
HETATM    9  F9  UNL     1     -33.646  15.621  -2.547  1.00 20.00    -0.197 F 
HETATM   10  F10 UNL     1     -31.916  14.695  -3.471  1.00 20.00    -0.197 F 
ENDROOT
TORSDOF 0
ENDMDL
MODEL 9
REMARK VINA RESULT:      -4.7      9.009     10.038
REMARK  0 active torsions:
REMARK  status: ('A' for Active; 'I' for Inactive)
ROOT
HETATM    1  C1  UNL     1     -42.141   6.610  -2.475  1.00 20.00     0.019 A 
HETATM    2  C2  UNL     1     -42.361   5.304  -2.681  1.00 20.00     0.054 A 
HETATM    3  C3  UNL     1     -41.023   4.752  -0.626  1.00 20.00     0.096 A 
HETATM    4  C4  UNL     1     -40.803   6.058  -0.421  1.00 20.00     0.133 A 
HETATM    5  C5  UNL     1     -41.335   7.133  -1.321  1.00 20.00     0.254 A 
HETATM    6  C6  UNL     1     -41.827   4.229  -1.780  1.00 20.00     0.282 A 
HETATM    7  F7  UNL     1     -40.065   6.425   0.651  1.00 20.00    -0.207 F 
HETATM    8  F8  UNL     1     -42.097   7.997  -0.592  1.00 20.00    -0.238 F 
HETATM    9  F9  UNL     1     -42.865   3.481  -1.306  1.00 20.00    -0.197 F 
HETATM   10  F10 UNL     1     -41.063   3.366  -2.509  1.00 20.00    -0.197 F 
ENDROOT
TORSDOF 0
ENDMDL
