MODEL 1
REMARK VINA RESULT:      -4.9      0.000      0.000
REMARK  0 active torsions:
REMARK  status: ('A' for Active; 'I' for Inactive)
ROOT
HETATM    1  C1  UNL     1     -34.152   6.091   5.688  1.00 20.00    -0.075 C 
HETATM    2  C2  UNL     1     -33.793   6.915   6.674  1.00 20.00     0.015 C 
HETATM    3  C3  UNL     1     -34.568   4.637   5.668  1.00 20.00     0.036 C 
HETATM    4  C4  UNL     1     -35.123   4.963   4.266  1.00 20.00     0.024 C 
HETATM    5  C5  UNL     1     -34.302   6.271   4.191  1.00 20.00     0.086 C 
HETATM    6 BR6  UNL     1     -32.620   6.161   3.241  1.00 20.00    -0.086 Br
ENDROOT
TORSDOF 0
ENDMDL
MODEL 2
REMARK VINA RESULT:      -4.2      1.857      2.575
REMARK  0 active torsions:
REMARK  status: ('A' for Active; 'I' for Inactive)
ROOT
HETATM    1  C1  UNL     1     -33.848   5.797   3.813  1.00 20.00    -0.075 C 
HETATM    2  C2  UNL     1     -32.854   6.247   3.045  1.00 20.00     0.015 C 
HETATM    3  C3  UNL     1     -35.326   5.597   3.563  1.00 20.00     0.036 C 
HETATM    4  C4  UNL     1     -35.271   4.702   4.818  1.00 20.00     0.024 C 
HETATM    5  C5  UNL     1     -33.905   5.292   5.240  1.00 20.00     0.086 C 
HETATM    6 BR6  UNL     1     -33.967   6.717   6.548  1.00 20.00    -0.086 Br
ENDROOT
TORSDOF 0
ENDMDL
MODEL 3
REMARK VINA RESULT:      -3.3      1.441      2.258
REMARK  0 active torsions:
REMARK  status: ('A' for Active; 'I' for Inactive)
ROOT
HETATM    1  C1  UNL     1     -34.517   5.196   5.830  1.00 20.00    -0.075 C 
HETATM    2  C2  UNL     1     -35.076   4.150   6.440  1.00 20.00     0.015 C 
HETATM    3  C3  UNL     1     -34.101   6.566   6.318  1.00 20.00     0.036 C 
HETATM    4  C4  UNL     1     -33.267   6.618   5.022  1.00 20.00     0.024 C 
HETATM    5  C5  UNL     1     -34.059   5.441   4.406  1.00 20.00     0.086 C 
HETATM    6 BR6  UNL     1     -35.506   5.924   3.216  1.00 20.00    -0.086 Br
ENDROOT
TORSDOF 0
ENDMDL
MODEL 4
REMARK VINA RESULT:      -3.2      2.016      3.085
REMARK  0 active torsions:
REMARK  status: ('A' for Active; 'I' for Inactive)
ROOT
HETATM    1  C1  UNL     1     -34.136   5.730   3.649  1.00 20.00    -0.075 C 
HETATM    2  C2  UNL     1     -34.505   5.335   2.429  1.00 20.00     0.015 C 
HETATM    3  C3  UNL     1     -32.876   6.377   4.180  1.00 20.00     0.036 C 
HETATM    4  C4  UNL     1     -33.746   6.736   5.402  1.00 20.00     0.024 C 
HETATM    5  C5  UNL     1     -34.827   5.706   4.998  1.00 20.00     0.086 C 
HETATM    6 BR6  UNL     1     -34.724   3.983   5.873  1.00 20.00    -0.086 Br
ENDROOT
TORSDOF 0
ENDMDL
MODEL 5
REMARK VINA RESULT:      -3.2     12.010     12.681
REMARK  0 active torsions:
REMARK  status: ('A' for Active; 'I' for Inactive)
ROOT
HETATM    1  C1  UNL     1     -34.971  14.613  -3.761  1.00 20.00    -0.075 C 
HETATM    2  C2  UNL     1     -36.222  14.282  -4.088  1.00 20.00     0.015 C 
HETATM    3  C3  UNL     1     -33.696  13.808  -3.644  1.00 20.00     0.036 C 
HETATM    4  C4  UNL     1     -32.994  15.180  -3.703  1.00 20.00     0.024 C 
HETATM    5  C5  UNL     1     -34.312  15.924  -3.385  1.00 20.00     0.086 C 
HETATM    6 BR6  UNL     1     -34.585  16.408  -1.532  1.00 20.00    -0.086 Br
ENDROOT
TORSDOF 0
ENDMDL
MODEL 6
REMARK VINA RESULT:      -3.2     12.358     13.008
REMARK  0 active torsions:
REMARK  status: ('A' for Active; 'I' for Inactive)
ROOT
HETATM    1  C1  UNL     1     -34.388  14.785  -3.373  1.00 20.00    -0.075 C 
HETATM    2  C2  UNL     1     -34.653  13.565  -3.844  1.00 20.00     0.015 C 
HETATM    3  C3  UNL     1     -35.108  15.684  -2.393  1.00 20.00     0.036 C 
HETATM    4  C4  UNL     1     -33.765  16.439  -2.318  1.00 20.00     0.024 C 
HETATM    5  C5  UNL     1     -33.257  15.764  -3.614  1.00 20.00     0.086 C 
HETATM    6 BR6  UNL     1     -33.471  16.787  -5.242  1.00 20.00    -0.086 Br
ENDROOT
TORSDOF 0
ENDMDL
MODEL 7
REMARK VINA RESULT:      -3.2     12.292     13.140
REMARK  0 active torsions:
REMARK  status: ('A' for Active; 'I' for Inactive)
ROOT
HETATM    1  C1  UNL     1     -34.131  16.207  -2.730  1.00 20.00    -0.075 C 
HETATM    2  C2  UNL     1     -34.512  16.326  -1.457  1.00 20.00     0.015 C 
HETATM    3  C3  UNL     1     -34.276  17.113  -3.932  1.00 20.00     0.036 C 
HETATM    4  C4  UNL     1     -33.170  16.234  -4.550  1.00 20.00     0.024 C 
HETATM    5  C5  UNL     1     -33.390  15.127  -3.492  1.00 20.00     0.086 C 
HETATM    6 BR6  UNL     1     -34.530  13.658  -4.029  1.00 20.00    -0.086 Br
ENDROOT
TORSDOF 0
ENDMDL
MODEL 8
REMARK VINA RESULT:      -3.2     12.380     12.886
REMARK  0 active torsions:
REMARK  status: ('A' for Active; 'I' for Inactive)
ROOT
HETATM    1  C1  UNL     1     -34.143  14.952  -3.587  1.00 20.00    -0.075 C 
HETATM    2  C2  UNL     1     -34.080  15.909  -2.659  1.00 20.00     0.015 C 
HETATM    3  C3  UNL     1     -33.415  13.637  -3.755  1.00 20.00     0.036 C 
HETATM    4  C4  UNL     1     -34.551  13.298  -4.741  1.00 20.00     0.024 C 
HETATM    5  C5  UNL     1     -34.973  14.782  -4.844  1.00 20.00     0.086 C 
HETATM    6 BR6  UNL     1     -34.268  15.761  -6.357  1.00 20.00    -0.086 Br
ENDROOT
TORSDOF 0
ENDMDL
MODEL 9
REMARK VINA RESULT:      -3.1     12.160     13.200
REMARK  0 active torsions:
REMARK  status: ('A' for Active; 'I' for Inactive)
ROOT
HETATM    1  C1  UNL     1     -34.084  15.013  -5.080  1.00 20.00    -0.075 C 
HETATM    2  C2  UNL     1     -34.268  15.861  -6.093  1.00 20.00     0.015 C 
HETATM    3  C3  UNL     1     -34.477  13.567  -4.869  1.00 20.00     0.036 C 
HETATM    4  C4  UNL     1     -33.424  13.594  -3.742  1.00 20.00     0.024 C 
HETATM    5  C5  UNL     1     -33.402  15.141  -3.733  1.00 20.00     0.086 C 
HETATM    6 BR6  UNL     1     -34.511  15.996  -2.398  1.00 20.00    -0.086 Br
ENDROOT
TORSDOF 0
ENDMDL
