MODEL 1
REMARK VINA RESULT:      -4.8      0.000      0.000
REMARK  1 active torsions:
REMARK  status: ('A' for Active; 'I' for Inactive)
REMARK    1  A    between atoms: C1_1  and  C5_5 
ROOT
HETATM    1  C2  UNL     1     -35.108  13.320  -4.506  1.00 20.00     0.006 C 
HETATM    2  C3  UNL     1     -33.817  13.758  -3.806  1.00 20.00     0.006 C 
HETATM    3  C4  UNL     1     -34.100  15.082  -5.729  1.00 20.00     0.011 C 
HETATM    4  C5  UNL     1     -36.017  15.720  -4.496  1.00 20.00     0.084 C 
HETATM    5  C6  UNL     1     -35.486  14.549  -5.356  1.00 20.00    -0.001 C 
HETATM    6  C7  UNL     1     -33.660  15.219  -4.262  1.00 20.00    -0.006 C 
HETATM    7  C8  UNL     1     -34.773  16.138  -3.652  1.00 20.00    -0.032 C 
HETATM    8  C9  UNL     1     -34.433  17.621  -3.909  1.00 20.00     0.016 C 
HETATM    9  C10 UNL     1     -34.928  15.965  -2.133  1.00 20.00     0.016 C 
ENDROOT
BRANCH   4  10
HETATM   10  C1  UNL     1     -37.263  15.369  -3.741  1.00 20.00     0.224 C 
HETATM   11  O11 UNL     1     -37.629  14.205  -3.605  1.00 20.00    -0.279 OA
HETATM   12 CL12 UNL     1     -38.069  16.777  -3.118  1.00 20.00    -0.043 Cl
ENDBRANCH   4  10
TORSDOF 1
ENDMDL
MODEL 2
REMARK VINA RESULT:      -4.7      2.319      3.399
REMARK  1 active torsions:
REMARK  status: ('A' for Active; 'I' for Inactive)
REMARK    1  A    between atoms: C1_1  and  C5_5 
ROOT
HETATM    1  C2  UNL     1     -37.166  14.658  -4.176  1.00 20.00     0.006 C 
HETATM    2  C3  UNL     1     -37.205  15.541  -5.429  1.00 20.00     0.006 C 
HETATM    3  C4  UNL     1     -36.315  16.810  -3.660  1.00 20.00     0.011 C 
HETATM    4  C5  UNL     1     -34.665  15.122  -3.836  1.00 20.00     0.084 C 
HETATM    5  C6  UNL     1     -36.098  15.338  -3.296  1.00 20.00    -0.001 C 
HETATM    6  C7  UNL     1     -36.088  16.564  -5.160  1.00 20.00    -0.006 C 
HETATM    7  C8  UNL     1     -34.671  15.895  -5.191  1.00 20.00    -0.032 C 
HETATM    8  C9  UNL     1     -33.574  16.981  -5.186  1.00 20.00     0.016 C 
HETATM    9  C10 UNL     1     -34.445  15.027  -6.438  1.00 20.00     0.016 C 
ENDROOT
BRANCH   4  10
HETATM   10  C1  UNL     1     -34.272  13.676  -3.881  1.00 20.00     0.224 C 
HETATM   11  O11 UNL     1     -35.072  12.800  -4.195  1.00 20.00    -0.279 OA
HETATM   12 CL12 UNL     1     -32.606  13.438  -3.448  1.00 20.00    -0.043 Cl
ENDBRANCH   4  10
TORSDOF 1
ENDMDL
MODEL 3
REMARK VINA RESULT:      -4.7      2.507      3.564
REMARK  1 active torsions:
REMARK  status: ('A' for Active; 'I' for Inactive)
REMARK    1  A    between atoms: C1_1  and  C5_5 
ROOT
HETATM    1  C2  UNL     1     -34.143  14.291  -3.425  1.00 20.00     0.006 C 
HETATM    2  C3  UNL     1     -34.951  13.330  -4.305  1.00 20.00     0.006 C 
HETATM    3  C4  UNL     1     -36.416  14.961  -3.455  1.00 20.00     0.011 C 
HETATM    4  C5  UNL     1     -34.977  16.324  -4.749  1.00 20.00     0.084 C 
HETATM    5  C6  UNL     1     -35.010  15.565  -3.402  1.00 20.00    -0.001 C 
HETATM    6  C7  UNL     1     -36.136  14.199  -4.761  1.00 20.00    -0.006 C 
HETATM    7  C8  UNL     1     -35.678  15.338  -5.735  1.00 20.00    -0.032 C 
HETATM    8  C9  UNL     1     -36.909  16.013  -6.374  1.00 20.00     0.016 C 
HETATM    9  C10 UNL     1     -34.793  14.826  -6.882  1.00 20.00     0.016 C 
ENDROOT
BRANCH   4  10
HETATM   10  C1  UNL     1     -33.603  16.793  -5.120  1.00 20.00     0.224 C 
HETATM   11  O11 UNL     1     -32.596  16.208  -4.734  1.00 20.00    -0.279 OA
HETATM   12 CL12 UNL     1     -33.645  18.210  -6.125  1.00 20.00    -0.043 Cl
ENDBRANCH   4  10
TORSDOF 1
ENDMDL
MODEL 4
REMARK VINA RESULT:      -4.6      2.541      3.804
REMARK  1 active torsions:
REMARK  status: ('A' for Active; 'I' for Inactive)
REMARK    1  A    between atoms: C1_1  and  C5_5 
ROOT
HETATM    1  C2  UNL     1     -33.821  17.489  -2.817  1.00 20.00     0.006 C 
HETATM    2  C3  UNL     1     -34.248  16.447  -1.777  1.00 20.00     0.006 C 
HETATM    3  C4  UNL     1     -36.180  17.265  -2.839  1.00 20.00     0.011 C 
HETATM    4  C5  UNL     1     -35.085  16.257  -4.680  1.00 20.00     0.084 C 
HETATM    5  C6  UNL     1     -35.012  17.523  -3.796  1.00 20.00    -0.001 C 
HETATM    6  C7  UNL     1     -35.589  15.938  -2.334  1.00 20.00    -0.006 C 
HETATM    7  C8  UNL     1     -35.393  15.120  -3.656  1.00 20.00    -0.032 C 
HETATM    8  C9  UNL     1     -36.708  14.408  -4.036  1.00 20.00     0.016 C 
HETATM    9  C10 UNL     1     -34.309  14.038  -3.538  1.00 20.00     0.016 C 
ENDROOT
BRANCH   4  10
HETATM   10  C1  UNL     1     -33.874  16.081  -5.546  1.00 20.00     0.224 C 
HETATM   11  O11 UNL     1     -32.780  16.533  -5.223  1.00 20.00    -0.279 OA
HETATM   12 CL12 UNL     1     -34.230  15.188  -6.993  1.00 20.00    -0.043 Cl
ENDBRANCH   4  10
TORSDOF 1
ENDMDL
MODEL 5
REMARK VINA RESULT:      -4.6      2.172      3.177
REMARK  1 active torsions:
REMARK  status: ('A' for Active; 'I' for Inactive)
REMARK    1  A    between atoms: C1_1  and  C5_5 
ROOT
HETATM    1  C2  UNL     1     -32.908  15.911  -4.727  1.00 20.00     0.006 C 
HETATM    2  C3  UNL     1     -34.000  15.937  -5.802  1.00 20.00     0.006 C 
HETATM    3  C4  UNL     1     -34.218  13.943  -4.574  1.00 20.00     0.011 C 
HETATM    4  C5  UNL     1     -34.638  15.531  -2.871  1.00 20.00     0.084 C 
HETATM    5  C6  UNL     1     -33.464  14.929  -3.678  1.00 20.00    -0.001 C 
HETATM    6  C7  UNL     1     -35.095  15.041  -5.197  1.00 20.00    -0.006 C 
HETATM    7  C8  UNL     1     -35.759  15.707  -3.942  1.00 20.00    -0.032 C 
HETATM    8  C9  UNL     1     -37.017  14.915  -3.527  1.00 20.00     0.016 C 
HETATM    9  C10 UNL     1     -36.198  17.158  -4.194  1.00 20.00     0.016 C 
ENDROOT
BRANCH   4  10
HETATM   10  C1  UNL     1     -34.244  16.751  -2.094  1.00 20.00     0.224 C 
HETATM   11  O11 UNL     1     -33.620  17.672  -2.613  1.00 20.00    -0.279 OA
HETATM   12 CL12 UNL     1     -34.776  16.673  -0.441  1.00 20.00    -0.043 Cl
ENDBRANCH   4  10
TORSDOF 1
ENDMDL
MODEL 6
REMARK VINA RESULT:      -4.6      2.271      3.355
REMARK  1 active torsions:
REMARK  status: ('A' for Active; 'I' for Inactive)
REMARK    1  A    between atoms: C1_1  and  C5_5 
ROOT
HETATM    1  C2  UNL     1     -33.687  16.088  -2.850  1.00 20.00     0.006 C 
HETATM    2  C3  UNL     1     -35.046  16.786  -2.712  1.00 20.00     0.006 C 
HETATM    3  C4  UNL     1     -34.186  17.259  -4.850  1.00 20.00     0.011 C 
HETATM    4  C5  UNL     1     -34.427  14.910  -5.006  1.00 20.00     0.084 C 
HETATM    5  C6  UNL     1     -33.499  15.974  -4.376  1.00 20.00    -0.001 C 
HETATM    6  C7  UNL     1     -35.519  16.903  -4.172  1.00 20.00    -0.006 C 
HETATM    7  C8  UNL     1     -35.855  15.500  -4.784  1.00 20.00    -0.032 C 
HETATM    8  C9  UNL     1     -36.572  15.673  -6.140  1.00 20.00     0.016 C 
HETATM    9  C10 UNL     1     -36.776  14.658  -3.888  1.00 20.00     0.016 C 
ENDROOT
BRANCH   4  10
HETATM   10  C1  UNL     1     -34.173  13.530  -4.477  1.00 20.00     0.224 C 
HETATM   11  O11 UNL     1     -34.918  12.591  -4.743  1.00 20.00    -0.279 OA
HETATM   12 CL12 UNL     1     -32.747  13.461  -3.488  1.00 20.00    -0.043 Cl
ENDBRANCH   4  10
TORSDOF 1
ENDMDL
MODEL 7
REMARK VINA RESULT:      -4.6      1.388      2.422
REMARK  1 active torsions:
REMARK  status: ('A' for Active; 'I' for Inactive)
REMARK    1  A    between atoms: C1_1  and  C5_5 
ROOT
HETATM    1  C2  UNL     1     -34.714  15.579  -2.353  1.00 20.00     0.006 C 
HETATM    2  C3  UNL     1     -33.842  16.680  -2.967  1.00 20.00     0.006 C 
HETATM    3  C4  UNL     1     -33.162  14.615  -3.863  1.00 20.00     0.011 C 
HETATM    4  C5  UNL     1     -35.383  14.712  -4.674  1.00 20.00     0.084 C 
HETATM    5  C6  UNL     1     -34.601  14.427  -3.371  1.00 20.00    -0.001 C 
HETATM    6  C7  UNL     1     -33.409  16.065  -4.309  1.00 20.00    -0.006 C 
HETATM    7  C8  UNL     1     -34.618  15.922  -5.296  1.00 20.00    -0.032 C 
HETATM    8  C9  UNL     1     -34.109  15.558  -6.706  1.00 20.00     0.016 C 
HETATM    9  C10 UNL     1     -35.440  17.214  -5.430  1.00 20.00     0.016 C 
ENDROOT
BRANCH   4  10
HETATM   10  C1  UNL     1     -36.854  14.886  -4.443  1.00 20.00     0.224 C 
HETATM   11  O11 UNL     1     -37.340  14.833  -3.317  1.00 20.00    -0.279 OA
HETATM   12 CL12 UNL     1     -37.721  15.160  -5.924  1.00 20.00    -0.043 Cl
ENDBRANCH   4  10
TORSDOF 1
ENDMDL
MODEL 8
REMARK VINA RESULT:      -4.5      1.783      2.817
REMARK  1 active torsions:
REMARK  status: ('A' for Active; 'I' for Inactive)
REMARK    1  A    between atoms: C1_1  and  C5_5 
ROOT
HETATM    1  C2  UNL     1     -34.593  15.259  -2.923  1.00 20.00     0.006 C 
HETATM    2  C3  UNL     1     -33.436  14.717  -3.769  1.00 20.00     0.006 C 
HETATM    3  C4  UNL     1     -35.335  13.393  -4.182  1.00 20.00     0.011 C 
HETATM    4  C5  UNL     1     -36.097  15.483  -4.990  1.00 20.00     0.084 C 
HETATM    5  C6  UNL     1     -35.845  14.739  -3.658  1.00 20.00    -0.001 C 
HETATM    6  C7  UNL     1     -34.160  14.032  -4.941  1.00 20.00    -0.006 C 
HETATM    7  C8  UNL     1     -34.874  15.074  -5.869  1.00 20.00    -0.032 C 
HETATM    8  C9  UNL     1     -35.356  14.386  -7.163  1.00 20.00     0.016 C 
HETATM    9  C10 UNL     1     -33.955  16.233  -6.286  1.00 20.00     0.016 C 
ENDROOT
BRANCH   4  10
HETATM   10  C1  UNL     1     -36.338  16.950  -4.801  1.00 20.00     0.224 C 
HETATM   11  O11 UNL     1     -35.961  17.540  -3.793  1.00 20.00    -0.279 OA
HETATM   12 CL12 UNL     1     -37.180  17.653  -6.148  1.00 20.00    -0.043 Cl
ENDBRANCH   4  10
TORSDOF 1
ENDMDL
MODEL 9
REMARK VINA RESULT:      -4.5      1.694      2.347
REMARK  1 active torsions:
REMARK  status: ('A' for Active; 'I' for Inactive)
REMARK    1  A    between atoms: C1_1  and  C5_5 
ROOT
HETATM    1  C2  UNL     1     -34.403  14.504  -5.675  1.00 20.00     0.006 C 
HETATM    2  C3  UNL     1     -34.835  13.579  -4.531  1.00 20.00     0.006 C 
HETATM    3  C4  UNL     1     -32.967  14.815  -3.815  1.00 20.00     0.011 C 
HETATM    4  C5  UNL     1     -34.523  16.566  -4.154  1.00 20.00     0.084 C 
HETATM    5  C6  UNL     1     -33.608  15.612  -4.956  1.00 20.00    -0.001 C 
HETATM    6  C7  UNL     1     -34.321  14.317  -3.283  1.00 20.00    -0.006 C 
HETATM    7  C8  UNL     1     -35.107  15.650  -3.034  1.00 20.00    -0.032 C 
HETATM    8  C9  UNL     1     -34.752  16.220  -1.644  1.00 20.00     0.016 C 
HETATM    9  C10 UNL     1     -36.631  15.463  -3.073  1.00 20.00     0.016 C 
ENDROOT
BRANCH   4  10
HETATM   10  C1  UNL     1     -35.508  17.292  -5.019  1.00 20.00     0.224 C 
HETATM   11  O11 UNL     1     -35.845  16.857  -6.117  1.00 20.00    -0.279 OA
HETATM   12 CL12 UNL     1     -36.074  18.758  -4.279  1.00 20.00    -0.043 Cl
ENDBRANCH   4  10
TORSDOF 1
ENDMDL
