MODEL 1
REMARK VINA RESULT:      -5.1      0.000      0.000
REMARK  2 active torsions:
REMARK  status: ('A' for Active; 'I' for Inactive)
REMARK    1  A    between atoms: C1_1  and  C6_6 
REMARK    2  A    between atoms: C2_2  and  C8_8 
ROOT
HETATM    1  C1  UNL     1     -33.641   5.959   3.352  1.00 20.00    -0.100 C 
HETATM    2  C2  UNL     1     -32.909   6.854   3.029  1.00 20.00    -0.088 C 
ENDROOT
BRANCH   1   3
HETATM    3  C6  UNL     1     -34.515   4.891   3.737  1.00 20.00     0.069 A 
HETATM    4  C5  UNL     1     -35.921   5.224   4.169  1.00 20.00     0.023 A 
HETATM    5  C7  UNL     1     -34.932   4.712   5.178  1.00 20.00    -0.002 A 
HETATM    6  C9  UNL     1     -34.451   5.606   6.272  1.00 20.00     0.011 C 
ENDBRANCH   1   3
BRANCH   2   7
HETATM    7  C8  UNL     1     -32.017   7.945   2.638  1.00 20.00     0.055 A 
HETATM    8  C3  UNL     1     -32.505   9.117   1.931  1.00 20.00    -0.003 A 
HETATM    9  C4  UNL     1     -31.758   8.259   1.241  1.00 20.00    -0.003 A 
HETATM   10  C10 UNL     1     -30.886   8.147   3.612  1.00 20.00     0.038 C 
ENDBRANCH   2   7
TORSDOF 2
ENDMDL
MODEL 2
REMARK VINA RESULT:      -4.8     10.468     11.733
REMARK  2 active torsions:
REMARK  status: ('A' for Active; 'I' for Inactive)
REMARK    1  A    between atoms: C1_1  and  C6_6 
REMARK    2  A    between atoms: C2_2  and  C8_8 
ROOT
HETATM    1  C1  UNL     1     -34.481  16.400  -1.373  1.00 20.00    -0.100 C 
HETATM    2  C2  UNL     1     -34.179  15.859  -2.401  1.00 20.00    -0.088 C 
ENDROOT
BRANCH   1   3
HETATM    3  C6  UNL     1     -34.842  17.047  -0.145  1.00 20.00     0.069 A 
HETATM    4  C5  UNL     1     -35.299  18.483  -0.191  1.00 20.00     0.023 A 
HETATM    5  C7  UNL     1     -33.977  18.141   0.437  1.00 20.00    -0.002 A 
HETATM    6  C9  UNL     1     -32.708  18.591  -0.205  1.00 20.00     0.011 C 
ENDBRANCH   1   3
BRANCH   2   7
HETATM    7  C8  UNL     1     -33.812  15.199  -3.652  1.00 20.00     0.055 A 
HETATM    8  C3  UNL     1     -34.550  14.055  -4.160  1.00 20.00    -0.003 A 
HETATM    9  C4  UNL     1     -33.329  13.827  -3.682  1.00 20.00    -0.003 A 
HETATM   10  C10 UNL     1     -33.238  16.155  -4.665  1.00 20.00     0.038 C 
ENDBRANCH   2   7
TORSDOF 2
ENDMDL
MODEL 3
REMARK VINA RESULT:      -4.7     10.950     11.799
REMARK  2 active torsions:
REMARK  status: ('A' for Active; 'I' for Inactive)
REMARK    1  A    between atoms: C1_1  and  C6_6 
REMARK    2  A    between atoms: C2_2  and  C8_8 
ROOT
HETATM    1  C1  UNL     1     -34.597  16.616  -0.962  1.00 20.00    -0.100 C 
HETATM    2  C2  UNL     1     -34.389  16.041  -1.995  1.00 20.00    -0.088 C 
ENDROOT
BRANCH   1   3
HETATM    3  C6  UNL     1     -34.845  17.304   0.270  1.00 20.00     0.069 A 
HETATM    4  C5  UNL     1     -35.198  18.769   0.224  1.00 20.00     0.023 A 
HETATM    5  C7  UNL     1     -33.874  18.338   0.789  1.00 20.00    -0.002 A 
HETATM    6  C9  UNL     1     -32.610  18.685   0.077  1.00 20.00     0.011 C 
ENDBRANCH   1   3
BRANCH   2   7
HETATM    7  C8  UNL     1     -34.136  15.338  -3.252  1.00 20.00     0.055 A 
HETATM    8  C3  UNL     1     -32.806  14.880  -3.620  1.00 20.00    -0.003 A 
HETATM    9  C4  UNL     1     -33.302  15.913  -4.297  1.00 20.00    -0.003 A 
HETATM   10  C10 UNL     1     -35.303  14.493  -3.689  1.00 20.00     0.038 C 
ENDBRANCH   2   7
TORSDOF 2
ENDMDL
MODEL 4
REMARK VINA RESULT:      -4.6     10.626     11.875
REMARK  2 active torsions:
REMARK  status: ('A' for Active; 'I' for Inactive)
REMARK    1  A    between atoms: C1_1  and  C6_6 
REMARK    2  A    between atoms: C2_2  and  C8_8 
ROOT
HETATM    1  C1  UNL     1     -34.581  15.764  -2.281  1.00 20.00    -0.100 C 
HETATM    2  C2  UNL     1     -34.514  16.574  -1.398  1.00 20.00    -0.088 C 
ENDROOT
BRANCH   1   3
HETATM    3  C6  UNL     1     -34.662  14.796  -3.335  1.00 20.00     0.069 A 
HETATM    4  C5  UNL     1     -33.415  14.044  -3.725  1.00 20.00     0.023 A 
HETATM    5  C7  UNL     1     -34.005  15.051  -4.672  1.00 20.00    -0.002 A 
HETATM    6  C9  UNL     1     -33.266  16.309  -4.979  1.00 20.00     0.011 C 
ENDBRANCH   1   3
BRANCH   2   7
HETATM    7  C8  UNL     1     -34.432  17.562  -0.324  1.00 20.00     0.055 A 
HETATM    8  C3  UNL     1     -35.130  17.381   0.939  1.00 20.00    -0.003 A 
HETATM    9  C4  UNL     1     -35.597  18.316   0.115  1.00 20.00    -0.003 A 
HETATM   10  C10 UNL     1     -33.101  18.265  -0.282  1.00 20.00     0.038 C 
ENDBRANCH   2   7
TORSDOF 2
ENDMDL
MODEL 5
REMARK VINA RESULT:      -4.6     10.637     11.924
REMARK  2 active torsions:
REMARK  status: ('A' for Active; 'I' for Inactive)
REMARK    1  A    between atoms: C1_1  and  C6_6 
REMARK    2  A    between atoms: C2_2  and  C8_8 
ROOT
HETATM    1  C1  UNL     1     -34.476  15.823  -2.271  1.00 20.00    -0.100 C 
HETATM    2  C2  UNL     1     -34.350  16.657  -1.417  1.00 20.00    -0.088 C 
ENDROOT
BRANCH   1   3
HETATM    3  C6  UNL     1     -34.626  14.826  -3.291  1.00 20.00     0.069 A 
HETATM    4  C5  UNL     1     -33.412  14.044  -3.723  1.00 20.00     0.023 A 
HETATM    5  C7  UNL     1     -34.037  15.032  -4.667  1.00 20.00    -0.002 A 
HETATM    6  C9  UNL     1     -33.297  16.269  -5.049  1.00 20.00     0.011 C 
ENDBRANCH   1   3
BRANCH   2   7
HETATM    7  C8  UNL     1     -34.197  17.674  -0.379  1.00 20.00     0.055 A 
HETATM    8  C3  UNL     1     -33.870  19.054  -0.699  1.00 20.00    -0.003 A 
HETATM    9  C4  UNL     1     -32.919  18.322  -0.122  1.00 20.00    -0.003 A 
HETATM   10  C10 UNL     1     -35.100  17.436   0.803  1.00 20.00     0.038 C 
ENDBRANCH   2   7
TORSDOF 2
ENDMDL
MODEL 6
REMARK VINA RESULT:      -4.5      9.110     11.310
REMARK  2 active torsions:
REMARK  status: ('A' for Active; 'I' for Inactive)
REMARK    1  A    between atoms: C1_1  and  C6_6 
REMARK    2  A    between atoms: C2_2  and  C8_8 
ROOT
HETATM    1  C1  UNL     1     -41.270   4.233  -1.665  1.00 20.00    -0.100 C 
HETATM    2  C2  UNL     1     -41.684   3.452  -2.477  1.00 20.00    -0.088 C 
ENDROOT
BRANCH   1   3
HETATM    3  C6  UNL     1     -40.776   5.166  -0.696  1.00 20.00     0.069 A 
HETATM    4  C5  UNL     1     -41.758   5.828   0.238  1.00 20.00     0.023 A 
HETATM    5  C7  UNL     1     -41.072   6.643  -0.822  1.00 20.00    -0.002 A 
HETATM    6  C9  UNL     1     -41.862   7.213  -1.952  1.00 20.00     0.011 C 
ENDBRANCH   1   3
BRANCH   2   7
HETATM    7  C8  UNL     1     -42.187   2.500  -3.466  1.00 20.00     0.055 A 
HETATM    8  C3  UNL     1     -42.060   1.063  -3.280  1.00 20.00    -0.003 A 
HETATM    9  C4  UNL     1     -41.293   1.625  -4.212  1.00 20.00    -0.003 A 
HETATM   10  C10 UNL     1     -43.417   2.997  -4.178  1.00 20.00     0.038 C 
ENDBRANCH   2   7
TORSDOF 2
ENDMDL
MODEL 7
REMARK VINA RESULT:      -4.5      0.717      5.028
REMARK  2 active torsions:
REMARK  status: ('A' for Active; 'I' for Inactive)
REMARK    1  A    between atoms: C1_1  and  C6_6 
REMARK    2  A    between atoms: C2_2  and  C8_8 
ROOT
HETATM    1  C1  UNL     1     -32.794   6.337   3.469  1.00 20.00    -0.100 C 
HETATM    2  C2  UNL     1     -33.760   5.830   3.970  1.00 20.00    -0.088 C 
ENDROOT
BRANCH   1   3
HETATM    3  C6  UNL     1     -31.641   6.942   2.870  1.00 20.00     0.069 A 
HETATM    4  C5  UNL     1     -31.081   8.199   3.485  1.00 20.00     0.023 A 
HETATM    5  C7  UNL     1     -31.750   8.261   2.141  1.00 20.00    -0.002 A 
HETATM    6  C9  UNL     1     -33.042   8.990   1.983  1.00 20.00     0.011 C 
ENDBRANCH   1   3
BRANCH   2   7
HETATM    7  C8  UNL     1     -34.937   5.213   4.580  1.00 20.00     0.055 A 
HETATM    8  C3  UNL     1     -35.042   5.018   6.017  1.00 20.00    -0.003 A 
HETATM    9  C4  UNL     1     -34.862   3.933   5.268  1.00 20.00    -0.003 A 
HETATM   10  C10 UNL     1     -36.206   5.519   3.830  1.00 20.00     0.038 C 
ENDBRANCH   2   7
TORSDOF 2
ENDMDL
MODEL 8
REMARK VINA RESULT:      -4.4     10.727     11.919
REMARK  2 active torsions:
REMARK  status: ('A' for Active; 'I' for Inactive)
REMARK    1  A    between atoms: C1_1  and  C6_6 
REMARK    2  A    between atoms: C2_2  and  C8_8 
ROOT
HETATM    1  C1  UNL     1     -35.268  15.021  -3.265  1.00 20.00    -0.100 C 
HETATM    2  C2  UNL     1     -35.150  15.966  -2.534  1.00 20.00    -0.088 C 
ENDROOT
BRANCH   1   3
HETATM    3  C6  UNL     1     -35.409  13.892  -4.137  1.00 20.00     0.069 A 
HETATM    4  C5  UNL     1     -34.165  13.180  -4.605  1.00 20.00     0.023 A 
HETATM    5  C7  UNL     1     -34.982  13.975  -5.584  1.00 20.00    -0.002 A 
HETATM    6  C9  UNL     1     -34.419  15.218  -6.188  1.00 20.00     0.011 C 
ENDBRANCH   1   3
BRANCH   2   7
HETATM    7  C8  UNL     1     -35.008  17.116  -1.643  1.00 20.00     0.055 A 
HETATM    8  C3  UNL     1     -33.746  17.431  -0.994  1.00 20.00    -0.003 A 
HETATM    9  C4  UNL     1     -34.723  16.957  -0.225  1.00 20.00    -0.003 A 
HETATM   10  C10 UNL     1     -35.886  18.272  -2.044  1.00 20.00     0.038 C 
ENDBRANCH   2   7
TORSDOF 2
ENDMDL
MODEL 9
REMARK VINA RESULT:      -4.4     10.426     11.875
REMARK  2 active torsions:
REMARK  status: ('A' for Active; 'I' for Inactive)
REMARK    1  A    between atoms: C1_1  and  C6_6 
REMARK    2  A    between atoms: C2_2  and  C8_8 
ROOT
HETATM    1  C1  UNL     1     -33.967  16.637  -1.761  1.00 20.00    -0.100 C 
HETATM    2  C2  UNL     1     -33.973  15.896  -2.705  1.00 20.00    -0.088 C 
ENDROOT
BRANCH   1   3
HETATM    3  C6  UNL     1     -33.960  17.523  -0.634  1.00 20.00     0.069 A 
HETATM    4  C5  UNL     1     -35.006  17.340   0.437  1.00 20.00     0.023 A 
HETATM    5  C7  UNL     1     -35.051  18.552  -0.451  1.00 20.00    -0.002 A 
HETATM    6  C9  UNL     1     -36.169  18.723  -1.424  1.00 20.00     0.011 C 
ENDBRANCH   1   3
BRANCH   2   7
HETATM    7  C8  UNL     1     -33.981  14.995  -3.856  1.00 20.00     0.055 A 
HETATM    8  C3  UNL     1     -34.703  13.733  -3.836  1.00 20.00    -0.003 A 
HETATM    9  C4  UNL     1     -33.373  13.674  -3.799  1.00 20.00    -0.003 A 
HETATM   10  C10 UNL     1     -33.913  15.729  -5.169  1.00 20.00     0.038 C 
ENDBRANCH   2   7
TORSDOF 2
ENDMDL
