MODEL 1
REMARK VINA RESULT:      -5.0      0.000      0.000
REMARK  0 active torsions:
REMARK  status: ('A' for Active; 'I' for Inactive)
ROOT
HETATM    1  C1  UNL     1     -33.580  18.066  -4.676  1.00 20.00     0.001 C 
HETATM    2  C2  UNL     1     -34.670  13.274  -5.242  1.00 20.00     0.001 C 
HETATM    3  C3  UNL     1     -34.207  17.005  -5.591  1.00 20.00     0.005 C 
HETATM    4  C4  UNL     1     -34.591  14.537  -6.085  1.00 20.00     0.005 C 
HETATM    5  C5  UNL     1     -34.228  18.169  -3.294  1.00 20.00     0.005 C 
HETATM    6  C6  UNL     1     -35.135  13.750  -3.868  1.00 20.00     0.005 C 
HETATM    7  C7  UNL     1     -34.708  16.381  -1.455  1.00 20.00     0.010 A 
HETATM    8  C8  UNL     1     -34.046  15.566  -5.096  1.00 20.00    -0.010 C 
HETATM    9  C9  UNL     1     -33.741  17.106  -2.356  1.00 20.00    -0.010 A 
HETATM   10  C10 UNL     1     -34.836  15.258  -3.812  1.00 20.00    -0.006 C 
HETATM   11  C11 UNL     1     -34.052  15.650  -2.597  1.00 20.00    -0.006 A 
ENDROOT
TORSDOF 0
ENDMDL
MODEL 2
REMARK VINA RESULT:      -4.9      0.820      4.137
REMARK  0 active torsions:
REMARK  status: ('A' for Active; 'I' for Inactive)
ROOT
HETATM    1  C1  UNL     1     -34.792  13.490  -5.163  1.00 20.00     0.001 C 
HETATM    2  C2  UNL     1     -33.771  17.263  -2.133  1.00 20.00     0.001 C 
HETATM    3  C3  UNL     1     -35.059  14.126  -3.793  1.00 20.00     0.005 C 
HETATM    4  C4  UNL     1     -34.417  15.888  -2.072  1.00 20.00     0.005 C 
HETATM    5  C5  UNL     1     -35.136  14.387  -6.354  1.00 20.00     0.005 C 
HETATM    6  C6  UNL     1     -34.118  17.796  -3.521  1.00 20.00     0.005 C 
HETATM    7  C7  UNL     1     -34.418  16.819  -6.969  1.00 20.00     0.010 A 
HETATM    8  C8  UNL     1     -34.193  15.349  -3.483  1.00 20.00    -0.010 C 
HETATM    9  C9  UNL     1     -34.061  15.393  -6.637  1.00 20.00    -0.010 A 
HETATM   10  C10 UNL     1     -34.502  16.570  -4.367  1.00 20.00    -0.006 C 
HETATM   11  C11 UNL     1     -33.747  16.497  -5.659  1.00 20.00    -0.006 A 
ENDROOT
TORSDOF 0
ENDMDL
MODEL 3
REMARK VINA RESULT:      -4.8      1.146      3.208
REMARK  0 active torsions:
REMARK  status: ('A' for Active; 'I' for Inactive)
ROOT
HETATM    1  C1  UNL     1     -35.099  13.552  -4.610  1.00 20.00     0.001 C 
HETATM    2  C2  UNL     1     -34.392  17.785  -7.070  1.00 20.00     0.001 C 
HETATM    3  C3  UNL     1     -34.660  14.194  -5.933  1.00 20.00     0.005 C 
HETATM    4  C4  UNL     1     -34.497  16.295  -7.360  1.00 20.00     0.005 C 
HETATM    5  C5  UNL     1     -34.278  13.986  -3.394  1.00 20.00     0.005 C 
HETATM    6  C6  UNL     1     -33.731  17.869  -5.697  1.00 20.00     0.005 C 
HETATM    7  C7  UNL     1     -33.686  16.343  -2.442  1.00 20.00     0.010 A 
HETATM    8  C8  UNL     1     -34.848  15.712  -5.994  1.00 20.00    -0.010 C 
HETATM    9  C9  UNL     1     -34.710  15.320  -2.863  1.00 20.00    -0.010 A 
HETATM   10  C10 UNL     1     -33.925  16.491  -5.041  1.00 20.00    -0.006 C 
HETATM   11  C11 UNL     1     -34.524  16.580  -3.671  1.00 20.00    -0.006 A 
ENDROOT
TORSDOF 0
ENDMDL
MODEL 4
REMARK VINA RESULT:      -4.7      1.668      3.537
REMARK  0 active torsions:
REMARK  status: ('A' for Active; 'I' for Inactive)
ROOT
HETATM    1  C1  UNL     1     -34.235  17.652  -6.372  1.00 20.00     0.001 C 
HETATM    2  C2  UNL     1     -34.049  13.647  -3.475  1.00 20.00     0.001 C 
HETATM    3  C3  UNL     1     -33.395  16.844  -5.374  1.00 20.00     0.005 C 
HETATM    4  C4  UNL     1     -33.294  14.952  -3.675  1.00 20.00     0.005 C 
HETATM    5  C5  UNL     1     -34.656  16.873  -7.619  1.00 20.00     0.005 C 
HETATM    6  C6  UNL     1     -34.521  13.251  -4.872  1.00 20.00     0.005 C 
HETATM    7  C7  UNL     1     -35.885  14.590  -7.918  1.00 20.00     0.010 A 
HETATM    8  C8  UNL     1     -34.131  15.664  -4.735  1.00 20.00    -0.010 C 
HETATM    9  C9  UNL     1     -35.843  15.992  -7.367  1.00 20.00    -0.010 A 
HETATM   10  C10 UNL     1     -34.467  14.533  -5.722  1.00 20.00    -0.006 C 
HETATM   11  C11 UNL     1     -35.755  14.812  -6.434  1.00 20.00    -0.006 A 
ENDROOT
TORSDOF 0
ENDMDL
MODEL 5
REMARK VINA RESULT:      -4.7      0.884      3.494
REMARK  0 active torsions:
REMARK  status: ('A' for Active; 'I' for Inactive)
ROOT
HETATM    1  C1  UNL     1     -34.335  16.292  -6.569  1.00 20.00     0.001 C 
HETATM    2  C2  UNL     1     -34.382  17.534  -1.781  1.00 20.00     0.001 C 
HETATM    3  C3  UNL     1     -33.672  17.130  -5.468  1.00 20.00     0.005 C 
HETATM    4  C4  UNL     1     -33.762  18.017  -3.084  1.00 20.00     0.005 C 
HETATM    5  C5  UNL     1     -34.343  14.786  -6.298  1.00 20.00     0.005 C 
HETATM    6  C6  UNL     1     -34.449  16.015  -1.921  1.00 20.00     0.005 C 
HETATM    7  C7  UNL     1     -35.180  13.385  -4.262  1.00 20.00     0.010 A 
HETATM    8  C8  UNL     1     -34.395  17.090  -4.119  1.00 20.00    -0.010 C 
HETATM    9  C9  UNL     1     -35.441  14.382  -5.361  1.00 20.00    -0.010 A 
HETATM   10  C10 UNL     1     -34.343  15.717  -3.427  1.00 20.00    -0.006 C 
HETATM   11  C11 UNL     1     -35.443  14.829  -3.921  1.00 20.00    -0.006 A 
ENDROOT
TORSDOF 0
ENDMDL
MODEL 6
REMARK VINA RESULT:      -4.6      1.086      4.235
REMARK  0 active torsions:
REMARK  status: ('A' for Active; 'I' for Inactive)
ROOT
HETATM    1  C1  UNL     1     -34.164  13.977  -3.441  1.00 20.00     0.001 C 
HETATM    2  C2  UNL     1     -33.541  18.549  -5.223  1.00 20.00     0.001 C 
HETATM    3  C3  UNL     1     -34.168  15.477  -3.119  1.00 20.00     0.005 C 
HETATM    4  C4  UNL     1     -33.632  17.847  -3.877  1.00 20.00     0.005 C 
HETATM    5  C5  UNL     1     -35.155  13.562  -4.530  1.00 20.00     0.005 C 
HETATM    6  C6  UNL     1     -34.477  17.762  -6.138  1.00 20.00     0.005 C 
HETATM    7  C7  UNL     1     -35.535  14.426  -6.963  1.00 20.00     0.010 A 
HETATM    8  C8  UNL     1     -33.711  16.374  -4.272  1.00 20.00    -0.010 C 
HETATM    9  C9  UNL     1     -34.634  13.836  -5.909  1.00 20.00    -0.010 A 
HETATM   10  C10 UNL     1     -34.681  16.392  -5.466  1.00 20.00    -0.006 C 
HETATM   11  C11 UNL     1     -34.408  15.246  -6.392  1.00 20.00    -0.006 A 
ENDROOT
TORSDOF 0
ENDMDL
MODEL 7
REMARK VINA RESULT:      -4.6      1.442      3.691
REMARK  0 active torsions:
REMARK  status: ('A' for Active; 'I' for Inactive)
ROOT
HETATM    1  C1  UNL     1     -36.113  15.157  -5.848  1.00 20.00     0.001 C 
HETATM    2  C2  UNL     1     -35.408  17.304  -1.448  1.00 20.00     0.001 C 
HETATM    3  C3  UNL     1     -36.088  16.479  -5.069  1.00 20.00     0.005 C 
HETATM    4  C4  UNL     1     -35.985  17.650  -2.811  1.00 20.00     0.005 C 
HETATM    5  C5  UNL     1     -34.799  14.375  -5.808  1.00 20.00     0.005 C 
HETATM    6  C6  UNL     1     -34.259  16.343  -1.743  1.00 20.00     0.005 C 
HETATM    7  C7  UNL     1     -33.312  13.566  -3.821  1.00 20.00     0.010 A 
HETATM    8  C8  UNL     1     -35.901  16.320  -3.558  1.00 20.00    -0.010 C 
HETATM    9  C9  UNL     1     -34.638  13.597  -4.536  1.00 20.00    -0.010 A 
HETATM   10  C10 UNL     1     -34.514  15.790  -3.156  1.00 20.00    -0.006 C 
HETATM   11  C11 UNL     1     -34.479  14.293  -3.208  1.00 20.00    -0.006 A 
ENDROOT
TORSDOF 0
ENDMDL
MODEL 8
REMARK VINA RESULT:      -4.6      0.778      2.664
REMARK  0 active torsions:
REMARK  status: ('A' for Active; 'I' for Inactive)
ROOT
HETATM    1  C1  UNL     1     -34.529  15.888  -2.281  1.00 20.00     0.001 C 
HETATM    2  C2  UNL     1     -35.101  14.315  -6.936  1.00 20.00     0.001 C 
HETATM    3  C3  UNL     1     -34.421  14.696  -3.241  1.00 20.00     0.005 C 
HETATM    4  C4  UNL     1     -34.913  13.730  -5.544  1.00 20.00     0.005 C 
HETATM    5  C5  UNL     1     -33.671  17.093  -2.671  1.00 20.00     0.005 C 
HETATM    6  C6  UNL     1     -34.298  15.613  -6.925  1.00 20.00     0.005 C 
HETATM    7  C7  UNL     1     -33.490  18.462  -4.885  1.00 20.00     0.010 A 
HETATM    8  C8  UNL     1     -34.944  14.970  -4.653  1.00 20.00    -0.010 C 
HETATM    9  C9  UNL     1     -34.311  17.926  -3.741  1.00 20.00    -0.010 A 
HETATM   10  C10 UNL     1     -34.097  15.981  -5.445  1.00 20.00    -0.006 C 
HETATM   11  C11 UNL     1     -34.514  17.386  -5.134  1.00 20.00    -0.006 A 
ENDROOT
TORSDOF 0
ENDMDL
MODEL 9
REMARK VINA RESULT:      -4.6      1.380      2.900
REMARK  0 active torsions:
REMARK  status: ('A' for Active; 'I' for Inactive)
ROOT
HETATM    1  C1  UNL     1     -35.144  16.120  -7.761  1.00 20.00     0.001 C 
HETATM    2  C2  UNL     1     -33.748  13.539  -3.779  1.00 20.00     0.001 C 
HETATM    3  C3  UNL     1     -35.462  14.934  -6.841  1.00 20.00     0.005 C 
HETATM    4  C4  UNL     1     -34.698  13.400  -4.959  1.00 20.00     0.005 C 
HETATM    5  C5  UNL     1     -35.083  17.473  -7.049  1.00 20.00     0.005 C 
HETATM    6  C6  UNL     1     -33.745  15.030  -3.454  1.00 20.00     0.005 C 
HETATM    7  C7  UNL     1     -33.733  18.290  -4.971  1.00 20.00     0.010 A 
HETATM    8  C8  UNL     1     -34.393  14.648  -5.784  1.00 20.00    -0.010 C 
HETATM    9  C9  UNL     1     -33.773  17.692  -6.353  1.00 20.00    -0.010 A 
HETATM   10  C10 UNL     1     -34.270  15.745  -4.712  1.00 20.00    -0.006 C 
HETATM   11  C11 UNL     1     -33.364  16.845  -5.175  1.00 20.00    -0.006 A 
ENDROOT
TORSDOF 0
ENDMDL
