MODEL 1
REMARK VINA RESULT:      -4.9      0.000      0.000
REMARK  0 active torsions:
REMARK  status: ('A' for Active; 'I' for Inactive)
ROOT
HETATM    1  C1  UNL     1     -34.533  14.362  -5.992  1.00 20.00     0.005 C 
HETATM    2  C2  UNL     1     -35.863  15.998  -4.648  1.00 20.00     0.005 C 
HETATM    3  C3  UNL     1     -34.426  13.444  -4.764  1.00 20.00     0.011 C 
HETATM    4  C4  UNL     1     -35.752  15.079  -3.421  1.00 20.00     0.011 C 
HETATM    5  C5  UNL     1     -33.369  16.190  -4.740  1.00 20.00     0.084 C 
HETATM    6  C6  UNL     1     -34.628  15.834  -5.553  1.00 20.00    -0.009 C 
HETATM    7  C7  UNL     1     -34.438  14.282  -3.475  1.00 20.00     0.058 C 
HETATM    8  C8  UNL     1     -33.269  15.271  -3.524  1.00 20.00     0.247 C 
HETATM    9  F9  UNL     1     -32.094  14.594  -3.557  1.00 20.00    -0.206 F 
HETATM   10  F10 UNL     1     -33.247  16.015  -2.389  1.00 20.00    -0.206 F 
ENDROOT
TORSDOF 0
ENDMDL
MODEL 2
REMARK VINA RESULT:      -4.7      1.918      3.054
REMARK  0 active torsions:
REMARK  status: ('A' for Active; 'I' for Inactive)
ROOT
HETATM    1  C1  UNL     1     -34.635  15.568  -2.681  1.00 20.00     0.005 C 
HETATM    2  C2  UNL     1     -33.216  13.784  -3.709  1.00 20.00     0.005 C 
HETATM    3  C3  UNL     1     -35.814  15.136  -3.567  1.00 20.00     0.011 C 
HETATM    4  C4  UNL     1     -34.396  13.356  -4.594  1.00 20.00     0.011 C 
HETATM    5  C5  UNL     1     -33.274  16.073  -4.720  1.00 20.00     0.084 C 
HETATM    6  C6  UNL     1     -33.300  15.289  -3.394  1.00 20.00    -0.009 C 
HETATM    7  C7  UNL     1     -35.295  14.567  -4.897  1.00 20.00     0.058 C 
HETATM    8  C8  UNL     1     -34.451  15.640  -5.593  1.00 20.00     0.247 C 
HETATM    9  F9  UNL     1     -35.225  16.715  -5.886  1.00 20.00    -0.206 F 
HETATM   10  F10 UNL     1     -33.993  15.168  -6.779  1.00 20.00    -0.206 F 
ENDROOT
TORSDOF 0
ENDMDL
MODEL 3
REMARK VINA RESULT:      -4.7      1.903      2.771
REMARK  0 active torsions:
REMARK  status: ('A' for Active; 'I' for Inactive)
ROOT
HETATM    1  C1  UNL     1     -33.315  16.416  -4.499  1.00 20.00     0.005 C 
HETATM    2  C2  UNL     1     -34.483  15.751  -2.391  1.00 20.00     0.005 C 
HETATM    3  C3  UNL     1     -34.649  16.350  -5.257  1.00 20.00     0.011 C 
HETATM    4  C4  UNL     1     -35.816  15.684  -3.152  1.00 20.00     0.011 C 
HETATM    5  C5  UNL     1     -33.523  13.996  -3.896  1.00 20.00     0.084 C 
HETATM    6  C6  UNL     1     -33.311  15.414  -3.332  1.00 20.00    -0.009 C 
HETATM    7  C7  UNL     1     -35.568  15.294  -4.619  1.00 20.00     0.058 C 
HETATM    8  C8  UNL     1     -34.851  13.940  -4.650  1.00 20.00     0.247 C 
HETATM    9  F9  UNL     1     -34.633  13.565  -5.936  1.00 20.00    -0.206 F 
HETATM   10  F10 UNL     1     -35.646  12.985  -4.107  1.00 20.00    -0.206 F 
ENDROOT
TORSDOF 0
ENDMDL
MODEL 4
REMARK VINA RESULT:      -4.6     12.189     13.110
REMARK  0 active torsions:
REMARK  status: ('A' for Active; 'I' for Inactive)
ROOT
HETATM    1  C1  UNL     1     -43.417   6.582  -0.299  1.00 20.00     0.005 C 
HETATM    2  C2  UNL     1     -41.062   7.200  -0.866  1.00 20.00     0.005 C 
HETATM    3  C3  UNL     1     -42.901   5.456   0.610  1.00 20.00     0.011 C 
HETATM    4  C4  UNL     1     -40.548   6.072   0.042  1.00 20.00     0.011 C 
HETATM    5  C5  UNL     1     -42.288   5.526  -2.267  1.00 20.00     0.084 C 
HETATM    6  C6  UNL     1     -42.435   6.829  -1.457  1.00 20.00    -0.009 C 
HETATM    7  C7  UNL     1     -41.563   4.917   0.076  1.00 20.00     0.058 C 
HETATM    8  C8  UNL     1     -41.776   4.412  -1.355  1.00 20.00     0.247 C 
HETATM    9  F9  UNL     1     -42.658   3.381  -1.353  1.00 20.00    -0.206 F 
HETATM   10  F10 UNL     1     -40.614   3.916  -1.847  1.00 20.00    -0.206 F 
ENDROOT
TORSDOF 0
ENDMDL
MODEL 5
REMARK VINA RESULT:      -4.6      1.375      2.487
REMARK  0 active torsions:
REMARK  status: ('A' for Active; 'I' for Inactive)
ROOT
HETATM    1  C1  UNL     1     -35.914  16.173  -4.686  1.00 20.00     0.005 C 
HETATM    2  C2  UNL     1     -33.438  16.522  -4.667  1.00 20.00     0.005 C 
HETATM    3  C3  UNL     1     -35.832  15.530  -3.293  1.00 20.00     0.011 C 
HETATM    4  C4  UNL     1     -33.359  15.878  -3.274  1.00 20.00     0.011 C 
HETATM    5  C5  UNL     1     -34.394  14.407  -5.603  1.00 20.00     0.084 C 
HETATM    6  C6  UNL     1     -34.611  15.926  -5.467  1.00 20.00    -0.009 C 
HETATM    7  C7  UNL     1     -34.474  14.830  -3.112  1.00 20.00     0.058 C 
HETATM    8  C8  UNL     1     -34.317  13.776  -4.213  1.00 20.00     0.247 C 
HETATM    9  F9  UNL     1     -35.281  12.830  -4.085  1.00 20.00    -0.206 F 
HETATM   10  F10 UNL     1     -33.132  13.132  -4.068  1.00 20.00    -0.206 F 
ENDROOT
TORSDOF 0
ENDMDL
MODEL 6
REMARK VINA RESULT:      -4.6      0.778      2.450
REMARK  0 active torsions:
REMARK  status: ('A' for Active; 'I' for Inactive)
ROOT
HETATM    1  C1  UNL     1     -36.417  14.437  -4.016  1.00 20.00     0.005 C 
HETATM    2  C2  UNL     1     -34.850  13.910  -5.891  1.00 20.00     0.005 C 
HETATM    3  C3  UNL     1     -35.991  15.912  -4.077  1.00 20.00     0.011 C 
HETATM    4  C4  UNL     1     -34.425  15.385  -5.949  1.00 20.00     0.011 C 
HETATM    5  C5  UNL     1     -34.058  13.764  -3.521  1.00 20.00     0.084 C 
HETATM    6  C6  UNL     1     -35.259  13.526  -4.457  1.00 20.00    -0.009 C 
HETATM    7  C7  UNL     1     -34.533  16.021  -4.553  1.00 20.00     0.058 C 
HETATM    8  C8  UNL     1     -33.642  15.233  -3.587  1.00 20.00     0.247 C 
HETATM    9  F9  UNL     1     -33.708  15.783  -2.348  1.00 20.00    -0.206 F 
HETATM   10  F10 UNL     1     -32.346  15.325  -3.975  1.00 20.00    -0.206 F 
ENDROOT
TORSDOF 0
ENDMDL
MODEL 7
REMARK VINA RESULT:      -4.6     11.828     12.823
REMARK  0 active torsions:
REMARK  status: ('A' for Active; 'I' for Inactive)
ROOT
HETATM    1  C1  UNL     1     -43.403   6.906  -0.242  1.00 20.00     0.005 C 
HETATM    2  C2  UNL     1     -43.417   4.900  -1.734  1.00 20.00     0.005 C 
HETATM    3  C3  UNL     1     -42.252   7.506  -1.063  1.00 20.00     0.011 C 
HETATM    4  C4  UNL     1     -42.265   5.501  -2.553  1.00 20.00     0.011 C 
HETATM    5  C5  UNL     1     -41.984   4.921   0.318  1.00 20.00     0.084 C 
HETATM    6  C6  UNL     1     -43.337   5.369  -0.269  1.00 20.00    -0.009 C 
HETATM    7  C7  UNL     1     -41.382   6.383  -1.653  1.00 20.00     0.058 C 
HETATM    8  C8  UNL     1     -40.846   5.524  -0.503  1.00 20.00     0.247 C 
HETATM    9  F9  UNL     1     -40.050   6.276   0.300  1.00 20.00    -0.206 F 
HETATM   10  F10 UNL     1     -40.061   4.533  -0.995  1.00 20.00    -0.206 F 
ENDROOT
TORSDOF 0
ENDMDL
MODEL 8
REMARK VINA RESULT:      -4.6      1.416      2.625
REMARK  0 active torsions:
REMARK  status: ('A' for Active; 'I' for Inactive)
ROOT
HETATM    1  C1  UNL     1     -34.568  15.031  -5.718  1.00 20.00     0.005 C 
HETATM    2  C2  UNL     1     -33.619  13.486  -3.996  1.00 20.00     0.005 C 
HETATM    3  C3  UNL     1     -33.640  16.151  -5.221  1.00 20.00     0.011 C 
HETATM    4  C4  UNL     1     -32.694  14.608  -3.501  1.00 20.00     0.011 C 
HETATM    5  C5  UNL     1     -35.623  14.884  -3.452  1.00 20.00     0.084 C 
HETATM    6  C6  UNL     1     -34.923  14.078  -4.563  1.00 20.00    -0.009 C 
HETATM    7  C7  UNL     1     -33.360  15.977  -3.719  1.00 20.00     0.058 C 
HETATM    8  C8  UNL     1     -34.694  15.997  -2.966  1.00 20.00     0.247 C 
HETATM    9  F9  UNL     1     -35.297  17.201  -3.130  1.00 20.00    -0.206 F 
HETATM   10  F10 UNL     1     -34.475  15.860  -1.635  1.00 20.00    -0.206 F 
ENDROOT
TORSDOF 0
ENDMDL
MODEL 9
REMARK VINA RESULT:      -4.5      1.421      2.519
REMARK  0 active torsions:
REMARK  status: ('A' for Active; 'I' for Inactive)
ROOT
HETATM    1  C1  UNL     1     -33.090  16.091  -4.723  1.00 20.00     0.005 C 
HETATM    2  C2  UNL     1     -34.578  14.595  -6.064  1.00 20.00     0.005 C 
HETATM    3  C3  UNL     1     -33.025  15.029  -3.615  1.00 20.00     0.011 C 
HETATM    4  C4  UNL     1     -34.513  13.536  -4.953  1.00 20.00     0.011 C 
HETATM    5  C5  UNL     1     -35.574  16.235  -4.456  1.00 20.00     0.084 C 
HETATM    6  C6  UNL     1     -34.434  16.007  -5.467  1.00 20.00    -0.009 C 
HETATM    7  C7  UNL     1     -34.330  14.215  -3.585  1.00 20.00     0.058 C 
HETATM    8  C8  UNL     1     -35.501  15.176  -3.356  1.00 20.00     0.247 C 
HETATM    9  F9  UNL     1     -35.371  15.780  -2.147  1.00 20.00    -0.206 F 
HETATM   10  F10 UNL     1     -36.665  14.482  -3.311  1.00 20.00    -0.206 F 
ENDROOT
TORSDOF 0
ENDMDL
