MODEL 1
REMARK VINA RESULT:      -4.0      0.000      0.000
REMARK  1 active torsions:
REMARK  status: ('A' for Active; 'I' for Inactive)
REMARK    1  A    between atoms: C1_1  and  C4_4 
ROOT
HETATM    1  C2  UNL     1     -34.856   5.363   6.314  1.00 20.00     0.054 A 
HETATM    2  C3  UNL     1     -34.515   4.050   5.674  1.00 20.00     0.054 A 
HETATM    3  C4  UNL     1     -34.772   5.258   4.817  1.00 20.00     0.156 A 
HETATM    4  F6  UNL     1     -35.992   5.267   4.148  1.00 20.00    -0.235 F 
ENDROOT
BRANCH   3   5
HETATM    5  C1  UNL     1     -33.662   5.894   4.102  1.00 20.00     0.274 C 
HETATM    6  O5  UNL     1     -33.498   5.802   2.891  1.00 20.00    -0.303 OA
ENDBRANCH   3   5
TORSDOF 1
ENDMDL
MODEL 2
REMARK VINA RESULT:      -3.8      1.894      2.523
REMARK  1 active torsions:
REMARK  status: ('A' for Active; 'I' for Inactive)
REMARK    1  A    between atoms: C1_1  and  C4_4 
ROOT
HETATM    1  C2  UNL     1     -34.154   5.411   3.815  1.00 20.00     0.054 A 
HETATM    2  C3  UNL     1     -35.646   5.450   3.968  1.00 20.00     0.054 A 
HETATM    3  C4  UNL     1     -34.793   4.898   5.077  1.00 20.00     0.156 A 
HETATM    4  F6  UNL     1     -34.815   3.514   5.215  1.00 20.00    -0.235 F 
ENDROOT
BRANCH   3   5
HETATM    5  C1  UNL     1     -34.647   5.650   6.326  1.00 20.00     0.274 C 
HETATM    6  O5  UNL     1     -33.858   6.579   6.466  1.00 20.00    -0.303 OA
ENDBRANCH   3   5
TORSDOF 1
ENDMDL
MODEL 3
REMARK VINA RESULT:      -3.7      1.719      2.619
REMARK  1 active torsions:
REMARK  status: ('A' for Active; 'I' for Inactive)
REMARK    1  A    between atoms: C1_1  and  C4_4 
ROOT
HETATM    1  C2  UNL     1     -33.814   5.396   3.036  1.00 20.00     0.054 A 
HETATM    2  C3  UNL     1     -33.960   6.620   3.892  1.00 20.00     0.054 A 
HETATM    3  C4  UNL     1     -34.946   5.492   4.021  1.00 20.00     0.156 A 
HETATM    4  F6  UNL     1     -36.201   5.729   3.468  1.00 20.00    -0.235 F 
ENDROOT
BRANCH   3   5
HETATM    5  C1  UNL     1     -34.940   4.653   5.223  1.00 20.00     0.274 C 
HETATM    6  O5  UNL     1     -35.056   3.433   5.195  1.00 20.00    -0.303 OA
ENDBRANCH   3   5
TORSDOF 1
ENDMDL
MODEL 4
REMARK VINA RESULT:      -3.7      2.131      2.409
REMARK  1 active torsions:
REMARK  status: ('A' for Active; 'I' for Inactive)
REMARK    1  A    between atoms: C1_1  and  C4_4 
ROOT
HETATM    1  C2  UNL     1     -35.543   5.212   4.287  1.00 20.00     0.054 A 
HETATM    2  C3  UNL     1     -34.882   4.057   4.978  1.00 20.00     0.054 A 
HETATM    3  C4  UNL     1     -34.271   5.429   5.060  1.00 20.00     0.156 A 
HETATM    4  F6  UNL     1     -33.129   5.621   4.288  1.00 20.00    -0.235 F 
ENDROOT
BRANCH   3   5
HETATM    5  C1  UNL     1     -34.304   6.167   6.325  1.00 20.00     0.274 C 
HETATM    6  O5  UNL     1     -33.466   7.006   6.639  1.00 20.00    -0.303 OA
ENDBRANCH   3   5
TORSDOF 1
ENDMDL
MODEL 5
REMARK VINA RESULT:      -3.6      1.642      1.868
REMARK  1 active torsions:
REMARK  status: ('A' for Active; 'I' for Inactive)
REMARK    1  A    between atoms: C1_1  and  C4_4 
ROOT
HETATM    1  C2  UNL     1     -34.758   4.456   4.875  1.00 20.00     0.054 A 
HETATM    2  C3  UNL     1     -35.551   5.465   4.099  1.00 20.00     0.054 A 
HETATM    3  C4  UNL     1     -34.184   5.821   4.613  1.00 20.00     0.156 A 
HETATM    4  F6  UNL     1     -34.162   6.680   5.707  1.00 20.00    -0.235 F 
ENDROOT
BRANCH   3   5
HETATM    5  C1  UNL     1     -33.069   5.975   3.674  1.00 20.00     0.274 C 
HETATM    6  O5  UNL     1     -32.255   6.890   3.738  1.00 20.00    -0.303 OA
ENDBRANCH   3   5
TORSDOF 1
ENDMDL
MODEL 6
REMARK VINA RESULT:      -3.5      1.651      1.862
REMARK  1 active torsions:
REMARK  status: ('A' for Active; 'I' for Inactive)
REMARK    1  A    between atoms: C1_1  and  C4_4 
ROOT
HETATM    1  C2  UNL     1     -35.759   5.713   3.881  1.00 20.00     0.054 A 
HETATM    2  C3  UNL     1     -35.007   4.600   4.548  1.00 20.00     0.054 A 
HETATM    3  C4  UNL     1     -34.312   5.480   3.545  1.00 20.00     0.156 A 
HETATM    4  F6  UNL     1     -34.074   4.897   2.304  1.00 20.00    -0.235 F 
ENDROOT
BRANCH   3   5
HETATM    5  C1  UNL     1     -33.296   6.435   3.994  1.00 20.00     0.274 C 
HETATM    6  O5  UNL     1     -32.182   6.523   3.488  1.00 20.00    -0.303 OA
ENDBRANCH   3   5
TORSDOF 1
ENDMDL
MODEL 7
REMARK VINA RESULT:      -3.4     12.376     12.648
REMARK  1 active torsions:
REMARK  status: ('A' for Active; 'I' for Inactive)
REMARK    1  A    between atoms: C1_1  and  C4_4 
ROOT
HETATM    1  C2  UNL     1     -34.107  15.289  -2.966  1.00 20.00     0.054 A 
HETATM    2  C3  UNL     1     -33.308  15.750  -4.149  1.00 20.00     0.054 A 
HETATM    3  C4  UNL     1     -33.534  14.280  -3.923  1.00 20.00     0.156 A 
HETATM    4  F6  UNL     1     -32.433  13.572  -3.454  1.00 20.00    -0.235 F 
ENDROOT
BRANCH   3   5
HETATM    5  C1  UNL     1     -34.425  13.534  -4.816  1.00 20.00     0.274 C 
HETATM    6  O5  UNL     1     -35.114  12.589  -4.447  1.00 20.00    -0.303 OA
ENDBRANCH   3   5
TORSDOF 1
ENDMDL
MODEL 8
REMARK VINA RESULT:      -3.4      2.322      3.018
REMARK  1 active torsions:
REMARK  status: ('A' for Active; 'I' for Inactive)
REMARK    1  A    between atoms: C1_1  and  C4_4 
ROOT
HETATM    1  C2  UNL     1     -32.899   7.185   2.942  1.00 20.00     0.054 A 
HETATM    2  C3  UNL     1     -32.191   5.901   3.252  1.00 20.00     0.054 A 
HETATM    3  C4  UNL     1     -33.497   6.218   3.926  1.00 20.00     0.156 A 
HETATM    4  F6  UNL     1     -33.404   6.593   5.263  1.00 20.00    -0.235 F 
ENDROOT
BRANCH   3   5
HETATM    5  C1  UNL     1     -34.703   5.466   3.569  1.00 20.00     0.274 C 
HETATM    6  O5  UNL     1     -35.493   5.024   4.396  1.00 20.00    -0.303 OA
ENDBRANCH   3   5
TORSDOF 1
ENDMDL
MODEL 9
REMARK VINA RESULT:      -3.3      1.949      3.052
REMARK  1 active torsions:
REMARK  status: ('A' for Active; 'I' for Inactive)
REMARK    1  A    between atoms: C1_1  and  C4_4 
ROOT
HETATM    1  C2  UNL     1     -32.066   5.953   3.218  1.00 20.00     0.054 A 
HETATM    2  C3  UNL     1     -32.838   7.203   2.912  1.00 20.00     0.054 A 
HETATM    3  C4  UNL     1     -33.548   6.001   3.472  1.00 20.00     0.156 A 
HETATM    4  F6  UNL     1     -34.332   5.295   2.566  1.00 20.00    -0.235 F 
ENDROOT
BRANCH   3   5
HETATM    5  C1  UNL     1     -34.051   6.028   4.849  1.00 20.00     0.274 C 
HETATM    6  O5  UNL     1     -34.897   5.249   5.273  1.00 20.00    -0.303 OA
ENDBRANCH   3   5
TORSDOF 1
ENDMDL
