MODEL 1
REMARK VINA RESULT:      -4.8      0.000      0.000
REMARK  1 active torsions:
REMARK  status: ('A' for Active; 'I' for Inactive)
REMARK    1  A    between atoms: C2_2  and  C4_4 
ROOT
HETATM    1  C1  UNL     1     -32.518   7.165   3.070  1.00 20.00     0.107 C 
HETATM    2  C2  UNL     1     -33.683   6.225   4.994  1.00 20.00     0.118 C 
HETATM    3  C3  UNL     1     -33.413   6.244   3.679  1.00 20.00     0.095 C 
HETATM    4  N5  UNL     1     -31.788   7.913   2.565  1.00 20.00    -0.191 NA
HETATM    5 BR9  UNL     1     -34.213   5.024   2.504  1.00 20.00    -0.039 Br
ENDROOT
BRANCH   2   6
HETATM    6  C4  UNL     1     -34.598   5.313   5.743  1.00 20.00     0.409 C 
HETATM    7  F6  UNL     1     -34.961   5.856   6.933  1.00 20.00    -0.167 F 
HETATM    8  F7  UNL     1     -35.747   5.008   5.090  1.00 20.00    -0.167 F 
HETATM    9  F8  UNL     1     -33.987   4.134   6.025  1.00 20.00    -0.167 F 
ENDBRANCH   2   6
TORSDOF 1
ENDMDL
MODEL 2
REMARK VINA RESULT:      -4.4     12.024     12.545
REMARK  1 active torsions:
REMARK  status: ('A' for Active; 'I' for Inactive)
REMARK    1  A    between atoms: C2_2  and  C4_4 
ROOT
HETATM    1  C1  UNL     1     -34.615  13.794  -4.106  1.00 20.00     0.107 C 
HETATM    2  C2  UNL     1     -34.739  15.367  -2.248  1.00 20.00     0.118 C 
HETATM    3  C3  UNL     1     -34.336  15.043  -3.487  1.00 20.00     0.095 C 
HETATM    4  N5  UNL     1     -34.839  12.776  -4.618  1.00 20.00    -0.191 NA
HETATM    5 BR9  UNL     1     -33.350  16.241  -4.536  1.00 20.00    -0.039 Br
ENDROOT
BRANCH   2   6
HETATM    6  C4  UNL     1     -34.507  16.638  -1.498  1.00 20.00     0.409 C 
HETATM    7  F6  UNL     1     -34.920  16.525  -0.209  1.00 20.00    -0.167 F 
HETATM    8  F7  UNL     1     -33.213  17.040  -1.457  1.00 20.00    -0.167 F 
HETATM    9  F8  UNL     1     -35.216  17.660  -2.043  1.00 20.00    -0.167 F 
ENDBRANCH   2   6
TORSDOF 1
ENDMDL
MODEL 3
REMARK VINA RESULT:      -4.3      1.749      1.945
REMARK  1 active torsions:
REMARK  status: ('A' for Active; 'I' for Inactive)
REMARK    1  A    between atoms: C2_2  and  C4_4 
ROOT
HETATM    1  C1  UNL     1     -32.760   7.046   3.541  1.00 20.00     0.107 C 
HETATM    2  C2  UNL     1     -34.046   5.184   4.446  1.00 20.00     0.118 C 
HETATM    3  C3  UNL     1     -33.408   6.356   4.600  1.00 20.00     0.095 C 
HETATM    4  N5  UNL     1     -32.229   7.618   2.681  1.00 20.00    -0.191 NA
HETATM    5 BR9  UNL     1     -33.319   7.203   6.268  1.00 20.00    -0.039 Br
ENDROOT
BRANCH   2   6
HETATM    6  C4  UNL     1     -34.757   4.370   5.476  1.00 20.00     0.409 C 
HETATM    7  F6  UNL     1     -33.886   3.876   6.393  1.00 20.00    -0.167 F 
HETATM    8  F7  UNL     1     -35.708   5.044   6.169  1.00 20.00    -0.167 F 
HETATM    9  F8  UNL     1     -35.373   3.300   4.911  1.00 20.00    -0.167 F 
ENDBRANCH   2   6
TORSDOF 1
ENDMDL
MODEL 4
REMARK VINA RESULT:      -4.2      9.632     10.170
REMARK  1 active torsions:
REMARK  status: ('A' for Active; 'I' for Inactive)
REMARK    1  A    between atoms: C2_2  and  C4_4 
ROOT
HETATM    1  C1  UNL     1     -41.650   3.173  -2.751  1.00 20.00     0.107 C 
HETATM    2  C2  UNL     1     -41.007   4.883  -1.137  1.00 20.00     0.118 C 
HETATM    3  C3  UNL     1     -41.765   4.462  -2.162  1.00 20.00     0.095 C 
HETATM    4  N5  UNL     1     -41.563   2.123  -3.237  1.00 20.00    -0.191 NA
HETATM    5 BR9  UNL     1     -43.074   5.565  -2.923  1.00 20.00    -0.039 Br
ENDROOT
BRANCH   2   6
HETATM    6  C4  UNL     1     -41.035   6.204  -0.441  1.00 20.00     0.409 C 
HETATM    7  F6  UNL     1     -40.132   6.240   0.573  1.00 20.00    -0.167 F 
HETATM    8  F7  UNL     1     -40.765   7.267  -1.238  1.00 20.00    -0.167 F 
HETATM    9  F8  UNL     1     -42.252   6.435   0.116  1.00 20.00    -0.167 F 
ENDBRANCH   2   6
TORSDOF 1
ENDMDL
MODEL 5
REMARK VINA RESULT:      -4.2      9.562     10.010
REMARK  1 active torsions:
REMARK  status: ('A' for Active; 'I' for Inactive)
REMARK    1  A    between atoms: C2_2  and  C4_4 
ROOT
HETATM    1  C1  UNL     1     -42.324   7.655  -3.399  1.00 20.00     0.107 C 
HETATM    2  C2  UNL     1     -41.249   6.842  -1.367  1.00 20.00     0.118 C 
HETATM    3  C3  UNL     1     -42.044   6.651  -2.433  1.00 20.00     0.095 C 
HETATM    4  N5  UNL     1     -42.557   8.470  -4.193  1.00 20.00    -0.191 NA
HETATM    5 BR9  UNL     1     -42.871   5.000  -2.747  1.00 20.00    -0.039 Br
ENDROOT
BRANCH   2   6
HETATM    6  C4  UNL     1     -40.885   5.871  -0.293  1.00 20.00     0.409 C 
HETATM    7  F6  UNL     1     -40.059   6.443   0.621  1.00 20.00    -0.167 F 
HETATM    8  F7  UNL     1     -41.940   5.372   0.396  1.00 20.00    -0.167 F 
HETATM    9  F8  UNL     1     -40.216   4.806  -0.807  1.00 20.00    -0.167 F 
ENDBRANCH   2   6
TORSDOF 1
ENDMDL
MODEL 6
REMARK VINA RESULT:      -4.2     12.645     13.011
REMARK  1 active torsions:
REMARK  status: ('A' for Active; 'I' for Inactive)
REMARK    1  A    between atoms: C2_2  and  C4_4 
ROOT
HETATM    1  C1  UNL     1     -37.116  14.605  -3.883  1.00 20.00     0.107 C 
HETATM    2  C2  UNL     1     -35.096  15.616  -2.966  1.00 20.00     0.118 C 
HETATM    3  C3  UNL     1     -35.747  14.981  -3.954  1.00 20.00     0.095 C 
HETATM    4  N5  UNL     1     -38.234  14.295  -3.834  1.00 20.00    -0.191 NA
HETATM    5 BR9  UNL     1     -34.884  14.525  -5.553  1.00 20.00    -0.039 Br
ENDROOT
BRANCH   2   6
HETATM    6  C4  UNL     1     -33.670  16.058  -2.926  1.00 20.00     0.409 C 
HETATM    7  F6  UNL     1     -33.361  16.594  -1.717  1.00 20.00    -0.167 F 
HETATM    8  F7  UNL     1     -32.768  15.072  -3.155  1.00 20.00    -0.167 F 
HETATM    9  F8  UNL     1     -33.434  17.024  -3.850  1.00 20.00    -0.167 F 
ENDBRANCH   2   6
TORSDOF 1
ENDMDL
MODEL 7
REMARK VINA RESULT:      -4.2      3.785      4.321
REMARK  1 active torsions:
REMARK  status: ('A' for Active; 'I' for Inactive)
REMARK    1  A    between atoms: C2_2  and  C4_4 
ROOT
HETATM    1  C1  UNL     1     -34.665   4.642   4.984  1.00 20.00     0.107 C 
HETATM    2  C2  UNL     1     -33.283   6.034   3.536  1.00 20.00     0.118 C 
HETATM    3  C3  UNL     1     -33.859   5.784   4.723  1.00 20.00     0.095 C 
HETATM    4  N5  UNL     1     -35.324   3.712   5.206  1.00 20.00    -0.191 NA
HETATM    5 BR9  UNL     1     -33.642   6.947   6.175  1.00 20.00    -0.039 Br
ENDROOT
BRANCH   2   6
HETATM    6  C4  UNL     1     -32.423   7.191   3.146  1.00 20.00     0.409 C 
HETATM    7  F6  UNL     1     -33.166   8.315   2.975  1.00 20.00    -0.167 F 
HETATM    8  F7  UNL     1     -31.453   7.500   4.042  1.00 20.00    -0.167 F 
HETATM    9  F8  UNL     1     -31.799   6.955   1.963  1.00 20.00    -0.167 F 
ENDBRANCH   2   6
TORSDOF 1
ENDMDL
MODEL 8
REMARK VINA RESULT:      -4.1     12.549     13.078
REMARK  1 active torsions:
REMARK  status: ('A' for Active; 'I' for Inactive)
REMARK    1  A    between atoms: C2_2  and  C4_4 
ROOT
HETATM    1  C1  UNL     1     -37.131  14.761  -3.781  1.00 20.00     0.107 C 
HETATM    2  C2  UNL     1     -34.700  14.654  -3.639  1.00 20.00     0.118 C 
HETATM    3  C3  UNL     1     -35.839  15.352  -3.778  1.00 20.00     0.095 C 
HETATM    4  N5  UNL     1     -38.191  14.287  -3.784  1.00 20.00    -0.191 NA
HETATM    5 BR9  UNL     1     -35.821  17.214  -3.981  1.00 20.00    -0.039 Br
ENDROOT
BRANCH   2   6
HETATM    6  C4  UNL     1     -33.295  15.160  -3.622  1.00 20.00     0.409 C 
HETATM    7  F6  UNL     1     -32.409  14.134  -3.552  1.00 20.00    -0.167 F 
HETATM    8  F7  UNL     1     -32.949  15.899  -4.705  1.00 20.00    -0.167 F 
HETATM    9  F8  UNL     1     -33.073  15.939  -2.532  1.00 20.00    -0.167 F 
ENDBRANCH   2   6
TORSDOF 1
ENDMDL
MODEL 9
REMARK VINA RESULT:      -4.1     12.270     13.068
REMARK  1 active torsions:
REMARK  status: ('A' for Active; 'I' for Inactive)
REMARK    1  A    between atoms: C2_2  and  C4_4 
ROOT
HETATM    1  C1  UNL     1     -33.604  17.559  -4.903  1.00 20.00     0.107 C 
HETATM    2  C2  UNL     1     -33.780  15.129  -4.811  1.00 20.00     0.118 C 
HETATM    3  C3  UNL     1     -33.740  16.328  -4.206  1.00 20.00     0.095 C 
HETATM    4  N5  UNL     1     -33.493  18.569  -5.464  1.00 20.00    -0.191 NA
HETATM    5 BR9  UNL     1     -33.867  16.483  -2.344  1.00 20.00    -0.039 Br
ENDROOT
BRANCH   2   6
HETATM    6  C4  UNL     1     -33.919  13.778  -4.190  1.00 20.00     0.409 C 
HETATM    7  F6  UNL     1     -32.770  13.408  -3.568  1.00 20.00    -0.167 F 
HETATM    8  F7  UNL     1     -34.908  13.681  -3.267  1.00 20.00    -0.167 F 
HETATM    9  F8  UNL     1     -34.172  12.834  -5.132  1.00 20.00    -0.167 F 
ENDBRANCH   2   6
TORSDOF 1
ENDMDL
