MODEL 1
REMARK VINA RESULT:      -4.6      0.000      0.000
REMARK  2 active torsions:
REMARK  status: ('A' for Active; 'I' for Inactive)
REMARK    1  A    between atoms: C1_1  and  C4_4 
REMARK    2  A    between atoms: C1_1  and  C5_5 
ROOT
HETATM    1  C1  UNL     1     -34.220   5.599   3.682  1.00 20.00     0.159 C 
HETATM    2  O6  UNL     1     -34.453   5.146   2.568  1.00 20.00    -0.295 OA
ENDROOT
BRANCH   1   3
HETATM    3  C4  UNL     1     -35.100   5.288   4.813  1.00 20.00     0.058 A 
HETATM    4  C2  UNL     1     -34.837   4.055   5.635  1.00 20.00     0.013 A 
HETATM    5  C3  UNL     1     -34.569   5.410   6.215  1.00 20.00     0.013 A 
ENDBRANCH   1   3
BRANCH   1   6
HETATM    6  C5  UNL     1     -33.052   6.489   3.987  1.00 20.00     0.300 C 
HETATM    7  F7  UNL     1     -31.921   6.038   3.382  1.00 20.00    -0.248 F 
ENDBRANCH   1   6
TORSDOF 2
ENDMDL
MODEL 2
REMARK VINA RESULT:      -4.4      1.922      2.970
REMARK  2 active torsions:
REMARK  status: ('A' for Active; 'I' for Inactive)
REMARK    1  A    between atoms: C1_1  and  C4_4 
REMARK    2  A    between atoms: C1_1  and  C5_5 
ROOT
HETATM    1  C1  UNL     1     -34.818   4.880   5.118  1.00 20.00     0.159 C 
HETATM    2  O6  UNL     1     -35.143   3.731   4.843  1.00 20.00    -0.295 OA
ENDROOT
BRANCH   1   3
HETATM    3  C4  UNL     1     -34.575   5.861   4.056  1.00 20.00     0.058 A 
HETATM    4  C2  UNL     1     -33.172   6.071   3.551  1.00 20.00     0.013 A 
HETATM    5  C3  UNL     1     -34.182   5.381   2.685  1.00 20.00     0.013 A 
ENDBRANCH   1   3
BRANCH   1   6
HETATM    6  C5  UNL     1     -34.639   5.378   6.522  1.00 20.00     0.300 C 
HETATM    7  F7  UNL     1     -34.296   6.694   6.535  1.00 20.00    -0.248 F 
ENDBRANCH   1   6
TORSDOF 2
ENDMDL
MODEL 3
REMARK VINA RESULT:      -4.3      2.337      3.277
REMARK  2 active torsions:
REMARK  status: ('A' for Active; 'I' for Inactive)
REMARK    1  A    between atoms: C1_1  and  C4_4 
REMARK    2  A    between atoms: C1_1  and  C5_5 
ROOT
HETATM    1  C1  UNL     1     -34.269   5.986   5.502  1.00 20.00     0.159 C 
HETATM    2  O6  UNL     1     -33.820   6.625   6.445  1.00 20.00    -0.295 OA
ENDROOT
BRANCH   1   3
HETATM    3  C4  UNL     1     -34.087   6.458   4.126  1.00 20.00     0.058 A 
HETATM    4  C2  UNL     1     -32.795   6.167   3.410  1.00 20.00     0.013 A 
HETATM    5  C3  UNL     1     -34.051   5.458   3.002  1.00 20.00     0.013 A 
ENDBRANCH   1   3
BRANCH   1   6
HETATM    6  C5  UNL     1     -35.027   4.700   5.658  1.00 20.00     0.300 C 
HETATM    7  F7  UNL     1     -34.184   3.663   5.910  1.00 20.00    -0.248 F 
ENDBRANCH   1   6
TORSDOF 2
ENDMDL
MODEL 4
REMARK VINA RESULT:      -4.2      1.535      1.541
REMARK  2 active torsions:
REMARK  status: ('A' for Active; 'I' for Inactive)
REMARK    1  A    between atoms: C1_1  and  C4_4 
REMARK    2  A    between atoms: C1_1  and  C5_5 
ROOT
HETATM    1  C1  UNL     1     -33.826   6.116   4.691  1.00 20.00     0.159 C 
HETATM    2  O6  UNL     1     -33.359   6.776   5.611  1.00 20.00    -0.295 OA
ENDROOT
BRANCH   1   3
HETATM    3  C4  UNL     1     -34.969   5.225   4.917  1.00 20.00     0.058 A 
HETATM    4  C2  UNL     1     -34.725   3.760   5.161  1.00 20.00     0.013 A 
HETATM    5  C3  UNL     1     -35.186   4.637   6.284  1.00 20.00     0.013 A 
ENDBRANCH   1   3
BRANCH   1   6
HETATM    6  C5  UNL     1     -33.291   6.151   3.290  1.00 20.00     0.300 C 
HETATM    7  F7  UNL     1     -31.971   5.827   3.261  1.00 20.00    -0.248 F 
ENDBRANCH   1   6
TORSDOF 2
ENDMDL
MODEL 5
REMARK VINA RESULT:      -3.9      2.080      2.186
REMARK  2 active torsions:
REMARK  status: ('A' for Active; 'I' for Inactive)
REMARK    1  A    between atoms: C1_1  and  C4_4 
REMARK    2  A    between atoms: C1_1  and  C5_5 
ROOT
HETATM    1  C1  UNL     1     -34.007   6.202   4.920  1.00 20.00     0.159 C 
HETATM    2  O6  UNL     1     -33.652   6.609   3.820  1.00 20.00    -0.295 OA
ENDROOT
BRANCH   1   3
HETATM    3  C4  UNL     1     -35.102   5.235   5.041  1.00 20.00     0.058 A 
HETATM    4  C2  UNL     1     -34.807   3.765   4.905  1.00 20.00     0.013 A 
HETATM    5  C3  UNL     1     -35.161   4.335   6.245  1.00 20.00     0.013 A 
ENDBRANCH   1   3
BRANCH   1   6
HETATM    6  C5  UNL     1     -33.376   6.641   6.209  1.00 20.00     0.300 C 
HETATM    7  F7  UNL     1     -34.240   7.387   6.948  1.00 20.00    -0.248 F 
ENDBRANCH   1   6
TORSDOF 2
ENDMDL
MODEL 6
REMARK VINA RESULT:      -3.9      1.992      2.196
REMARK  2 active torsions:
REMARK  status: ('A' for Active; 'I' for Inactive)
REMARK    1  A    between atoms: C1_1  and  C4_4 
REMARK    2  A    between atoms: C1_1  and  C5_5 
ROOT
HETATM    1  C1  UNL     1     -33.636   6.173   4.025  1.00 20.00     0.159 C 
HETATM    2  O6  UNL     1     -32.485   6.583   3.948  1.00 20.00    -0.295 OA
ENDROOT
BRANCH   1   3
HETATM    3  C4  UNL     1     -34.430   6.397   5.237  1.00 20.00     0.058 A 
HETATM    4  C2  UNL     1     -34.404   5.369   6.337  1.00 20.00     0.013 A 
HETATM    5  C3  UNL     1     -33.726   6.691   6.535  1.00 20.00     0.013 A 
ENDBRANCH   1   3
BRANCH   1   6
HETATM    6  C5  UNL     1     -34.325   5.424   2.922  1.00 20.00     0.300 C 
HETATM    7  F7  UNL     1     -35.675   5.460   3.074  1.00 20.00    -0.248 F 
ENDBRANCH   1   6
TORSDOF 2
ENDMDL
MODEL 7
REMARK VINA RESULT:      -3.8      2.409      3.566
REMARK  2 active torsions:
REMARK  status: ('A' for Active; 'I' for Inactive)
REMARK    1  A    between atoms: C1_1  and  C4_4 
REMARK    2  A    between atoms: C1_1  and  C5_5 
ROOT
HETATM    1  C1  UNL     1     -33.701   6.118   4.207  1.00 20.00     0.159 C 
HETATM    2  O6  UNL     1     -33.719   6.529   5.361  1.00 20.00    -0.295 OA
ENDROOT
BRANCH   1   3
HETATM    3  C4  UNL     1     -32.516   6.309   3.365  1.00 20.00     0.058 A 
HETATM    4  C2  UNL     1     -32.412   7.540   2.505  1.00 20.00     0.013 A 
HETATM    5  C3  UNL     1     -31.533   7.395   3.710  1.00 20.00     0.013 A 
ENDBRANCH   1   3
BRANCH   1   6
HETATM    6  C5  UNL     1     -34.852   5.403   3.564  1.00 20.00     0.300 C 
HETATM    7  F7  UNL     1     -35.562   4.692   4.481  1.00 20.00    -0.248 F 
ENDBRANCH   1   6
TORSDOF 2
ENDMDL
MODEL 8
REMARK VINA RESULT:      -3.7      1.730      2.167
REMARK  2 active torsions:
REMARK  status: ('A' for Active; 'I' for Inactive)
REMARK    1  A    between atoms: C1_1  and  C4_4 
REMARK    2  A    between atoms: C1_1  and  C5_5 
ROOT
HETATM    1  C1  UNL     1     -32.712   6.646   3.256  1.00 20.00     0.159 C 
HETATM    2  O6  UNL     1     -31.954   5.687   3.178  1.00 20.00    -0.295 OA
ENDROOT
BRANCH   1   3
HETATM    3  C4  UNL     1     -33.968   6.546   4.005  1.00 20.00     0.058 A 
HETATM    4  C2  UNL     1     -34.959   5.471   3.645  1.00 20.00     0.013 A 
HETATM    5  C3  UNL     1     -34.186   5.375   4.926  1.00 20.00     0.013 A 
ENDBRANCH   1   3
BRANCH   1   6
HETATM    6  C5  UNL     1     -32.438   7.973   2.612  1.00 20.00     0.300 C 
HETATM    7  F7  UNL     1     -31.551   7.848   1.589  1.00 20.00    -0.248 F 
ENDBRANCH   1   6
TORSDOF 2
ENDMDL
MODEL 9
REMARK VINA RESULT:      -3.5     12.061     13.160
REMARK  2 active torsions:
REMARK  status: ('A' for Active; 'I' for Inactive)
REMARK    1  A    between atoms: C1_1  and  C4_4 
REMARK    2  A    between atoms: C1_1  and  C5_5 
ROOT
HETATM    1  C1  UNL     1     -34.486  13.727  -4.826  1.00 20.00     0.159 C 
HETATM    2  O6  UNL     1     -34.824  12.555  -4.938  1.00 20.00    -0.295 OA
ENDROOT
BRANCH   1   3
HETATM    3  C4  UNL     1     -34.999  14.744  -5.749  1.00 20.00     0.058 A 
HETATM    4  C2  UNL     1     -34.188  15.117  -6.962  1.00 20.00     0.013 A 
HETATM    5  C3  UNL     1     -35.454  14.330  -7.122  1.00 20.00     0.013 A 
ENDBRANCH   1   3
BRANCH   1   6
HETATM    6  C5  UNL     1     -33.543  14.221  -3.768  1.00 20.00     0.300 C 
HETATM    7  F7  UNL     1     -32.539  13.329  -3.552  1.00 20.00    -0.248 F 
ENDBRANCH   1   6
TORSDOF 2
ENDMDL
