MODEL 1
REMARK VINA RESULT:      -4.3      0.000      0.000
REMARK  1 active torsions:
REMARK  status: ('A' for Active; 'I' for Inactive)
REMARK    1  A    between atoms: C3_3  and  C6_6 
ROOT
HETATM    1  C1  UNL     1     -34.699  16.261  -1.603  1.00 20.00     0.013 C 
HETATM    2  C2  UNL     1     -34.449  15.618  -2.586  1.00 20.00    -0.099 C 
HETATM    3  C4  UNL     1     -32.819  14.066  -3.552  1.00 20.00     0.038 C 
HETATM    4  C5  UNL     1     -33.974  15.794  -4.981  1.00 20.00     0.038 C 
HETATM    5  C6  UNL     1     -34.133  14.824  -3.801  1.00 20.00     0.091 C 
ENDROOT
BRANCH   5   6
HETATM    6  C3  UNL     1     -35.283  13.829  -4.072  1.00 20.00     0.238 C 
HETATM    7  O7  UNL     1     -35.074  12.655  -4.375  1.00 20.00    -0.278 OA
HETATM    8 CL8  UNL     1     -36.882  14.518  -3.909  1.00 20.00    -0.042 Cl
ENDBRANCH   5   6
TORSDOF 1
ENDMDL
MODEL 2
REMARK VINA RESULT:      -4.2      1.714      2.244
REMARK  1 active torsions:
REMARK  status: ('A' for Active; 'I' for Inactive)
REMARK    1  A    between atoms: C3_3  and  C6_6 
ROOT
HETATM    1  C1  UNL     1     -34.611  16.258  -1.583  1.00 20.00     0.013 C 
HETATM    2  C2  UNL     1     -34.933  15.699  -2.596  1.00 20.00    -0.099 C 
HETATM    3  C4  UNL     1     -35.000  15.940  -5.032  1.00 20.00     0.038 C 
HETATM    4  C5  UNL     1     -36.846  14.749  -3.792  1.00 20.00     0.038 C 
HETATM    5  C6  UNL     1     -35.334  15.014  -3.852  1.00 20.00     0.091 C 
ENDROOT
BRANCH   5   6
HETATM    6  C3  UNL     1     -34.559  13.685  -3.976  1.00 20.00     0.238 C 
HETATM    7  O7  UNL     1     -35.104  12.639  -4.326  1.00 20.00    -0.278 OA
HETATM    8 CL8  UNL     1     -32.859  13.805  -3.582  1.00 20.00    -0.042 Cl
ENDBRANCH   5   6
TORSDOF 1
ENDMDL
MODEL 3
REMARK VINA RESULT:      -4.0      0.427      2.191
REMARK  1 active torsions:
REMARK  status: ('A' for Active; 'I' for Inactive)
REMARK    1  A    between atoms: C3_3  and  C6_6 
ROOT
HETATM    1  C1  UNL     1     -33.767  16.383  -5.917  1.00 20.00     0.013 C 
HETATM    2  C2  UNL     1     -33.943  15.660  -4.974  1.00 20.00    -0.099 C 
HETATM    3  C4  UNL     1     -34.542  15.646  -2.599  1.00 20.00     0.038 C 
HETATM    4  C5  UNL     1     -32.846  14.022  -3.522  1.00 20.00     0.038 C 
HETATM    5  C6  UNL     1     -34.157  14.771  -3.803  1.00 20.00     0.091 C 
ENDROOT
BRANCH   5   6
HETATM    6  C3  UNL     1     -35.290  13.772  -4.124  1.00 20.00     0.238 C 
HETATM    7  O7  UNL     1     -35.063  12.612  -4.465  1.00 20.00    -0.278 OA
HETATM    8 CL8  UNL     1     -36.900  14.434  -3.957  1.00 20.00    -0.042 Cl
ENDBRANCH   5   6
TORSDOF 1
ENDMDL
MODEL 4
REMARK VINA RESULT:      -4.0      2.107      2.666
REMARK  1 active torsions:
REMARK  status: ('A' for Active; 'I' for Inactive)
REMARK    1  A    between atoms: C3_3  and  C6_6 
ROOT
HETATM    1  C1  UNL     1     -34.617  16.213  -1.704  1.00 20.00     0.013 C 
HETATM    2  C2  UNL     1     -34.443  15.563  -2.699  1.00 20.00    -0.099 C 
HETATM    3  C4  UNL     1     -35.573  14.108  -4.312  1.00 20.00     0.038 C 
HETATM    4  C5  UNL     1     -33.188  13.671  -3.615  1.00 20.00     0.038 C 
HETATM    5  C6  UNL     1     -34.232  14.754  -3.927  1.00 20.00     0.091 C 
ENDROOT
BRANCH   5   6
HETATM    6  C3  UNL     1     -33.733  15.673  -5.063  1.00 20.00     0.238 C 
HETATM    7  O7  UNL     1     -32.976  16.619  -4.853  1.00 20.00    -0.278 OA
HETATM    8 CL8  UNL     1     -34.335  15.247  -6.648  1.00 20.00    -0.042 Cl
ENDBRANCH   5   6
TORSDOF 1
ENDMDL
MODEL 5
REMARK VINA RESULT:      -3.9      2.277      3.382
REMARK  1 active torsions:
REMARK  status: ('A' for Active; 'I' for Inactive)
REMARK    1  A    between atoms: C3_3  and  C6_6 
ROOT
HETATM    1  C1  UNL     1     -34.823  14.795  -7.794  1.00 20.00     0.013 C 
HETATM    2  C2  UNL     1     -34.715  14.895  -6.602  1.00 20.00    -0.099 C 
HETATM    3  C4  UNL     1     -35.930  15.509  -4.567  1.00 20.00     0.038 C 
HETATM    4  C5  UNL     1     -33.481  16.050  -4.831  1.00 20.00     0.038 C 
HETATM    5  C6  UNL     1     -34.584  15.024  -5.127  1.00 20.00     0.091 C 
ENDROOT
BRANCH   5   6
HETATM    6  C3  UNL     1     -34.216  13.649  -4.527  1.00 20.00     0.238 C 
HETATM    7  O7  UNL     1     -34.879  12.638  -4.754  1.00 20.00    -0.278 OA
HETATM    8 CL8  UNL     1     -32.792  13.666  -3.513  1.00 20.00    -0.042 Cl
ENDBRANCH   5   6
TORSDOF 1
ENDMDL
MODEL 6
REMARK VINA RESULT:      -3.8     12.274     12.809
REMARK  1 active torsions:
REMARK  status: ('A' for Active; 'I' for Inactive)
REMARK    1  A    between atoms: C3_3  and  C6_6 
ROOT
HETATM    1  C1  UNL     1     -32.462   6.351   3.418  1.00 20.00     0.013 C 
HETATM    2  C2  UNL     1     -33.435   5.867   3.930  1.00 20.00    -0.099 C 
HETATM    3  C4  UNL     1     -34.564   3.740   4.373  1.00 20.00     0.038 C 
HETATM    4  C5  UNL     1     -35.882   5.827   3.851  1.00 20.00     0.038 C 
HETATM    5  C6  UNL     1     -34.640   5.264   4.557  1.00 20.00     0.091 C 
ENDROOT
BRANCH   5   6
HETATM    6  C3  UNL     1     -34.665   5.623   6.059  1.00 20.00     0.238 C 
HETATM    7  O7  UNL     1     -35.321   4.977   6.875  1.00 20.00    -0.278 OA
HETATM    8 CL8  UNL     1     -33.686   7.009   6.482  1.00 20.00    -0.042 Cl
ENDBRANCH   5   6
TORSDOF 1
ENDMDL
MODEL 7
REMARK VINA RESULT:      -3.8      1.528      1.529
REMARK  1 active torsions:
REMARK  status: ('A' for Active; 'I' for Inactive)
REMARK    1  A    between atoms: C3_3  and  C6_6 
ROOT
HETATM    1  C1  UNL     1     -34.594  16.537  -1.043  1.00 20.00     0.013 C 
HETATM    2  C2  UNL     1     -34.482  16.129  -2.167  1.00 20.00    -0.099 C 
HETATM    3  C4  UNL     1     -32.936  15.011  -3.702  1.00 20.00     0.038 C 
HETATM    4  C5  UNL     1     -34.499  16.815  -4.517  1.00 20.00     0.038 C 
HETATM    5  C6  UNL     1     -34.337  15.627  -3.558  1.00 20.00     0.091 C 
ENDROOT
BRANCH   5   6
HETATM    6  C3  UNL     1     -35.422  14.562  -3.830  1.00 20.00     0.238 C 
HETATM    7  O7  UNL     1     -36.596  14.726  -3.505  1.00 20.00    -0.278 OA
HETATM    8 CL8  UNL     1     -34.832  13.125  -4.634  1.00 20.00    -0.042 Cl
ENDBRANCH   5   6
TORSDOF 1
ENDMDL
MODEL 8
REMARK VINA RESULT:      -3.8     11.761     12.260
REMARK  1 active torsions:
REMARK  status: ('A' for Active; 'I' for Inactive)
REMARK    1  A    between atoms: C3_3  and  C6_6 
ROOT
HETATM    1  C1  UNL     1     -33.875   6.819   6.448  1.00 20.00     0.013 C 
HETATM    2  C2  UNL     1     -34.221   6.165   5.501  1.00 20.00    -0.099 C 
HETATM    3  C4  UNL     1     -36.053   5.836   3.911  1.00 20.00     0.038 C 
HETATM    4  C5  UNL     1     -34.704   3.882   4.762  1.00 20.00     0.038 C 
HETATM    5  C6  UNL     1     -34.656   5.356   4.333  1.00 20.00     0.091 C 
ENDROOT
BRANCH   5   6
HETATM    6  C3  UNL     1     -33.650   5.548   3.178  1.00 20.00     0.238 C 
HETATM    7  O7  UNL     1     -33.815   5.032   2.074  1.00 20.00    -0.278 OA
HETATM    8 CL8  UNL     1     -32.278   6.555   3.581  1.00 20.00    -0.042 Cl
ENDBRANCH   5   6
TORSDOF 1
ENDMDL
MODEL 9
REMARK VINA RESULT:      -3.8      2.499      3.438
REMARK  1 active torsions:
REMARK  status: ('A' for Active; 'I' for Inactive)
REMARK    1  A    between atoms: C3_3  and  C6_6 
ROOT
HETATM    1  C1  UNL     1     -34.749  14.712  -7.044  1.00 20.00     0.013 C 
HETATM    2  C2  UNL     1     -34.590  14.702  -5.853  1.00 20.00    -0.099 C 
HETATM    3  C4  UNL     1     -33.673  13.379  -4.008  1.00 20.00     0.038 C 
HETATM    4  C5  UNL     1     -35.778  14.738  -3.713  1.00 20.00     0.038 C 
HETATM    5  C6  UNL     1     -34.396  14.684  -4.380  1.00 20.00     0.091 C 
ENDROOT
BRANCH   5   6
HETATM    6  C3  UNL     1     -33.547  15.905  -3.964  1.00 20.00     0.238 C 
HETATM    7  O7  UNL     1     -32.801  16.482  -4.752  1.00 20.00    -0.278 OA
HETATM    8 CL8  UNL     1     -33.746  16.381  -2.293  1.00 20.00    -0.042 Cl
ENDBRANCH   5   6
TORSDOF 1
ENDMDL
