MODEL 1
REMARK VINA RESULT:      -4.2      0.000      0.000
REMARK  0 active torsions:
REMARK  status: ('A' for Active; 'I' for Inactive)
ROOT
HETATM    1  C1  UNL     1     -34.700  16.266  -1.538  1.00 20.00     0.029 C 
HETATM    2  C2  UNL     1     -35.713  15.947  -2.610  1.00 20.00     0.042 C 
HETATM    3  C3  UNL     1     -34.505  13.918  -3.624  1.00 20.00     0.070 C 
HETATM    4  C4  UNL     1     -34.654  13.381  -5.048  1.00 20.00     0.275 C 
HETATM    5  C5  UNL     1     -35.422  15.579  -5.125  1.00 20.00     0.309 C 
HETATM    6  C6  UNL     1     -33.542  16.800  -2.354  1.00 20.00     0.169 C 
HETATM    7  C7  UNL     1     -34.833  15.415  -3.730  1.00 20.00     0.089 C 
HETATM    8  C8  UNL     1     -35.247  14.329  -7.200  1.00 20.00     0.310 C 
HETATM    9  N9  UNL     1     -34.671  14.577  -5.888  1.00 20.00     0.087 N 
HETATM   10  O10 UNL     1     -33.598  16.156  -3.635  1.00 20.00    -0.378 OA
ENDROOT
TORSDOF 0
ENDMDL
MODEL 2
REMARK VINA RESULT:      -4.0      1.771      3.991
REMARK  0 active torsions:
REMARK  status: ('A' for Active; 'I' for Inactive)
ROOT
HETATM    1  C1  UNL     1     -35.062  14.161  -5.904  1.00 20.00     0.029 C 
HETATM    2  C2  UNL     1     -35.706  15.263  -5.099  1.00 20.00     0.042 C 
HETATM    3  C3  UNL     1     -33.585  16.105  -3.918  1.00 20.00     0.070 C 
HETATM    4  C4  UNL     1     -33.514  16.851  -2.585  1.00 20.00     0.275 C 
HETATM    5  C5  UNL     1     -35.589  15.792  -2.599  1.00 20.00     0.309 C 
HETATM    6  C6  UNL     1     -34.722  13.151  -4.829  1.00 20.00     0.169 C 
HETATM    7  C7  UNL     1     -34.867  15.263  -3.832  1.00 20.00     0.089 C 
HETATM    8  C8  UNL     1     -34.884  16.955  -0.586  1.00 20.00     0.310 C 
HETATM    9  N9  UNL     1     -34.468  16.152  -1.726  1.00 20.00     0.087 N 
HETATM   10  O10 UNL     1     -34.491  13.886  -3.619  1.00 20.00    -0.378 OA
ENDROOT
TORSDOF 0
ENDMDL
MODEL 3
REMARK VINA RESULT:      -3.9      1.376      1.739
REMARK  0 active torsions:
REMARK  status: ('A' for Active; 'I' for Inactive)
ROOT
HETATM    1  C1  UNL     1     -33.607  17.516  -0.873  1.00 20.00     0.029 C 
HETATM    2  C2  UNL     1     -34.646  16.504  -1.286  1.00 20.00     0.042 C 
HETATM    3  C3  UNL     1     -33.381  15.517  -3.293  1.00 20.00     0.070 C 
HETATM    4  C4  UNL     1     -33.992  14.812  -4.504  1.00 20.00     0.275 C 
HETATM    5  C5  UNL     1     -35.726  16.050  -3.560  1.00 20.00     0.309 C 
HETATM    6  C6  UNL     1     -33.697  18.528  -1.996  1.00 20.00     0.169 C 
HETATM    7  C7  UNL     1     -34.477  16.471  -2.796  1.00 20.00     0.089 C 
HETATM    8  C8  UNL     1     -36.123  14.897  -5.661  1.00 20.00     0.310 C 
HETATM    9  N9  UNL     1     -35.162  15.622  -4.844  1.00 20.00     0.087 N 
HETATM   10  O10 UNL     1     -34.111  17.816  -3.171  1.00 20.00    -0.378 OA
ENDROOT
TORSDOF 0
ENDMDL
MODEL 4
REMARK VINA RESULT:      -3.8      1.708      3.850
REMARK  0 active torsions:
REMARK  status: ('A' for Active; 'I' for Inactive)
ROOT
HETATM    1  C1  UNL     1     -34.761  13.171  -4.834  1.00 20.00     0.029 C 
HETATM    2  C2  UNL     1     -34.006  13.809  -3.694  1.00 20.00     0.042 C 
HETATM    3  C3  UNL     1     -35.788  15.541  -3.035  1.00 20.00     0.070 C 
HETATM    4  C4  UNL     1     -35.553  16.867  -2.313  1.00 20.00     0.275 C 
HETATM    5  C5  UNL     1     -33.486  16.266  -3.204  1.00 20.00     0.309 C 
HETATM    6  C6  UNL     1     -34.726  14.264  -5.880  1.00 20.00     0.169 C 
HETATM    7  C7  UNL     1     -34.472  15.254  -3.774  1.00 20.00     0.089 C 
HETATM    8  C8  UNL     1     -33.708  18.430  -2.124  1.00 20.00     0.310 C 
HETATM    9  N9  UNL     1     -34.355  17.418  -2.945  1.00 20.00     0.087 N 
HETATM   10  O10 UNL     1     -34.676  15.515  -5.179  1.00 20.00    -0.378 OA
ENDROOT
TORSDOF 0
ENDMDL
MODEL 5
REMARK VINA RESULT:      -3.8      1.792      2.609
REMARK  0 active torsions:
REMARK  status: ('A' for Active; 'I' for Inactive)
ROOT
HETATM    1  C1  UNL     1     -33.410  13.770  -3.799  1.00 20.00     0.029 C 
HETATM    2  C2  UNL     1     -34.862  13.480  -4.085  1.00 20.00     0.042 C 
HETATM    3  C3  UNL     1     -34.898  14.298  -6.521  1.00 20.00     0.070 C 
HETATM    4  C4  UNL     1     -36.115  14.792  -7.303  1.00 20.00     0.275 C 
HETATM    5  C5  UNL     1     -36.703  14.968  -5.056  1.00 20.00     0.309 C 
HETATM    6  C6  UNL     1     -33.398  15.283  -3.759  1.00 20.00     0.169 C 
HETATM    7  C7  UNL     1     -35.226  14.596  -5.050  1.00 20.00     0.089 C 
HETATM    8  C8  UNL     1     -38.229  15.836  -6.734  1.00 20.00     0.310 C 
HETATM    9  N9  UNL     1     -36.839  15.635  -6.354  1.00 20.00     0.087 N 
HETATM   10  O10 UNL     1     -34.441  15.735  -4.634  1.00 20.00    -0.378 OA
ENDROOT
TORSDOF 0
ENDMDL
MODEL 6
REMARK VINA RESULT:      -3.7      2.032      3.472
REMARK  0 active torsions:
REMARK  status: ('A' for Active; 'I' for Inactive)
ROOT
HETATM    1  C1  UNL     1     -34.781  13.343  -4.481  1.00 20.00     0.029 C 
HETATM    2  C2  UNL     1     -35.454  14.679  -4.282  1.00 20.00     0.042 C 
HETATM    3  C3  UNL     1     -33.986  16.040  -5.894  1.00 20.00     0.070 C 
HETATM    4  C4  UNL     1     -33.729  17.546  -5.848  1.00 20.00     0.275 C 
HETATM    5  C5  UNL     1     -34.474  16.974  -3.716  1.00 20.00     0.309 C 
HETATM    6  C6  UNL     1     -33.450  13.561  -3.793  1.00 20.00     0.169 C 
HETATM    7  C7  UNL     1     -34.292  15.647  -4.441  1.00 20.00     0.089 C 
HETATM    8  C8  UNL     1     -33.716  19.246  -4.117  1.00 20.00     0.310 C 
HETATM    9  N9  UNL     1     -33.528  17.837  -4.429  1.00 20.00     0.087 N 
HETATM   10  O10 UNL     1     -33.142  14.957  -3.907  1.00 20.00    -0.378 OA
ENDROOT
TORSDOF 0
ENDMDL
MODEL 7
REMARK VINA RESULT:      -3.7      2.459      2.689
REMARK  0 active torsions:
REMARK  status: ('A' for Active; 'I' for Inactive)
ROOT
HETATM    1  C1  UNL     1     -34.629  16.635  -0.723  1.00 20.00     0.029 C 
HETATM    2  C2  UNL     1     -35.358  16.778  -2.036  1.00 20.00     0.042 C 
HETATM    3  C3  UNL     1     -33.414  16.107  -3.578  1.00 20.00     0.070 C 
HETATM    4  C4  UNL     1     -33.231  16.499  -5.044  1.00 20.00     0.275 C 
HETATM    5  C5  UNL     1     -34.730  18.050  -4.165  1.00 20.00     0.309 C 
HETATM    6  C6  UNL     1     -33.674  17.808  -0.769  1.00 20.00     0.169 C 
HETATM    7  C7  UNL     1     -34.249  17.242  -2.967  1.00 20.00     0.089 C 
HETATM    8  C8  UNL     1     -33.931  18.357  -6.438  1.00 20.00     0.310 C 
HETATM    9  N9  UNL     1     -33.603  17.912  -5.092  1.00 20.00     0.087 N 
HETATM   10  O10 UNL     1     -33.379  18.056  -2.151  1.00 20.00    -0.378 OA
ENDROOT
TORSDOF 0
ENDMDL
MODEL 8
REMARK VINA RESULT:      -3.6      1.641      2.353
REMARK  0 active torsions:
REMARK  status: ('A' for Active; 'I' for Inactive)
ROOT
HETATM    1  C1  UNL     1     -34.220  18.228  -1.512  1.00 20.00     0.029 C 
HETATM    2  C2  UNL     1     -33.741  17.518  -2.753  1.00 20.00     0.042 C 
HETATM    3  C3  UNL     1     -35.969  16.407  -3.391  1.00 20.00     0.070 C 
HETATM    4  C4  UNL     1     -36.155  15.141  -4.227  1.00 20.00     0.275 C 
HETATM    5  C5  UNL     1     -33.955  15.069  -3.464  1.00 20.00     0.309 C 
HETATM    6  C6  UNL     1     -34.431  17.073  -0.556  1.00 20.00     0.169 C 
HETATM    7  C7  UNL     1     -34.585  16.253  -2.743  1.00 20.00     0.089 C 
HETATM    8  C8  UNL     1     -34.832  13.158  -4.680  1.00 20.00     0.310 C 
HETATM    9  N9  UNL     1     -35.123  14.227  -3.737  1.00 20.00     0.087 N 
HETATM   10  O10 UNL     1     -34.772  15.927  -1.349  1.00 20.00    -0.378 OA
ENDROOT
TORSDOF 0
ENDMDL
MODEL 9
REMARK VINA RESULT:      -3.6      2.460      3.469
REMARK  0 active torsions:
REMARK  status: ('A' for Active; 'I' for Inactive)
ROOT
HETATM    1  C1  UNL     1     -38.744  16.155  -4.414  1.00 20.00     0.029 C 
HETATM    2  C2  UNL     1     -37.309  16.480  -4.081  1.00 20.00     0.042 C 
HETATM    3  C3  UNL     1     -36.200  14.804  -5.684  1.00 20.00     0.070 C 
HETATM    4  C4  UNL     1     -34.806  14.194  -5.549  1.00 20.00     0.275 C 
HETATM    5  C5  UNL     1     -35.362  14.958  -3.420  1.00 20.00     0.309 C 
HETATM    6  C6  UNL     1     -38.901  14.781  -3.798  1.00 20.00     0.169 C 
HETATM    7  C7  UNL     1     -36.630  15.130  -4.245  1.00 20.00     0.089 C 
HETATM    8  C8  UNL     1     -33.305  13.698  -3.708  1.00 20.00     0.310 C 
HETATM    9  N9  UNL     1     -34.688  13.866  -4.129  1.00 20.00     0.087 N 
HETATM   10  O10 UNL     1     -37.611  14.154  -3.834  1.00 20.00    -0.378 OA
ENDROOT
TORSDOF 0
ENDMDL
