MODEL 1
REMARK VINA RESULT:      -4.3      0.000      0.000
REMARK  0 active torsions:
REMARK  status: ('A' for Active; 'I' for Inactive)
ROOT
HETATM    1  C1  UNL     1     -33.019   6.571   4.523  1.00 20.00     0.043 C 
HETATM    2  C2  UNL     1     -35.115   4.199   4.989  1.00 20.00     0.019 C 
HETATM    3  C3  UNL     1     -34.564   4.595   6.144  1.00 20.00     0.114 C 
HETATM    4  C4  UNL     1     -33.417   6.016   3.368  1.00 20.00     0.136 C 
HETATM    5  C5  UNL     1     -33.747   6.717   5.814  1.00 20.00     0.118 C 
HETATM    6  C6  UNL     1     -35.582   5.165   3.949  1.00 20.00     0.203 C 
HETATM    7  N7  UNL     1     -34.409   5.888   6.555  1.00 20.00    -0.273 NA
HETATM    8  O8  UNL     1     -34.559   5.374   2.984  1.00 20.00    -0.359 OA
ENDROOT
TORSDOF 0
ENDMDL
MODEL 2
REMARK VINA RESULT:      -4.1      1.876      2.584
REMARK  0 active torsions:
REMARK  status: ('A' for Active; 'I' for Inactive)
ROOT
HETATM    1  C1  UNL     1     -33.354   6.996   5.365  1.00 20.00     0.043 C 
HETATM    2  C2  UNL     1     -35.493   4.799   4.448  1.00 20.00     0.019 C 
HETATM    3  C3  UNL     1     -34.986   5.455   3.395  1.00 20.00     0.114 C 
HETATM    4  C4  UNL     1     -34.029   6.483   6.406  1.00 20.00     0.136 C 
HETATM    5  C5  UNL     1     -32.988   6.372   4.063  1.00 20.00     0.118 C 
HETATM    6  C6  UNL     1     -34.644   4.318   5.580  1.00 20.00     0.203 C 
HETATM    7  N7  UNL     1     -33.664   5.716   3.176  1.00 20.00    -0.273 NA
HETATM    8  O8  UNL     1     -34.636   5.281   6.627  1.00 20.00    -0.359 OA
ENDROOT
TORSDOF 0
ENDMDL
MODEL 3
REMARK VINA RESULT:      -3.7      0.796      2.334
REMARK  0 active torsions:
REMARK  status: ('A' for Active; 'I' for Inactive)
ROOT
HETATM    1  C1  UNL     1     -35.451   4.627   4.367  1.00 20.00     0.043 C 
HETATM    2  C2  UNL     1     -33.538   6.940   5.475  1.00 20.00     0.019 C 
HETATM    3  C3  UNL     1     -34.154   6.297   6.475  1.00 20.00     0.114 C 
HETATM    4  C4  UNL     1     -34.997   5.420   3.384  1.00 20.00     0.136 C 
HETATM    5  C5  UNL     1     -34.818   4.253   5.662  1.00 20.00     0.118 C 
HETATM    6  C6  UNL     1     -32.937   6.225   4.309  1.00 20.00     0.203 C 
HETATM    7  N7  UNL     1     -34.265   4.942   6.608  1.00 20.00    -0.273 NA
HETATM    8  O8  UNL     1     -33.869   6.173   3.235  1.00 20.00    -0.359 OA
ENDROOT
TORSDOF 0
ENDMDL
MODEL 4
REMARK VINA RESULT:      -3.7     12.256     13.098
REMARK  0 active torsions:
REMARK  status: ('A' for Active; 'I' for Inactive)
ROOT
HETATM    1  C1  UNL     1     -36.056  14.644  -3.729  1.00 20.00     0.043 C 
HETATM    2  C2  UNL     1     -32.885  15.066  -3.723  1.00 20.00     0.019 C 
HETATM    3  C3  UNL     1     -33.203  13.770  -3.615  1.00 20.00     0.114 C 
HETATM    4  C4  UNL     1     -35.721  15.938  -3.616  1.00 20.00     0.136 C 
HETATM    5  C5  UNL     1     -35.345  13.527  -4.412  1.00 20.00     0.118 C 
HETATM    6  C6  UNL     1     -33.572  15.986  -4.679  1.00 20.00     0.203 C 
HETATM    7  N7  UNL     1     -34.122  13.105  -4.376  1.00 20.00    -0.273 NA
HETATM    8  O8  UNL     1     -34.639  16.662  -4.025  1.00 20.00    -0.359 OA
ENDROOT
TORSDOF 0
ENDMDL
MODEL 5
REMARK VINA RESULT:      -3.6     12.545     13.586
REMARK  0 active torsions:
REMARK  status: ('A' for Active; 'I' for Inactive)
ROOT
HETATM    1  C1  UNL     1     -34.974  14.063  -5.940  1.00 20.00     0.043 C 
HETATM    2  C2  UNL     1     -33.126  15.404  -3.699  1.00 20.00     0.019 C 
HETATM    3  C3  UNL     1     -33.220  16.185  -4.783  1.00 20.00     0.114 C 
HETATM    4  C4  UNL     1     -34.690  13.210  -4.944  1.00 20.00     0.136 C 
HETATM    5  C5  UNL     1     -35.112  15.546  -5.919  1.00 20.00     0.118 C 
HETATM    6  C6  UNL     1     -34.306  14.703  -3.108  1.00 20.00     0.203 C 
HETATM    7  N7  UNL     1     -34.371  16.496  -5.447  1.00 20.00    -0.273 NA
HETATM    8  O8  UNL     1     -34.395  13.380  -3.623  1.00 20.00    -0.359 OA
ENDROOT
TORSDOF 0
ENDMDL
MODEL 6
REMARK VINA RESULT:      -3.6     12.387     13.371
REMARK  0 active torsions:
REMARK  status: ('A' for Active; 'I' for Inactive)
ROOT
HETATM    1  C1  UNL     1     -33.122  14.903  -3.705  1.00 20.00     0.043 C 
HETATM    2  C2  UNL     1     -35.071  14.376  -6.188  1.00 20.00     0.019 C 
HETATM    3  C3  UNL     1     -34.773  13.236  -5.552  1.00 20.00     0.114 C 
HETATM    4  C4  UNL     1     -33.257  15.991  -4.480  1.00 20.00     0.136 C 
HETATM    5  C5  UNL     1     -34.083  13.798  -3.434  1.00 20.00     0.118 C 
HETATM    6  C6  UNL     1     -35.416  15.635  -5.460  1.00 20.00     0.203 C 
HETATM    7  N7  UNL     1     -34.800  13.041  -4.202  1.00 20.00    -0.273 NA
HETATM    8  O8  UNL     1     -34.254  16.439  -5.298  1.00 20.00    -0.359 OA
ENDROOT
TORSDOF 0
ENDMDL
MODEL 7
REMARK VINA RESULT:      -3.6     12.484     13.466
REMARK  0 active torsions:
REMARK  status: ('A' for Active; 'I' for Inactive)
ROOT
HETATM    1  C1  UNL     1     -34.161  15.724  -6.216  1.00 20.00     0.043 C 
HETATM    2  C2  UNL     1     -33.484  13.752  -3.789  1.00 20.00     0.019 C 
HETATM    3  C3  UNL     1     -32.797  14.898  -3.691  1.00 20.00     0.114 C 
HETATM    4  C4  UNL     1     -34.666  14.496  -6.409  1.00 20.00     0.136 C 
HETATM    5  C5  UNL     1     -33.909  16.466  -4.949  1.00 20.00     0.118 C 
HETATM    6  C6  UNL     1     -34.931  13.711  -4.159  1.00 20.00     0.203 C 
HETATM    7  N7  UNL     1     -33.309  16.153  -3.845  1.00 20.00    -0.273 NA
HETATM    8  O8  UNL     1     -35.071  13.508  -5.559  1.00 20.00    -0.359 OA
ENDROOT
TORSDOF 0
ENDMDL
MODEL 8
REMARK VINA RESULT:      -3.6     12.690     13.649
REMARK  0 active torsions:
REMARK  status: ('A' for Active; 'I' for Inactive)
ROOT
HETATM    1  C1  UNL     1     -34.402  15.460  -6.305  1.00 20.00     0.043 C 
HETATM    2  C2  UNL     1     -34.319  15.096  -3.127  1.00 20.00     0.019 C 
HETATM    3  C3  UNL     1     -35.310  14.378  -3.673  1.00 20.00     0.114 C 
HETATM    4  C4  UNL     1     -33.566  16.330  -5.719  1.00 20.00     0.136 C 
HETATM    5  C5  UNL     1     -34.791  14.082  -5.892  1.00 20.00     0.118 C 
HETATM    6  C6  UNL     1     -32.949  15.157  -3.721  1.00 20.00     0.203 C 
HETATM    7  N7  UNL     1     -35.205  13.578  -4.774  1.00 20.00    -0.273 NA
HETATM    8  O8  UNL     1     -32.836  16.295  -4.567  1.00 20.00    -0.359 OA
ENDROOT
TORSDOF 0
ENDMDL
MODEL 9
REMARK VINA RESULT:      -3.5     12.209     12.970
REMARK  0 active torsions:
REMARK  status: ('A' for Active; 'I' for Inactive)
ROOT
HETATM    1  C1  UNL     1     -32.865  15.015  -3.768  1.00 20.00     0.043 C 
HETATM    2  C2  UNL     1     -36.051  14.843  -3.536  1.00 20.00     0.019 C 
HETATM    3  C3  UNL     1     -35.627  16.111  -3.474  1.00 20.00     0.114 C 
HETATM    4  C4  UNL     1     -33.291  13.753  -3.609  1.00 20.00     0.136 C 
HETATM    5  C5  UNL     1     -33.534  16.175  -4.420  1.00 20.00     0.118 C 
HETATM    6  C6  UNL     1     -35.506  13.860  -4.521  1.00 20.00     0.203 C 
HETATM    7  N7  UNL     1     -34.715  16.692  -4.308  1.00 20.00    -0.273 NA
HETATM    8  O8  UNL     1     -34.452  13.110  -3.929  1.00 20.00    -0.359 OA
ENDROOT
TORSDOF 0
ENDMDL
