MODEL 1
REMARK VINA RESULT:      -5.6      0.000      0.000
REMARK  2 active torsions:
REMARK  status: ('A' for Active; 'I' for Inactive)
REMARK    1  A    between atoms: C1_1  and  C2_2 
REMARK    2  A    between atoms: C1_1  and  C3_3 
ROOT
HETATM    1  C1  UNL     1     -33.811   5.596   5.184  1.00 20.00     0.348 C 
HETATM    2  F4  UNL     1     -33.895   6.567   6.143  1.00 20.00    -0.234 F 
ENDROOT
BRANCH   1   3
HETATM    3  C2  UNL     1     -35.051   4.736   5.331  1.00 20.00     0.423 C 
HETATM    4  F5  UNL     1     -36.019   5.083   4.459  1.00 20.00    -0.168 F 
HETATM    5  F6  UNL     1     -34.771   3.429   5.145  1.00 20.00    -0.168 F 
HETATM    6  F7  UNL     1     -35.567   4.872   6.575  1.00 20.00    -0.168 F 
ENDBRANCH   1   3
BRANCH   1   7
HETATM    7  C3  UNL     1     -33.663   6.289   3.829  1.00 20.00     0.294 C 
HETATM    8  F8  UNL     1     -34.548   7.321   3.762  1.00 20.00    -0.204 F 
HETATM    9 CL9  UNL     1     -34.043   5.146   2.510  1.00 20.00    -0.062 Cl
HETATM   10 CL10 UNL     1     -32.020   6.929   3.575  1.00 20.00    -0.062 Cl
ENDBRANCH   1   7
TORSDOF 2
ENDMDL
MODEL 2
REMARK VINA RESULT:      -5.1      2.431      3.547
REMARK  2 active torsions:
REMARK  status: ('A' for Active; 'I' for Inactive)
REMARK    1  A    between atoms: C1_1  and  C2_2 
REMARK    2  A    between atoms: C1_1  and  C3_3 
ROOT
HETATM    1  C1  UNL     1     -33.781   6.625   4.143  1.00 20.00     0.348 C 
HETATM    2  F4  UNL     1     -33.494   6.453   5.469  1.00 20.00    -0.234 F 
ENDROOT
BRANCH   1   3
HETATM    3  C2  UNL     1     -32.451   6.739   3.425  1.00 20.00     0.423 C 
HETATM    4  F5  UNL     1     -31.840   5.545   3.290  1.00 20.00    -0.168 F 
HETATM    5  F6  UNL     1     -32.598   7.274   2.195  1.00 20.00    -0.168 F 
HETATM    6  F7  UNL     1     -31.612   7.540   4.122  1.00 20.00    -0.168 F 
ENDBRANCH   1   3
BRANCH   1   7
HETATM    7  C3  UNL     1     -34.657   5.452   3.700  1.00 20.00     0.294 C 
HETATM    8  F8  UNL     1     -34.137   4.920   2.560  1.00 20.00    -0.204 F 
HETATM    9 CL9  UNL     1     -36.311   6.024   3.341  1.00 20.00    -0.062 Cl
HETATM   10 CL10 UNL     1     -34.750   4.174   4.936  1.00 20.00    -0.062 Cl
ENDBRANCH   1   7
TORSDOF 2
ENDMDL
MODEL 3
REMARK VINA RESULT:      -4.9      1.149      1.361
REMARK  2 active torsions:
REMARK  status: ('A' for Active; 'I' for Inactive)
REMARK    1  A    between atoms: C1_1  and  C2_2 
REMARK    2  A    between atoms: C1_1  and  C3_3 
ROOT
HETATM    1  C1  UNL     1     -33.851   5.473   4.969  1.00 20.00     0.348 C 
HETATM    2  F4  UNL     1     -33.921   6.534   5.828  1.00 20.00    -0.234 F 
ENDROOT
BRANCH   1   3
HETATM    3  C2  UNL     1     -35.133   4.685   5.151  1.00 20.00     0.423 C 
HETATM    4  F5  UNL     1     -36.133   5.152   4.377  1.00 20.00    -0.168 F 
HETATM    5  F6  UNL     1     -34.955   3.378   4.861  1.00 20.00    -0.168 F 
HETATM    6  F7  UNL     1     -35.550   4.766   6.436  1.00 20.00    -0.168 F 
ENDBRANCH   1   3
BRANCH   1   7
HETATM    7  C3  UNL     1     -33.627   6.026   3.561  1.00 20.00     0.294 C 
HETATM    8  F8  UNL     1     -34.192   5.179   2.659  1.00 20.00    -0.204 F 
HETATM    9 CL9  UNL     1     -31.877   6.121   3.211  1.00 20.00    -0.062 Cl
HETATM   10 CL10 UNL     1     -34.340   7.644   3.350  1.00 20.00    -0.062 Cl
ENDBRANCH   1   7
TORSDOF 2
ENDMDL
MODEL 4
REMARK VINA RESULT:      -4.9      1.370      2.193
REMARK  2 active torsions:
REMARK  status: ('A' for Active; 'I' for Inactive)
REMARK    1  A    between atoms: C1_1  and  C2_2 
REMARK    2  A    between atoms: C1_1  and  C3_3 
ROOT
HETATM    1  C1  UNL     1     -34.891   5.412   4.293  1.00 20.00     0.348 C 
HETATM    2  F4  UNL     1     -34.633   4.770   3.113  1.00 20.00    -0.234 F 
ENDROOT
BRANCH   1   3
HETATM    3  C2  UNL     1     -34.838   4.357   5.380  1.00 20.00     0.423 C 
HETATM    4  F5  UNL     1     -33.590   4.181   5.858  1.00 20.00    -0.168 F 
HETATM    5  F6  UNL     1     -35.641   4.675   6.417  1.00 20.00    -0.168 F 
HETATM    6  F7  UNL     1     -35.251   3.165   4.892  1.00 20.00    -0.168 F 
ENDBRANCH   1   3
BRANCH   1   7
HETATM    7  C3  UNL     1     -33.874   6.544   4.439  1.00 20.00     0.294 C 
HETATM    8  F8  UNL     1     -34.367   7.662   3.839  1.00 20.00    -0.204 F 
HETATM    9 CL9  UNL     1     -32.346   6.105   3.623  1.00 20.00    -0.062 Cl
HETATM   10 CL10 UNL     1     -33.523   6.920   6.144  1.00 20.00    -0.062 Cl
ENDBRANCH   1   7
TORSDOF 2
ENDMDL
MODEL 5
REMARK VINA RESULT:      -4.8      2.206      3.780
REMARK  2 active torsions:
REMARK  status: ('A' for Active; 'I' for Inactive)
REMARK    1  A    between atoms: C1_1  and  C2_2 
REMARK    2  A    between atoms: C1_1  and  C3_3 
ROOT
HETATM    1  C1  UNL     1     -33.451   5.420   3.629  1.00 20.00     0.348 C 
HETATM    2  F4  UNL     1     -33.990   5.012   2.441  1.00 20.00    -0.234 F 
ENDROOT
BRANCH   1   3
HETATM    3  C2  UNL     1     -32.843   6.786   3.381  1.00 20.00     0.423 C 
HETATM    4  F5  UNL     1     -33.780   7.750   3.281  1.00 20.00    -0.168 F 
HETATM    5  F6  UNL     1     -31.990   7.134   4.367  1.00 20.00    -0.168 F 
HETATM    6  F7  UNL     1     -32.148   6.782   2.220  1.00 20.00    -0.168 F 
ENDBRANCH   1   3
BRANCH   1   7
HETATM    7  C3  UNL     1     -34.561   5.387   4.681  1.00 20.00     0.294 C 
HETATM    8  F8  UNL     1     -35.707   5.872   4.128  1.00 20.00    -0.204 F 
HETATM    9 CL9  UNL     1     -34.127   6.434   6.063  1.00 20.00    -0.062 Cl
HETATM   10 CL10 UNL     1     -34.871   3.742   5.286  1.00 20.00    -0.062 Cl
ENDBRANCH   1   7
TORSDOF 2
ENDMDL
MODEL 6
REMARK VINA RESULT:      -4.8      2.351      3.500
REMARK  2 active torsions:
REMARK  status: ('A' for Active; 'I' for Inactive)
REMARK    1  A    between atoms: C1_1  and  C2_2 
REMARK    2  A    between atoms: C1_1  and  C3_3 
ROOT
HETATM    1  C1  UNL     1     -33.576   6.627   4.315  1.00 20.00     0.348 C 
HETATM    2  F4  UNL     1     -32.649   7.039   5.232  1.00 20.00    -0.234 F 
ENDROOT
BRANCH   1   3
HETATM    3  C2  UNL     1     -32.809   6.261   3.060  1.00 20.00     0.423 C 
HETATM    4  F5  UNL     1     -31.627   5.675   3.337  1.00 20.00    -0.168 F 
HETATM    5  F6  UNL     1     -33.517   5.422   2.275  1.00 20.00    -0.168 F 
HETATM    6  F7  UNL     1     -32.543   7.373   2.336  1.00 20.00    -0.168 F 
ENDBRANCH   1   3
BRANCH   1   7
HETATM    7  C3  UNL     1     -34.374   5.482   4.941  1.00 20.00     0.294 C 
HETATM    8  F8  UNL     1     -33.657   4.331   4.827  1.00 20.00    -0.204 F 
HETATM    9 CL9  UNL     1     -35.918   5.262   4.070  1.00 20.00    -0.062 Cl
HETATM   10 CL10 UNL     1     -34.726   5.767   6.663  1.00 20.00    -0.062 Cl
ENDBRANCH   1   7
TORSDOF 2
ENDMDL
MODEL 7
REMARK VINA RESULT:      -4.7      2.114      3.430
REMARK  2 active torsions:
REMARK  status: ('A' for Active; 'I' for Inactive)
REMARK    1  A    between atoms: C1_1  and  C2_2 
REMARK    2  A    between atoms: C1_1  and  C3_3 
ROOT
HETATM    1  C1  UNL     1     -34.888   4.908   4.444  1.00 20.00     0.348 C 
HETATM    2  F4  UNL     1     -36.168   5.335   4.223  1.00 20.00    -0.234 F 
ENDROOT
BRANCH   1   3
HETATM    3  C2  UNL     1     -33.989   5.779   3.589  1.00 20.00     0.423 C 
HETATM    4  F5  UNL     1     -34.360   7.074   3.615  1.00 20.00    -0.168 F 
HETATM    5  F6  UNL     1     -32.703   5.705   3.992  1.00 20.00    -0.168 F 
HETATM    6  F7  UNL     1     -34.038   5.374   2.299  1.00 20.00    -0.168 F 
ENDBRANCH   1   3
BRANCH   1   7
HETATM    7  C3  UNL     1     -34.624   4.985   5.948  1.00 20.00     0.294 C 
HETATM    8  F8  UNL     1     -35.785   4.736   6.613  1.00 20.00    -0.204 F 
HETATM    9 CL9  UNL     1     -34.072   6.626   6.390  1.00 20.00    -0.062 Cl
HETATM   10 CL10 UNL     1     -33.398   3.808   6.480  1.00 20.00    -0.062 Cl
ENDBRANCH   1   7
TORSDOF 2
ENDMDL
MODEL 8
REMARK VINA RESULT:      -4.7      2.255      2.913
REMARK  2 active torsions:
REMARK  status: ('A' for Active; 'I' for Inactive)
REMARK    1  A    between atoms: C1_1  and  C2_2 
REMARK    2  A    between atoms: C1_1  and  C3_3 
ROOT
HETATM    1  C1  UNL     1     -34.090   6.090   4.510  1.00 20.00     0.348 C 
HETATM    2  F4  UNL     1     -32.798   5.848   4.133  1.00 20.00    -0.234 F 
ENDROOT
BRANCH   1   3
HETATM    3  C2  UNL     1     -34.967   5.232   3.620  1.00 20.00     0.423 C 
HETATM    4  F5  UNL     1     -36.195   5.761   3.451  1.00 20.00    -0.168 F 
HETATM    5  F6  UNL     1     -34.415   5.060   2.400  1.00 20.00    -0.168 F 
HETATM    6  F7  UNL     1     -35.132   4.007   4.171  1.00 20.00    -0.168 F 
ENDBRANCH   1   3
BRANCH   1   7
HETATM    7  C3  UNL     1     -34.203   5.797   6.006  1.00 20.00     0.294 C 
HETATM    8  F8  UNL     1     -35.517   5.653   6.330  1.00 20.00    -0.204 F 
HETATM    9 CL9  UNL     1     -33.546   7.164   6.951  1.00 20.00    -0.062 Cl
HETATM   10 CL10 UNL     1     -33.335   4.313   6.470  1.00 20.00    -0.062 Cl
ENDBRANCH   1   7
TORSDOF 2
ENDMDL
MODEL 9
REMARK VINA RESULT:      -4.6      1.366      2.333
REMARK  2 active torsions:
REMARK  status: ('A' for Active; 'I' for Inactive)
REMARK    1  A    between atoms: C1_1  and  C2_2 
REMARK    2  A    between atoms: C1_1  and  C3_3 
ROOT
HETATM    1  C1  UNL     1     -33.950   5.740   4.885  1.00 20.00     0.348 C 
HETATM    2  F4  UNL     1     -34.013   7.091   4.683  1.00 20.00    -0.234 F 
ENDROOT
BRANCH   1   3
HETATM    3  C2  UNL     1     -34.408   5.496   6.310  1.00 20.00     0.423 C 
HETATM    4  F5  UNL     1     -35.688   5.077   6.369  1.00 20.00    -0.168 F 
HETATM    5  F6  UNL     1     -33.638   4.573   6.925  1.00 20.00    -0.168 F 
HETATM    6  F7  UNL     1     -34.328   6.640   7.027  1.00 20.00    -0.168 F 
ENDBRANCH   1   3
BRANCH   1   7
HETATM    7  C3  UNL     1     -34.802   5.067   3.808  1.00 20.00     0.294 C 
HETATM    8  F8  UNL     1     -35.068   3.788   4.191  1.00 20.00    -0.204 F 
HETATM    9 CL9  UNL     1     -33.903   5.007   2.265  1.00 20.00    -0.062 Cl
HETATM   10 CL10 UNL     1     -36.344   5.915   3.538  1.00 20.00    -0.062 Cl
ENDBRANCH   1   7
TORSDOF 2
ENDMDL
