MODEL 1
REMARK VINA RESULT:      -4.6      0.000      0.000
REMARK  2 active torsions:
REMARK  status: ('A' for Active; 'I' for Inactive)
REMARK    1  A    between atoms: C2_2  and  C5_5 
REMARK    2  A    between atoms: C5_5  and  C6_6 
ROOT
HETATM    1  C5  UNL     1     -34.763   5.345   3.832  1.00 20.00     0.042 C 
ENDROOT
BRANCH   1   2
HETATM    2  C2  UNL     1     -33.880   6.535   3.572  1.00 20.00    -0.030 C 
HETATM    3  C1  UNL     1     -32.666   6.454   3.007  1.00 20.00    -0.035 C 
HETATM    4  C3  UNL     1     -31.787   7.635   2.754  1.00 20.00     0.036 C 
ENDBRANCH   1   2
BRANCH   1   5
HETATM    5  C6  UNL     1     -35.091   5.161   5.316  1.00 20.00     0.057 C 
HETATM    6  C4  UNL     1     -34.747   3.759   5.798  1.00 20.00     0.022 C 
HETATM    7 BR7  UNL     1     -34.059   6.441   6.391  1.00 20.00    -0.091 Br
ENDBRANCH   1   5
TORSDOF 2
ENDMDL
MODEL 2
REMARK VINA RESULT:      -4.4      1.463      2.071
REMARK  2 active torsions:
REMARK  status: ('A' for Active; 'I' for Inactive)
REMARK    1  A    between atoms: C2_2  and  C5_5 
REMARK    2  A    between atoms: C5_5  and  C6_6 
ROOT
HETATM    1  C5  UNL     1     -32.725   6.577   4.105  1.00 20.00     0.042 C 
ENDROOT
BRANCH   1   2
HETATM    2  C2  UNL     1     -32.443   6.997   2.688  1.00 20.00    -0.030 C 
HETATM    3  C1  UNL     1     -32.136   8.253   2.328  1.00 20.00    -0.035 C 
HETATM    4  C3  UNL     1     -31.861   8.670   0.921  1.00 20.00     0.036 C 
ENDBRANCH   1   2
BRANCH   1   5
HETATM    5  C6  UNL     1     -34.207   6.279   4.352  1.00 20.00     0.057 C 
HETATM    6  C4  UNL     1     -34.770   5.325   3.309  1.00 20.00     0.022 C 
HETATM    7 BR7  UNL     1     -34.435   5.450   6.118  1.00 20.00    -0.091 Br
ENDBRANCH   1   5
TORSDOF 2
ENDMDL
MODEL 3
REMARK VINA RESULT:      -3.8      2.066      3.975
REMARK  2 active torsions:
REMARK  status: ('A' for Active; 'I' for Inactive)
REMARK    1  A    between atoms: C2_2  and  C5_5 
REMARK    2  A    between atoms: C5_5  and  C6_6 
ROOT
HETATM    1  C5  UNL     1     -33.970   6.986   3.681  1.00 20.00     0.042 C 
ENDROOT
BRANCH   1   2
HETATM    2  C2  UNL     1     -34.452   5.666   4.217  1.00 20.00    -0.030 C 
HETATM    3  C1  UNL     1     -34.582   5.393   5.524  1.00 20.00    -0.035 C 
HETATM    4  C3  UNL     1     -35.055   4.080   6.056  1.00 20.00     0.036 C 
ENDBRANCH   1   2
BRANCH   1   5
HETATM    5  C6  UNL     1     -32.469   6.994   3.381  1.00 20.00     0.057 C 
HETATM    6  C4  UNL     1     -31.982   5.632   2.907  1.00 20.00     0.022 C 
HETATM    7 BR7  UNL     1     -32.077   8.302   1.969  1.00 20.00    -0.091 Br
ENDBRANCH   1   5
TORSDOF 2
ENDMDL
MODEL 4
REMARK VINA RESULT:      -3.6     12.108     12.699
REMARK  2 active torsions:
REMARK  status: ('A' for Active; 'I' for Inactive)
REMARK    1  A    between atoms: C2_2  and  C5_5 
REMARK    2  A    between atoms: C5_5  and  C6_6 
ROOT
HETATM    1  C5  UNL     1     -34.563  15.634  -2.537  1.00 20.00     0.042 C 
ENDROOT
BRANCH   1   2
HETATM    2  C2  UNL     1     -34.119  16.705  -1.578  1.00 20.00    -0.030 C 
HETATM    3  C1  UNL     1     -34.698  16.930  -0.389  1.00 20.00    -0.035 C 
HETATM    4  C3  UNL     1     -34.261  17.996   0.559  1.00 20.00     0.036 C 
ENDBRANCH   1   2
BRANCH   1   5
HETATM    5  C6  UNL     1     -33.449  15.189  -3.488  1.00 20.00     0.057 C 
HETATM    6  C4  UNL     1     -33.686  13.780  -4.012  1.00 20.00     0.022 C 
HETATM    7 BR7  UNL     1     -33.365  16.402  -5.031  1.00 20.00    -0.091 Br
ENDBRANCH   1   5
TORSDOF 2
ENDMDL
MODEL 5
REMARK VINA RESULT:      -3.6     12.085     12.461
REMARK  2 active torsions:
REMARK  status: ('A' for Active; 'I' for Inactive)
REMARK    1  A    between atoms: C2_2  and  C5_5 
REMARK    2  A    between atoms: C5_5  and  C6_6 
ROOT
HETATM    1  C5  UNL     1     -34.936  15.416  -2.725  1.00 20.00     0.042 C 
ENDROOT
BRANCH   1   2
HETATM    2  C2  UNL     1     -34.281  16.479  -1.887  1.00 20.00    -0.030 C 
HETATM    3  C1  UNL     1     -34.683  16.807  -0.649  1.00 20.00    -0.035 C 
HETATM    4  C3  UNL     1     -34.036  17.866   0.181  1.00 20.00     0.036 C 
ENDBRANCH   1   2
BRANCH   1   5
HETATM    5  C6  UNL     1     -34.112  15.042  -3.960  1.00 20.00     0.057 C 
HETATM    6  C4  UNL     1     -32.638  14.867  -3.622  1.00 20.00     0.022 C 
HETATM    7 BR7  UNL     1     -34.765  13.348  -4.711  1.00 20.00    -0.091 Br
ENDBRANCH   1   5
TORSDOF 2
ENDMDL
MODEL 6
REMARK VINA RESULT:      -3.6     12.227     12.766
REMARK  2 active torsions:
REMARK  status: ('A' for Active; 'I' for Inactive)
REMARK    1  A    between atoms: C2_2  and  C5_5 
REMARK    2  A    between atoms: C5_5  and  C6_6 
ROOT
HETATM    1  C5  UNL     1     -33.528  15.426  -3.984  1.00 20.00     0.042 C 
ENDROOT
BRANCH   1   2
HETATM    2  C2  UNL     1     -34.257  15.636  -2.685  1.00 20.00    -0.030 C 
HETATM    3  C1  UNL     1     -33.975  16.623  -1.822  1.00 20.00    -0.035 C 
HETATM    4  C3  UNL     1     -34.695  16.828  -0.530  1.00 20.00     0.036 C 
ENDBRANCH   1   2
BRANCH   1   5
HETATM    5  C6  UNL     1     -34.092  14.259  -4.800  1.00 20.00     0.057 C 
HETATM    6  C4  UNL     1     -35.306  13.635  -4.126  1.00 20.00     0.022 C 
HETATM    7 BR7  UNL     1     -34.645  14.892  -6.576  1.00 20.00    -0.091 Br
ENDBRANCH   1   5
TORSDOF 2
ENDMDL
MODEL 7
REMARK VINA RESULT:      -3.5     11.586     12.435
REMARK  2 active torsions:
REMARK  status: ('A' for Active; 'I' for Inactive)
REMARK    1  A    between atoms: C2_2  and  C5_5 
REMARK    2  A    between atoms: C5_5  and  C6_6 
ROOT
HETATM    1  C5  UNL     1     -33.655  16.058  -3.175  1.00 20.00     0.042 C 
ENDROOT
BRANCH   1   2
HETATM    2  C2  UNL     1     -34.452  16.216  -1.909  1.00 20.00    -0.030 C 
HETATM    3  C1  UNL     1     -34.162  17.108  -0.950  1.00 20.00    -0.035 C 
HETATM    4  C3  UNL     1     -34.949  17.261   0.309  1.00 20.00     0.036 C 
ENDBRANCH   1   2
BRANCH   1   5
HETATM    5  C6  UNL     1     -34.203  14.957  -4.088  1.00 20.00     0.057 C 
HETATM    6  C4  UNL     1     -33.531  13.619  -3.820  1.00 20.00     0.022 C 
HETATM    7 BR7  UNL     1     -36.131  14.738  -3.786  1.00 20.00    -0.091 Br
ENDBRANCH   1   5
TORSDOF 2
ENDMDL
MODEL 8
REMARK VINA RESULT:      -3.5     12.183     13.120
REMARK  2 active torsions:
REMARK  status: ('A' for Active; 'I' for Inactive)
REMARK    1  A    between atoms: C2_2  and  C5_5 
REMARK    2  A    between atoms: C5_5  and  C6_6 
ROOT
HETATM    1  C5  UNL     1     -33.253  15.746  -4.155  1.00 20.00     0.042 C 
ENDROOT
BRANCH   1   2
HETATM    2  C2  UNL     1     -33.615  16.522  -2.919  1.00 20.00    -0.030 C 
HETATM    3  C1  UNL     1     -34.389  16.041  -1.935  1.00 20.00    -0.035 C 
HETATM    4  C3  UNL     1     -34.753  16.814  -0.710  1.00 20.00     0.036 C 
ENDBRANCH   1   2
BRANCH   1   5
HETATM    5  C6  UNL     1     -34.479  15.278  -4.944  1.00 20.00     0.057 C 
HETATM    6  C4  UNL     1     -34.284  15.457  -6.443  1.00 20.00     0.022 C 
HETATM    7 BR7  UNL     1     -34.808  13.373  -4.599  1.00 20.00    -0.091 Br
ENDBRANCH   1   5
TORSDOF 2
ENDMDL
MODEL 9
REMARK VINA RESULT:      -3.3      9.326     10.374
REMARK  2 active torsions:
REMARK  status: ('A' for Active; 'I' for Inactive)
REMARK    1  A    between atoms: C2_2  and  C5_5 
REMARK    2  A    between atoms: C5_5  and  C6_6 
ROOT
HETATM    1  C5  UNL     1     -40.710   4.573  -1.094  1.00 20.00     0.042 C 
ENDROOT
BRANCH   1   2
HETATM    2  C2  UNL     1     -41.810   4.246  -2.066  1.00 20.00    -0.030 C 
HETATM    3  C1  UNL     1     -41.863   3.112  -2.781  1.00 20.00    -0.035 C 
HETATM    4  C3  UNL     1     -42.952   2.790  -3.750  1.00 20.00     0.036 C 
ENDBRANCH   1   2
BRANCH   1   5
HETATM    5  C6  UNL     1     -41.072   5.725  -0.153  1.00 20.00     0.057 C 
HETATM    6  C4  UNL     1     -41.112   7.059  -0.885  1.00 20.00     0.022 C 
HETATM    7 BR7  UNL     1     -42.845   5.413   0.633  1.00 20.00    -0.091 Br
ENDBRANCH   1   5
TORSDOF 2
ENDMDL
