MODEL 1
REMARK VINA RESULT:      -3.9      0.000      0.000
REMARK  2 active torsions:
REMARK  status: ('A' for Active; 'I' for Inactive)
REMARK    1  A    between atoms: C1_1  and  C2_2 
REMARK    2  A    between atoms: C2_2  and  C3_3 
ROOT
HETATM    1  C2  UNL     1     -34.638  14.913  -4.487  1.00 20.00     0.205 C 
HETATM    2 CL7  UNL     1     -34.390  13.154  -4.837  1.00 20.00    -0.092 Cl
HETATM    3 CL8  UNL     1     -35.994  15.000  -3.294  1.00 20.00    -0.092 Cl
ENDROOT
BRANCH   1   4
HETATM    4  C1  UNL     1     -35.074  15.590  -5.798  1.00 20.00     0.164 C 
HETATM    5 CL6  UNL     1     -34.338  14.882  -7.260  1.00 20.00    -0.127 Cl
ENDBRANCH   1   4
BRANCH   1   6
HETATM    6  C3  UNL     1     -33.370  15.483  -3.827  1.00 20.00     0.355 C 
HETATM    7  F4  UNL     1     -32.476  14.490  -3.580  1.00 20.00    -0.184 F 
HETATM    8  F5  UNL     1     -32.748  16.335  -4.687  1.00 20.00    -0.184 F 
HETATM    9 CL9  UNL     1     -33.683  16.348  -2.305  1.00 20.00    -0.045 Cl
ENDBRANCH   1   6
TORSDOF 2
ENDMDL
MODEL 2
REMARK VINA RESULT:      -3.8      1.390      3.233
REMARK  2 active torsions:
REMARK  status: ('A' for Active; 'I' for Inactive)
REMARK    1  A    between atoms: C1_1  and  C2_2 
REMARK    2  A    between atoms: C2_2  and  C3_3 
ROOT
HETATM    1  C2  UNL     1     -34.176  14.805  -4.282  1.00 20.00     0.205 C 
HETATM    2 CL7  UNL     1     -34.582  13.150  -4.893  1.00 20.00    -0.092 Cl
HETATM    3 CL8  UNL     1     -32.533  14.676  -3.537  1.00 20.00    -0.092 Cl
ENDROOT
BRANCH   1   4
HETATM    4  C1  UNL     1     -35.199  15.162  -3.191  1.00 20.00     0.164 C 
HETATM    5 CL6  UNL     1     -34.511  16.070  -1.819  1.00 20.00    -0.127 Cl
ENDBRANCH   1   4
BRANCH   1   6
HETATM    6  C3  UNL     1     -34.097  15.779  -5.471  1.00 20.00     0.355 C 
HETATM    7  F4  UNL     1     -35.047  16.745  -5.358  1.00 20.00    -0.184 F 
HETATM    8  F5  UNL     1     -32.903  16.432  -5.452  1.00 20.00    -0.184 F 
HETATM    9 CL9  UNL     1     -34.284  14.992  -7.055  1.00 20.00    -0.045 Cl
ENDBRANCH   1   6
TORSDOF 2
ENDMDL
MODEL 3
REMARK VINA RESULT:      -3.8     11.817     12.680
REMARK  2 active torsions:
REMARK  status: ('A' for Active; 'I' for Inactive)
REMARK    1  A    between atoms: C1_1  and  C2_2 
REMARK    2  A    between atoms: C2_2  and  C3_3 
ROOT
HETATM    1  C2  UNL     1     -33.931   6.398   4.167  1.00 20.00     0.205 C 
HETATM    2 CL7  UNL     1     -34.633   7.976   3.624  1.00 20.00    -0.092 Cl
HETATM    3 CL8  UNL     1     -33.877   6.468   5.973  1.00 20.00    -0.092 Cl
ENDROOT
BRANCH   1   4
HETATM    4  C1  UNL     1     -32.496   6.315   3.621  1.00 20.00     0.164 C 
HETATM    5 CL6  UNL     1     -32.067   7.637   2.502  1.00 20.00    -0.127 Cl
ENDBRANCH   1   4
BRANCH   1   6
HETATM    6  C3  UNL     1     -34.874   5.255   3.751  1.00 20.00     0.355 C 
HETATM    7  F4  UNL     1     -36.110   5.739   3.463  1.00 20.00    -0.184 F 
HETATM    8  F5  UNL     1     -34.423   4.683   2.601  1.00 20.00    -0.184 F 
HETATM    9 CL9  UNL     1     -35.042   3.983   4.983  1.00 20.00    -0.045 Cl
ENDBRANCH   1   6
TORSDOF 2
ENDMDL
MODEL 4
REMARK VINA RESULT:      -3.8      2.094      2.589
REMARK  2 active torsions:
REMARK  status: ('A' for Active; 'I' for Inactive)
REMARK    1  A    between atoms: C1_1  and  C2_2 
REMARK    2  A    between atoms: C2_2  and  C3_3 
ROOT
HETATM    1  C2  UNL     1     -35.206  15.215  -3.953  1.00 20.00     0.205 C 
HETATM    2 CL7  UNL     1     -36.980  14.916  -3.751  1.00 20.00    -0.092 Cl
HETATM    3 CL8  UNL     1     -34.586  15.680  -2.319  1.00 20.00    -0.092 Cl
ENDROOT
BRANCH   1   4
HETATM    4  C1  UNL     1     -35.042  16.406  -4.914  1.00 20.00     0.164 C 
HETATM    5 CL6  UNL     1     -33.350  16.911  -5.161  1.00 20.00    -0.127 Cl
ENDBRANCH   1   4
BRANCH   1   6
HETATM    6  C3  UNL     1     -34.517  13.908  -4.383  1.00 20.00     0.355 C 
HETATM    7  F4  UNL     1     -35.311  12.840  -4.106  1.00 20.00    -0.184 F 
HETATM    8  F5  UNL     1     -34.345  13.900  -5.733  1.00 20.00    -0.184 F 
HETATM    9 CL9  UNL     1     -32.935  13.646  -3.612  1.00 20.00    -0.045 Cl
ENDBRANCH   1   6
TORSDOF 2
ENDMDL
MODEL 5
REMARK VINA RESULT:      -3.8      2.048      3.595
REMARK  2 active torsions:
REMARK  status: ('A' for Active; 'I' for Inactive)
REMARK    1  A    between atoms: C1_1  and  C2_2 
REMARK    2  A    between atoms: C2_2  and  C3_3 
ROOT
HETATM    1  C2  UNL     1     -34.445  15.140  -4.176  1.00 20.00     0.205 C 
HETATM    2 CL7  UNL     1     -32.761  14.990  -3.529  1.00 20.00    -0.092 Cl
HETATM    3 CL8  UNL     1     -34.393  16.466  -5.406  1.00 20.00    -0.092 Cl
ENDROOT
BRANCH   1   4
HETATM    4  C1  UNL     1     -35.354  15.567  -3.011  1.00 20.00     0.164 C 
HETATM    5 CL6  UNL     1     -34.471  16.174  -1.586  1.00 20.00    -0.127 Cl
ENDBRANCH   1   4
BRANCH   1   6
HETATM    6  C3  UNL     1     -34.834  13.831  -4.885  1.00 20.00     0.355 C 
HETATM    7  F4  UNL     1     -33.828  12.922  -4.790  1.00 20.00    -0.184 F 
HETATM    8  F5  UNL     1     -35.902  13.268  -4.257  1.00 20.00    -0.184 F 
HETATM    9 CL9  UNL     1     -35.239  14.042  -6.604  1.00 20.00    -0.045 Cl
ENDBRANCH   1   6
TORSDOF 2
ENDMDL
MODEL 6
REMARK VINA RESULT:      -3.7      0.771      1.990
REMARK  2 active torsions:
REMARK  status: ('A' for Active; 'I' for Inactive)
REMARK    1  A    between atoms: C1_1  and  C2_2 
REMARK    2  A    between atoms: C2_2  and  C3_3 
ROOT
HETATM    1  C2  UNL     1     -34.643  14.911  -4.708  1.00 20.00     0.205 C 
HETATM    2 CL7  UNL     1     -34.295  14.944  -6.484  1.00 20.00    -0.092 Cl
HETATM    3 CL8  UNL     1     -34.997  13.185  -4.299  1.00 20.00    -0.092 Cl
ENDROOT
BRANCH   1   4
HETATM    4  C1  UNL     1     -35.904  15.757  -4.466  1.00 20.00     0.164 C 
HETATM    5 CL6  UNL     1     -37.193  14.901  -3.580  1.00 20.00    -0.127 Cl
ENDBRANCH   1   4
BRANCH   1   6
HETATM    6  C3  UNL     1     -33.385  15.346  -3.936  1.00 20.00     0.355 C 
HETATM    7  F4  UNL     1     -32.604  14.270  -3.653  1.00 20.00    -0.184 F 
HETATM    8  F5  UNL     1     -32.623  16.159  -4.719  1.00 20.00    -0.184 F 
HETATM    9 CL9  UNL     1     -33.737  16.199  -2.416  1.00 20.00    -0.045 Cl
ENDBRANCH   1   6
TORSDOF 2
ENDMDL
MODEL 7
REMARK VINA RESULT:      -3.7      1.525      2.083
REMARK  2 active torsions:
REMARK  status: ('A' for Active; 'I' for Inactive)
REMARK    1  A    between atoms: C1_1  and  C2_2 
REMARK    2  A    between atoms: C2_2  and  C3_3 
ROOT
HETATM    1  C2  UNL     1     -34.447  15.430  -4.718  1.00 20.00     0.205 C 
HETATM    2 CL7  UNL     1     -36.007  16.321  -4.497  1.00 20.00    -0.092 Cl
HETATM    3 CL8  UNL     1     -33.271  16.634  -5.380  1.00 20.00    -0.092 Cl
ENDROOT
BRANCH   1   4
HETATM    4  C1  UNL     1     -34.685  14.328  -5.764  1.00 20.00     0.164 C 
HETATM    5 CL6  UNL     1     -34.493  14.874  -7.450  1.00 20.00    -0.127 Cl
ENDBRANCH   1   4
BRANCH   1   6
HETATM    6  C3  UNL     1     -33.937  14.953  -3.346  1.00 20.00     0.355 C 
HETATM    7  F4  UNL     1     -34.262  13.649  -3.145  1.00 20.00    -0.184 F 
HETATM    8  F5  UNL     1     -32.577  15.003  -3.319  1.00 20.00    -0.184 F 
HETATM    9 CL9  UNL     1     -34.562  15.905  -1.980  1.00 20.00    -0.045 Cl
ENDBRANCH   1   6
TORSDOF 2
ENDMDL
MODEL 8
REMARK VINA RESULT:      -3.7      1.388      2.403
REMARK  2 active torsions:
REMARK  status: ('A' for Active; 'I' for Inactive)
REMARK    1  A    between atoms: C1_1  and  C2_2 
REMARK    2  A    between atoms: C2_2  and  C3_3 
ROOT
HETATM    1  C2  UNL     1     -34.671  15.261  -4.687  1.00 20.00     0.205 C 
HETATM    2 CL7  UNL     1     -33.651  16.401  -5.656  1.00 20.00    -0.092 Cl
HETATM    3 CL8  UNL     1     -34.815  13.753  -5.675  1.00 20.00    -0.092 Cl
ENDROOT
BRANCH   1   4
HETATM    4  C1  UNL     1     -36.062  15.899  -4.533  1.00 20.00     0.164 C 
HETATM    5 CL6  UNL     1     -37.292  14.802  -3.854  1.00 20.00    -0.127 Cl
ENDBRANCH   1   4
BRANCH   1   6
HETATM    6  C3  UNL     1     -33.941  14.918  -3.376  1.00 20.00     0.355 C 
HETATM    7  F4  UNL     1     -34.119  13.608  -3.062  1.00 20.00    -0.184 F 
HETATM    8  F5  UNL     1     -32.600  15.079  -3.540  1.00 20.00    -0.184 F 
HETATM    9 CL9  UNL     1     -34.461  15.902  -1.989  1.00 20.00    -0.045 Cl
ENDBRANCH   1   6
TORSDOF 2
ENDMDL
MODEL 9
REMARK VINA RESULT:      -3.7      2.040      3.551
REMARK  2 active torsions:
REMARK  status: ('A' for Active; 'I' for Inactive)
REMARK    1  A    between atoms: C1_1  and  C2_2 
REMARK    2  A    between atoms: C2_2  and  C3_3 
ROOT
HETATM    1  C2  UNL     1     -34.441  15.932  -3.851  1.00 20.00     0.205 C 
HETATM    2 CL7  UNL     1     -33.352  16.289  -5.251  1.00 20.00    -0.092 Cl
HETATM    3 CL8  UNL     1     -35.867  17.030  -4.032  1.00 20.00    -0.092 Cl
ENDROOT
BRANCH   1   4
HETATM    4  C1  UNL     1     -33.681  16.299  -2.565  1.00 20.00     0.164 C 
HETATM    5 CL6  UNL     1     -34.707  16.360  -1.107  1.00 20.00    -0.127 Cl
ENDBRANCH   1   4
BRANCH   1   6
HETATM    6  C3  UNL     1     -34.932  14.476  -3.947  1.00 20.00     0.355 C 
HETATM    7  F4  UNL     1     -34.196  13.672  -3.135  1.00 20.00    -0.184 F 
HETATM    8  F5  UNL     1     -36.211  14.391  -3.491  1.00 20.00    -0.184 F 
HETATM    9 CL9  UNL     1     -34.876  13.811  -5.596  1.00 20.00    -0.045 Cl
ENDBRANCH   1   6
TORSDOF 2
ENDMDL
