MODEL 1
REMARK VINA RESULT:      -4.9      0.000      0.000
REMARK  4 active torsions:
REMARK  status: ('A' for Active; 'I' for Inactive)
REMARK    1  A    between atoms: C2_2  and  C9_9 
REMARK    2  A    between atoms: C7_7  and  C8_8 
REMARK    3  A    between atoms: C8_8  and  C9_9 
REMARK    4  A    between atoms: C9_9  and  O11_11 
ROOT
HETATM    1  C3  UNL     1     -33.328   6.365   5.377  1.00 20.00     0.031 C 
HETATM    2  C4  UNL     1     -34.555   4.932   3.724  1.00 20.00     0.031 C 
HETATM    3  C5  UNL     1     -34.424   6.025   6.379  1.00 20.00     0.168 C 
HETATM    4  C6  UNL     1     -35.583   4.672   4.819  1.00 20.00     0.168 C 
HETATM    5  C7  UNL     1     -33.860   6.280   3.942  1.00 20.00    -0.008 C 
HETATM    6  O10 UNL     1     -34.976   4.737   6.108  1.00 20.00    -0.391 OA
ENDROOT
BRANCH   5   7
HETATM    7  C8  UNL     1     -32.742   6.495   2.926  1.00 20.00     0.040 C 
BRANCH   7   8
HETATM    8  C9  UNL     1     -32.205   7.928   2.909  1.00 20.00     0.140 C 
BRANCH   8   9
HETATM    9  C2  UNL     1     -31.875   8.412   1.526  1.00 20.00    -0.006 C 
HETATM   10  C1  UNL     1     -32.326   9.562   1.010  1.00 20.00     0.009 C 
ENDBRANCH   8   9
BRANCH   8  11
HETATM   11  O11 UNL     1     -30.999   7.967   3.671  1.00 20.00    -0.392 OA
HETATM   12  H27 UNL     1     -30.602   7.085   3.601  1.00 20.00     0.210 HD
ENDBRANCH   8  11
ENDBRANCH   7   8
ENDBRANCH   5   7
TORSDOF 4
ENDMDL
MODEL 2
REMARK VINA RESULT:      -4.8      0.521      1.530
REMARK  4 active torsions:
REMARK  status: ('A' for Active; 'I' for Inactive)
REMARK    1  A    between atoms: C2_2  and  C9_9 
REMARK    2  A    between atoms: C7_7  and  C8_8 
REMARK    3  A    between atoms: C8_8  and  C9_9 
REMARK    4  A    between atoms: C9_9  and  O11_11 
ROOT
HETATM    1  C3  UNL     1     -34.690   4.759   3.962  1.00 20.00     0.031 C 
HETATM    2  C4  UNL     1     -33.799   6.728   5.236  1.00 20.00     0.031 C 
HETATM    3  C5  UNL     1     -35.060   4.145   5.307  1.00 20.00     0.168 C 
HETATM    4  C6  UNL     1     -34.218   6.004   6.510  1.00 20.00     0.168 C 
HETATM    5  C7  UNL     1     -33.510   5.725   4.113  1.00 20.00    -0.008 C 
HETATM    6  O10 UNL     1     -35.345   5.163   6.266  1.00 20.00    -0.391 OA
ENDROOT
BRANCH   5   7
HETATM    7  C8  UNL     1     -33.211   6.441   2.799  1.00 20.00     0.040 C 
BRANCH   7   8
HETATM    8  C9  UNL     1     -32.371   7.708   2.976  1.00 20.00     0.140 C 
BRANCH   8   9
HETATM    9  C2  UNL     1     -32.004   8.352   1.671  1.00 20.00    -0.006 C 
HETATM   10  C1  UNL     1     -32.381   9.586   1.314  1.00 20.00     0.009 C 
ENDBRANCH   8   9
BRANCH   8  11
HETATM   11  O11 UNL     1     -31.154   7.355   3.633  1.00 20.00    -0.392 OA
HETATM   12  H27 UNL     1     -30.687   6.750   3.037  1.00 20.00     0.210 HD
ENDBRANCH   8  11
ENDBRANCH   7   8
ENDBRANCH   5   7
TORSDOF 4
ENDMDL
MODEL 3
REMARK VINA RESULT:      -4.6     10.978     12.492
REMARK  4 active torsions:
REMARK  status: ('A' for Active; 'I' for Inactive)
REMARK    1  A    between atoms: C2_2  and  C9_9 
REMARK    2  A    between atoms: C7_7  and  C8_8 
REMARK    3  A    between atoms: C8_8  and  C9_9 
REMARK    4  A    between atoms: C9_9  and  O11_11 
ROOT
HETATM    1  C3  UNL     1     -33.298  16.626  -4.324  1.00 20.00     0.031 C 
HETATM    2  C4  UNL     1     -34.402  15.910  -2.189  1.00 20.00     0.031 C 
HETATM    3  C5  UNL     1     -33.785  18.037  -4.022  1.00 20.00     0.168 C 
HETATM    4  C6  UNL     1     -34.829  17.362  -2.005  1.00 20.00     0.168 C 
HETATM    5  C7  UNL     1     -34.216  15.584  -3.675  1.00 20.00    -0.008 C 
HETATM    6  O10 UNL     1     -33.888  18.246  -2.613  1.00 20.00    -0.391 OA
ENDROOT
BRANCH   5   7
HETATM    7  C8  UNL     1     -33.669  14.172  -3.864  1.00 20.00     0.040 C 
BRANCH   7   8
HETATM    8  C9  UNL     1     -34.479  13.337  -4.859  1.00 20.00     0.140 C 
BRANCH   8   9
HETATM    9  C2  UNL     1     -35.280  14.177  -5.811  1.00 20.00    -0.006 C 
HETATM   10  C1  UNL     1     -34.889  14.475  -7.055  1.00 20.00     0.009 C 
ENDBRANCH   8   9
BRANCH   8  11
HETATM   11  O11 UNL     1     -35.400  12.529  -4.126  1.00 20.00    -0.392 OA
HETATM   12  H27 UNL     1     -36.165  12.392  -4.706  1.00 20.00     0.210 HD
ENDBRANCH   8  11
ENDBRANCH   7   8
ENDBRANCH   5   7
TORSDOF 4
ENDMDL
MODEL 4
REMARK VINA RESULT:      -4.6     11.156     12.458
REMARK  4 active torsions:
REMARK  status: ('A' for Active; 'I' for Inactive)
REMARK    1  A    between atoms: C2_2  and  C9_9 
REMARK    2  A    between atoms: C7_7  and  C8_8 
REMARK    3  A    between atoms: C8_8  and  C9_9 
REMARK    4  A    between atoms: C9_9  and  O11_11 
ROOT
HETATM    1  C3  UNL     1     -34.550  16.259  -1.532  1.00 20.00     0.031 C 
HETATM    2  C4  UNL     1     -34.624  17.232  -3.843  1.00 20.00     0.031 C 
HETATM    3  C5  UNL     1     -33.704  17.461  -1.129  1.00 20.00     0.168 C 
HETATM    4  C6  UNL     1     -33.774  18.379  -3.312  1.00 20.00     0.168 C 
HETATM    5  C7  UNL     1     -34.387  15.957  -3.026  1.00 20.00    -0.008 C 
HETATM    6  O10 UNL     1     -34.031  18.600  -1.926  1.00 20.00    -0.391 OA
ENDROOT
BRANCH   5   7
HETATM    7  C8  UNL     1     -35.324  14.837  -3.467  1.00 20.00     0.040 C 
BRANCH   7   8
HETATM    8  C9  UNL     1     -34.699  13.895  -4.500  1.00 20.00     0.140 C 
BRANCH   8   9
HETATM    9  C2  UNL     1     -35.149  14.186  -5.903  1.00 20.00    -0.006 C 
HETATM   10  C1  UNL     1     -34.439  14.904  -6.781  1.00 20.00     0.009 C 
ENDBRANCH   8   9
BRANCH   8  11
HETATM   11  O11 UNL     1     -35.099  12.559  -4.194  1.00 20.00    -0.392 OA
HETATM   12  H27 UNL     1     -34.282  12.044  -4.101  1.00 20.00     0.210 HD
ENDBRANCH   8  11
ENDBRANCH   7   8
ENDBRANCH   5   7
TORSDOF 4
ENDMDL
MODEL 5
REMARK VINA RESULT:      -4.3     11.470     13.374
REMARK  4 active torsions:
REMARK  status: ('A' for Active; 'I' for Inactive)
REMARK    1  A    between atoms: C2_2  and  C9_9 
REMARK    2  A    between atoms: C7_7  and  C8_8 
REMARK    3  A    between atoms: C8_8  and  C9_9 
REMARK    4  A    between atoms: C9_9  and  O11_11 
ROOT
HETATM    1  C3  UNL     1     -35.778  16.620  -5.651  1.00 20.00     0.031 C 
HETATM    2  C4  UNL     1     -34.404  14.797  -6.689  1.00 20.00     0.031 C 
HETATM    3  C5  UNL     1     -36.860  16.291  -6.673  1.00 20.00     0.168 C 
HETATM    4  C6  UNL     1     -35.561  14.569  -7.653  1.00 20.00     0.168 C 
HETATM    5  C7  UNL     1     -34.393  16.245  -6.187  1.00 20.00    -0.008 C 
HETATM    6  O10 UNL     1     -36.804  14.913  -7.042  1.00 20.00    -0.391 OA
ENDROOT
BRANCH   5   7
HETATM    7  C8  UNL     1     -33.316  16.452  -5.126  1.00 20.00     0.040 C 
BRANCH   7   8
HETATM    8  C9  UNL     1     -33.431  15.483  -3.947  1.00 20.00     0.140 C 
BRANCH   8   9
HETATM    9  C2  UNL     1     -33.647  16.181  -2.636  1.00 20.00    -0.006 C 
HETATM   10  C1  UNL     1     -34.771  16.088  -1.917  1.00 20.00     0.009 C 
ENDBRANCH   8   9
BRANCH   8  11
HETATM   11  O11 UNL     1     -32.210  14.751  -3.843  1.00 20.00    -0.392 OA
HETATM   12  H27 UNL     1     -32.345  14.091  -3.146  1.00 20.00     0.210 HD
ENDBRANCH   8  11
ENDBRANCH   7   8
ENDBRANCH   5   7
TORSDOF 4
ENDMDL
MODEL 6
REMARK VINA RESULT:      -4.3     11.644     12.499
REMARK  4 active torsions:
REMARK  status: ('A' for Active; 'I' for Inactive)
REMARK    1  A    between atoms: C2_2  and  C9_9 
REMARK    2  A    between atoms: C7_7  and  C8_8 
REMARK    3  A    between atoms: C8_8  and  C9_9 
REMARK    4  A    between atoms: C9_9  and  O11_11 
ROOT
HETATM    1  C3  UNL     1     -34.742  16.508  -0.904  1.00 20.00     0.031 C 
HETATM    2  C4  UNL     1     -33.889  17.984  -2.744  1.00 20.00     0.031 C 
HETATM    3  C5  UNL     1     -34.617  17.711   0.023  1.00 20.00     0.168 C 
HETATM    4  C6  UNL     1     -33.811  19.104  -1.715  1.00 20.00     0.168 C 
HETATM    5  C7  UNL     1     -33.750  16.616  -2.068  1.00 20.00    -0.008 C 
HETATM    6  O10 UNL     1     -34.799  18.928  -0.700  1.00 20.00    -0.391 OA
ENDROOT
BRANCH   5   7
HETATM    7  C8  UNL     1     -33.952  15.482  -3.070  1.00 20.00     0.040 C 
BRANCH   7   8
HETATM    8  C9  UNL     1     -33.754  15.917  -4.525  1.00 20.00     0.140 C 
BRANCH   8   9
HETATM    9  C2  UNL     1     -34.521  15.069  -5.497  1.00 20.00    -0.006 C 
HETATM   10  C1  UNL     1     -34.759  13.764  -5.324  1.00 20.00     0.009 C 
ENDBRANCH   8   9
BRANCH   8  11
HETATM   11  O11 UNL     1     -32.370  15.790  -4.850  1.00 20.00    -0.392 OA
HETATM   12  H27 UNL     1     -31.930  16.572  -4.482  1.00 20.00     0.210 HD
ENDBRANCH   8  11
ENDBRANCH   7   8
ENDBRANCH   5   7
TORSDOF 4
ENDMDL
MODEL 7
REMARK VINA RESULT:      -4.3     11.401     12.294
REMARK  4 active torsions:
REMARK  status: ('A' for Active; 'I' for Inactive)
REMARK    1  A    between atoms: C2_2  and  C9_9 
REMARK    2  A    between atoms: C7_7  and  C8_8 
REMARK    3  A    between atoms: C8_8  and  C9_9 
REMARK    4  A    between atoms: C9_9  and  O11_11 
ROOT
HETATM    1  C3  UNL     1     -35.531  17.306  -2.962  1.00 20.00     0.031 C 
HETATM    2  C4  UNL     1     -34.313  16.861  -0.815  1.00 20.00     0.031 C 
HETATM    3  C5  UNL     1     -36.556  18.077  -2.140  1.00 20.00     0.168 C 
HETATM    4  C6  UNL     1     -35.406  17.657  -0.112  1.00 20.00     0.168 C 
HETATM    5  C7  UNL     1     -34.846  16.234  -2.108  1.00 20.00    -0.008 C 
HETATM    6  O10 UNL     1     -35.948  18.650  -0.982  1.00 20.00    -0.391 OA
ENDROOT
BRANCH   5   7
HETATM    7  C8  UNL     1     -33.730  15.540  -2.884  1.00 20.00     0.040 C 
BRANCH   7   8
HETATM    8  C9  UNL     1     -33.872  15.677  -4.402  1.00 20.00     0.140 C 
BRANCH   8   9
HETATM    9  C2  UNL     1     -34.379  14.424  -5.057  1.00 20.00    -0.006 C 
HETATM   10  C1  UNL     1     -34.808  13.351  -4.382  1.00 20.00     0.009 C 
ENDBRANCH   8   9
BRANCH   8  11
HETATM   11  O11 UNL     1     -32.584  15.952  -4.953  1.00 20.00    -0.392 OA
HETATM   12  H27 UNL     1     -32.230  16.707  -4.458  1.00 20.00     0.210 HD
ENDBRANCH   8  11
ENDBRANCH   7   8
ENDBRANCH   5   7
TORSDOF 4
ENDMDL
MODEL 8
REMARK VINA RESULT:      -4.2     10.800     11.779
REMARK  4 active torsions:
REMARK  status: ('A' for Active; 'I' for Inactive)
REMARK    1  A    between atoms: C2_2  and  C9_9 
REMARK    2  A    between atoms: C7_7  and  C8_8 
REMARK    3  A    between atoms: C8_8  and  C9_9 
REMARK    4  A    between atoms: C9_9  and  O11_11 
ROOT
HETATM    1  C3  UNL     1     -35.984  15.042  -3.473  1.00 20.00     0.031 C 
HETATM    2  C4  UNL     1     -33.493  15.114  -3.194  1.00 20.00     0.031 C 
HETATM    3  C5  UNL     1     -35.790  13.743  -4.246  1.00 20.00     0.168 C 
HETATM    4  C6  UNL     1     -33.437  13.811  -3.983  1.00 20.00     0.168 C 
HETATM    5  C7  UNL     1     -34.736  15.925  -3.574  1.00 20.00    -0.008 C 
HETATM    6  O10 UNL     1     -34.629  13.051  -3.788  1.00 20.00    -0.391 OA
ENDROOT
BRANCH   5   7
HETATM    7  C8  UNL     1     -34.870  17.170  -2.701  1.00 20.00     0.040 C 
BRANCH   7   8
HETATM    8  C9  UNL     1     -33.984  17.133  -1.453  1.00 20.00     0.140 C 
BRANCH   8   9
HETATM    9  C2  UNL     1     -34.769  16.960  -0.185  1.00 20.00    -0.006 C 
HETATM   10  C1  UNL     1     -34.809  17.867   0.798  1.00 20.00     0.009 C 
ENDBRANCH   8   9
BRANCH   8  11
HETATM   11  O11 UNL     1     -33.289  18.376  -1.356  1.00 20.00    -0.392 OA
HETATM   12  H27 UNL     1     -33.089  18.649  -2.264  1.00 20.00     0.210 HD
ENDBRANCH   8  11
ENDBRANCH   7   8
ENDBRANCH   5   7
TORSDOF 4
ENDMDL
MODEL 9
REMARK VINA RESULT:      -4.2     10.897     12.251
REMARK  4 active torsions:
REMARK  status: ('A' for Active; 'I' for Inactive)
REMARK    1  A    between atoms: C2_2  and  C9_9 
REMARK    2  A    between atoms: C7_7  and  C8_8 
REMARK    3  A    between atoms: C8_8  and  C9_9 
REMARK    4  A    between atoms: C9_9  and  O11_11 
ROOT
HETATM    1  C3  UNL     1     -33.964  17.820  -3.237  1.00 20.00     0.031 C 
HETATM    2  C4  UNL     1     -34.880  16.207  -1.549  1.00 20.00     0.031 C 
HETATM    3  C5  UNL     1     -33.517  18.685  -2.065  1.00 20.00     0.168 C 
HETATM    4  C6  UNL     1     -34.382  17.162  -0.471  1.00 20.00     0.168 C 
HETATM    5  C7  UNL     1     -35.174  16.964  -2.849  1.00 20.00    -0.008 C 
HETATM    6  O10 UNL     1     -33.233  17.879  -0.921  1.00 20.00    -0.391 OA
ENDROOT
BRANCH   5   7
HETATM    7  C8  UNL     1     -35.553  16.003  -3.973  1.00 20.00     0.040 C 
BRANCH   7   8
HETATM    8  C9  UNL     1     -35.786  14.569  -3.490  1.00 20.00     0.140 C 
BRANCH   8   9
HETATM    9  C2  UNL     1     -34.823  13.587  -4.092  1.00 20.00    -0.006 C 
HETATM   10  C1  UNL     1     -33.502  13.609  -3.879  1.00 20.00     0.009 C 
ENDBRANCH   8   9
BRANCH   8  11
HETATM   11  O11 UNL     1     -37.100  14.169  -3.881  1.00 20.00    -0.392 OA
HETATM   12  H27 UNL     1     -37.303  13.366  -3.376  1.00 20.00     0.210 HD
ENDBRANCH   8  11
ENDBRANCH   7   8
ENDBRANCH   5   7
TORSDOF 4
ENDMDL
