MODEL 1
REMARK VINA RESULT:      -5.0      0.000      0.000
REMARK  3 active torsions:
REMARK  status: ('A' for Active; 'I' for Inactive)
REMARK    1  A    between atoms: C1_1  and  C7_7 
REMARK    2  A    between atoms: C2_2  and  C8_8 
REMARK    3  A    between atoms: C8_8  and  C9_9 
ROOT
HETATM    1  C1  UNL     1     -31.879   7.586   3.034  1.00 20.00     0.157 A 
HETATM    2  C2  UNL     1     -32.647   6.612   3.895  1.00 20.00     0.185 A 
HETATM    3  O10 UNL     1     -31.796   6.169   2.828  1.00 20.00    -0.372 OA
ENDROOT
BRANCH   2   4
HETATM    4  C8  UNL     1     -34.101   6.316   3.700  1.00 20.00     0.204 C 
HETATM    5  F11 UNL     1     -34.218   5.355   2.744  1.00 20.00    -0.246 F 
BRANCH   4   6
HETATM    6  C9  UNL     1     -34.820   5.853   4.977  1.00 20.00     0.014 C 
HETATM    7  C5  UNL     1     -34.084   6.273   6.251  1.00 20.00     0.012 C 
HETATM    8  C6  UNL     1     -34.978   4.329   4.962  1.00 20.00     0.012 C 
ENDBRANCH   4   6
ENDBRANCH   2   4
BRANCH   1   9
HETATM    9  C7  UNL     1     -32.495   8.344   1.913  1.00 20.00     0.009 C 
HETATM   10  C3  UNL     1     -32.761   9.816   2.290  1.00 20.00     0.012 C 
HETATM   11  C4  UNL     1     -31.627   8.300   0.640  1.00 20.00     0.012 C 
ENDBRANCH   1   9
TORSDOF 3
ENDMDL
MODEL 2
REMARK VINA RESULT:      -4.8      1.276      1.663
REMARK  3 active torsions:
REMARK  status: ('A' for Active; 'I' for Inactive)
REMARK    1  A    between atoms: C1_1  and  C7_7 
REMARK    2  A    between atoms: C2_2  and  C8_8 
REMARK    3  A    between atoms: C8_8  and  C9_9 
ROOT
HETATM    1  C1  UNL     1     -32.508   6.000   2.967  1.00 20.00     0.157 A 
HETATM    2  C2  UNL     1     -33.704   5.250   3.502  1.00 20.00     0.185 A 
HETATM    3  O10 UNL     1     -33.589   5.598   2.115  1.00 20.00    -0.372 OA
ENDROOT
BRANCH   2   4
HETATM    4  C8  UNL     1     -34.834   5.916   4.223  1.00 20.00     0.204 C 
HETATM    5  F11 UNL     1     -36.003   5.506   3.658  1.00 20.00    -0.246 F 
BRANCH   4   6
HETATM    6  C9  UNL     1     -34.870   5.626   5.731  1.00 20.00     0.014 C 
HETATM    7  C5  UNL     1     -33.903   6.510   6.523  1.00 20.00     0.012 C 
HETATM    8  C6  UNL     1     -34.535   4.153   5.987  1.00 20.00     0.012 C 
ENDBRANCH   4   6
ENDBRANCH   2   4
BRANCH   1   9
HETATM    9  C7  UNL     1     -32.340   7.472   3.107  1.00 20.00     0.009 C 
HETATM   10  C3  UNL     1     -31.240   7.832   4.125  1.00 20.00     0.012 C 
HETATM   11  C4  UNL     1     -32.018   8.147   1.759  1.00 20.00     0.012 C 
ENDBRANCH   1   9
TORSDOF 3
ENDMDL
MODEL 3
REMARK VINA RESULT:      -4.8      1.459      4.367
REMARK  3 active torsions:
REMARK  status: ('A' for Active; 'I' for Inactive)
REMARK    1  A    between atoms: C1_1  and  C7_7 
REMARK    2  A    between atoms: C2_2  and  C8_8 
REMARK    3  A    between atoms: C8_8  and  C9_9 
ROOT
HETATM    1  C1  UNL     1     -34.697   5.970   4.258  1.00 20.00     0.157 A 
HETATM    2  C2  UNL     1     -33.779   6.259   3.095  1.00 20.00     0.185 A 
HETATM    3  O10 UNL     1     -34.554   5.053   3.164  1.00 20.00    -0.372 OA
ENDROOT
BRANCH   2   4
HETATM    4  C8  UNL     1     -32.298   6.055   3.150  1.00 20.00     0.204 C 
HETATM    5  F11 UNL     1     -31.945   5.200   2.150  1.00 20.00    -0.246 F 
BRANCH   4   6
HETATM    6  C9  UNL     1     -31.484   7.352   3.018  1.00 20.00     0.014 C 
HETATM    7  C5  UNL     1     -31.293   8.065   4.360  1.00 20.00     0.012 C 
HETATM    8  C6  UNL     1     -32.172   8.301   2.033  1.00 20.00     0.012 C 
ENDBRANCH   4   6
ENDBRANCH   2   4
BRANCH   1   9
HETATM    9  C7  UNL     1     -34.215   5.458   5.568  1.00 20.00     0.009 C 
HETATM   10  C3  UNL     1     -34.069   6.585   6.609  1.00 20.00     0.012 C 
HETATM   11  C4  UNL     1     -35.143   4.366   6.137  1.00 20.00     0.012 C 
ENDBRANCH   1   9
TORSDOF 3
ENDMDL
MODEL 4
REMARK VINA RESULT:      -4.1     11.253     12.478
REMARK  3 active torsions:
REMARK  status: ('A' for Active; 'I' for Inactive)
REMARK    1  A    between atoms: C1_1  and  C7_7 
REMARK    2  A    between atoms: C2_2  and  C8_8 
REMARK    3  A    between atoms: C8_8  and  C9_9 
ROOT
HETATM    1  C1  UNL     1     -34.274  16.785  -5.491  1.00 20.00     0.157 A 
HETATM    2  C2  UNL     1     -33.724  17.174  -4.140  1.00 20.00     0.185 A 
HETATM    3  O10 UNL     1     -32.880  16.653  -5.177  1.00 20.00    -0.372 OA
ENDROOT
BRANCH   2   4
HETATM    4  C8  UNL     1     -33.837  16.303  -2.927  1.00 20.00     0.204 C 
HETATM    5  F11 UNL     1     -32.903  15.317  -3.020  1.00 20.00    -0.246 F 
BRANCH   4   6
HETATM    6  C9  UNL     1     -33.652  17.054  -1.600  1.00 20.00     0.014 C 
HETATM    7  C5  UNL     1     -34.786  16.784  -0.608  1.00 20.00     0.012 C 
HETATM    8  C6  UNL     1     -33.557  18.560  -1.862  1.00 20.00     0.012 C 
ENDBRANCH   4   6
ENDBRANCH   2   4
BRANCH   1   9
HETATM    9  C7  UNL     1     -34.980  15.501  -5.744  1.00 20.00     0.009 C 
HETATM   10  C3  UNL     1     -36.512  15.675  -5.741  1.00 20.00     0.012 C 
HETATM   11  C4  UNL     1     -34.550  14.859  -7.078  1.00 20.00     0.012 C 
ENDBRANCH   1   9
TORSDOF 3
ENDMDL
MODEL 5
REMARK VINA RESULT:      -4.1     10.985     12.508
REMARK  3 active torsions:
REMARK  status: ('A' for Active; 'I' for Inactive)
REMARK    1  A    between atoms: C1_1  and  C7_7 
REMARK    2  A    between atoms: C2_2  and  C8_8 
REMARK    3  A    between atoms: C8_8  and  C9_9 
ROOT
HETATM    1  C1  UNL     1     -35.798  15.972  -3.524  1.00 20.00     0.157 A 
HETATM    2  C2  UNL     1     -35.911  15.131  -4.772  1.00 20.00     0.185 A 
HETATM    3  O10 UNL     1     -36.252  14.613  -3.479  1.00 20.00    -0.372 OA
ENDROOT
BRANCH   2   4
HETATM    4  C8  UNL     1     -34.737  14.468  -5.423  1.00 20.00     0.204 C 
HETATM    5  F11 UNL     1     -34.948  13.123  -5.419  1.00 20.00    -0.246 F 
BRANCH   4   6
HETATM    6  C9  UNL     1     -34.474  14.936  -6.863  1.00 20.00     0.014 C 
HETATM    7  C5  UNL     1     -34.351  16.459  -6.972  1.00 20.00     0.012 C 
HETATM    8  C6  UNL     1     -35.599  14.451  -7.782  1.00 20.00     0.012 C 
ENDBRANCH   4   6
ENDBRANCH   2   4
BRANCH   1   9
HETATM    9  C7  UNL     1     -34.510  16.223  -2.824  1.00 20.00     0.009 C 
HETATM   10  C3  UNL     1     -33.791  17.473  -3.368  1.00 20.00     0.012 C 
HETATM   11  C4  UNL     1     -34.701  16.376  -1.302  1.00 20.00     0.012 C 
ENDBRANCH   1   9
TORSDOF 3
ENDMDL
MODEL 6
REMARK VINA RESULT:      -4.1     10.916     12.166
REMARK  3 active torsions:
REMARK  status: ('A' for Active; 'I' for Inactive)
REMARK    1  A    between atoms: C1_1  and  C7_7 
REMARK    2  A    between atoms: C2_2  and  C8_8 
REMARK    3  A    between atoms: C8_8  and  C9_9 
ROOT
HETATM    1  C1  UNL     1     -33.670  18.591  -1.624  1.00 20.00     0.157 A 
HETATM    2  C2  UNL     1     -33.906  17.586  -2.725  1.00 20.00     0.185 A 
HETATM    3  O10 UNL     1     -34.980  18.083  -1.913  1.00 20.00    -0.372 OA
ENDROOT
BRANCH   2   4
HETATM    4  C8  UNL     1     -33.631  16.123  -2.572  1.00 20.00     0.204 C 
HETATM    5  F11 UNL     1     -34.780  15.510  -2.173  1.00 20.00    -0.246 F 
BRANCH   4   6
HETATM    6  C9  UNL     1     -33.114  15.447  -3.851  1.00 20.00     0.014 C 
HETATM    7  C5  UNL     1     -33.422  16.261  -5.111  1.00 20.00     0.012 C 
HETATM    8  C6  UNL     1     -33.728  14.050  -3.987  1.00 20.00     0.012 C 
ENDBRANCH   4   6
ENDBRANCH   2   4
BRANCH   1   9
HETATM    9  C7  UNL     1     -33.141  18.222  -0.283  1.00 20.00     0.009 C 
HETATM   10  C3  UNL     1     -32.026  19.180   0.180  1.00 20.00     0.012 C 
HETATM   11  C4  UNL     1     -34.251  18.189   0.786  1.00 20.00     0.012 C 
ENDBRANCH   1   9
TORSDOF 3
ENDMDL
MODEL 7
REMARK VINA RESULT:      -4.1     10.766     11.815
REMARK  3 active torsions:
REMARK  status: ('A' for Active; 'I' for Inactive)
REMARK    1  A    between atoms: C1_1  and  C7_7 
REMARK    2  A    between atoms: C2_2  and  C8_8 
REMARK    3  A    between atoms: C8_8  and  C9_9 
ROOT
HETATM    1  C1  UNL     1     -33.543  15.673  -4.867  1.00 20.00     0.157 A 
HETATM    2  C2  UNL     1     -33.592  16.500  -3.606  1.00 20.00     0.185 A 
HETATM    3  O10 UNL     1     -32.844  15.277  -3.679  1.00 20.00    -0.372 OA
ENDROOT
BRANCH   2   4
HETATM    4  C8  UNL     1     -34.745  16.474  -2.653  1.00 20.00     0.204 C 
HETATM    5  F11 UNL     1     -34.724  15.286  -1.988  1.00 20.00    -0.246 F 
BRANCH   4   6
HETATM    6  C9  UNL     1     -34.740  17.625  -1.635  1.00 20.00     0.014 C 
HETATM    7  C5  UNL     1     -33.543  18.562  -1.814  1.00 20.00     0.012 C 
HETATM    8  C6  UNL     1     -34.733  17.061  -0.211  1.00 20.00     0.012 C 
ENDBRANCH   4   6
ENDBRANCH   2   4
BRANCH   1   9
HETATM    9  C7  UNL     1     -34.636  14.754  -5.282  1.00 20.00     0.009 C 
HETATM   10  C3  UNL     1     -34.811  14.720  -6.813  1.00 20.00     0.012 C 
HETATM   11  C4  UNL     1     -34.409  13.318  -4.770  1.00 20.00     0.012 C 
ENDBRANCH   1   9
TORSDOF 3
ENDMDL
MODEL 8
REMARK VINA RESULT:      -4.0     11.064     12.028
REMARK  3 active torsions:
REMARK  status: ('A' for Active; 'I' for Inactive)
REMARK    1  A    between atoms: C1_1  and  C7_7 
REMARK    2  A    between atoms: C2_2  and  C8_8 
REMARK    3  A    between atoms: C8_8  and  C9_9 
ROOT
HETATM    1  C1  UNL     1     -33.294  16.213  -3.345  1.00 20.00     0.157 A 
HETATM    2  C2  UNL     1     -33.676  15.498  -4.618  1.00 20.00     0.185 A 
HETATM    3  O10 UNL     1     -32.935  16.726  -4.635  1.00 20.00    -0.372 OA
ENDROOT
BRANCH   2   4
HETATM    4  C8  UNL     1     -35.041  15.582  -5.228  1.00 20.00     0.204 C 
HETATM    5  F11 UNL     1     -34.903  15.623  -6.581  1.00 20.00    -0.246 F 
BRANCH   4   6
HETATM    6  C9  UNL     1     -35.967  14.416  -4.847  1.00 20.00     0.014 C 
HETATM    7  C5  UNL     1     -37.000  14.809  -3.787  1.00 20.00     0.012 C 
HETATM    8  C6  UNL     1     -35.137  13.237  -4.332  1.00 20.00     0.012 C 
ENDBRANCH   4   6
ENDBRANCH   2   4
BRANCH   1   9
HETATM    9  C7  UNL     1     -34.238  17.067  -2.576  1.00 20.00     0.009 C 
HETATM   10  C3  UNL     1     -34.635  16.422  -1.233  1.00 20.00     0.012 C 
HETATM   11  C4  UNL     1     -33.658  18.470  -2.307  1.00 20.00     0.012 C 
ENDBRANCH   1   9
TORSDOF 3
ENDMDL
MODEL 9
REMARK VINA RESULT:      -4.0     10.423     11.662
REMARK  3 active torsions:
REMARK  status: ('A' for Active; 'I' for Inactive)
REMARK    1  A    between atoms: C1_1  and  C7_7 
REMARK    2  A    between atoms: C2_2  and  C8_8 
REMARK    3  A    between atoms: C8_8  and  C9_9 
ROOT
HETATM    1  C1  UNL     1     -36.068  14.434  -4.964  1.00 20.00     0.157 A 
HETATM    2  C2  UNL     1     -34.635  13.985  -4.816  1.00 20.00     0.185 A 
HETATM    3  O10 UNL     1     -35.731  13.071  -4.674  1.00 20.00    -0.372 OA
ENDROOT
BRANCH   2   4
HETATM    4  C8  UNL     1     -33.833  14.199  -3.570  1.00 20.00     0.204 C 
HETATM    5  F11 UNL     1     -32.916  13.198  -3.474  1.00 20.00    -0.246 F 
BRANCH   4   6
HETATM    6  C9  UNL     1     -33.111  15.555  -3.516  1.00 20.00     0.014 C 
HETATM    7  C5  UNL     1     -33.672  16.476  -2.429  1.00 20.00     0.012 C 
HETATM    8  C6  UNL     1     -33.214  16.254  -4.875  1.00 20.00     0.012 C 
ENDBRANCH   4   6
ENDBRANCH   2   4
BRANCH   1   9
HETATM    9  C7  UNL     1     -36.819  15.132  -3.886  1.00 20.00     0.009 C 
HETATM   10  C3  UNL     1     -36.830  16.661  -4.088  1.00 20.00     0.012 C 
HETATM   11  C4  UNL     1     -38.271  14.630  -3.775  1.00 20.00     0.012 C 
ENDBRANCH   1   9
TORSDOF 3
ENDMDL
