MODEL 1
REMARK VINA RESULT:      -4.6      0.000      0.000
REMARK  0 active torsions:
REMARK  status: ('A' for Active; 'I' for Inactive)
ROOT
HETATM    1  C1  UNL     1     -36.228  14.137  -4.168  1.00 20.00     0.411 C 
HETATM    2  C2  UNL     1     -34.107  13.511  -4.520  1.00 20.00     0.368 C 
HETATM    3  C3  UNL     1     -34.307  14.897  -5.072  1.00 20.00     0.199 C 
HETATM    4  C4  UNL     1     -34.490  14.925  -6.587  1.00 20.00     0.070 C 
HETATM    5  O5  UNL     1     -37.393  14.103  -3.802  1.00 20.00    -0.229 OA
HETATM    6  O6  UNL     1     -35.435  13.037  -4.358  1.00 20.00    -0.257 OA
HETATM    7  O7  UNL     1     -35.532  15.284  -4.451  1.00 20.00    -0.265 OA
HETATM    8  F8  UNL     1     -33.554  13.547  -3.280  1.00 20.00    -0.214 F 
HETATM    9 CL9  UNL     1     -33.012  16.011  -4.593  1.00 20.00    -0.082 Cl
ENDROOT
TORSDOF 0
ENDMDL
MODEL 2
REMARK VINA RESULT:      -4.2      1.992      2.568
REMARK  0 active torsions:
REMARK  status: ('A' for Active; 'I' for Inactive)
ROOT
HETATM    1  C1  UNL     1     -34.599  13.718  -4.499  1.00 20.00     0.411 C 
HETATM    2  C2  UNL     1     -33.871  15.834  -4.585  1.00 20.00     0.368 C 
HETATM    3  C3  UNL     1     -34.750  15.667  -3.375  1.00 20.00     0.199 C 
HETATM    4  C4  UNL     1     -36.164  16.206  -3.575  1.00 20.00     0.070 C 
HETATM    5  O5  UNL     1     -34.763  12.544  -4.793  1.00 20.00    -0.229 OA
HETATM    6  O6  UNL     1     -34.185  14.691  -5.368  1.00 20.00    -0.257 OA
HETATM    7  O7  UNL     1     -34.810  14.246  -3.252  1.00 20.00    -0.265 OA
HETATM    8  F8  UNL     1     -32.556  15.732  -4.261  1.00 20.00    -0.214 F 
HETATM    9 CL9  UNL     1     -34.029  16.368  -1.913  1.00 20.00    -0.082 Cl
ENDROOT
TORSDOF 0
ENDMDL
MODEL 3
REMARK VINA RESULT:      -4.1      1.830      2.198
REMARK  0 active torsions:
REMARK  status: ('A' for Active; 'I' for Inactive)
ROOT
HETATM    1  C1  UNL     1     -34.588  13.716  -4.372  1.00 20.00     0.411 C 
HETATM    2  C2  UNL     1     -33.708  15.436  -3.240  1.00 20.00     0.368 C 
HETATM    3  C3  UNL     1     -34.488  15.968  -4.412  1.00 20.00     0.199 C 
HETATM    4  C4  UNL     1     -33.608  16.369  -5.594  1.00 20.00     0.070 C 
HETATM    5  O5  UNL     1     -34.876  12.571  -4.685  1.00 20.00    -0.229 OA
HETATM    6  O6  UNL     1     -33.537  14.065  -3.566  1.00 20.00    -0.257 OA
HETATM    7  O7  UNL     1     -35.269  14.832  -4.782  1.00 20.00    -0.265 OA
HETATM    8  F8  UNL     1     -34.440  15.475  -2.098  1.00 20.00    -0.214 F 
HETATM    9 CL9  UNL     1     -35.556  17.312  -3.961  1.00 20.00    -0.082 Cl
ENDROOT
TORSDOF 0
ENDMDL
MODEL 4
REMARK VINA RESULT:      -4.1      2.055      2.824
REMARK  0 active torsions:
REMARK  status: ('A' for Active; 'I' for Inactive)
ROOT
HETATM    1  C1  UNL     1     -33.617  13.497  -3.913  1.00 20.00     0.411 C 
HETATM    2  C2  UNL     1     -35.606  13.883  -4.867  1.00 20.00     0.368 C 
HETATM    3  C3  UNL     1     -35.064  15.177  -4.323  1.00 20.00     0.199 C 
HETATM    4  C4  UNL     1     -35.688  15.583  -2.990  1.00 20.00     0.070 C 
HETATM    5  O5  UNL     1     -32.622  12.904  -3.524  1.00 20.00    -0.229 OA
HETATM    6  O6  UNL     1     -34.815  12.904  -4.209  1.00 20.00    -0.257 OA
HETATM    7  O7  UNL     1     -33.691  14.851  -4.111  1.00 20.00    -0.265 OA
HETATM    8  F8  UNL     1     -35.353  13.758  -6.194  1.00 20.00    -0.214 F 
HETATM    9 CL9  UNL     1     -35.193  16.508  -5.489  1.00 20.00    -0.082 Cl
ENDROOT
TORSDOF 0
ENDMDL
MODEL 5
REMARK VINA RESULT:      -4.0      1.454      1.565
REMARK  0 active torsions:
REMARK  status: ('A' for Active; 'I' for Inactive)
ROOT
HETATM    1  C1  UNL     1     -36.756  14.517  -3.823  1.00 20.00     0.411 C 
HETATM    2  C2  UNL     1     -34.541  14.365  -4.114  1.00 20.00     0.368 C 
HETATM    3  C3  UNL     1     -34.875  15.740  -3.603  1.00 20.00     0.199 C 
HETATM    4  C4  UNL     1     -34.888  16.807  -4.696  1.00 20.00     0.070 C 
HETATM    5  O5  UNL     1     -37.937  14.208  -3.798  1.00 20.00    -0.229 OA
HETATM    6  O6  UNL     1     -35.797  13.877  -4.562  1.00 20.00    -0.257 OA
HETATM    7  O7  UNL     1     -36.206  15.557  -3.121  1.00 20.00    -0.265 OA
HETATM    8  F8  UNL     1     -34.142  13.546  -3.108  1.00 20.00    -0.214 F 
HETATM    9 CL9  UNL     1     -33.816  16.244  -2.271  1.00 20.00    -0.082 Cl
ENDROOT
TORSDOF 0
ENDMDL
MODEL 6
REMARK VINA RESULT:      -4.0      1.998      2.654
REMARK  0 active torsions:
REMARK  status: ('A' for Active; 'I' for Inactive)
ROOT
HETATM    1  C1  UNL     1     -34.518  14.555  -6.022  1.00 20.00     0.411 C 
HETATM    2  C2  UNL     1     -35.086  13.493  -4.134  1.00 20.00     0.368 C 
HETATM    3  C3  UNL     1     -34.178  14.644  -3.795  1.00 20.00     0.199 C 
HETATM    4  C4  UNL     1     -32.735  14.220  -3.531  1.00 20.00     0.070 C 
HETATM    5  O5  UNL     1     -34.455  14.841  -7.208  1.00 20.00    -0.229 OA
HETATM    6  O6  UNL     1     -34.888  13.332  -5.531  1.00 20.00    -0.257 OA
HETATM    7  O7  UNL     1     -34.222  15.414  -4.996  1.00 20.00    -0.265 OA
HETATM    8  F8  UNL     1     -36.391  13.824  -3.962  1.00 20.00    -0.214 F 
HETATM    9 CL9  UNL     1     -34.788  15.611  -2.438  1.00 20.00    -0.082 Cl
ENDROOT
TORSDOF 0
ENDMDL
MODEL 7
REMARK VINA RESULT:      -3.9      2.035      2.509
REMARK  0 active torsions:
REMARK  status: ('A' for Active; 'I' for Inactive)
ROOT
HETATM    1  C1  UNL     1     -34.843  13.672  -5.043  1.00 20.00     0.411 C 
HETATM    2  C2  UNL     1     -34.915  15.299  -6.580  1.00 20.00     0.368 C 
HETATM    3  C3  UNL     1     -34.629  15.908  -5.235  1.00 20.00     0.199 C 
HETATM    4  C4  UNL     1     -35.855  16.546  -4.585  1.00 20.00     0.070 C 
HETATM    5  O5  UNL     1     -34.879  12.558  -4.543  1.00 20.00    -0.229 OA
HETATM    6  O6  UNL     1     -35.399  14.006  -6.249  1.00 20.00    -0.257 OA
HETATM    7  O7  UNL     1     -34.244  14.764  -4.472  1.00 20.00    -0.265 OA
HETATM    8  F8  UNL     1     -33.774  15.115  -7.293  1.00 20.00    -0.214 F 
HETATM    9 CL9  UNL     1     -33.291  17.072  -5.289  1.00 20.00    -0.082 Cl
ENDROOT
TORSDOF 0
ENDMDL
MODEL 8
REMARK VINA RESULT:      -3.9      2.203      2.808
REMARK  0 active torsions:
REMARK  status: ('A' for Active; 'I' for Inactive)
ROOT
HETATM    1  C1  UNL     1     -35.128  13.860  -4.100  1.00 20.00     0.411 C 
HETATM    2  C2  UNL     1     -35.995  15.925  -4.076  1.00 20.00     0.368 C 
HETATM    3  C3  UNL     1     -34.605  15.970  -3.502  1.00 20.00     0.199 C 
HETATM    4  C4  UNL     1     -34.581  16.024  -1.976  1.00 20.00     0.070 C 
HETATM    5  O5  UNL     1     -35.025  12.657  -4.283  1.00 20.00    -0.229 OA
HETATM    6  O6  UNL     1     -36.314  14.541  -4.032  1.00 20.00    -0.257 OA
HETATM    7  O7  UNL     1     -34.072  14.716  -3.928  1.00 20.00    -0.265 OA
HETATM    8  F8  UNL     1     -36.002  16.282  -5.386  1.00 20.00    -0.214 F 
HETATM    9 CL9  UNL     1     -33.637  17.295  -4.175  1.00 20.00    -0.082 Cl
ENDROOT
TORSDOF 0
ENDMDL
MODEL 9
REMARK VINA RESULT:      -3.8     11.765     12.314
REMARK  0 active torsions:
REMARK  status: ('A' for Active; 'I' for Inactive)
ROOT
HETATM    1  C1  UNL     1     -41.465   3.749  -2.396  1.00 20.00     0.411 C 
HETATM    2  C2  UNL     1     -42.266   5.760  -1.823  1.00 20.00     0.368 C 
HETATM    3  C3  UNL     1     -41.489   5.194  -0.666  1.00 20.00     0.199 C 
HETATM    4  C4  UNL     1     -42.374   4.595   0.424  1.00 20.00     0.070 C 
HETATM    5  O5  UNL     1     -41.223   2.753  -3.060  1.00 20.00    -0.229 OA
HETATM    6  O6  UNL     1     -42.490   4.623  -2.644  1.00 20.00    -0.257 OA
HETATM    7  O7  UNL     1     -40.754   4.144  -1.294  1.00 20.00    -0.265 OA
HETATM    8  F8  UNL     1     -41.513   6.623  -2.552  1.00 20.00    -0.214 F 
HETATM    9 CL9  UNL     1     -40.368   6.376   0.039  1.00 20.00    -0.082 Cl
ENDROOT
TORSDOF 0
ENDMDL
