MODEL 1
REMARK VINA RESULT:      -4.8      0.000      0.000
REMARK  2 active torsions:
REMARK  status: ('A' for Active; 'I' for Inactive)
REMARK    1  A    between atoms: C1_1  and  C2_2 
REMARK    2  A    between atoms: C2_2  and  C3_3 
ROOT
HETATM    1  C2  UNL     1     -34.062   6.444   4.270  1.00 20.00     0.218 C 
HETATM    2 CL8  UNL     1     -34.042   6.234   6.046  1.00 20.00    -0.113 Cl
ENDROOT
BRANCH   1   3
HETATM    3  C1  UNL     1     -32.635   6.450   3.741  1.00 20.00     0.251 C 
HETATM    4  F4  UNL     1     -32.542   7.279   2.668  1.00 20.00    -0.254 F 
ENDBRANCH   1   3
BRANCH   1   5
HETATM    5  C3  UNL     1     -34.904   5.350   3.642  1.00 20.00     0.406 C 
HETATM    6  F5  UNL     1     -34.370   4.954   2.463  1.00 20.00    -0.169 F 
HETATM    7  F6  UNL     1     -36.168   5.756   3.402  1.00 20.00    -0.169 F 
HETATM    8  F7  UNL     1     -34.963   4.260   4.439  1.00 20.00    -0.169 F 
ENDBRANCH   1   5
TORSDOF 2
ENDMDL
MODEL 2
REMARK VINA RESULT:      -4.8      1.509      2.502
REMARK  2 active torsions:
REMARK  status: ('A' for Active; 'I' for Inactive)
REMARK    1  A    between atoms: C1_1  and  C2_2 
REMARK    2  A    between atoms: C2_2  and  C3_3 
ROOT
HETATM    1  C2  UNL     1     -34.485   5.856   5.160  1.00 20.00     0.218 C 
HETATM    2 CL8  UNL     1     -33.865   6.813   6.538  1.00 20.00    -0.113 Cl
ENDROOT
BRANCH   1   3
HETATM    3  C1  UNL     1     -33.488   5.909   4.012  1.00 20.00     0.251 C 
HETATM    4  F4  UNL     1     -34.097   5.551   2.851  1.00 20.00    -0.254 F 
ENDBRANCH   1   3
BRANCH   1   5
HETATM    5  C3  UNL     1     -34.763   4.436   5.616  1.00 20.00     0.406 C 
HETATM    6  F5  UNL     1     -35.677   4.424   6.612  1.00 20.00    -0.169 F 
HETATM    7  F6  UNL     1     -33.650   3.824   6.074  1.00 20.00    -0.169 F 
HETATM    8  F7  UNL     1     -35.262   3.688   4.606  1.00 20.00    -0.169 F 
ENDBRANCH   1   5
TORSDOF 2
ENDMDL
MODEL 3
REMARK VINA RESULT:      -4.8      1.516      2.781
REMARK  2 active torsions:
REMARK  status: ('A' for Active; 'I' for Inactive)
REMARK    1  A    between atoms: C1_1  and  C2_2 
REMARK    2  A    between atoms: C2_2  and  C3_3 
ROOT
HETATM    1  C2  UNL     1     -34.082   5.190   5.074  1.00 20.00     0.218 C 
HETATM    2 CL8  UNL     1     -34.055   6.470   6.322  1.00 20.00    -0.113 Cl
ENDROOT
BRANCH   1   3
HETATM    3  C1  UNL     1     -34.897   4.006   5.575  1.00 20.00     0.251 C 
HETATM    4  F4  UNL     1     -35.639   4.377   6.653  1.00 20.00    -0.254 F 
ENDBRANCH   1   3
BRANCH   1   5
HETATM    5  C3  UNL     1     -34.632   5.758   3.779  1.00 20.00     0.406 C 
HETATM    6  F5  UNL     1     -34.388   7.086   3.699  1.00 20.00    -0.169 F 
HETATM    7  F6  UNL     1     -35.966   5.581   3.673  1.00 20.00    -0.169 F 
HETATM    8  F7  UNL     1     -34.049   5.180   2.705  1.00 20.00    -0.169 F 
ENDBRANCH   1   5
TORSDOF 2
ENDMDL
MODEL 4
REMARK VINA RESULT:      -4.8      1.518      2.948
REMARK  2 active torsions:
REMARK  status: ('A' for Active; 'I' for Inactive)
REMARK    1  A    between atoms: C1_1  and  C2_2 
REMARK    2  A    between atoms: C2_2  and  C3_3 
ROOT
HETATM    1  C2  UNL     1     -34.078   5.190   5.078  1.00 20.00     0.218 C 
HETATM    2 CL8  UNL     1     -34.056   6.472   6.325  1.00 20.00    -0.113 Cl
ENDROOT
BRANCH   1   3
HETATM    3  C1  UNL     1     -34.898   4.009   5.576  1.00 20.00     0.251 C 
HETATM    4  F4  UNL     1     -35.638   4.380   6.654  1.00 20.00    -0.254 F 
ENDBRANCH   1   3
BRANCH   1   5
HETATM    5  C3  UNL     1     -34.617   5.758   3.779  1.00 20.00     0.406 C 
HETATM    6  F5  UNL     1     -35.954   5.572   3.694  1.00 20.00    -0.169 F 
HETATM    7  F6  UNL     1     -34.054   5.178   2.698  1.00 20.00    -0.169 F 
HETATM    8  F7  UNL     1     -34.394   7.090   3.698  1.00 20.00    -0.169 F 
ENDBRANCH   1   5
TORSDOF 2
ENDMDL
MODEL 5
REMARK VINA RESULT:      -4.7      1.516      2.725
REMARK  2 active torsions:
REMARK  status: ('A' for Active; 'I' for Inactive)
REMARK    1  A    between atoms: C1_1  and  C2_2 
REMARK    2  A    between atoms: C2_2  and  C3_3 
ROOT
HETATM    1  C2  UNL     1     -34.076   5.199   5.080  1.00 20.00     0.218 C 
HETATM    2 CL8  UNL     1     -34.051   6.475   6.333  1.00 20.00    -0.113 Cl
ENDROOT
BRANCH   1   3
HETATM    3  C1  UNL     1     -34.894   4.015   5.574  1.00 20.00     0.251 C 
HETATM    4  F4  UNL     1     -35.637   4.382   6.652  1.00 20.00    -0.254 F 
ENDBRANCH   1   3
BRANCH   1   5
HETATM    5  C3  UNL     1     -34.620   5.774   3.786  1.00 20.00     0.406 C 
HETATM    6  F5  UNL     1     -34.044   5.176   2.718  1.00 20.00    -0.169 F 
HETATM    7  F6  UNL     1     -34.392   7.100   3.684  1.00 20.00    -0.169 F 
HETATM    8  F7  UNL     1     -35.954   5.573   3.685  1.00 20.00    -0.169 F 
ENDBRANCH   1   5
TORSDOF 2
ENDMDL
MODEL 6
REMARK VINA RESULT:      -4.6      2.260      2.713
REMARK  2 active torsions:
REMARK  status: ('A' for Active; 'I' for Inactive)
REMARK    1  A    between atoms: C1_1  and  C2_2 
REMARK    2  A    between atoms: C2_2  and  C3_3 
ROOT
HETATM    1  C2  UNL     1     -34.189   5.297   4.645  1.00 20.00     0.218 C 
HETATM    2 CL8  UNL     1     -35.728   5.474   3.750  1.00 20.00    -0.113 Cl
ENDROOT
BRANCH   1   3
HETATM    3  C1  UNL     1     -33.237   6.415   4.246  1.00 20.00     0.251 C 
HETATM    4  F4  UNL     1     -32.248   5.921   3.454  1.00 20.00    -0.254 F 
ENDBRANCH   1   3
BRANCH   1   5
HETATM    5  C3  UNL     1     -34.470   5.286   6.135  1.00 20.00     0.406 C 
HETATM    6  F5  UNL     1     -35.715   4.818   6.383  1.00 20.00    -0.169 F 
HETATM    7  F6  UNL     1     -34.381   6.518   6.678  1.00 20.00    -0.169 F 
HETATM    8  F7  UNL     1     -33.603   4.481   6.790  1.00 20.00    -0.169 F 
ENDBRANCH   1   5
TORSDOF 2
ENDMDL
MODEL 7
REMARK VINA RESULT:      -4.6      2.223      2.483
REMARK  2 active torsions:
REMARK  status: ('A' for Active; 'I' for Inactive)
REMARK    1  A    between atoms: C1_1  and  C2_2 
REMARK    2  A    between atoms: C2_2  and  C3_3 
ROOT
HETATM    1  C2  UNL     1     -33.902   5.590   5.323  1.00 20.00     0.218 C 
HETATM    2 CL8  UNL     1     -33.690   6.467   3.779  1.00 20.00    -0.113 Cl
ENDROOT
BRANCH   1   3
HETATM    3  C1  UNL     1     -34.046   6.590   6.461  1.00 20.00     0.251 C 
HETATM    4  F4  UNL     1     -32.869   7.240   6.659  1.00 20.00    -0.254 F 
ENDBRANCH   1   3
BRANCH   1   5
HETATM    5  C3  UNL     1     -35.097   4.663   5.217  1.00 20.00     0.406 C 
HETATM    6  F5  UNL     1     -34.714   3.435   4.799  1.00 20.00    -0.169 F 
HETATM    7  F6  UNL     1     -36.020   5.122   4.346  1.00 20.00    -0.169 F 
HETATM    8  F7  UNL     1     -35.701   4.505   6.417  1.00 20.00    -0.169 F 
ENDBRANCH   1   5
TORSDOF 2
ENDMDL
MODEL 8
REMARK VINA RESULT:      -4.6      1.611      2.250
REMARK  2 active torsions:
REMARK  status: ('A' for Active; 'I' for Inactive)
REMARK    1  A    between atoms: C1_1  and  C2_2 
REMARK    2  A    between atoms: C2_2  and  C3_3 
ROOT
HETATM    1  C2  UNL     1     -33.645   5.696   4.651  1.00 20.00     0.218 C 
HETATM    2 CL8  UNL     1     -32.643   6.780   3.642  1.00 20.00    -0.113 Cl
ENDROOT
BRANCH   1   3
HETATM    3  C1  UNL     1     -34.129   6.448   5.882  1.00 20.00     0.251 C 
HETATM    4  F4  UNL     1     -34.858   5.619   6.676  1.00 20.00    -0.254 F 
ENDBRANCH   1   3
BRANCH   1   5
HETATM    5  C3  UNL     1     -34.793   5.151   3.822  1.00 20.00     0.406 C 
HETATM    6  F5  UNL     1     -34.410   4.970   2.538  1.00 20.00    -0.169 F 
HETATM    7  F6  UNL     1     -35.856   5.983   3.818  1.00 20.00    -0.169 F 
HETATM    8  F7  UNL     1     -35.206   3.951   4.289  1.00 20.00    -0.169 F 
ENDBRANCH   1   5
TORSDOF 2
ENDMDL
MODEL 9
REMARK VINA RESULT:      -4.6      1.450      2.850
REMARK  2 active torsions:
REMARK  status: ('A' for Active; 'I' for Inactive)
REMARK    1  A    between atoms: C1_1  and  C2_2 
REMARK    2  A    between atoms: C2_2  and  C3_3 
ROOT
HETATM    1  C2  UNL     1     -33.935   5.284   5.094  1.00 20.00     0.218 C 
HETATM    2 CL8  UNL     1     -34.078   6.533   6.367  1.00 20.00    -0.113 Cl
ENDROOT
BRANCH   1   3
HETATM    3  C1  UNL     1     -35.147   4.365   5.143  1.00 20.00     0.251 C 
HETATM    4  F4  UNL     1     -35.467   4.088   6.436  1.00 20.00    -0.254 F 
ENDBRANCH   1   3
BRANCH   1   5
HETATM    5  C3  UNL     1     -33.777   5.955   3.744  1.00 20.00     0.406 C 
HETATM    6  F5  UNL     1     -32.472   6.017   3.391  1.00 20.00    -0.169 F 
HETATM    7  F6  UNL     1     -34.260   7.216   3.743  1.00 20.00    -0.169 F 
HETATM    8  F7  UNL     1     -34.420   5.264   2.776  1.00 20.00    -0.169 F 
ENDBRANCH   1   5
TORSDOF 2
ENDMDL
