MODEL 1
REMARK VINA RESULT:      -4.8      0.000      0.000
REMARK  1 active torsions:
REMARK  status: ('A' for Active; 'I' for Inactive)
REMARK    1  A    between atoms: C4_4  and  O11_11 
ROOT
HETATM    1  C1  UNL     1     -42.165   7.025  -1.562  1.00 20.00    -0.021 C 
HETATM    2  C2  UNL     1     -41.039   7.148  -0.839  1.00 20.00    -0.025 C 
HETATM    3  C3  UNL     1     -41.854   4.598  -1.722  1.00 20.00    -0.043 C 
HETATM    4  C4  UNL     1     -42.128   3.700  -2.671  1.00 20.00     0.045 C 
HETATM    5  C5  UNL     1     -40.565   4.698  -0.914  1.00 20.00     0.046 C 
HETATM    6  C6  UNL     1     -42.398   5.644   0.276  1.00 20.00     0.022 C 
HETATM    7  C7  UNL     1     -42.778   5.689  -1.209  1.00 20.00     0.040 C 
HETATM    8  C8  UNL     1     -40.910   5.895   0.006  1.00 20.00     0.013 C 
HETATM    9  C9  UNL     1     -43.417   3.657  -3.428  1.00 20.00     0.076 C 
ENDROOT
BRANCH   4  10
HETATM   10  O11 UNL     1     -41.197   2.733  -3.003  1.00 20.00    -0.360 OA
HETATM   11  C10 UNL     1     -41.763   1.664  -3.720  1.00 20.00     0.209 C 
ENDBRANCH   4  10
TORSDOF 1
ENDMDL
MODEL 2
REMARK VINA RESULT:      -4.4     12.404     13.637
REMARK  1 active torsions:
REMARK  status: ('A' for Active; 'I' for Inactive)
REMARK    1  A    between atoms: C4_4  and  O11_11 
ROOT
HETATM    1  C1  UNL     1     -35.475  14.675  -3.442  1.00 20.00    -0.021 C 
HETATM    2  C2  UNL     1     -34.668  15.477  -2.726  1.00 20.00    -0.025 C 
HETATM    3  C3  UNL     1     -34.276  15.234  -5.507  1.00 20.00    -0.043 C 
HETATM    4  C4  UNL     1     -34.658  15.377  -6.779  1.00 20.00     0.045 C 
HETATM    5  C5  UNL     1     -33.347  16.162  -4.731  1.00 20.00     0.046 C 
HETATM    6  C6  UNL     1     -33.311  13.959  -3.827  1.00 20.00     0.022 C 
HETATM    7  C7  UNL     1     -34.646  14.099  -4.568  1.00 20.00     0.040 C 
HETATM    8  C8  UNL     1     -33.296  15.424  -3.371  1.00 20.00     0.013 C 
HETATM    9  C9  UNL     1     -35.575  14.427  -7.482  1.00 20.00     0.076 C 
ENDROOT
BRANCH   4  10
HETATM   10  O11 UNL     1     -34.202  16.447  -7.526  1.00 20.00    -0.360 OA
HETATM   11  C10 UNL     1     -35.238  17.317  -7.910  1.00 20.00     0.209 C 
ENDBRANCH   4  10
TORSDOF 1
ENDMDL
MODEL 3
REMARK VINA RESULT:      -4.4     12.018     13.265
REMARK  1 active torsions:
REMARK  status: ('A' for Active; 'I' for Inactive)
REMARK    1  A    between atoms: C4_4  and  O11_11 
ROOT
HETATM    1  C1  UNL     1     -32.614  15.146  -3.863  1.00 20.00    -0.021 C 
HETATM    2  C2  UNL     1     -32.807  13.892  -3.418  1.00 20.00    -0.025 C 
HETATM    3  C3  UNL     1     -34.462  14.913  -5.458  1.00 20.00    -0.043 C 
HETATM    4  C4  UNL     1     -34.679  15.390  -6.686  1.00 20.00     0.045 C 
HETATM    5  C5  UNL     1     -34.704  13.483  -4.987  1.00 20.00     0.046 C 
HETATM    6  C6  UNL     1     -34.814  15.016  -3.167  1.00 20.00     0.022 C 
HETATM    7  C7  UNL     1     -33.969  15.694  -4.252  1.00 20.00     0.040 C 
HETATM    8  C8  UNL     1     -34.295  13.611  -3.499  1.00 20.00     0.013 C 
HETATM    9  C9  UNL     1     -34.419  16.809  -7.083  1.00 20.00     0.076 C 
ENDROOT
BRANCH   4  10
HETATM   10  O11 UNL     1     -35.175  14.563  -7.677  1.00 20.00    -0.360 OA
HETATM   11  C10 UNL     1     -36.544  14.772  -7.918  1.00 20.00     0.209 C 
ENDBRANCH   4  10
TORSDOF 1
ENDMDL
MODEL 4
REMARK VINA RESULT:      -4.3     12.355     14.051
REMARK  1 active torsions:
REMARK  status: ('A' for Active; 'I' for Inactive)
REMARK    1  A    between atoms: C4_4  and  O11_11 
ROOT
HETATM    1  C1  UNL     1     -34.537  13.639  -3.777  1.00 20.00    -0.021 C 
HETATM    2  C2  UNL     1     -34.363  13.801  -5.100  1.00 20.00    -0.025 C 
HETATM    3  C3  UNL     1     -34.659  16.066  -3.449  1.00 20.00    -0.043 C 
HETATM    4  C4  UNL     1     -34.269  16.879  -2.464  1.00 20.00     0.045 C 
HETATM    5  C5  UNL     1     -34.453  16.290  -4.943  1.00 20.00     0.046 C 
HETATM    6  C6  UNL     1     -36.330  14.882  -4.538  1.00 20.00     0.022 C 
HETATM    7  C7  UNL     1     -35.429  14.765  -3.304  1.00 20.00     0.040 C 
HETATM    8  C8  UNL     1     -35.152  15.030  -5.509  1.00 20.00     0.013 C 
HETATM    9  C9  UNL     1     -34.504  16.598  -1.013  1.00 20.00     0.076 C 
ENDROOT
BRANCH   4  10
HETATM   10  O11 UNL     1     -33.611  18.059  -2.755  1.00 20.00    -0.360 OA
HETATM   11  C10 UNL     1     -33.356  18.830  -1.607  1.00 20.00     0.209 C 
ENDBRANCH   4  10
TORSDOF 1
ENDMDL
MODEL 5
REMARK VINA RESULT:      -4.3     11.708     13.324
REMARK  1 active torsions:
REMARK  status: ('A' for Active; 'I' for Inactive)
REMARK    1  A    between atoms: C4_4  and  O11_11 
ROOT
HETATM    1  C1  UNL     1     -34.041  16.987  -1.044  1.00 20.00    -0.021 C 
HETATM    2  C2  UNL     1     -35.347  17.277  -0.917  1.00 20.00    -0.025 C 
HETATM    3  C3  UNL     1     -34.507  15.506  -2.943  1.00 20.00    -0.043 C 
HETATM    4  C4  UNL     1     -33.958  14.369  -3.376  1.00 20.00     0.045 C 
HETATM    5  C5  UNL     1     -35.998  15.803  -2.824  1.00 20.00     0.046 C 
HETATM    6  C6  UNL     1     -34.743  17.810  -3.087  1.00 20.00     0.022 C 
HETATM    7  C7  UNL     1     -33.775  16.766  -2.517  1.00 20.00     0.040 C 
HETATM    8  C8  UNL     1     -35.947  17.263  -2.310  1.00 20.00     0.013 C 
HETATM    9  C9  UNL     1     -32.482  14.143  -3.468  1.00 20.00     0.076 C 
ENDROOT
BRANCH   4  10
HETATM   10  O11 UNL     1     -34.759  13.315  -3.773  1.00 20.00    -0.360 OA
HETATM   11  C10 UNL     1     -34.776  13.149  -5.169  1.00 20.00     0.209 C 
ENDBRANCH   4  10
TORSDOF 1
ENDMDL
MODEL 6
REMARK VINA RESULT:      -4.3     12.208     13.992
REMARK  1 active torsions:
REMARK  status: ('A' for Active; 'I' for Inactive)
REMARK    1  A    between atoms: C4_4  and  O11_11 
ROOT
HETATM    1  C1  UNL     1     -32.884  14.808  -3.516  1.00 20.00    -0.021 C 
HETATM    2  C2  UNL     1     -33.288  13.552  -3.769  1.00 20.00    -0.025 C 
HETATM    3  C3  UNL     1     -34.287  15.674  -5.331  1.00 20.00    -0.043 C 
HETATM    4  C4  UNL     1     -34.149  16.682  -6.196  1.00 20.00     0.045 C 
HETATM    5  C5  UNL     1     -34.760  14.262  -5.656  1.00 20.00     0.046 C 
HETATM    6  C6  UNL     1     -35.191  14.809  -3.378  1.00 20.00     0.022 C 
HETATM    7  C7  UNL     1     -34.047  15.722  -3.833  1.00 20.00     0.040 C 
HETATM    8  C8  UNL     1     -34.727  13.630  -4.243  1.00 20.00     0.013 C 
HETATM    9  C9  UNL     1     -33.678  18.049  -5.811  1.00 20.00     0.076 C 
ENDROOT
BRANCH   4  10
HETATM   10  O11 UNL     1     -34.449  16.499  -7.533  1.00 20.00    -0.360 OA
HETATM   11  C10 UNL     1     -35.626  17.165  -7.917  1.00 20.00     0.209 C 
ENDBRANCH   4  10
TORSDOF 1
ENDMDL
MODEL 7
REMARK VINA RESULT:      -4.3     12.472     14.108
REMARK  1 active torsions:
REMARK  status: ('A' for Active; 'I' for Inactive)
REMARK    1  A    between atoms: C4_4  and  O11_11 
ROOT
HETATM    1  C1  UNL     1     -33.475  15.906  -4.795  1.00 20.00    -0.021 C 
HETATM    2  C2  UNL     1     -34.533  15.241  -5.289  1.00 20.00    -0.025 C 
HETATM    3  C3  UNL     1     -34.525  16.027  -2.582  1.00 20.00    -0.043 C 
HETATM    4  C4  UNL     1     -34.511  16.942  -1.609  1.00 20.00     0.045 C 
HETATM    5  C5  UNL     1     -35.749  15.285  -3.109  1.00 20.00     0.046 C 
HETATM    6  C6  UNL     1     -33.759  14.029  -3.476  1.00 20.00     0.022 C 
HETATM    7  C7  UNL     1     -33.327  15.494  -3.347  1.00 20.00     0.040 C 
HETATM    8  C8  UNL     1     -35.082  14.376  -4.170  1.00 20.00     0.013 C 
HETATM    9  C9  UNL     1     -33.271  17.635  -1.139  1.00 20.00     0.076 C 
ENDROOT
BRANCH   4  10
HETATM   10  O11 UNL     1     -35.685  17.297  -0.971  1.00 20.00    -0.360 OA
HETATM   11  C10 UNL     1     -35.468  17.741   0.346  1.00 20.00     0.209 C 
ENDBRANCH   4  10
TORSDOF 1
ENDMDL
MODEL 8
REMARK VINA RESULT:      -4.3     12.891     14.717
REMARK  1 active torsions:
REMARK  status: ('A' for Active; 'I' for Inactive)
REMARK    1  A    between atoms: C4_4  and  O11_11 
ROOT
HETATM    1  C1  UNL     1     -32.750  18.766  -0.965  1.00 20.00    -0.021 C 
HETATM    2  C2  UNL     1     -33.233  18.458   0.251  1.00 20.00    -0.025 C 
HETATM    3  C3  UNL     1     -34.118  17.015  -2.003  1.00 20.00    -0.043 C 
HETATM    4  C4  UNL     1     -33.928  16.199  -3.043  1.00 20.00     0.045 C 
HETATM    5  C5  UNL     1     -34.681  16.629  -0.640  1.00 20.00     0.046 C 
HETATM    6  C6  UNL     1     -35.051  18.937  -1.098  1.00 20.00     0.022 C 
HETATM    7  C7  UNL     1     -33.858  18.511  -1.962  1.00 20.00     0.040 C 
HETATM    8  C8  UNL     1     -34.670  18.009   0.062  1.00 20.00     0.013 C 
HETATM    9  C9  UNL     1     -33.370  16.644  -4.357  1.00 20.00     0.076 C 
ENDROOT
BRANCH   4  10
HETATM   10  O11 UNL     1     -34.255  14.859  -2.944  1.00 20.00    -0.360 OA
HETATM   11  C10 UNL     1     -33.468  14.050  -3.782  1.00 20.00     0.209 C 
ENDBRANCH   4  10
TORSDOF 1
ENDMDL
MODEL 9
REMARK VINA RESULT:      -4.2     11.020     12.945
REMARK  1 active torsions:
REMARK  status: ('A' for Active; 'I' for Inactive)
REMARK    1  A    between atoms: C4_4  and  O11_11 
ROOT
HETATM    1  C1  UNL     1     -34.128  17.107  -4.414  1.00 20.00    -0.021 C 
HETATM    2  C2  UNL     1     -33.260  16.088  -4.531  1.00 20.00    -0.025 C 
HETATM    3  C3  UNL     1     -35.817  15.617  -3.445  1.00 20.00    -0.043 C 
HETATM    4  C4  UNL     1     -37.150  15.572  -3.517  1.00 20.00     0.045 C 
HETATM    5  C5  UNL     1     -34.864  14.434  -3.571  1.00 20.00     0.046 C 
HETATM    6  C6  UNL     1     -33.882  16.195  -2.305  1.00 20.00     0.022 C 
HETATM    7  C7  UNL     1     -34.961  16.843  -3.180  1.00 20.00     0.040 C 
HETATM    8  C8  UNL     1     -33.507  15.151  -3.364  1.00 20.00     0.013 C 
HETATM    9  C9  UNL     1     -38.030  16.775  -3.384  1.00 20.00     0.076 C 
ENDROOT
BRANCH   4  10
HETATM   10  O11 UNL     1     -37.796  14.367  -3.721  1.00 20.00    -0.360 OA
HETATM   11  C10 UNL     1     -39.087  14.531  -4.253  1.00 20.00     0.209 C 
ENDBRANCH   4  10
TORSDOF 1
ENDMDL
