MODEL 1
REMARK VINA RESULT:      -4.1      0.000      0.000
REMARK  1 active torsions:
REMARK  status: ('A' for Active; 'I' for Inactive)
REMARK    1  A    between atoms: C2_2  and  C6_6 
ROOT
HETATM    1  C3  UNL     1     -34.095   6.298   5.720  1.00 20.00     0.181 C 
HETATM    2  C4  UNL     1     -35.662   5.243   4.069  1.00 20.00     0.181 C 
HETATM    3  C5  UNL     1     -34.879   4.095   5.965  1.00 20.00     0.337 C 
HETATM    4  C6  UNL     1     -34.565   6.296   4.262  1.00 20.00     0.061 C 
HETATM    5  O8  UNL     1     -33.775   4.976   6.157  1.00 20.00    -0.366 OA
HETATM    6  O9  UNL     1     -35.257   3.978   4.596  1.00 20.00    -0.366 OA
ENDROOT
BRANCH   4   7
HETATM    7  C2  UNL     1     -33.412   6.041   3.330  1.00 20.00    -0.085 C 
HETATM    8  C1  UNL     1     -33.497   5.163   2.320  1.00 20.00     0.014 C 
HETATM    9  C7  UNL     1     -32.162   6.827   3.596  1.00 20.00     0.043 C 
ENDBRANCH   4   7
TORSDOF 1
ENDMDL
MODEL 2
REMARK VINA RESULT:      -4.0     12.528     13.155
REMARK  1 active torsions:
REMARK  status: ('A' for Active; 'I' for Inactive)
REMARK    1  A    between atoms: C2_2  and  C6_6 
ROOT
HETATM    1  C3  UNL     1     -34.529  13.388  -5.058  1.00 20.00     0.181 C 
HETATM    2  C4  UNL     1     -36.462  14.588  -4.000  1.00 20.00     0.181 C 
HETATM    3  C5  UNL     1     -35.959  14.792  -6.287  1.00 20.00     0.337 C 
HETATM    4  C6  UNL     1     -35.075  13.985  -3.756  1.00 20.00     0.061 C 
HETATM    5  O8  UNL     1     -34.620  14.329  -6.129  1.00 20.00    -0.366 OA
HETATM    6  O9  UNL     1     -36.449  15.464  -5.129  1.00 20.00    -0.366 OA
ENDROOT
BRANCH   4   7
HETATM    7  C2  UNL     1     -34.132  15.019  -3.207  1.00 20.00    -0.085 C 
HETATM    8  C1  UNL     1     -32.860  15.111  -3.621  1.00 20.00     0.014 C 
HETATM    9  C7  UNL     1     -34.696  15.944  -2.169  1.00 20.00     0.043 C 
ENDBRANCH   4   7
TORSDOF 1
ENDMDL
MODEL 3
REMARK VINA RESULT:      -3.8     12.749     13.467
REMARK  1 active torsions:
REMARK  status: ('A' for Active; 'I' for Inactive)
REMARK    1  A    between atoms: C2_2  and  C6_6 
ROOT
HETATM    1  C3  UNL     1     -35.015  16.442  -2.762  1.00 20.00     0.181 C 
HETATM    2  C4  UNL     1     -33.031  15.225  -3.698  1.00 20.00     0.181 C 
HETATM    3  C5  UNL     1     -33.620  17.391  -4.399  1.00 20.00     0.337 C 
HETATM    4  C6  UNL     1     -34.414  15.064  -3.058  1.00 20.00     0.061 C 
HETATM    5  O8  UNL     1     -34.956  17.285  -3.915  1.00 20.00    -0.366 OA
HETATM    6  O9  UNL     1     -33.080  16.134  -4.800  1.00 20.00    -0.366 OA
ENDROOT
BRANCH   4   7
HETATM    7  C2  UNL     1     -35.325  14.265  -3.948  1.00 20.00    -0.085 C 
HETATM    8  C1  UNL     1     -36.646  14.488  -3.995  1.00 20.00     0.014 C 
HETATM    9  C7  UNL     1     -34.670  13.203  -4.782  1.00 20.00     0.043 C 
ENDBRANCH   4   7
TORSDOF 1
ENDMDL
MODEL 4
REMARK VINA RESULT:      -3.8     12.122     13.128
REMARK  1 active torsions:
REMARK  status: ('A' for Active; 'I' for Inactive)
REMARK    1  A    between atoms: C2_2  and  C6_6 
ROOT
HETATM    1  C3  UNL     1     -34.420  15.419  -5.456  1.00 20.00     0.181 C 
HETATM    2  C4  UNL     1     -33.133  14.330  -3.599  1.00 20.00     0.181 C 
HETATM    3  C5  UNL     1     -34.739  13.167  -4.862  1.00 20.00     0.337 C 
HETATM    4  C6  UNL     1     -33.682  15.656  -4.134  1.00 20.00     0.061 C 
HETATM    5  O8  UNL     1     -35.368  14.358  -5.330  1.00 20.00    -0.366 OA
HETATM    6  O9  UNL     1     -34.151  13.327  -3.573  1.00 20.00    -0.366 OA
ENDROOT
BRANCH   4   7
HETATM    7  C2  UNL     1     -34.589  16.305  -3.126  1.00 20.00    -0.085 C 
HETATM    8  C1  UNL     1     -34.402  16.159  -1.806  1.00 20.00     0.014 C 
HETATM    9  C7  UNL     1     -35.716  17.126  -3.681  1.00 20.00     0.043 C 
ENDBRANCH   4   7
TORSDOF 1
ENDMDL
MODEL 5
REMARK VINA RESULT:      -3.7     12.041     12.990
REMARK  1 active torsions:
REMARK  status: ('A' for Active; 'I' for Inactive)
REMARK    1  A    between atoms: C2_2  and  C6_6 
ROOT
HETATM    1  C3  UNL     1     -34.950  15.451  -5.285  1.00 20.00     0.181 C 
HETATM    2  C4  UNL     1     -33.311  14.620  -3.577  1.00 20.00     0.181 C 
HETATM    3  C5  UNL     1     -34.698  13.165  -4.796  1.00 20.00     0.337 C 
HETATM    4  C6  UNL     1     -34.189  15.802  -4.003  1.00 20.00     0.061 C 
HETATM    5  O8  UNL     1     -35.617  14.194  -5.157  1.00 20.00    -0.366 OA
HETATM    6  O9  UNL     1     -34.067  13.408  -3.541  1.00 20.00    -0.366 OA
ENDROOT
BRANCH   4   7
HETATM    7  C2  UNL     1     -35.142  16.182  -2.904  1.00 20.00    -0.085 C 
HETATM    8  C1  UNL     1     -36.435  16.446  -3.146  1.00 20.00     0.014 C 
HETATM    9  C7  UNL     1     -34.564  16.249  -1.520  1.00 20.00     0.043 C 
ENDBRANCH   4   7
TORSDOF 1
ENDMDL
MODEL 6
REMARK VINA RESULT:      -3.7     12.591     13.315
REMARK  1 active torsions:
REMARK  status: ('A' for Active; 'I' for Inactive)
REMARK    1  A    between atoms: C2_2  and  C6_6 
ROOT
HETATM    1  C3  UNL     1     -34.250  15.740  -3.879  1.00 20.00     0.181 C 
HETATM    2  C4  UNL     1     -35.287  13.526  -4.445  1.00 20.00     0.181 C 
HETATM    3  C5  UNL     1     -33.109  13.706  -3.580  1.00 20.00     0.337 C 
HETATM    4  C6  UNL     1     -35.277  15.025  -4.765  1.00 20.00     0.061 C 
HETATM    5  O8  UNL     1     -32.983  15.082  -3.931  1.00 20.00    -0.366 OA
HETATM    6  O9  UNL     1     -33.964  12.989  -4.467  1.00 20.00    -0.366 OA
ENDROOT
BRANCH   4   7
HETATM    7  C2  UNL     1     -34.980  15.259  -6.220  1.00 20.00    -0.085 C 
HETATM    8  C1  UNL     1     -35.282  14.351  -7.160  1.00 20.00     0.014 C 
HETATM    9  C7  UNL     1     -34.327  16.566  -6.561  1.00 20.00     0.043 C 
ENDBRANCH   4   7
TORSDOF 1
ENDMDL
MODEL 7
REMARK VINA RESULT:      -3.7     12.520     13.388
REMARK  1 active torsions:
REMARK  status: ('A' for Active; 'I' for Inactive)
REMARK    1  A    between atoms: C2_2  and  C6_6 
ROOT
HETATM    1  C3  UNL     1     -36.125  15.950  -3.517  1.00 20.00     0.181 C 
HETATM    2  C4  UNL     1     -33.787  16.356  -2.702  1.00 20.00     0.181 C 
HETATM    3  C5  UNL     1     -34.740  17.604  -4.451  1.00 20.00     0.337 C 
HETATM    4  C6  UNL     1     -34.902  15.314  -2.847  1.00 20.00     0.061 C 
HETATM    5  O8  UNL     1     -35.753  16.637  -4.714  1.00 20.00    -0.366 OA
HETATM    6  O9  UNL     1     -33.542  17.021  -3.943  1.00 20.00    -0.366 OA
ENDROOT
BRANCH   4   7
HETATM    7  C2  UNL     1     -34.422  14.124  -3.632  1.00 20.00    -0.085 C 
HETATM    8  C1  UNL     1     -35.262  13.357  -4.342  1.00 20.00     0.014 C 
HETATM    9  C7  UNL     1     -32.949  13.845  -3.575  1.00 20.00     0.043 C 
ENDBRANCH   4   7
TORSDOF 1
ENDMDL
MODEL 8
REMARK VINA RESULT:      -3.6      1.695      3.326
REMARK  1 active torsions:
REMARK  status: ('A' for Active; 'I' for Inactive)
REMARK    1  A    between atoms: C2_2  and  C6_6 
ROOT
HETATM    1  C3  UNL     1     -34.320   5.233   2.787  1.00 20.00     0.181 C 
HETATM    2  C4  UNL     1     -33.878   7.267   4.188  1.00 20.00     0.181 C 
HETATM    3  C5  UNL     1     -32.192   6.223   2.925  1.00 20.00     0.337 C 
HETATM    4  C6  UNL     1     -34.761   6.025   4.022  1.00 20.00     0.061 C 
HETATM    5  O8  UNL     1     -32.911   4.998   2.806  1.00 20.00    -0.366 OA
HETATM    6  O9  UNL     1     -32.493   6.921   4.131  1.00 20.00    -0.366 OA
ENDROOT
BRANCH   4   7
HETATM    7  C2  UNL     1     -34.710   5.165   5.254  1.00 20.00    -0.085 C 
HETATM    8  C1  UNL     1     -34.945   3.845   5.209  1.00 20.00     0.014 C 
HETATM    9  C7  UNL     1     -34.380   5.868   6.538  1.00 20.00     0.043 C 
ENDBRANCH   4   7
TORSDOF 1
ENDMDL
MODEL 9
REMARK VINA RESULT:      -3.6     12.939     13.625
REMARK  1 active torsions:
REMARK  status: ('A' for Active; 'I' for Inactive)
REMARK    1  A    between atoms: C2_2  and  C6_6 
ROOT
HETATM    1  C3  UNL     1     -32.831  15.412  -3.819  1.00 20.00     0.181 C 
HETATM    2  C4  UNL     1     -34.852  14.471  -4.969  1.00 20.00     0.181 C 
HETATM    3  C5  UNL     1     -33.559  16.192  -5.913  1.00 20.00     0.337 C 
HETATM    4  C6  UNL     1     -34.184  14.722  -3.613  1.00 20.00     0.061 C 
HETATM    5  O8  UNL     1     -32.961  16.552  -4.670  1.00 20.00    -0.366 OA
HETATM    6  O9  UNL     1     -34.873  15.663  -5.758  1.00 20.00    -0.366 OA
ENDROOT
BRANCH   4   7
HETATM    7  C2  UNL     1     -35.073  15.546  -2.724  1.00 20.00    -0.085 C 
HETATM    8  C1  UNL     1     -34.597  16.198  -1.652  1.00 20.00     0.014 C 
HETATM    9  C7  UNL     1     -36.523  15.599  -3.104  1.00 20.00     0.043 C 
ENDBRANCH   4   7
TORSDOF 1
ENDMDL
