MODEL 1
REMARK VINA RESULT:      -4.5      0.000      0.000
REMARK  2 active torsions:
REMARK  status: ('A' for Active; 'I' for Inactive)
REMARK    1  A    between atoms: C7_7  and  C9_9 
REMARK    2  A    between atoms: C8_8  and  C10_10 
ROOT
HETATM    1  C1  UNL     1     -35.548  15.254  -3.275  1.00 20.00     0.005 C 
HETATM    2  C2  UNL     1     -34.365  14.323  -3.573  1.00 20.00     0.005 C 
HETATM    3  C3  UNL     1     -34.358  17.135  -4.403  1.00 20.00     0.005 C 
HETATM    4  C4  UNL     1     -33.168  16.200  -4.701  1.00 20.00     0.005 C 
HETATM    5  C7  UNL     1     -35.065  16.702  -3.101  1.00 20.00    -0.010 C 
HETATM    6  C8  UNL     1     -33.049  15.117  -3.608  1.00 20.00    -0.010 C 
ENDROOT
BRANCH   5   7
HETATM    7  C9  UNL     1     -34.017  16.796  -1.977  1.00 20.00    -0.006 A 
HETATM    8  C5  UNL     1     -33.437  18.148  -1.512  1.00 20.00     0.006 A 
HETATM    9  C6  UNL     1     -34.112  17.972  -0.143  1.00 20.00     0.006 A 
HETATM   10  C10 UNL     1     -34.692  16.616  -0.598  1.00 20.00    -0.006 A 
ENDBRANCH   5   7
TORSDOF 2
ENDMDL
MODEL 2
REMARK VINA RESULT:      -4.5      1.983      4.265
REMARK  2 active torsions:
REMARK  status: ('A' for Active; 'I' for Inactive)
REMARK    1  A    between atoms: C7_7  and  C9_9 
REMARK    2  A    between atoms: C8_8  and  C10_10 
ROOT
HETATM    1  C1  UNL     1     -35.817  15.208  -3.395  1.00 20.00     0.005 C 
HETATM    2  C2  UNL     1     -34.509  15.598  -2.695  1.00 20.00     0.005 C 
HETATM    3  C3  UNL     1     -34.671  13.261  -4.456  1.00 20.00     0.005 C 
HETATM    4  C4  UNL     1     -33.356  13.656  -3.754  1.00 20.00     0.005 C 
HETATM    5  C7  UNL     1     -35.525  14.516  -4.736  1.00 20.00    -0.010 C 
HETATM    6  C8  UNL     1     -33.297  15.183  -3.544  1.00 20.00    -0.010 C 
ENDROOT
BRANCH   5   7
HETATM    7  C9  UNL     1     -34.685  15.429  -5.648  1.00 20.00    -0.006 A 
HETATM    8  C5  UNL     1     -34.359  15.049  -7.108  1.00 20.00     0.006 A 
HETATM    9  C6  UNL     1     -35.211  16.225  -7.609  1.00 20.00     0.006 A 
HETATM   10  C10 UNL     1     -35.538  16.616  -6.153  1.00 20.00    -0.006 A 
ENDBRANCH   5   7
TORSDOF 2
ENDMDL
MODEL 3
REMARK VINA RESULT:      -4.4      1.309      2.385
REMARK  2 active torsions:
REMARK  status: ('A' for Active; 'I' for Inactive)
REMARK    1  A    between atoms: C7_7  and  C9_9 
REMARK    2  A    between atoms: C8_8  and  C10_10 
ROOT
HETATM    1  C1  UNL     1     -34.102  15.706  -5.440  1.00 20.00     0.005 C 
HETATM    2  C2  UNL     1     -34.756  14.320  -5.520  1.00 20.00     0.005 C 
HETATM    3  C3  UNL     1     -32.594  14.894  -3.626  1.00 20.00     0.005 C 
HETATM    4  C4  UNL     1     -33.253  13.502  -3.704  1.00 20.00     0.005 C 
HETATM    5  C7  UNL     1     -33.610  15.989  -4.012  1.00 20.00    -0.010 C 
HETATM    6  C8  UNL     1     -34.725  13.629  -4.147  1.00 20.00    -0.010 C 
ENDROOT
BRANCH   5   7
HETATM    7  C9  UNL     1     -34.772  15.890  -3.006  1.00 20.00    -0.006 A 
HETATM    8  C5  UNL     1     -34.599  16.264  -1.519  1.00 20.00     0.006 A 
HETATM    9  C6  UNL     1     -35.559  17.449  -1.701  1.00 20.00     0.006 A 
HETATM   10  C10 UNL     1     -35.742  17.080  -3.188  1.00 20.00    -0.006 A 
ENDBRANCH   5   7
TORSDOF 2
ENDMDL
MODEL 4
REMARK VINA RESULT:      -4.4      0.970      2.438
REMARK  2 active torsions:
REMARK  status: ('A' for Active; 'I' for Inactive)
REMARK    1  A    between atoms: C7_7  and  C9_9 
REMARK    2  A    between atoms: C8_8  and  C10_10 
ROOT
HETATM    1  C1  UNL     1     -33.198  15.987  -4.823  1.00 20.00     0.005 C 
HETATM    2  C2  UNL     1     -34.534  16.057  -5.574  1.00 20.00     0.005 C 
HETATM    3  C3  UNL     1     -34.089  14.135  -3.407  1.00 20.00     0.005 C 
HETATM    4  C4  UNL     1     -35.433  14.207  -4.161  1.00 20.00     0.005 C 
HETATM    5  C7  UNL     1     -33.418  15.524  -3.374  1.00 20.00    -0.010 C 
HETATM    6  C8  UNL     1     -35.694  15.646  -4.653  1.00 20.00    -0.010 C 
ENDROOT
BRANCH   5   7
HETATM    7  C9  UNL     1     -34.391  16.468  -2.643  1.00 20.00    -0.006 A 
HETATM    8  C5  UNL     1     -34.651  16.357  -1.126  1.00 20.00     0.006 A 
HETATM    9  C6  UNL     1     -33.995  17.729  -0.909  1.00 20.00     0.006 A 
HETATM   10  C10 UNL     1     -33.735  17.851  -2.425  1.00 20.00    -0.006 A 
ENDBRANCH   5   7
TORSDOF 2
ENDMDL
MODEL 5
REMARK VINA RESULT:      -4.4     11.885     13.204
REMARK  2 active torsions:
REMARK  status: ('A' for Active; 'I' for Inactive)
REMARK    1  A    between atoms: C7_7  and  C9_9 
REMARK    2  A    between atoms: C8_8  and  C10_10 
ROOT
HETATM    1  C1  UNL     1     -34.413   6.384   6.193  1.00 20.00     0.005 C 
HETATM    2  C2  UNL     1     -34.122   4.936   6.607  1.00 20.00     0.005 C 
HETATM    3  C3  UNL     1     -35.596   5.567   4.154  1.00 20.00     0.005 C 
HETATM    4  C4  UNL     1     -35.301   4.111   4.569  1.00 20.00     0.005 C 
HETATM    5  C7  UNL     1     -34.480   6.504   4.662  1.00 20.00    -0.010 C 
HETATM    6  C8  UNL     1     -33.983   4.038   5.368  1.00 20.00    -0.010 C 
ENDROOT
BRANCH   5   7
HETATM    7  C9  UNL     1     -33.168   6.020   4.020  1.00 20.00    -0.006 A 
HETATM    8  C5  UNL     1     -32.990   5.934   2.489  1.00 20.00     0.006 A 
HETATM    9  C6  UNL     1     -31.932   7.047   2.545  1.00 20.00     0.006 A 
HETATM   10  C10 UNL     1     -32.099   7.135   4.076  1.00 20.00    -0.006 A 
ENDBRANCH   5   7
TORSDOF 2
ENDMDL
MODEL 6
REMARK VINA RESULT:      -4.1      2.186      4.580
REMARK  2 active torsions:
REMARK  status: ('A' for Active; 'I' for Inactive)
REMARK    1  A    between atoms: C7_7  and  C9_9 
REMARK    2  A    between atoms: C8_8  and  C10_10 
ROOT
HETATM    1  C1  UNL     1     -33.158  16.283  -4.687  1.00 20.00     0.005 C 
HETATM    2  C2  UNL     1     -33.002  15.114  -3.705  1.00 20.00     0.005 C 
HETATM    3  C3  UNL     1     -35.505  16.626  -3.912  1.00 20.00     0.005 C 
HETATM    4  C4  UNL     1     -35.349  15.450  -2.926  1.00 20.00     0.005 C 
HETATM    5  C7  UNL     1     -34.617  16.403  -5.154  1.00 20.00    -0.010 C 
HETATM    6  C8  UNL     1     -34.351  14.413  -3.482  1.00 20.00    -0.010 C 
ENDROOT
BRANCH   5   7
HETATM    7  C9  UNL     1     -35.090  15.092  -5.807  1.00 20.00    -0.006 A 
HETATM    8  C5  UNL     1     -36.471  14.968  -6.485  1.00 20.00     0.006 A 
HETATM    9  C6  UNL     1     -35.791  14.781  -7.849  1.00 20.00     0.006 A 
HETATM   10  C10 UNL     1     -34.405  14.898  -7.180  1.00 20.00    -0.006 A 
ENDBRANCH   5   7
TORSDOF 2
ENDMDL
MODEL 7
REMARK VINA RESULT:      -4.1      1.731      2.946
REMARK  2 active torsions:
REMARK  status: ('A' for Active; 'I' for Inactive)
REMARK    1  A    between atoms: C7_7  and  C9_9 
REMARK    2  A    between atoms: C8_8  and  C10_10 
ROOT
HETATM    1  C1  UNL     1     -34.725  13.631  -4.908  1.00 20.00     0.005 C 
HETATM    2  C2  UNL     1     -34.869  14.436  -6.206  1.00 20.00     0.005 C 
HETATM    3  C3  UNL     1     -36.954  14.455  -4.146  1.00 20.00     0.005 C 
HETATM    4  C4  UNL     1     -37.097  15.265  -5.451  1.00 20.00     0.005 C 
HETATM    5  C7  UNL     1     -35.466  14.328  -3.756  1.00 20.00    -0.010 C 
HETATM    6  C8  UNL     1     -35.710  15.699  -5.967  1.00 20.00    -0.010 C 
ENDROOT
BRANCH   5   7
HETATM    7  C9  UNL     1     -34.938  15.760  -3.557  1.00 20.00    -0.006 A 
HETATM    8  C5  UNL     1     -35.412  16.651  -2.389  1.00 20.00     0.006 A 
HETATM    9  C6  UNL     1     -34.002  16.614  -1.781  1.00 20.00     0.006 A 
HETATM   10  C10 UNL     1     -33.517  15.728  -2.948  1.00 20.00    -0.006 A 
ENDBRANCH   5   7
TORSDOF 2
ENDMDL
MODEL 8
REMARK VINA RESULT:      -4.1      1.265      3.773
REMARK  2 active torsions:
REMARK  status: ('A' for Active; 'I' for Inactive)
REMARK    1  A    between atoms: C7_7  and  C9_9 
REMARK    2  A    between atoms: C8_8  and  C10_10 
ROOT
HETATM    1  C1  UNL     1     -36.283  17.002  -3.354  1.00 20.00     0.005 C 
HETATM    2  C2  UNL     1     -35.264  18.080  -3.748  1.00 20.00     0.005 C 
HETATM    3  C3  UNL     1     -34.733  16.182  -1.579  1.00 20.00     0.005 C 
HETATM    4  C4  UNL     1     -33.709  17.265  -1.976  1.00 20.00     0.005 C 
HETATM    5  C7  UNL     1     -35.566  15.758  -2.807  1.00 20.00    -0.010 C 
HETATM    6  C8  UNL     1     -33.832  17.594  -3.478  1.00 20.00    -0.010 C 
ENDROOT
BRANCH   5   7
HETATM    7  C9  UNL     1     -34.573  15.201  -3.844  1.00 20.00    -0.006 A 
HETATM    8  C5  UNL     1     -33.830  13.866  -3.627  1.00 20.00     0.006 A 
HETATM    9  C6  UNL     1     -34.591  13.244  -4.808  1.00 20.00     0.006 A 
HETATM   10  C10 UNL     1     -35.336  14.576  -5.035  1.00 20.00    -0.006 A 
ENDBRANCH   5   7
TORSDOF 2
ENDMDL
MODEL 9
REMARK VINA RESULT:      -4.1     12.573     14.528
REMARK  2 active torsions:
REMARK  status: ('A' for Active; 'I' for Inactive)
REMARK    1  A    between atoms: C7_7  and  C9_9 
REMARK    2  A    between atoms: C8_8  and  C10_10 
ROOT
HETATM    1  C1  UNL     1     -42.859   5.352   0.721  1.00 20.00     0.005 C 
HETATM    2  C2  UNL     1     -43.385   6.638   0.069  1.00 20.00     0.005 C 
HETATM    3  C3  UNL     1     -40.637   5.710  -0.356  1.00 20.00     0.005 C 
HETATM    4  C4  UNL     1     -41.166   7.001  -1.013  1.00 20.00     0.005 C 
HETATM    5  C7  UNL     1     -41.786   4.698  -0.163  1.00 20.00    -0.010 C 
HETATM    6  C8  UNL     1     -42.682   6.887  -1.275  1.00 20.00    -0.010 C 
ENDROOT
BRANCH   5   7
HETATM    7  C9  UNL     1     -42.346   4.393  -1.564  1.00 20.00    -0.006 A 
HETATM    8  C5  UNL     1     -41.560   3.555  -2.594  1.00 20.00     0.006 A 
HETATM    9  C6  UNL     1     -42.621   2.447  -2.510  1.00 20.00     0.006 A 
HETATM   10  C10 UNL     1     -43.417   3.281  -1.483  1.00 20.00    -0.006 A 
ENDBRANCH   5   7
TORSDOF 2
ENDMDL
