MODEL 1
REMARK VINA RESULT:      -4.8      0.000      0.000
REMARK  0 active torsions:
REMARK  status: ('A' for Active; 'I' for Inactive)
ROOT
HETATM    1  C1  UNL     1     -35.022  15.224  -7.789  1.00 20.00     0.004 A 
HETATM    2  C2  UNL     1     -35.146  14.026  -7.064  1.00 20.00     0.034 A 
HETATM    3  C3  UNL     1     -34.566  16.402  -7.185  1.00 20.00     0.021 A 
HETATM    4  C4  UNL     1     -34.361  13.595  -3.650  1.00 20.00     0.210 A 
HETATM    5  C5  UNL     1     -34.792  14.033  -5.706  1.00 20.00     0.086 A 
HETATM    6  C6  UNL     1     -34.344  15.219  -5.148  1.00 20.00     0.081 A 
HETATM    7  C7  UNL     1     -34.223  16.425  -5.831  1.00 20.00     0.029 A 
HETATM    8  C8  UNL     1     -33.549  15.880  -2.905  1.00 20.00     0.140 C 
HETATM    9  C9  UNL     1     -34.010  17.306  -3.227  1.00 20.00     0.100 C 
HETATM   10  N10 UNL     1     -34.800  13.031  -4.758  1.00 20.00    -0.242 NA
HETATM   11  N11 UNL     1     -34.073  14.910  -3.844  1.00 20.00    -0.338 N 
HETATM   12  S12 UNL     1     -33.623  17.835  -4.951  1.00 20.00    -0.126 SA
ENDROOT
TORSDOF 0
ENDMDL
MODEL 2
REMARK VINA RESULT:      -4.8      2.587      3.107
REMARK  0 active torsions:
REMARK  status: ('A' for Active; 'I' for Inactive)
ROOT
HETATM    1  C1  UNL     1     -33.545  13.829  -3.926  1.00 20.00     0.004 A 
HETATM    2  C2  UNL     1     -34.874  13.400  -4.096  1.00 20.00     0.034 A 
HETATM    3  C3  UNL     1     -33.242  15.136  -3.526  1.00 20.00     0.021 A 
HETATM    4  C4  UNL     1     -37.755  15.370  -3.573  1.00 20.00     0.210 A 
HETATM    5  C5  UNL     1     -35.904  14.320  -3.848  1.00 20.00     0.086 A 
HETATM    6  C6  UNL     1     -35.561  15.603  -3.453  1.00 20.00     0.081 A 
HETATM    7  C7  UNL     1     -34.259  16.065  -3.288  1.00 20.00     0.029 A 
HETATM    8  C8  UNL     1     -36.845  17.622  -2.837  1.00 20.00     0.140 C 
HETATM    9  C9  UNL     1     -35.636  18.453  -3.283  1.00 20.00     0.100 C 
HETATM   10  N10 UNL     1     -37.275  14.193  -3.922  1.00 20.00    -0.242 NA
HETATM   11  N11 UNL     1     -36.756  16.245  -3.280  1.00 20.00    -0.338 N 
HETATM   12  S12 UNL     1     -34.017  17.736  -2.769  1.00 20.00    -0.126 SA
ENDROOT
TORSDOF 0
ENDMDL
MODEL 3
REMARK VINA RESULT:      -4.6      1.165      3.298
REMARK  0 active torsions:
REMARK  status: ('A' for Active; 'I' for Inactive)
ROOT
HETATM    1  C1  UNL     1     -34.037  17.114  -2.803  1.00 20.00     0.004 A 
HETATM    2  C2  UNL     1     -33.949  15.738  -2.528  1.00 20.00     0.034 A 
HETATM    3  C3  UNL     1     -34.417  17.587  -4.065  1.00 20.00     0.021 A 
HETATM    4  C4  UNL     1     -34.647  13.135  -4.808  1.00 20.00     0.210 A 
HETATM    5  C5  UNL     1     -34.259  14.835  -3.557  1.00 20.00     0.086 A 
HETATM    6  C6  UNL     1     -34.632  15.344  -4.790  1.00 20.00     0.081 A 
HETATM    7  C7  UNL     1     -34.717  16.698  -5.101  1.00 20.00     0.029 A 
HETATM    8  C8  UNL     1     -35.325  14.337  -6.937  1.00 20.00     0.140 C 
HETATM    9  C9  UNL     1     -34.805  15.603  -7.630  1.00 20.00     0.100 C 
HETATM   10  N10 UNL     1     -34.270  13.456  -3.586  1.00 20.00    -0.242 NA
HETATM   11  N11 UNL     1     -34.877  14.243  -5.563  1.00 20.00    -0.338 N 
HETATM   12  S12 UNL     1     -35.220  17.158  -6.731  1.00 20.00    -0.126 SA
ENDROOT
TORSDOF 0
ENDMDL
MODEL 4
REMARK VINA RESULT:      -4.5      2.182      3.949
REMARK  0 active torsions:
REMARK  status: ('A' for Active; 'I' for Inactive)
ROOT
HETATM    1  C1  UNL     1     -34.048  13.713  -3.841  1.00 20.00     0.004 A 
HETATM    2  C2  UNL     1     -33.519  14.963  -3.478  1.00 20.00     0.034 A 
HETATM    3  C3  UNL     1     -34.662  13.509  -5.084  1.00 20.00     0.021 A 
HETATM    4  C4  UNL     1     -33.535  17.867  -5.484  1.00 20.00     0.210 A 
HETATM    5  C5  UNL     1     -33.615  16.018  -4.399  1.00 20.00     0.086 A 
HETATM    6  C6  UNL     1     -34.228  15.774  -5.617  1.00 20.00     0.081 A 
HETATM    7  C7  UNL     1     -34.775  14.554  -6.005  1.00 20.00     0.029 A 
HETATM    8  C8  UNL     1     -34.670  17.134  -7.631  1.00 20.00     0.140 C 
HETATM    9  C9  UNL     1     -35.863  16.214  -7.918  1.00 20.00     0.100 C 
HETATM   10  N10 UNL     1     -33.192  17.328  -4.331  1.00 20.00    -0.242 NA
HETATM   11  N11 UNL     1     -34.159  16.964  -6.287  1.00 20.00    -0.338 N 
HETATM   12  S12 UNL     1     -35.511  14.431  -7.606  1.00 20.00    -0.126 SA
ENDROOT
TORSDOF 0
ENDMDL
MODEL 5
REMARK VINA RESULT:      -4.5      1.598      3.045
REMARK  0 active torsions:
REMARK  status: ('A' for Active; 'I' for Inactive)
ROOT
HETATM    1  C1  UNL     1     -34.359  13.653  -3.609  1.00 20.00     0.004 A 
HETATM    2  C2  UNL     1     -34.675  13.313  -4.936  1.00 20.00     0.034 A 
HETATM    3  C3  UNL     1     -34.128  14.981  -3.227  1.00 20.00     0.021 A 
HETATM    4  C4  UNL     1     -34.998  15.581  -7.620  1.00 20.00     0.210 A 
HETATM    5  C5  UNL     1     -34.759  14.345  -5.883  1.00 20.00     0.086 A 
HETATM    6  C6  UNL     1     -34.524  15.644  -5.464  1.00 20.00     0.081 A 
HETATM    7  C7  UNL     1     -34.196  16.016  -4.163  1.00 20.00     0.029 A 
HETATM    8  C8  UNL     1     -34.554  17.850  -6.576  1.00 20.00     0.140 C 
HETATM    9  C9  UNL     1     -33.558  18.332  -5.515  1.00 20.00     0.100 C 
HETATM   10  N10 UNL     1     -35.049  14.323  -7.231  1.00 20.00    -0.242 NA
HETATM   11  N11 UNL     1     -34.688  16.408  -6.586  1.00 20.00    -0.338 N 
HETATM   12  S12 UNL     1     -33.940  17.729  -3.815  1.00 20.00    -0.126 SA
ENDROOT
TORSDOF 0
ENDMDL
MODEL 6
REMARK VINA RESULT:      -4.4      2.106      4.624
REMARK  0 active torsions:
REMARK  status: ('A' for Active; 'I' for Inactive)
ROOT
HETATM    1  C1  UNL     1     -34.204  17.189  -1.367  1.00 20.00     0.004 A 
HETATM    2  C2  UNL     1     -33.847  18.230  -2.241  1.00 20.00     0.034 A 
HETATM    3  C3  UNL     1     -34.521  15.910  -1.841  1.00 20.00     0.021 A 
HETATM    4  C4  UNL     1     -33.615  17.981  -5.754  1.00 20.00     0.210 A 
HETATM    5  C5  UNL     1     -33.809  17.958  -3.618  1.00 20.00     0.086 A 
HETATM    6  C6  UNL     1     -34.128  16.679  -4.045  1.00 20.00     0.081 A 
HETATM    7  C7  UNL     1     -34.498  15.629  -3.210  1.00 20.00     0.029 A 
HETATM    8  C8  UNL     1     -34.210  15.564  -6.248  1.00 20.00     0.140 C 
HETATM    9  C9  UNL     1     -35.251  14.606  -5.657  1.00 20.00     0.100 C 
HETATM   10  N10 UNL     1     -33.495  18.758  -4.696  1.00 20.00    -0.242 NA
HETATM   11  N11 UNL     1     -33.991  16.721  -5.405  1.00 20.00    -0.338 N 
HETATM   12  S12 UNL     1     -34.862  14.061  -3.939  1.00 20.00    -0.126 SA
ENDROOT
TORSDOF 0
ENDMDL
MODEL 7
REMARK VINA RESULT:      -4.4      1.746      2.943
REMARK  0 active torsions:
REMARK  status: ('A' for Active; 'I' for Inactive)
ROOT
HETATM    1  C1  UNL     1     -34.743  13.288  -4.903  1.00 20.00     0.004 A 
HETATM    2  C2  UNL     1     -34.439  13.805  -3.632  1.00 20.00     0.034 A 
HETATM    3  C3  UNL     1     -34.805  14.112  -6.034  1.00 20.00     0.021 A 
HETATM    4  C4  UNL     1     -33.738  17.185  -2.898  1.00 20.00     0.210 A 
HETATM    5  C5  UNL     1     -34.190  15.182  -3.518  1.00 20.00     0.086 A 
HETATM    6  C6  UNL     1     -34.260  15.961  -4.661  1.00 20.00     0.081 A 
HETATM    7  C7  UNL     1     -34.572  15.486  -5.932  1.00 20.00     0.029 A 
HETATM    8  C8  UNL     1     -33.902  18.357  -5.143  1.00 20.00     0.140 C 
HETATM    9  C9  UNL     1     -34.855  18.198  -6.334  1.00 20.00     0.100 C 
HETATM   10  N10 UNL     1     -33.867  15.961  -2.427  1.00 20.00    -0.242 NA
HETATM   11  N11 UNL     1     -33.963  17.227  -4.239  1.00 20.00    -0.338 N 
HETATM   12  S12 UNL     1     -34.605  16.633  -7.275  1.00 20.00    -0.126 SA
ENDROOT
TORSDOF 0
ENDMDL
MODEL 8
REMARK VINA RESULT:      -4.3      2.809      3.877
REMARK  0 active torsions:
REMARK  status: ('A' for Active; 'I' for Inactive)
ROOT
HETATM    1  C1  UNL     1     -33.362  13.800  -3.721  1.00 20.00     0.004 A 
HETATM    2  C2  UNL     1     -32.726  15.027  -3.977  1.00 20.00     0.034 A 
HETATM    3  C3  UNL     1     -34.757  13.679  -3.739  1.00 20.00     0.021 A 
HETATM    4  C4  UNL     1     -34.350  18.066  -4.742  1.00 20.00     0.210 A 
HETATM    5  C5  UNL     1     -33.529  16.144  -4.261  1.00 20.00     0.086 A 
HETATM    6  C6  UNL     1     -34.904  15.981  -4.270  1.00 20.00     0.081 A 
HETATM    7  C7  UNL     1     -35.567  14.785  -4.008  1.00 20.00     0.029 A 
HETATM    8  C8  UNL     1     -36.817  17.476  -4.723  1.00 20.00     0.140 C 
HETATM    9  C9  UNL     1     -37.664  16.565  -3.826  1.00 20.00     0.100 C 
HETATM   10  N10 UNL     1     -33.200  17.450  -4.553  1.00 20.00    -0.242 NA
HETATM   11  N11 UNL     1     -35.399  17.216  -4.584  1.00 20.00    -0.338 N 
HETATM   12  S12 UNL     1     -37.333  14.769  -4.075  1.00 20.00    -0.126 SA
ENDROOT
TORSDOF 0
ENDMDL
MODEL 9
REMARK VINA RESULT:      -4.2      2.174      3.784
REMARK  0 active torsions:
REMARK  status: ('A' for Active; 'I' for Inactive)
ROOT
HETATM    1  C1  UNL     1     -33.777  16.148  -2.801  1.00 20.00     0.004 A 
HETATM    2  C2  UNL     1     -35.045  15.750  -2.343  1.00 20.00     0.034 A 
HETATM    3  C3  UNL     1     -33.475  16.204  -4.167  1.00 20.00     0.021 A 
HETATM    4  C4  UNL     1     -37.772  14.822  -4.384  1.00 20.00     0.210 A 
HETATM    5  C5  UNL     1     -36.018  15.408  -3.297  1.00 20.00     0.086 A 
HETATM    6  C6  UNL     1     -35.678  15.478  -4.638  1.00 20.00     0.081 A 
HETATM    7  C7  UNL     1     -34.430  15.855  -5.126  1.00 20.00     0.029 A 
HETATM    8  C8  UNL     1     -36.891  15.069  -6.750  1.00 20.00     0.140 C 
HETATM    9  C9  UNL     1     -35.538  14.752  -7.397  1.00 20.00     0.100 C 
HETATM   10  N10 UNL     1     -37.325  14.994  -3.155  1.00 20.00    -0.242 NA
HETATM   11  N11 UNL     1     -36.812  15.106  -5.304  1.00 20.00    -0.338 N 
HETATM   12  S12 UNL     1     -34.186  15.892  -6.875  1.00 20.00    -0.126 SA
ENDROOT
TORSDOF 0
ENDMDL
