MODEL 1
REMARK VINA RESULT:      -4.2      0.000      0.000
REMARK  1 active torsions:
REMARK  status: ('A' for Active; 'I' for Inactive)
REMARK    1  A    between atoms: C2_2  and  C4_4 
ROOT
HETATM    1  C1  UNL     1     -33.230   6.159   3.359  1.00 20.00    -0.010 C 
HETATM    2  C2  UNL     1     -34.028   5.903   4.410  1.00 20.00     0.021 C 
HETATM    3  C3  UNL     1     -32.089   7.122   3.312  1.00 20.00     0.037 C 
HETATM    4 CL5  UNL     1     -33.703   6.710   5.918  1.00 20.00    -0.088 Cl
ENDROOT
BRANCH   2   5
HETATM    5  C4  UNL     1     -35.170   4.938   4.456  1.00 20.00     0.165 C 
HETATM    6 CL6  UNL     1     -35.176   4.060   6.002  1.00 20.00    -0.125 Cl
ENDBRANCH   2   5
TORSDOF 1
ENDMDL
MODEL 2
REMARK VINA RESULT:      -4.1      1.636      3.215
REMARK  1 active torsions:
REMARK  status: ('A' for Active; 'I' for Inactive)
REMARK    1  A    between atoms: C2_2  and  C4_4 
ROOT
HETATM    1  C1  UNL     1     -34.713   4.894   4.886  1.00 20.00    -0.010 C 
HETATM    2  C2  UNL     1     -34.041   6.057   4.912  1.00 20.00     0.021 C 
HETATM    3  C3  UNL     1     -35.220   4.124   6.062  1.00 20.00     0.037 C 
HETATM    4 CL5  UNL     1     -33.758   6.821   6.451  1.00 20.00    -0.088 Cl
ENDROOT
BRANCH   2   5
HETATM    5  C4  UNL     1     -33.534   6.827   3.734  1.00 20.00     0.165 C 
HETATM    6 CL6  UNL     1     -32.071   6.060   3.078  1.00 20.00    -0.125 Cl
ENDBRANCH   2   5
TORSDOF 1
ENDMDL
MODEL 3
REMARK VINA RESULT:      -4.0      1.485      1.585
REMARK  1 active torsions:
REMARK  status: ('A' for Active; 'I' for Inactive)
REMARK    1  A    between atoms: C2_2  and  C4_4 
ROOT
HETATM    1  C1  UNL     1     -32.824   6.661   4.180  1.00 20.00    -0.010 C 
HETATM    2  C2  UNL     1     -33.939   6.026   4.580  1.00 20.00     0.021 C 
HETATM    3  C3  UNL     1     -32.407   6.942   2.773  1.00 20.00     0.037 C 
HETATM    4 CL5  UNL     1     -35.081   5.507   3.372  1.00 20.00    -0.088 Cl
ENDROOT
BRANCH   2   5
HETATM    5  C4  UNL     1     -34.356   5.745   5.989  1.00 20.00     0.165 C 
HETATM    6 CL6  UNL     1     -35.092   4.131   6.107  1.00 20.00    -0.125 Cl
ENDBRANCH   2   5
TORSDOF 1
ENDMDL
MODEL 4
REMARK VINA RESULT:      -3.8      2.044      3.484
REMARK  1 active torsions:
REMARK  status: ('A' for Active; 'I' for Inactive)
REMARK    1  A    between atoms: C2_2  and  C4_4 
ROOT
HETATM    1  C1  UNL     1     -33.580   6.199   5.402  1.00 20.00    -0.010 C 
HETATM    2  C2  UNL     1     -33.804   6.095   4.082  1.00 20.00     0.021 C 
HETATM    3  C3  UNL     1     -34.527   5.851   6.505  1.00 20.00     0.037 C 
HETATM    4 CL5  UNL     1     -35.323   5.434   3.545  1.00 20.00    -0.088 Cl
ENDROOT
BRANCH   2   5
HETATM    5  C4  UNL     1     -32.856   6.444   2.979  1.00 20.00     0.165 C 
HETATM    6 CL6  UNL     1     -31.595   7.547   3.574  1.00 20.00    -0.125 Cl
ENDBRANCH   2   5
TORSDOF 1
ENDMDL
MODEL 5
REMARK VINA RESULT:      -3.7      1.522      2.232
REMARK  1 active torsions:
REMARK  status: ('A' for Active; 'I' for Inactive)
REMARK    1  A    between atoms: C2_2  and  C4_4 
ROOT
HETATM    1  C1  UNL     1     -32.872   6.514   4.137  1.00 20.00    -0.010 C 
HETATM    2  C2  UNL     1     -33.991   6.008   4.684  1.00 20.00     0.021 C 
HETATM    3  C3  UNL     1     -32.526   6.564   2.684  1.00 20.00     0.037 C 
HETATM    4 CL5  UNL     1     -35.227   5.386   3.626  1.00 20.00    -0.088 Cl
ENDROOT
BRANCH   2   5
HETATM    5  C4  UNL     1     -34.336   5.958   6.139  1.00 20.00     0.165 C 
HETATM    6 CL6  UNL     1     -33.593   7.325   6.998  1.00 20.00    -0.125 Cl
ENDBRANCH   2   5
TORSDOF 1
ENDMDL
MODEL 6
REMARK VINA RESULT:      -3.6      1.771      3.419
REMARK  1 active torsions:
REMARK  status: ('A' for Active; 'I' for Inactive)
REMARK    1  A    between atoms: C2_2  and  C4_4 
ROOT
HETATM    1  C1  UNL     1     -34.287   5.633   3.508  1.00 20.00    -0.010 C 
HETATM    2  C2  UNL     1     -33.326   6.313   4.156  1.00 20.00     0.021 C 
HETATM    3  C3  UNL     1     -35.574   5.132   4.079  1.00 20.00     0.037 C 
HETATM    4 CL5  UNL     1     -33.586   6.732   5.826  1.00 20.00    -0.088 Cl
ENDROOT
BRANCH   2   5
HETATM    5  C4  UNL     1     -32.039   6.814   3.583  1.00 20.00     0.165 C 
HETATM    6 CL6  UNL     1     -32.354   7.985   2.284  1.00 20.00    -0.125 Cl
ENDBRANCH   2   5
TORSDOF 1
ENDMDL
MODEL 7
REMARK VINA RESULT:      -3.6      1.766      2.192
REMARK  1 active torsions:
REMARK  status: ('A' for Active; 'I' for Inactive)
REMARK    1  A    between atoms: C2_2  and  C4_4 
ROOT
HETATM    1  C1  UNL     1     -34.094   6.464   6.103  1.00 20.00    -0.010 C 
HETATM    2  C2  UNL     1     -33.967   6.075   4.823  1.00 20.00     0.021 C 
HETATM    3  C3  UNL     1     -33.221   7.429   6.839  1.00 20.00     0.037 C 
HETATM    4 CL5  UNL     1     -32.705   6.785   3.858  1.00 20.00    -0.088 Cl
ENDROOT
BRANCH   2   5
HETATM    5  C4  UNL     1     -34.841   5.108   4.088  1.00 20.00     0.165 C 
HETATM    6 CL6  UNL     1     -35.203   3.700   5.112  1.00 20.00    -0.125 Cl
ENDBRANCH   2   5
TORSDOF 1
ENDMDL
MODEL 8
REMARK VINA RESULT:      -3.5      1.979      2.814
REMARK  1 active torsions:
REMARK  status: ('A' for Active; 'I' for Inactive)
REMARK    1  A    between atoms: C2_2  and  C4_4 
ROOT
HETATM    1  C1  UNL     1     -33.865   6.645   5.461  1.00 20.00    -0.010 C 
HETATM    2  C2  UNL     1     -34.499   5.561   4.981  1.00 20.00     0.021 C 
HETATM    3  C3  UNL     1     -33.644   6.993   6.897  1.00 20.00     0.037 C 
HETATM    4 CL5  UNL     1     -35.094   4.377   6.110  1.00 20.00    -0.088 Cl
ENDROOT
BRANCH   2   5
HETATM    5  C4  UNL     1     -34.720   5.214   3.543  1.00 20.00     0.165 C 
HETATM    6 CL6  UNL     1     -33.319   5.708   2.565  1.00 20.00    -0.125 Cl
ENDBRANCH   2   5
TORSDOF 1
ENDMDL
MODEL 9
REMARK VINA RESULT:      -3.1     12.173     12.328
REMARK  1 active torsions:
REMARK  status: ('A' for Active; 'I' for Inactive)
REMARK    1  A    between atoms: C2_2  and  C4_4 
ROOT
HETATM    1  C1  UNL     1     -34.882  15.990  -2.108  1.00 20.00    -0.010 C 
HETATM    2  C2  UNL     1     -34.520  15.175  -3.114  1.00 20.00     0.021 C 
HETATM    3  C3  UNL     1     -33.989  16.887  -1.314  1.00 20.00     0.037 C 
HETATM    4 CL5  UNL     1     -32.855  15.171  -3.624  1.00 20.00    -0.088 Cl
ENDROOT
BRANCH   2   5
HETATM    5  C4  UNL     1     -35.415  14.277  -3.908  1.00 20.00     0.165 C 
HETATM    6 CL6  UNL     1     -34.453  13.083  -4.808  1.00 20.00    -0.125 Cl
ENDBRANCH   2   5
TORSDOF 1
ENDMDL
