MODEL 1
REMARK VINA RESULT:      -3.8      0.000      0.000
REMARK  0 active torsions:
REMARK  status: ('A' for Active; 'I' for Inactive)
ROOT
HETATM    1  C1  UNL     1     -33.750  16.342  -2.344  1.00 20.00    -0.028 C 
HETATM    2  C2  UNL     1     -35.080  16.355  -2.185  1.00 20.00    -0.014 C 
HETATM    3  C3  UNL     1     -33.329  15.338  -3.372  1.00 20.00     0.043 C 
HETATM    4  C4  UNL     1     -36.654  15.104  -5.742  1.00 20.00     0.084 C 
HETATM    5  C5  UNL     1     -35.298  14.553  -6.140  1.00 20.00     0.084 C 
HETATM    6  C6  UNL     1     -35.764  15.380  -3.106  1.00 20.00     0.083 C 
HETATM    7  C7  UNL     1     -34.581  14.453  -3.438  1.00 20.00     0.068 C 
HETATM    8  S8  UNL     1     -36.509  16.364  -4.451  1.00 20.00    -0.158 SA
HETATM    9  S9  UNL     1     -34.660  13.391  -4.907  1.00 20.00    -0.162 SA
ENDROOT
TORSDOF 0
ENDMDL
MODEL 2
REMARK VINA RESULT:      -3.8      1.794      2.774
REMARK  0 active torsions:
REMARK  status: ('A' for Active; 'I' for Inactive)
ROOT
HETATM    1  C1  UNL     1     -33.306  13.644  -3.773  1.00 20.00    -0.028 C 
HETATM    2  C2  UNL     1     -32.656  14.799  -3.582  1.00 20.00    -0.014 C 
HETATM    3  C3  UNL     1     -34.788  13.849  -3.821  1.00 20.00     0.043 C 
HETATM    4  C4  UNL     1     -35.070  17.720  -5.110  1.00 20.00     0.084 C 
HETATM    5  C5  UNL     1     -36.238  16.753  -5.094  1.00 20.00     0.084 C 
HETATM    6  C6  UNL     1     -33.602  15.968  -3.500  1.00 20.00     0.083 C 
HETATM    7  C7  UNL     1     -34.909  15.229  -3.161  1.00 20.00     0.068 C 
HETATM    8  S8  UNL     1     -33.483  16.850  -5.095  1.00 20.00    -0.158 SA
HETATM    9  S9  UNL     1     -36.501  16.049  -3.447  1.00 20.00    -0.162 SA
ENDROOT
TORSDOF 0
ENDMDL
MODEL 3
REMARK VINA RESULT:      -3.7      1.907      3.290
REMARK  0 active torsions:
REMARK  status: ('A' for Active; 'I' for Inactive)
ROOT
HETATM    1  C1  UNL     1     -35.001  13.288  -4.281  1.00 20.00    -0.028 C 
HETATM    2  C2  UNL     1     -33.823  13.795  -3.894  1.00 20.00    -0.014 C 
HETATM    3  C3  UNL     1     -36.108  14.281  -4.111  1.00 20.00     0.043 C 
HETATM    4  C4  UNL     1     -34.111  17.839  -4.398  1.00 20.00     0.084 C 
HETATM    5  C5  UNL     1     -35.621  17.713  -4.482  1.00 20.00     0.084 C 
HETATM    6  C6  UNL     1     -33.952  15.222  -3.429  1.00 20.00     0.083 C 
HETATM    7  C7  UNL     1     -35.461  15.269  -3.132  1.00 20.00     0.068 C 
HETATM    8  S8  UNL     1     -33.290  16.270  -4.769  1.00 20.00    -0.158 SA
HETATM    9  S9  UNL     1     -36.304  16.872  -3.032  1.00 20.00    -0.162 SA
ENDROOT
TORSDOF 0
ENDMDL
MODEL 4
REMARK VINA RESULT:      -3.7      1.814      2.894
REMARK  0 active torsions:
REMARK  status: ('A' for Active; 'I' for Inactive)
ROOT
HETATM    1  C1  UNL     1     -33.389  13.629  -3.716  1.00 20.00    -0.028 C 
HETATM    2  C2  UNL     1     -34.596  13.552  -4.292  1.00 20.00    -0.014 C 
HETATM    3  C3  UNL     1     -32.873  15.034  -3.708  1.00 20.00     0.043 C 
HETATM    4  C4  UNL     1     -36.335  17.212  -3.767  1.00 20.00     0.084 C 
HETATM    5  C5  UNL     1     -34.976  17.801  -3.438  1.00 20.00     0.084 C 
HETATM    6  C6  UNL     1     -35.093  14.903  -4.736  1.00 20.00     0.083 C 
HETATM    7  C7  UNL     1     -33.761  15.672  -4.785  1.00 20.00     0.068 C 
HETATM    8  S8  UNL     1     -36.359  15.418  -3.526  1.00 20.00    -0.158 SA
HETATM    9  S9  UNL     1     -33.773  17.486  -4.754  1.00 20.00    -0.162 SA
ENDROOT
TORSDOF 0
ENDMDL
MODEL 5
REMARK VINA RESULT:      -3.6      1.723      2.352
REMARK  0 active torsions:
REMARK  status: ('A' for Active; 'I' for Inactive)
ROOT
HETATM    1  C1  UNL     1     -33.834  17.398  -1.483  1.00 20.00    -0.028 C 
HETATM    2  C2  UNL     1     -33.729  18.003  -2.673  1.00 20.00    -0.014 C 
HETATM    3  C3  UNL     1     -34.741  16.209  -1.549  1.00 20.00     0.043 C 
HETATM    4  C4  UNL     1     -34.417  15.110  -5.475  1.00 20.00     0.084 C 
HETATM    5  C5  UNL     1     -35.028  14.228  -4.403  1.00 20.00     0.084 C 
HETATM    6  C6  UNL     1     -34.529  17.295  -3.735  1.00 20.00     0.083 C 
HETATM    7  C7  UNL     1     -35.505  16.502  -2.846  1.00 20.00     0.068 C 
HETATM    8  S8  UNL     1     -33.334  16.373  -4.762  1.00 20.00    -0.158 SA
HETATM    9  S9  UNL     1     -36.376  15.067  -3.533  1.00 20.00    -0.162 SA
ENDROOT
TORSDOF 0
ENDMDL
MODEL 6
REMARK VINA RESULT:      -3.6      1.986      2.574
REMARK  0 active torsions:
REMARK  status: ('A' for Active; 'I' for Inactive)
ROOT
HETATM    1  C1  UNL     1     -34.141  13.586  -3.636  1.00 20.00    -0.028 C 
HETATM    2  C2  UNL     1     -34.193  14.869  -3.255  1.00 20.00    -0.014 C 
HETATM    3  C3  UNL     1     -34.798  13.382  -4.966  1.00 20.00     0.043 C 
HETATM    4  C4  UNL     1     -34.379  17.064  -6.696  1.00 20.00     0.084 C 
HETATM    5  C5  UNL     1     -34.773  15.815  -7.462  1.00 20.00     0.084 C 
HETATM    6  C6  UNL     1     -34.868  15.735  -4.286  1.00 20.00     0.083 C 
HETATM    7  C7  UNL     1     -35.642  14.659  -5.068  1.00 20.00     0.068 C 
HETATM    8  S8  UNL     1     -33.546  16.658  -5.142  1.00 20.00    -0.158 SA
HETATM    9  S9  UNL     1     -36.233  15.022  -6.744  1.00 20.00    -0.162 SA
ENDROOT
TORSDOF 0
ENDMDL
MODEL 7
REMARK VINA RESULT:      -3.6      1.700      3.879
REMARK  0 active torsions:
REMARK  status: ('A' for Active; 'I' for Inactive)
ROOT
HETATM    1  C1  UNL     1     -35.039  15.350  -7.730  1.00 20.00    -0.028 C 
HETATM    2  C2  UNL     1     -35.862  14.588  -6.997  1.00 20.00    -0.014 C 
HETATM    3  C3  UNL     1     -34.167  16.205  -6.865  1.00 20.00     0.043 C 
HETATM    4  C4  UNL     1     -33.979  14.013  -3.417  1.00 20.00     0.084 C 
HETATM    5  C5  UNL     1     -33.051  15.172  -3.728  1.00 20.00     0.084 C 
HETATM    6  C6  UNL     1     -35.648  14.791  -5.520  1.00 20.00     0.083 C 
HETATM    7  C7  UNL     1     -34.939  16.157  -5.541  1.00 20.00     0.068 C 
HETATM    8  S8  UNL     1     -34.725  13.335  -4.920  1.00 20.00    -0.158 SA
HETATM    9  S9  UNL     1     -33.972  16.685  -4.100  1.00 20.00    -0.162 SA
ENDROOT
TORSDOF 0
ENDMDL
MODEL 8
REMARK VINA RESULT:      -3.6      1.938      3.352
REMARK  0 active torsions:
REMARK  status: ('A' for Active; 'I' for Inactive)
ROOT
HETATM    1  C1  UNL     1     -34.695  13.319  -5.080  1.00 20.00    -0.028 C 
HETATM    2  C2  UNL     1     -35.044  13.766  -3.867  1.00 20.00    -0.014 C 
HETATM    3  C3  UNL     1     -34.619  14.434  -6.075  1.00 20.00     0.043 C 
HETATM    4  C4  UNL     1     -33.784  17.649  -3.689  1.00 20.00     0.084 C 
HETATM    5  C5  UNL     1     -33.645  17.665  -5.200  1.00 20.00     0.084 C 
HETATM    6  C6  UNL     1     -35.229  15.261  -3.852  1.00 20.00     0.083 C 
HETATM    7  C7  UNL     1     -35.432  15.518  -5.356  1.00 20.00     0.068 C 
HETATM    8  S8  UNL     1     -33.754  15.962  -3.035  1.00 20.00    -0.158 SA
HETATM    9  S9  UNL     1     -35.188  17.189  -6.019  1.00 20.00    -0.162 SA
ENDROOT
TORSDOF 0
ENDMDL
MODEL 9
REMARK VINA RESULT:      -3.5      1.684      2.009
REMARK  0 active torsions:
REMARK  status: ('A' for Active; 'I' for Inactive)
ROOT
HETATM    1  C1  UNL     1     -34.243  17.579  -1.422  1.00 20.00    -0.028 C 
HETATM    2  C2  UNL     1     -34.651  16.305  -1.351  1.00 20.00    -0.014 C 
HETATM    3  C3  UNL     1     -33.795  17.936  -2.805  1.00 20.00     0.043 C 
HETATM    4  C4  UNL     1     -35.949  15.324  -5.099  1.00 20.00     0.084 C 
HETATM    5  C5  UNL     1     -35.220  16.531  -5.659  1.00 20.00     0.084 C 
HETATM    6  C6  UNL     1     -34.566  15.614  -2.687  1.00 20.00     0.083 C 
HETATM    7  C7  UNL     1     -33.568  16.542  -3.402  1.00 20.00     0.068 C 
HETATM    8  S8  UNL     1     -36.272  15.503  -3.328  1.00 20.00    -0.158 SA
HETATM    9  S9  UNL     1     -33.466  16.520  -5.213  1.00 20.00    -0.162 SA
ENDROOT
TORSDOF 0
ENDMDL
