MODEL 1
REMARK VINA RESULT:      -3.9      0.000      0.000
REMARK  4 active torsions:
REMARK  status: ('A' for Active; 'I' for Inactive)
REMARK    1  A    between atoms: C1_1  and  O8_8 
REMARK    2  A    between atoms: C5_5  and  C6_6 
REMARK    3  A    between atoms: C6_6  and  C7_7 
REMARK    4  A    between atoms: C7_7  and  O8_8 
ROOT
HETATM    1  C4  UNL     1     -34.111   5.387   2.346  1.00 20.00     0.040 C 
HETATM    2  C7  UNL     1     -33.227   5.812   3.510  1.00 20.00     0.125 C 
ENDROOT
BRANCH   2   3
HETATM    3  C6  UNL     1     -32.019   6.625   3.031  1.00 20.00     0.032 C 
BRANCH   3   4
HETATM    4  C5  UNL     1     -32.401   8.062   2.667  1.00 20.00    -0.002 C 
HETATM    5  C3  UNL     1     -31.858   8.451   1.301  1.00 20.00     0.005 C 
ENDBRANCH   3   4
ENDBRANCH   2   3
BRANCH   2   6
HETATM    6  O8  UNL     1     -34.007   6.584   4.420  1.00 20.00    -0.340 OA
BRANCH   6   7
HETATM    7  C1  UNL     1     -34.135   6.219   5.715  1.00 20.00     0.109 C 
HETATM    8  C2  UNL     1     -33.624   7.125   6.789  1.00 20.00     0.089 C 
HETATM    9  S9  UNL     1     -34.868   4.753   6.017  1.00 20.00    -0.058 SA
ENDBRANCH   6   7
ENDBRANCH   2   6
TORSDOF 4
ENDMDL
MODEL 2
REMARK VINA RESULT:      -3.8      1.315      1.715
REMARK  4 active torsions:
REMARK  status: ('A' for Active; 'I' for Inactive)
REMARK    1  A    between atoms: C1_1  and  O8_8 
REMARK    2  A    between atoms: C5_5  and  C6_6 
REMARK    3  A    between atoms: C6_6  and  C7_7 
REMARK    4  A    between atoms: C7_7  and  O8_8 
ROOT
HETATM    1  C4  UNL     1     -32.440   5.574   2.239  1.00 20.00     0.040 C 
HETATM    2  C7  UNL     1     -32.480   6.491   3.453  1.00 20.00     0.125 C 
ENDROOT
BRANCH   2   3
HETATM    3  C6  UNL     1     -31.858   7.858   3.145  1.00 20.00     0.032 C 
BRANCH   3   4
HETATM    4  C5  UNL     1     -31.974   8.222   1.663  1.00 20.00    -0.002 C 
HETATM    5  C3  UNL     1     -32.430   9.661   1.478  1.00 20.00     0.005 C 
ENDBRANCH   3   4
ENDBRANCH   2   3
BRANCH   2   6
HETATM    6  O8  UNL     1     -33.836   6.652   3.863  1.00 20.00    -0.340 OA
BRANCH   6   7
HETATM    7  C1  UNL     1     -34.349   5.924   4.880  1.00 20.00     0.109 C 
HETATM    8  C2  UNL     1     -35.205   4.737   4.575  1.00 20.00     0.089 C 
HETATM    9  S9  UNL     1     -33.978   6.421   6.427  1.00 20.00    -0.058 SA
ENDBRANCH   6   7
ENDBRANCH   2   6
TORSDOF 4
ENDMDL
MODEL 3
REMARK VINA RESULT:      -3.6     11.847     12.859
REMARK  4 active torsions:
REMARK  status: ('A' for Active; 'I' for Inactive)
REMARK    1  A    between atoms: C1_1  and  O8_8 
REMARK    2  A    between atoms: C5_5  and  C6_6 
REMARK    3  A    between atoms: C6_6  and  C7_7 
REMARK    4  A    between atoms: C7_7  and  O8_8 
ROOT
HETATM    1  C4  UNL     1     -33.658  17.778  -4.634  1.00 20.00     0.040 C 
HETATM    2  C7  UNL     1     -33.605  16.287  -4.331  1.00 20.00     0.125 C 
ENDROOT
BRANCH   2   3
HETATM    3  C6  UNL     1     -33.426  16.023  -2.832  1.00 20.00     0.032 C 
BRANCH   3   4
HETATM    4  C5  UNL     1     -34.759  16.042  -2.081  1.00 20.00    -0.002 C 
HETATM    5  C3  UNL     1     -34.623  16.720  -0.726  1.00 20.00     0.005 C 
ENDBRANCH   3   4
ENDBRANCH   2   3
BRANCH   2   6
HETATM    6  O8  UNL     1     -34.811  15.682  -4.793  1.00 20.00    -0.340 OA
BRANCH   6   7
HETATM    7  C1  UNL     1     -34.786  14.575  -5.569  1.00 20.00     0.109 C 
HETATM    8  C2  UNL     1     -34.736  13.227  -4.924  1.00 20.00     0.089 C 
HETATM    9  S9  UNL     1     -34.811  14.809  -7.219  1.00 20.00    -0.058 SA
ENDBRANCH   6   7
ENDBRANCH   2   6
TORSDOF 4
ENDMDL
MODEL 4
REMARK VINA RESULT:      -3.5     11.280     12.229
REMARK  4 active torsions:
REMARK  status: ('A' for Active; 'I' for Inactive)
REMARK    1  A    between atoms: C1_1  and  O8_8 
REMARK    2  A    between atoms: C5_5  and  C6_6 
REMARK    3  A    between atoms: C6_6  and  C7_7 
REMARK    4  A    between atoms: C7_7  and  O8_8 
ROOT
HETATM    1  C4  UNL     1     -33.395  16.911  -5.330  1.00 20.00     0.040 C 
HETATM    2  C7  UNL     1     -33.801  16.165  -4.066  1.00 20.00     0.125 C 
ENDROOT
BRANCH   2   3
HETATM    3  C6  UNL     1     -32.808  15.047  -3.731  1.00 20.00     0.032 C 
BRANCH   3   4
HETATM    4  C5  UNL     1     -33.468  13.665  -3.751  1.00 20.00    -0.002 C 
HETATM    5  C3  UNL     1     -34.962  13.767  -4.015  1.00 20.00     0.005 C 
ENDBRANCH   3   4
ENDBRANCH   2   3
BRANCH   2   6
HETATM    6  O8  UNL     1     -33.873  17.094  -2.988  1.00 20.00    -0.340 OA
BRANCH   6   7
HETATM    7  C1  UNL     1     -34.895  17.059  -2.103  1.00 20.00     0.109 C 
HETATM    8  C2  UNL     1     -34.617  16.720  -0.673  1.00 20.00     0.089 C 
HETATM    9  S9  UNL     1     -36.415  17.404  -2.691  1.00 20.00    -0.058 SA
ENDBRANCH   6   7
ENDBRANCH   2   6
TORSDOF 4
ENDMDL
MODEL 5
REMARK VINA RESULT:      -3.5     11.737     13.036
REMARK  4 active torsions:
REMARK  status: ('A' for Active; 'I' for Inactive)
REMARK    1  A    between atoms: C1_1  and  O8_8 
REMARK    2  A    between atoms: C5_5  and  C6_6 
REMARK    3  A    between atoms: C6_6  and  C7_7 
REMARK    4  A    between atoms: C7_7  and  O8_8 
ROOT
HETATM    1  C4  UNL     1     -33.976  13.706  -3.765  1.00 20.00     0.040 C 
HETATM    2  C7  UNL     1     -34.558  15.112  -3.823  1.00 20.00     0.125 C 
ENDROOT
BRANCH   2   3
HETATM    3  C6  UNL     1     -34.969  15.608  -2.433  1.00 20.00     0.032 C 
BRANCH   3   4
HETATM    4  C5  UNL     1     -33.990  16.648  -1.880  1.00 20.00    -0.002 C 
HETATM    5  C3  UNL     1     -34.396  17.107  -0.488  1.00 20.00     0.005 C 
ENDBRANCH   3   4
ENDBRANCH   2   3
BRANCH   2   6
HETATM    6  O8  UNL     1     -33.584  15.988  -4.387  1.00 20.00    -0.340 OA
BRANCH   6   7
HETATM    7  C1  UNL     1     -33.816  16.632  -5.553  1.00 20.00     0.109 C 
HETATM    8  C2  UNL     1     -34.192  15.842  -6.766  1.00 20.00     0.089 C 
HETATM    9  S9  UNL     1     -33.658  18.291  -5.545  1.00 20.00    -0.058 SA
ENDBRANCH   6   7
ENDBRANCH   2   6
TORSDOF 4
ENDMDL
MODEL 6
REMARK VINA RESULT:      -3.4      2.518      4.179
REMARK  4 active torsions:
REMARK  status: ('A' for Active; 'I' for Inactive)
REMARK    1  A    between atoms: C1_1  and  O8_8 
REMARK    2  A    between atoms: C5_5  and  C6_6 
REMARK    3  A    between atoms: C6_6  and  C7_7 
REMARK    4  A    between atoms: C7_7  and  O8_8 
ROOT
HETATM    1  C4  UNL     1     -34.847   5.428   3.193  1.00 20.00     0.040 C 
HETATM    2  C7  UNL     1     -33.954   6.454   3.879  1.00 20.00     0.125 C 
ENDROOT
BRANCH   2   3
HETATM    3  C6  UNL     1     -33.870   6.206   5.389  1.00 20.00     0.032 C 
BRANCH   3   4
HETATM    4  C5  UNL     1     -34.960   5.247   5.876  1.00 20.00    -0.002 C 
HETATM    5  C3  UNL     1     -34.392   3.871   6.184  1.00 20.00     0.005 C 
ENDBRANCH   3   4
ENDBRANCH   2   3
BRANCH   2   6
HETATM    6  O8  UNL     1     -32.653   6.389   3.299  1.00 20.00    -0.340 OA
BRANCH   6   7
HETATM    7  C1  UNL     1     -31.899   7.501   3.150  1.00 20.00     0.109 C 
HETATM    8  C2  UNL     1     -30.937   7.887   4.228  1.00 20.00     0.089 C 
HETATM    9  S9  UNL     1     -32.108   8.372   1.745  1.00 20.00    -0.058 SA
ENDBRANCH   6   7
ENDBRANCH   2   6
TORSDOF 4
ENDMDL
MODEL 7
REMARK VINA RESULT:      -3.4     11.759     13.198
REMARK  4 active torsions:
REMARK  status: ('A' for Active; 'I' for Inactive)
REMARK    1  A    between atoms: C1_1  and  O8_8 
REMARK    2  A    between atoms: C5_5  and  C6_6 
REMARK    3  A    between atoms: C6_6  and  C7_7 
REMARK    4  A    between atoms: C7_7  and  O8_8 
ROOT
HETATM    1  C4  UNL     1     -34.440  16.181  -1.922  1.00 20.00     0.040 C 
HETATM    2  C7  UNL     1     -33.728  16.252  -3.267  1.00 20.00     0.125 C 
ENDROOT
BRANCH   2   3
HETATM    3  C6  UNL     1     -33.129  14.897  -3.658  1.00 20.00     0.032 C 
BRANCH   3   4
HETATM    4  C5  UNL     1     -34.145  13.760  -3.529  1.00 20.00    -0.002 C 
HETATM    5  C3  UNL     1     -34.583  13.250  -4.893  1.00 20.00     0.005 C 
ENDBRANCH   3   4
ENDBRANCH   2   3
BRANCH   2   6
HETATM    6  O8  UNL     1     -34.661  16.678  -4.257  1.00 20.00    -0.340 OA
BRANCH   6   7
HETATM    7  C1  UNL     1     -34.246  17.271  -5.399  1.00 20.00     0.109 C 
HETATM    8  C2  UNL     1     -34.365  16.534  -6.694  1.00 20.00     0.089 C 
HETATM    9  S9  UNL     1     -33.619  18.809  -5.267  1.00 20.00    -0.058 SA
ENDBRANCH   6   7
ENDBRANCH   2   6
TORSDOF 4
ENDMDL
MODEL 8
REMARK VINA RESULT:      -3.4     11.094     12.120
REMARK  4 active torsions:
REMARK  status: ('A' for Active; 'I' for Inactive)
REMARK    1  A    between atoms: C1_1  and  O8_8 
REMARK    2  A    between atoms: C5_5  and  C6_6 
REMARK    3  A    between atoms: C6_6  and  C7_7 
REMARK    4  A    between atoms: C7_7  and  O8_8 
ROOT
HETATM    1  C4  UNL     1     -33.211  13.534  -3.695  1.00 20.00     0.040 C 
HETATM    2  C7  UNL     1     -34.269  14.545  -4.117  1.00 20.00     0.125 C 
ENDROOT
BRANCH   2   3
HETATM    3  C6  UNL     1     -35.338  13.900  -5.006  1.00 20.00     0.032 C 
BRANCH   3   4
HETATM    4  C5  UNL     1     -35.650  14.750  -6.240  1.00 20.00    -0.002 C 
HETATM    5  C3  UNL     1     -34.395  15.033  -7.051  1.00 20.00     0.005 C 
ENDBRANCH   3   4
ENDBRANCH   2   3
BRANCH   2   6
HETATM    6  O8  UNL     1     -34.872  15.093  -2.947  1.00 20.00    -0.340 OA
BRANCH   6   7
HETATM    7  C1  UNL     1     -34.496  16.300  -2.468  1.00 20.00     0.109 C 
HETATM    8  C2  UNL     1     -34.592  16.572  -1.001  1.00 20.00     0.089 C 
HETATM    9  S9  UNL     1     -33.945  17.415  -3.578  1.00 20.00    -0.058 SA
ENDBRANCH   6   7
ENDBRANCH   2   6
TORSDOF 4
ENDMDL
MODEL 9
REMARK VINA RESULT:      -3.4     11.516     12.514
REMARK  4 active torsions:
REMARK  status: ('A' for Active; 'I' for Inactive)
REMARK    1  A    between atoms: C1_1  and  O8_8 
REMARK    2  A    between atoms: C5_5  and  C6_6 
REMARK    3  A    between atoms: C6_6  and  C7_7 
REMARK    4  A    between atoms: C7_7  and  O8_8 
ROOT
HETATM    1  C4  UNL     1     -33.625  13.693  -3.828  1.00 20.00     0.040 C 
HETATM    2  C7  UNL     1     -34.498  14.920  -3.602  1.00 20.00     0.125 C 
ENDROOT
BRANCH   2   3
HETATM    3  C6  UNL     1     -33.817  15.930  -2.672  1.00 20.00     0.032 C 
BRANCH   3   4
HETATM    4  C5  UNL     1     -34.707  16.312  -1.487  1.00 20.00    -0.002 C 
HETATM    5  C3  UNL     1     -34.061  17.391  -0.632  1.00 20.00     0.005 C 
ENDBRANCH   3   4
ENDBRANCH   2   3
BRANCH   2   6
HETATM    6  O8  UNL     1     -34.773  15.525  -4.863  1.00 20.00    -0.340 OA
BRANCH   6   7
HETATM    7  C1  UNL     1     -35.816  15.117  -5.621  1.00 20.00     0.109 C 
HETATM    8  C2  UNL     1     -37.200  15.176  -5.059  1.00 20.00     0.089 C 
HETATM    9  S9  UNL     1     -35.466  14.568  -7.155  1.00 20.00    -0.058 SA
ENDBRANCH   6   7
ENDBRANCH   2   6
TORSDOF 4
ENDMDL
