MODEL 1
REMARK VINA RESULT:      -4.8      0.000      0.000
REMARK  0 active torsions:
REMARK  status: ('A' for Active; 'I' for Inactive)
ROOT
HETATM    1  C1  UNL     1     -33.466  13.597  -3.718  1.00 20.00     0.005 C 
HETATM    2  C2  UNL     1     -34.870  14.047  -5.730  1.00 20.00     0.005 C 
HETATM    3  C3  UNL     1     -32.698  14.932  -3.713  1.00 20.00     0.005 C 
HETATM    4  C4  UNL     1     -34.323  15.453  -6.040  1.00 20.00     0.005 C 
HETATM    5  C5  UNL     1     -34.696  15.686  -2.512  1.00 20.00     0.010 C 
HETATM    6  C6  UNL     1     -35.991  16.101  -4.367  1.00 20.00     0.010 C 
HETATM    7  C7  UNL     1     -34.923  13.776  -4.207  1.00 20.00    -0.010 C 
HETATM    8  C8  UNL     1     -33.672  16.117  -3.575  1.00 20.00    -0.010 C 
HETATM    9  C9  UNL     1     -34.564  16.402  -4.853  1.00 20.00    -0.010 C 
HETATM   10  C10 UNL     1     -35.673  14.937  -3.425  1.00 20.00    -0.010 C 
ENDROOT
TORSDOF 0
ENDMDL
MODEL 2
REMARK VINA RESULT:      -4.7      0.717      2.694
REMARK  0 active torsions:
REMARK  status: ('A' for Active; 'I' for Inactive)
ROOT
HETATM    1  C1  UNL     1     -33.414  13.771  -3.800  1.00 20.00     0.005 C 
HETATM    2  C2  UNL     1     -33.970  15.890  -2.608  1.00 20.00     0.005 C 
HETATM    3  C3  UNL     1     -34.855  13.369  -4.167  1.00 20.00     0.005 C 
HETATM    4  C4  UNL     1     -35.498  15.820  -2.787  1.00 20.00     0.005 C 
HETATM    5  C5  UNL     1     -34.438  14.881  -6.048  1.00 20.00     0.010 C 
HETATM    6  C6  UNL     1     -34.950  16.835  -4.948  1.00 20.00     0.010 C 
HETATM    7  C7  UNL     1     -33.222  15.306  -3.831  1.00 20.00    -0.010 C 
HETATM    8  C8  UNL     1     -35.516  14.452  -5.039  1.00 20.00    -0.010 C 
HETATM    9  C9  UNL     1     -35.868  15.798  -4.280  1.00 20.00    -0.010 C 
HETATM   10  C10 UNL     1     -33.732  15.941  -5.195  1.00 20.00    -0.010 C 
ENDROOT
TORSDOF 0
ENDMDL
MODEL 3
REMARK VINA RESULT:      -4.7      0.740      2.672
REMARK  0 active torsions:
REMARK  status: ('A' for Active; 'I' for Inactive)
ROOT
HETATM    1  C1  UNL     1     -35.141  16.789  -4.971  1.00 20.00     0.005 C 
HETATM    2  C2  UNL     1     -34.399  14.667  -6.052  1.00 20.00     0.005 C 
HETATM    3  C3  UNL     1     -35.991  16.154  -3.854  1.00 20.00     0.005 C 
HETATM    4  C4  UNL     1     -35.132  13.699  -5.104  1.00 20.00     0.005 C 
HETATM    5  C5  UNL     1     -33.811  16.008  -2.746  1.00 20.00     0.010 C 
HETATM    6  C6  UNL     1     -33.127  14.051  -3.742  1.00 20.00     0.010 C 
HETATM    7  C7  UNL     1     -33.900  15.929  -5.307  1.00 20.00    -0.010 C 
HETATM    8  C8  UNL     1     -35.125  15.240  -2.968  1.00 20.00    -0.010 C 
HETATM    9  C9  UNL     1     -34.654  13.892  -3.655  1.00 20.00    -0.010 C 
HETATM   10  C10 UNL     1     -33.066  15.558  -4.007  1.00 20.00    -0.010 C 
ENDROOT
TORSDOF 0
ENDMDL
MODEL 4
REMARK VINA RESULT:      -4.7      0.490      2.950
REMARK  0 active torsions:
REMARK  status: ('A' for Active; 'I' for Inactive)
ROOT
HETATM    1  C1  UNL     1     -36.318  16.014  -4.435  1.00 20.00     0.005 C 
HETATM    2  C2  UNL     1     -34.998  15.678  -2.345  1.00 20.00     0.005 C 
HETATM    3  C3  UNL     1     -35.164  16.530  -5.315  1.00 20.00     0.005 C 
HETATM    4  C4  UNL     1     -33.637  16.141  -2.898  1.00 20.00     0.005 C 
HETATM    5  C5  UNL     1     -34.763  14.131  -5.604  1.00 20.00     0.010 C 
HETATM    6  C6  UNL     1     -33.546  13.821  -3.678  1.00 20.00     0.010 C 
HETATM    7  C7  UNL     1     -35.835  14.948  -3.423  1.00 20.00    -0.010 C 
HETATM    8  C8  UNL     1     -34.045  15.477  -5.414  1.00 20.00    -0.010 C 
HETATM    9  C9  UNL     1     -33.207  15.264  -4.086  1.00 20.00    -0.010 C 
HETATM   10  C10 UNL     1     -35.008  13.790  -4.130  1.00 20.00    -0.010 C 
ENDROOT
TORSDOF 0
ENDMDL
MODEL 5
REMARK VINA RESULT:      -4.6     11.553     12.873
REMARK  0 active torsions:
REMARK  status: ('A' for Active; 'I' for Inactive)
ROOT
HETATM    1  C1  UNL     1     -40.903   7.008  -0.835  1.00 20.00     0.005 C 
HETATM    2  C2  UNL     1     -40.615   4.537  -1.021  1.00 20.00     0.005 C 
HETATM    3  C3  UNL     1     -42.036   7.151  -1.869  1.00 20.00     0.005 C 
HETATM    4  C4  UNL     1     -41.703   4.293  -2.084  1.00 20.00     0.005 C 
HETATM    5  C5  UNL     1     -43.416   6.550   0.064  1.00 20.00     0.010 C 
HETATM    6  C6  UNL     1     -43.151   4.271  -0.108  1.00 20.00     0.010 C 
HETATM    7  C7  UNL     1     -41.008   5.678  -0.052  1.00 20.00    -0.010 C 
HETATM    8  C8  UNL     1     -43.262   6.320  -1.449  1.00 20.00    -0.010 C 
HETATM    9  C9  UNL     1     -43.078   4.750  -1.567  1.00 20.00    -0.010 C 
HETATM   10  C10 UNL     1     -42.458   5.462   0.561  1.00 20.00    -0.010 C 
ENDROOT
TORSDOF 0
ENDMDL
MODEL 6
REMARK VINA RESULT:      -4.6      0.736      2.646
REMARK  0 active torsions:
REMARK  status: ('A' for Active; 'I' for Inactive)
ROOT
HETATM    1  C1  UNL     1     -34.826  15.054  -6.240  1.00 20.00     0.005 C 
HETATM    2  C2  UNL     1     -33.293  16.212  -4.649  1.00 20.00     0.005 C 
HETATM    3  C3  UNL     1     -34.705  13.642  -5.636  1.00 20.00     0.005 C 
HETATM    4  C4  UNL     1     -32.932  14.981  -3.796  1.00 20.00     0.005 C 
HETATM    5  C5  UNL     1     -36.438  14.505  -4.135  1.00 20.00     0.010 C 
HETATM    6  C6  UNL     1     -35.025  15.572  -2.668  1.00 20.00     0.010 C 
HETATM    7  C7  UNL     1     -34.756  16.151  -5.151  1.00 20.00    -0.010 C 
HETATM    8  C8  UNL     1     -35.168  13.639  -4.168  1.00 20.00    -0.010 C 
HETATM    9  C9  UNL     1     -34.194  14.375  -3.158  1.00 20.00    -0.010 C 
HETATM   10  C10 UNL     1     -35.777  15.877  -3.966  1.00 20.00    -0.010 C 
ENDROOT
TORSDOF 0
ENDMDL
MODEL 7
REMARK VINA RESULT:      -4.6      0.768      1.089
REMARK  0 active torsions:
REMARK  status: ('A' for Active; 'I' for Inactive)
ROOT
HETATM    1  C1  UNL     1     -35.016  13.360  -4.135  1.00 20.00     0.005 C 
HETATM    2  C2  UNL     1     -35.462  14.881  -6.061  1.00 20.00     0.005 C 
HETATM    3  C3  UNL     1     -33.544  13.755  -3.911  1.00 20.00     0.005 C 
HETATM    4  C4  UNL     1     -34.060  15.515  -6.139  1.00 20.00     0.005 C 
HETATM    5  C5  UNL     1     -34.578  15.563  -2.622  1.00 20.00     0.010 C 
HETATM    6  C6  UNL     1     -34.990  16.966  -4.398  1.00 20.00     0.010 C 
HETATM    7  C7  UNL     1     -35.867  14.565  -4.601  1.00 20.00    -0.010 C 
HETATM    8  C8  UNL     1     -33.427  15.257  -3.595  1.00 20.00    -0.010 C 
HETATM    9  C9  UNL     1     -33.711  16.223  -4.819  1.00 20.00    -0.010 C 
HETATM   10  C10 UNL     1     -35.685  15.824  -3.650  1.00 20.00    -0.010 C 
ENDROOT
TORSDOF 0
ENDMDL
MODEL 8
REMARK VINA RESULT:      -4.6     11.342     12.518
REMARK  0 active torsions:
REMARK  status: ('A' for Active; 'I' for Inactive)
ROOT
HETATM    1  C1  UNL     1     -41.914   4.032  -1.828  1.00 20.00     0.005 C 
HETATM    2  C2  UNL     1     -42.662   6.155  -2.904  1.00 20.00     0.005 C 
HETATM    3  C3  UNL     1     -40.689   4.607  -1.092  1.00 20.00     0.005 C 
HETATM    4  C4  UNL     1     -41.554   7.062  -2.336  1.00 20.00     0.005 C 
HETATM    5  C5  UNL     1     -42.388   5.194   0.571  1.00 20.00     0.010 C 
HETATM    6  C6  UNL     1     -43.078   7.151  -0.420  1.00 20.00     0.010 C 
HETATM    7  C7  UNL     1     -43.073   5.054  -1.895  1.00 20.00    -0.010 C 
HETATM    8  C8  UNL     1     -41.115   5.717  -0.114  1.00 20.00    -0.010 C 
HETATM    9  C9  UNL     1     -41.590   7.065  -0.798  1.00 20.00    -0.010 C 
HETATM   10  C10 UNL     1     -43.416   5.658  -0.467  1.00 20.00    -0.010 C 
ENDROOT
TORSDOF 0
ENDMDL
MODEL 9
REMARK VINA RESULT:      -4.5      0.821      2.302
REMARK  0 active torsions:
REMARK  status: ('A' for Active; 'I' for Inactive)
ROOT
HETATM    1  C1  UNL     1     -33.398  16.257  -5.289  1.00 20.00     0.005 C 
HETATM    2  C2  UNL     1     -35.793  15.811  -5.824  1.00 20.00     0.005 C 
HETATM    3  C3  UNL     1     -33.572  16.472  -3.773  1.00 20.00     0.005 C 
HETATM    4  C4  UNL     1     -36.343  15.956  -4.392  1.00 20.00     0.005 C 
HETATM    5  C5  UNL     1     -33.426  14.027  -3.754  1.00 20.00     0.010 C 
HETATM    6  C6  UNL     1     -35.635  13.616  -4.247  1.00 20.00     0.010 C 
HETATM    7  C7  UNL     1     -34.376  15.189  -5.832  1.00 20.00    -0.010 C 
HETATM    8  C8  UNL     1     -34.164  15.214  -3.112  1.00 20.00    -0.010 C 
HETATM    9  C9  UNL     1     -35.685  14.931  -3.452  1.00 20.00    -0.010 C 
HETATM   10  C10 UNL     1     -34.315  13.844  -4.989  1.00 20.00    -0.010 C 
ENDROOT
TORSDOF 0
ENDMDL
