MODEL 1
REMARK VINA RESULT:      -3.8      0.000      0.000
REMARK  0 active torsions:
REMARK  status: ('A' for Active; 'I' for Inactive)
ROOT
HETATM    1  C1  UNL     1     -34.943   6.699   4.057  1.00 20.00     0.036 A 
HETATM    2  C2  UNL     1     -34.324   5.761   5.070  1.00 20.00    -0.025 A 
HETATM    3  C3  UNL     1     -33.642   6.010   3.717  1.00 20.00     0.041 A 
HETATM    4  C4  UNL     1     -35.005   4.437   5.319  1.00 20.00     0.016 C 
HETATM    5  C5  UNL     1     -33.751   6.371   6.328  1.00 20.00     0.016 C 
HETATM    6  C6  UNL     1     -33.643   4.960   2.641  1.00 20.00     0.033 C 
HETATM    7 CL7  UNL     1     -32.180   7.033   3.678  1.00 20.00    -0.119 Cl
ENDROOT
TORSDOF 0
ENDMDL
MODEL 2
REMARK VINA RESULT:      -3.8      1.777      3.185
REMARK  0 active torsions:
REMARK  status: ('A' for Active; 'I' for Inactive)
ROOT
HETATM    1  C1  UNL     1     -35.114   6.468   4.000  1.00 20.00     0.036 A 
HETATM    2  C2  UNL     1     -33.739   5.939   3.659  1.00 20.00    -0.025 A 
HETATM    3  C3  UNL     1     -34.383   5.622   5.017  1.00 20.00     0.041 A 
HETATM    4  C4  UNL     1     -32.595   6.924   3.598  1.00 20.00     0.016 C 
HETATM    5  C5  UNL     1     -33.645   4.866   2.600  1.00 20.00     0.016 C 
HETATM    6  C6  UNL     1     -33.895   6.276   6.280  1.00 20.00     0.033 C 
HETATM    7 CL7  UNL     1     -35.016   3.977   5.294  1.00 20.00    -0.119 Cl
ENDROOT
TORSDOF 0
ENDMDL
MODEL 3
REMARK VINA RESULT:      -3.4     11.684     12.609
REMARK  0 active torsions:
REMARK  status: ('A' for Active; 'I' for Inactive)
ROOT
HETATM    1  C1  UNL     1     -34.215  13.695  -3.690  1.00 20.00     0.036 A 
HETATM    2  C2  UNL     1     -34.203  15.206  -3.630  1.00 20.00    -0.025 A 
HETATM    3  C3  UNL     1     -35.219  14.468  -4.515  1.00 20.00     0.041 A 
HETATM    4  C4  UNL     1     -33.050  15.933  -4.281  1.00 20.00     0.016 C 
HETATM    5  C5  UNL     1     -34.655  15.858  -2.344  1.00 20.00     0.016 C 
HETATM    6  C6  UNL     1     -35.082  14.457  -6.012  1.00 20.00     0.033 C 
HETATM    7 CL7  UNL     1     -36.919  14.398  -3.978  1.00 20.00    -0.119 Cl
ENDROOT
TORSDOF 0
ENDMDL
MODEL 4
REMARK VINA RESULT:      -3.4     11.703     12.730
REMARK  0 active torsions:
REMARK  status: ('A' for Active; 'I' for Inactive)
ROOT
HETATM    1  C1  UNL     1     -34.183  13.775  -3.726  1.00 20.00     0.036 A 
HETATM    2  C2  UNL     1     -34.154  14.971  -4.651  1.00 20.00    -0.025 A 
HETATM    3  C3  UNL     1     -35.207  14.870  -3.538  1.00 20.00     0.041 A 
HETATM    4  C4  UNL     1     -34.577  14.769  -6.087  1.00 20.00     0.016 C 
HETATM    5  C5  UNL     1     -32.999  15.935  -4.512  1.00 20.00     0.016 C 
HETATM    6  C6  UNL     1     -36.646  14.572  -3.855  1.00 20.00     0.033 C 
HETATM    7 CL7  UNL     1     -35.019  15.902  -2.095  1.00 20.00    -0.119 Cl
ENDROOT
TORSDOF 0
ENDMDL
MODEL 5
REMARK VINA RESULT:      -3.4     12.172     13.116
REMARK  0 active torsions:
REMARK  status: ('A' for Active; 'I' for Inactive)
ROOT
HETATM    1  C1  UNL     1     -32.814  15.170  -3.802  1.00 20.00     0.036 A 
HETATM    2  C2  UNL     1     -34.297  15.176  -3.502  1.00 20.00    -0.025 A 
HETATM    3  C3  UNL     1     -33.726  16.042  -4.634  1.00 20.00     0.041 A 
HETATM    4  C4  UNL     1     -34.759  15.841  -2.227  1.00 20.00     0.016 C 
HETATM    5  C5  UNL     1     -35.081  13.927  -3.829  1.00 20.00     0.016 C 
HETATM    6  C6  UNL     1     -33.620  17.535  -4.493  1.00 20.00     0.033 C 
HETATM    7 CL7  UNL     1     -34.006  15.529  -6.320  1.00 20.00    -0.119 Cl
ENDROOT
TORSDOF 0
ENDMDL
MODEL 6
REMARK VINA RESULT:      -3.3      9.192     10.010
REMARK  0 active torsions:
REMARK  status: ('A' for Active; 'I' for Inactive)
ROOT
HETATM    1  C1  UNL     1     -40.860   6.665  -0.463  1.00 20.00     0.036 A 
HETATM    2  C2  UNL     1     -42.152   6.811  -1.238  1.00 20.00    -0.025 A 
HETATM    3  C3  UNL     1     -41.712   5.440  -0.704  1.00 20.00     0.041 A 
HETATM    4  C4  UNL     1     -42.063   7.088  -2.720  1.00 20.00     0.016 C 
HETATM    5  C5  UNL     1     -43.287   7.552  -0.570  1.00 20.00     0.016 C 
HETATM    6  C6  UNL     1     -41.195   4.375  -1.631  1.00 20.00     0.033 C 
HETATM    7 CL7  UNL     1     -42.563   4.766   0.711  1.00 20.00    -0.119 Cl
ENDROOT
TORSDOF 0
ENDMDL
MODEL 7
REMARK VINA RESULT:      -3.3     12.008     12.928
REMARK  0 active torsions:
REMARK  status: ('A' for Active; 'I' for Inactive)
ROOT
HETATM    1  C1  UNL     1     -32.862  14.962  -3.685  1.00 20.00     0.036 A 
HETATM    2  C2  UNL     1     -34.196  14.830  -4.386  1.00 20.00    -0.025 A 
HETATM    3  C3  UNL     1     -33.945  15.977  -3.396  1.00 20.00     0.041 A 
HETATM    4  C4  UNL     1     -35.101  13.691  -3.980  1.00 20.00     0.016 C 
HETATM    5  C5  UNL     1     -34.235  15.109  -5.870  1.00 20.00     0.016 C 
HETATM    6  C6  UNL     1     -34.582  15.982  -2.035  1.00 20.00     0.033 C 
HETATM    7 CL7  UNL     1     -33.695  17.620  -4.046  1.00 20.00    -0.119 Cl
ENDROOT
TORSDOF 0
ENDMDL
MODEL 8
REMARK VINA RESULT:      -3.3     11.817     12.458
REMARK  0 active torsions:
REMARK  status: ('A' for Active; 'I' for Inactive)
ROOT
HETATM    1  C1  UNL     1     -34.443  15.796  -4.610  1.00 20.00     0.036 A 
HETATM    2  C2  UNL     1     -34.143  14.411  -4.079  1.00 20.00    -0.025 A 
HETATM    3  C3  UNL     1     -35.103  15.346  -3.327  1.00 20.00     0.041 A 
HETATM    4  C4  UNL     1     -32.769  14.153  -3.509  1.00 20.00     0.016 C 
HETATM    5  C5  UNL     1     -34.688  13.233  -4.851  1.00 20.00     0.016 C 
HETATM    6  C6  UNL     1     -34.695  16.005  -2.039  1.00 20.00     0.033 C 
HETATM    7 CL7  UNL     1     -36.852  15.005  -3.403  1.00 20.00    -0.119 Cl
ENDROOT
TORSDOF 0
ENDMDL
MODEL 9
REMARK VINA RESULT:      -3.3     12.351     13.271
REMARK  0 active torsions:
REMARK  status: ('A' for Active; 'I' for Inactive)
ROOT
HETATM    1  C1  UNL     1     -33.151  16.201  -4.600  1.00 20.00     0.036 A 
HETATM    2  C2  UNL     1     -33.984  15.191  -3.843  1.00 20.00    -0.025 A 
HETATM    3  C3  UNL     1     -34.490  15.786  -5.165  1.00 20.00     0.041 A 
HETATM    4  C4  UNL     1     -34.623  15.627  -2.546  1.00 20.00     0.016 C 
HETATM    5  C5  UNL     1     -33.485  13.766  -3.799  1.00 20.00     0.016 C 
HETATM    6  C6  UNL     1     -35.606  16.794  -5.187  1.00 20.00     0.033 C 
HETATM    7 CL7  UNL     1     -34.459  14.761  -6.625  1.00 20.00    -0.119 Cl
ENDROOT
TORSDOF 0
ENDMDL
