MODEL 1
REMARK VINA RESULT:      -4.3      0.000      0.000
REMARK  1 active torsions:
REMARK  status: ('A' for Active; 'I' for Inactive)
REMARK    1  A    between atoms: C1_1  and  C8_8 
ROOT
HETATM    1  C1  UNL     1     -34.376  16.265  -2.986  1.00 20.00     0.069 C 
HETATM    2  C2  UNL     1     -35.850  15.296  -4.405  1.00 20.00     0.169 C 
HETATM    3  C3  UNL     1     -34.539  14.788  -5.021  1.00 20.00     0.025 C 
HETATM    4  C4  UNL     1     -34.558  14.858  -6.545  1.00 20.00     0.029 C 
HETATM    5  C5  UNL     1     -34.201  13.371  -4.547  1.00 20.00     0.029 C 
HETATM    6  N9  UNL     1     -35.602  15.866  -3.062  1.00 20.00    -0.285 NA
HETATM    7  S10 UNL     1     -33.322  15.958  -4.340  1.00 20.00    -0.104 SA
ENDROOT
BRANCH   1   8
HETATM    8  C8  UNL     1     -33.802  16.939  -1.787  1.00 20.00     0.036 C 
HETATM    9  C6  UNL     1     -33.582  18.426  -2.060  1.00 20.00     0.016 C 
HETATM   10  C7  UNL     1     -34.701  16.744  -0.565  1.00 20.00     0.016 C 
ENDBRANCH   1   8
TORSDOF 1
ENDMDL
MODEL 2
REMARK VINA RESULT:      -4.0      1.681      4.406
REMARK  1 active torsions:
REMARK  status: ('A' for Active; 'I' for Inactive)
REMARK    1  A    between atoms: C1_1  and  C8_8 
ROOT
HETATM    1  C1  UNL     1     -34.439  15.142  -5.677  1.00 20.00     0.069 C 
HETATM    2  C2  UNL     1     -34.388  14.149  -3.643  1.00 20.00     0.169 C 
HETATM    3  C3  UNL     1     -35.133  15.440  -3.273  1.00 20.00     0.025 C 
HETATM    4  C4  UNL     1     -34.639  16.029  -1.955  1.00 20.00     0.029 C 
HETATM    5  C5  UNL     1     -36.650  15.228  -3.239  1.00 20.00     0.029 C 
HETATM    6  N9  UNL     1     -34.341  13.984  -5.113  1.00 20.00    -0.285 NA
HETATM    7  S10 UNL     1     -34.708  16.534  -4.664  1.00 20.00    -0.104 SA
ENDROOT
BRANCH   1   8
HETATM    8  C8  UNL     1     -34.373  15.347  -7.152  1.00 20.00     0.036 C 
HETATM    9  C6  UNL     1     -35.420  14.489  -7.861  1.00 20.00     0.016 C 
HETATM   10  C7  UNL     1     -34.555  16.823  -7.510  1.00 20.00     0.016 C 
ENDBRANCH   1   8
TORSDOF 1
ENDMDL
MODEL 3
REMARK VINA RESULT:      -3.9      1.637      4.325
REMARK  1 active torsions:
REMARK  status: ('A' for Active; 'I' for Inactive)
REMARK    1  A    between atoms: C1_1  and  C8_8 
ROOT
HETATM    1  C1  UNL     1     -34.402  15.678  -4.091  1.00 20.00     0.069 C 
HETATM    2  C2  UNL     1     -34.011  17.692  -3.135  1.00 20.00     0.169 C 
HETATM    3  C3  UNL     1     -35.145  17.199  -2.225  1.00 20.00     0.025 C 
HETATM    4  C4  UNL     1     -36.153  18.302  -1.918  1.00 20.00     0.029 C 
HETATM    5  C5  UNL     1     -34.606  16.580  -0.932  1.00 20.00     0.029 C 
HETATM    6  N9  UNL     1     -33.485  16.578  -3.954  1.00 20.00    -0.285 NA
HETATM    7  S10 UNL     1     -35.909  15.898  -3.244  1.00 20.00    -0.104 SA
ENDROOT
BRANCH   1   8
HETATM    8  C8  UNL     1     -34.226  14.442  -4.905  1.00 20.00     0.036 C 
HETATM    9  C6  UNL     1     -35.057  13.296  -4.329  1.00 20.00     0.016 C 
HETATM   10  C7  UNL     1     -34.594  14.691  -6.369  1.00 20.00     0.016 C 
ENDBRANCH   1   8
TORSDOF 1
ENDMDL
MODEL 4
REMARK VINA RESULT:      -3.9      0.630      1.286
REMARK  1 active torsions:
REMARK  status: ('A' for Active; 'I' for Inactive)
REMARK    1  A    between atoms: C1_1  and  C8_8 
ROOT
HETATM    1  C1  UNL     1     -35.074  16.431  -2.944  1.00 20.00     0.069 C 
HETATM    2  C2  UNL     1     -36.004  14.761  -4.157  1.00 20.00     0.169 C 
HETATM    3  C3  UNL     1     -34.577  14.716  -4.722  1.00 20.00     0.025 C 
HETATM    4  C4  UNL     1     -34.568  14.541  -6.238  1.00 20.00     0.029 C 
HETATM    5  C5  UNL     1     -33.733  13.633  -4.044  1.00 20.00     0.029 C 
HETATM    6  N9  UNL     1     -36.045  15.580  -2.925  1.00 20.00    -0.285 NA
HETATM    7  S10 UNL     1     -33.936  16.357  -4.262  1.00 20.00    -0.104 SA
ENDROOT
BRANCH   1   8
HETATM    8  C8  UNL     1     -34.850  17.449  -1.878  1.00 20.00     0.036 C 
HETATM    9  C6  UNL     1     -34.650  16.774  -0.523  1.00 20.00     0.016 C 
HETATM   10  C7  UNL     1     -33.657  18.345  -2.216  1.00 20.00     0.016 C 
ENDBRANCH   1   8
TORSDOF 1
ENDMDL
MODEL 5
REMARK VINA RESULT:      -3.9      1.349      1.779
REMARK  1 active torsions:
REMARK  status: ('A' for Active; 'I' for Inactive)
REMARK    1  A    between atoms: C1_1  and  C8_8 
ROOT
HETATM    1  C1  UNL     1     -33.813  16.635  -3.046  1.00 20.00     0.069 C 
HETATM    2  C2  UNL     1     -33.785  16.506  -5.306  1.00 20.00     0.169 C 
HETATM    3  C3  UNL     1     -34.868  15.458  -5.009  1.00 20.00     0.025 C 
HETATM    4  C4  UNL     1     -34.711  14.212  -5.875  1.00 20.00     0.029 C 
HETATM    5  C5  UNL     1     -36.276  16.044  -5.149  1.00 20.00     0.029 C 
HETATM    6  N9  UNL     1     -33.507  17.316  -4.100  1.00 20.00    -0.285 NA
HETATM    7  S10 UNL     1     -34.547  15.069  -3.260  1.00 20.00    -0.104 SA
ENDROOT
BRANCH   1   8
HETATM    8  C8  UNL     1     -33.608  17.132  -1.656  1.00 20.00     0.036 C 
HETATM    9  C6  UNL     1     -33.497  18.656  -1.641  1.00 20.00     0.016 C 
HETATM   10  C7  UNL     1     -34.734  16.664  -0.734  1.00 20.00     0.016 C 
ENDBRANCH   1   8
TORSDOF 1
ENDMDL
MODEL 6
REMARK VINA RESULT:      -3.9      1.452      2.170
REMARK  1 active torsions:
REMARK  status: ('A' for Active; 'I' for Inactive)
REMARK    1  A    between atoms: C1_1  and  C8_8 
ROOT
HETATM    1  C1  UNL     1     -34.621  16.220  -2.575  1.00 20.00     0.069 C 
HETATM    2  C2  UNL     1     -33.215  14.819  -3.663  1.00 20.00     0.169 C 
HETATM    3  C3  UNL     1     -34.463  14.653  -4.542  1.00 20.00     0.025 C 
HETATM    4  C4  UNL     1     -34.703  13.196  -4.925  1.00 20.00     0.029 C 
HETATM    5  C5  UNL     1     -34.400  15.540  -5.789  1.00 20.00     0.029 C 
HETATM    6  N9  UNL     1     -33.365  15.989  -2.769  1.00 20.00    -0.285 NA
HETATM    7  S10 UNL     1     -35.783  15.252  -3.441  1.00 20.00    -0.104 SA
ENDROOT
BRANCH   1   8
HETATM    8  C8  UNL     1     -35.130  17.297  -1.679  1.00 20.00     0.036 C 
HETATM    9  C6  UNL     1     -34.748  17.015  -0.227  1.00 20.00     0.016 C 
HETATM   10  C7  UNL     1     -34.609  18.667  -2.117  1.00 20.00     0.016 C 
ENDBRANCH   1   8
TORSDOF 1
ENDMDL
MODEL 7
REMARK VINA RESULT:      -3.9     12.648     14.294
REMARK  1 active torsions:
REMARK  status: ('A' for Active; 'I' for Inactive)
REMARK    1  A    between atoms: C1_1  and  C8_8 
ROOT
HETATM    1  C1  UNL     1     -41.943   4.083  -2.315  1.00 20.00     0.069 C 
HETATM    2  C2  UNL     1     -40.730   5.357  -0.890  1.00 20.00     0.169 C 
HETATM    3  C3  UNL     1     -42.023   6.185  -0.929  1.00 20.00     0.025 C 
HETATM    4  C4  UNL     1     -41.740   7.682  -1.019  1.00 20.00     0.029 C 
HETATM    5  C5  UNL     1     -42.931   5.874   0.264  1.00 20.00     0.029 C 
HETATM    6  N9  UNL     1     -40.957   4.020  -1.484  1.00 20.00    -0.285 NA
HETATM    7  S10 UNL     1     -42.809   5.588  -2.458  1.00 20.00    -0.104 SA
ENDROOT
BRANCH   1   8
HETATM    8  C8  UNL     1     -42.406   2.924  -3.131  1.00 20.00     0.036 C 
HETATM    9  C6  UNL     1     -41.215   2.111  -3.636  1.00 20.00     0.016 C 
HETATM   10  C7  UNL     1     -43.364   2.038  -2.333  1.00 20.00     0.016 C 
ENDBRANCH   1   8
TORSDOF 1
ENDMDL
MODEL 8
REMARK VINA RESULT:      -3.7      1.105      4.148
REMARK  1 active torsions:
REMARK  status: ('A' for Active; 'I' for Inactive)
REMARK    1  A    between atoms: C1_1  and  C8_8 
ROOT
HETATM    1  C1  UNL     1     -35.372  15.443  -4.262  1.00 20.00     0.069 C 
HETATM    2  C2  UNL     1     -36.147  16.951  -2.763  1.00 20.00     0.169 C 
HETATM    3  C3  UNL     1     -34.705  16.811  -2.254  1.00 20.00     0.025 C 
HETATM    4  C4  UNL     1     -34.640  16.738  -0.731  1.00 20.00     0.029 C 
HETATM    5  C5  UNL     1     -33.807  17.933  -2.783  1.00 20.00     0.029 C 
HETATM    6  N9  UNL     1     -36.281  16.347  -4.107  1.00 20.00    -0.285 NA
HETATM    7  S10 UNL     1     -34.195  15.229  -2.995  1.00 20.00    -0.104 SA
ENDROOT
BRANCH   1   8
HETATM    8  C8  UNL     1     -35.252  14.598  -5.484  1.00 20.00     0.036 C 
HETATM    9  C6  UNL     1     -34.381  15.289  -6.532  1.00 20.00     0.016 C 
HETATM   10  C7  UNL     1     -34.690  13.216  -5.144  1.00 20.00     0.016 C 
ENDBRANCH   1   8
TORSDOF 1
ENDMDL
MODEL 9
REMARK VINA RESULT:      -3.6      2.023      4.407
REMARK  1 active torsions:
REMARK  status: ('A' for Active; 'I' for Inactive)
REMARK    1  A    between atoms: C1_1  and  C8_8 
ROOT
HETATM    1  C1  UNL     1     -35.124  15.838  -5.912  1.00 20.00     0.069 C 
HETATM    2  C2  UNL     1     -33.264  16.255  -4.691  1.00 20.00     0.169 C 
HETATM    3  C3  UNL     1     -34.092  15.504  -3.638  1.00 20.00     0.025 C 
HETATM    4  C4  UNL     1     -34.001  16.160  -2.263  1.00 20.00     0.029 C 
HETATM    5  C5  UNL     1     -33.702  14.025  -3.561  1.00 20.00     0.029 C 
HETATM    6  N9  UNL     1     -33.863  16.086  -6.034  1.00 20.00    -0.285 NA
HETATM    7  S10 UNL     1     -35.778  15.649  -4.308  1.00 20.00    -0.104 SA
ENDROOT
BRANCH   1   8
HETATM    8  C8  UNL     1     -36.045  15.665  -7.072  1.00 20.00     0.036 C 
HETATM    9  C6  UNL     1     -35.625  14.464  -7.917  1.00 20.00     0.016 C 
HETATM   10  C7  UNL     1     -37.494  15.515  -6.605  1.00 20.00     0.016 C 
ENDBRANCH   1   8
TORSDOF 1
ENDMDL
