MODEL 1
REMARK VINA RESULT:      -4.7      0.000      0.000
REMARK  4 active torsions:
REMARK  status: ('A' for Active; 'I' for Inactive)
REMARK    1  A    between atoms: C1_1  and  C7_7 
REMARK    2  A    between atoms: C1_1  and  C8_8 
REMARK    3  A    between atoms: C5_5  and  C6_6 
REMARK    4  A    between atoms: C6_6  and  C8_8 
ROOT
HETATM    1  C1  UNL     1     -34.279   5.767   4.025  1.00 20.00     0.148 C 
HETATM    2  O9  UNL     1     -34.907   5.312   3.067  1.00 20.00    -0.296 OA
ENDROOT
BRANCH   1   3
HETATM    3  C7  UNL     1     -34.780   5.624   5.460  1.00 20.00     0.049 C 
HETATM    4  C3  UNL     1     -33.950   6.473   6.420  1.00 20.00     0.017 C 
HETATM    5  C4  UNL     1     -34.755   4.158   5.875  1.00 20.00     0.017 C 
ENDBRANCH   1   3
BRANCH   1   6
HETATM    6  C8  UNL     1     -32.964   6.510   3.828  1.00 20.00     0.152 C 
HETATM    7 CL10 UNL     1     -31.876   5.396   2.954  1.00 20.00    -0.117 Cl
BRANCH   6   8
HETATM    8  C6  UNL     1     -33.150   7.800   3.028  1.00 20.00     0.027 C 
BRANCH   8   9
HETATM    9  C5  UNL     1     -31.970   8.069   2.090  1.00 20.00    -0.003 C 
HETATM   10  C2  UNL     1     -32.255   9.239   1.160  1.00 20.00     0.005 C 
ENDBRANCH   8   9
ENDBRANCH   6   8
ENDBRANCH   1   6
TORSDOF 4
ENDMDL
MODEL 2
REMARK VINA RESULT:      -4.4      0.436      1.202
REMARK  4 active torsions:
REMARK  status: ('A' for Active; 'I' for Inactive)
REMARK    1  A    between atoms: C1_1  and  C7_7 
REMARK    2  A    between atoms: C1_1  and  C8_8 
REMARK    3  A    between atoms: C5_5  and  C6_6 
REMARK    4  A    between atoms: C6_6  and  C8_8 
ROOT
HETATM    1  C1  UNL     1     -34.043   5.783   4.170  1.00 20.00     0.148 C 
HETATM    2  O9  UNL     1     -35.048   5.641   3.472  1.00 20.00    -0.296 OA
ENDROOT
BRANCH   1   3
HETATM    3  C7  UNL     1     -34.014   5.363   5.638  1.00 20.00     0.049 C 
HETATM    4  C3  UNL     1     -35.134   4.373   5.948  1.00 20.00     0.017 C 
HETATM    5  C4  UNL     1     -34.115   6.593   6.532  1.00 20.00     0.017 C 
ENDBRANCH   1   3
BRANCH   1   6
HETATM    6  C8  UNL     1     -32.768   6.399   3.608  1.00 20.00     0.152 C 
HETATM    7 CL10 UNL     1     -32.157   5.263   2.373  1.00 20.00    -0.117 Cl
BRANCH   6   8
HETATM    8  C6  UNL     1     -33.023   7.770   2.981  1.00 20.00     0.027 C 
BRANCH   8   9
HETATM    9  C5  UNL     1     -31.924   8.163   1.990  1.00 20.00    -0.003 C 
HETATM   10  C2  UNL     1     -32.340   9.353   1.140  1.00 20.00     0.005 C 
ENDBRANCH   8   9
ENDBRANCH   6   8
ENDBRANCH   1   6
TORSDOF 4
ENDMDL
MODEL 3
REMARK VINA RESULT:      -4.4     10.930     12.161
REMARK  4 active torsions:
REMARK  status: ('A' for Active; 'I' for Inactive)
REMARK    1  A    between atoms: C1_1  and  C7_7 
REMARK    2  A    between atoms: C1_1  and  C8_8 
REMARK    3  A    between atoms: C5_5  and  C6_6 
REMARK    4  A    between atoms: C6_6  and  C8_8 
ROOT
HETATM    1  C1  UNL     1     -34.733  13.874  -4.676  1.00 20.00     0.148 C 
HETATM    2  O9  UNL     1     -34.866  12.688  -4.983  1.00 20.00    -0.296 OA
ENDROOT
BRANCH   1   3
HETATM    3  C7  UNL     1     -35.146  15.003  -5.618  1.00 20.00     0.049 C 
HETATM    4  C3  UNL     1     -36.657  15.011  -5.837  1.00 20.00     0.017 C 
HETATM    5  C4  UNL     1     -34.408  14.868  -6.945  1.00 20.00     0.017 C 
ENDBRANCH   1   3
BRANCH   1   6
HETATM    6  C8  UNL     1     -34.137  14.283  -3.336  1.00 20.00     0.152 C 
HETATM    7 CL10 UNL     1     -32.473  14.840  -3.667  1.00 20.00    -0.117 Cl
BRANCH   6   8
HETATM    8  C6  UNL     1     -34.943  15.399  -2.668  1.00 20.00     0.027 C 
BRANCH   8   9
HETATM    9  C5  UNL     1     -34.039  16.449  -2.015  1.00 20.00    -0.003 C 
HETATM   10  C2  UNL     1     -34.549  16.842  -0.637  1.00 20.00     0.005 C 
ENDBRANCH   8   9
ENDBRANCH   6   8
ENDBRANCH   1   6
TORSDOF 4
ENDMDL
MODEL 4
REMARK VINA RESULT:      -4.3     11.248     12.660
REMARK  4 active torsions:
REMARK  status: ('A' for Active; 'I' for Inactive)
REMARK    1  A    between atoms: C1_1  and  C7_7 
REMARK    2  A    between atoms: C1_1  and  C8_8 
REMARK    3  A    between atoms: C5_5  and  C6_6 
REMARK    4  A    between atoms: C6_6  and  C8_8 
ROOT
HETATM    1  C1  UNL     1     -34.854  14.083  -5.286  1.00 20.00     0.148 C 
HETATM    2  O9  UNL     1     -34.813  12.870  -5.072  1.00 20.00    -0.296 OA
ENDROOT
BRANCH   1   3
HETATM    3  C7  UNL     1     -34.514  14.672  -6.653  1.00 20.00     0.049 C 
HETATM    4  C3  UNL     1     -34.192  16.161  -6.546  1.00 20.00     0.017 C 
HETATM    5  C4  UNL     1     -35.667  14.436  -7.621  1.00 20.00     0.017 C 
ENDBRANCH   1   3
BRANCH   1   6
HETATM    6  C8  UNL     1     -35.238  15.068  -4.191  1.00 20.00     0.152 C 
HETATM    7 CL10 UNL     1     -36.918  14.680  -3.724  1.00 20.00    -0.117 Cl
BRANCH   6   8
HETATM    8  C6  UNL     1     -34.317  14.961  -2.975  1.00 20.00     0.027 C 
BRANCH   8   9
HETATM    9  C5  UNL     1     -33.969  16.335  -2.395  1.00 20.00    -0.003 C 
HETATM   10  C2  UNL     1     -34.612  16.542  -1.033  1.00 20.00     0.005 C 
ENDBRANCH   8   9
ENDBRANCH   6   8
ENDBRANCH   1   6
TORSDOF 4
ENDMDL
MODEL 5
REMARK VINA RESULT:      -4.1     11.388     12.532
REMARK  4 active torsions:
REMARK  status: ('A' for Active; 'I' for Inactive)
REMARK    1  A    between atoms: C1_1  and  C7_7 
REMARK    2  A    between atoms: C1_1  and  C8_8 
REMARK    3  A    between atoms: C5_5  and  C6_6 
REMARK    4  A    between atoms: C6_6  and  C8_8 
ROOT
HETATM    1  C1  UNL     1     -33.730  16.118  -4.307  1.00 20.00     0.148 C 
HETATM    2  O9  UNL     1     -32.753  16.458  -4.977  1.00 20.00    -0.296 OA
ENDROOT
BRANCH   1   3
HETATM    3  C7  UNL     1     -34.350  14.728  -4.434  1.00 20.00     0.049 C 
HETATM    4  C3  UNL     1     -33.455  13.667  -3.799  1.00 20.00     0.017 C 
HETATM    5  C4  UNL     1     -34.612  14.408  -5.900  1.00 20.00     0.017 C 
ENDBRANCH   1   3
BRANCH   1   6
HETATM    6  C8  UNL     1     -34.383  17.072  -3.317  1.00 20.00     0.152 C 
HETATM    7 CL10 UNL     1     -36.106  16.611  -3.225  1.00 20.00    -0.117 Cl
BRANCH   6   8
HETATM    8  C6  UNL     1     -33.741  16.988  -1.932  1.00 20.00     0.027 C 
BRANCH   8   9
HETATM    9  C5  UNL     1     -34.736  16.524  -0.864  1.00 20.00    -0.003 C 
HETATM   10  C2  UNL     1     -34.780  17.488   0.311  1.00 20.00     0.005 C 
ENDBRANCH   8   9
ENDBRANCH   6   8
ENDBRANCH   1   6
TORSDOF 4
ENDMDL
MODEL 6
REMARK VINA RESULT:      -4.1     11.608     12.855
REMARK  4 active torsions:
REMARK  status: ('A' for Active; 'I' for Inactive)
REMARK    1  A    between atoms: C1_1  and  C7_7 
REMARK    2  A    between atoms: C1_1  and  C8_8 
REMARK    3  A    between atoms: C5_5  and  C6_6 
REMARK    4  A    between atoms: C6_6  and  C8_8 
ROOT
HETATM    1  C1  UNL     1     -33.906  16.014  -5.008  1.00 20.00     0.148 C 
HETATM    2  O9  UNL     1     -32.881  16.675  -5.185  1.00 20.00    -0.296 OA
ENDROOT
BRANCH   1   3
HETATM    3  C7  UNL     1     -34.964  15.859  -6.099  1.00 20.00     0.049 C 
HETATM    4  C3  UNL     1     -36.268  15.311  -5.526  1.00 20.00     0.017 C 
HETATM    5  C4  UNL     1     -34.437  14.955  -7.208  1.00 20.00     0.017 C 
ENDBRANCH   1   3
BRANCH   1   6
HETATM    6  C8  UNL     1     -34.182  15.319  -3.682  1.00 20.00     0.152 C 
HETATM    7 CL10 UNL     1     -33.308  13.762  -3.732  1.00 20.00    -0.117 Cl
BRANCH   6   8
HETATM    8  C6  UNL     1     -33.707  16.151  -2.490  1.00 20.00     0.027 C 
BRANCH   8   9
HETATM    9  C5  UNL     1     -34.786  16.276  -1.410  1.00 20.00    -0.003 C 
HETATM   10  C2  UNL     1     -34.392  17.289  -0.346  1.00 20.00     0.005 C 
ENDBRANCH   8   9
ENDBRANCH   6   8
ENDBRANCH   1   6
TORSDOF 4
ENDMDL
MODEL 7
REMARK VINA RESULT:      -4.1      1.549      1.940
REMARK  4 active torsions:
REMARK  status: ('A' for Active; 'I' for Inactive)
REMARK    1  A    between atoms: C1_1  and  C7_7 
REMARK    2  A    between atoms: C1_1  and  C8_8 
REMARK    3  A    between atoms: C5_5  and  C6_6 
REMARK    4  A    between atoms: C6_6  and  C8_8 
ROOT
HETATM    1  C1  UNL     1     -32.936   6.407   3.351  1.00 20.00     0.148 C 
HETATM    2  O9  UNL     1     -32.435   5.363   2.930  1.00 20.00    -0.296 OA
ENDROOT
BRANCH   1   3
HETATM    3  C7  UNL     1     -34.214   6.408   4.186  1.00 20.00     0.049 C 
HETATM    4  C3  UNL     1     -33.898   6.292   5.675  1.00 20.00     0.017 C 
HETATM    5  C4  UNL     1     -35.129   5.276   3.737  1.00 20.00     0.017 C 
ENDBRANCH   1   3
BRANCH   1   6
HETATM    6  C8  UNL     1     -32.311   7.763   3.051  1.00 20.00     0.152 C 
HETATM    7 CL10 UNL     1     -30.944   7.955   4.184  1.00 20.00    -0.117 Cl
BRANCH   6   8
HETATM    8  C6  UNL     1     -31.816   7.859   1.608  1.00 20.00     0.027 C 
BRANCH   8   9
HETATM    9  C5  UNL     1     -32.198   9.191   0.956  1.00 20.00    -0.003 C 
HETATM   10  C2  UNL     1     -32.789  10.157   1.970  1.00 20.00     0.005 C 
ENDBRANCH   8   9
ENDBRANCH   6   8
ENDBRANCH   1   6
TORSDOF 4
ENDMDL
MODEL 8
REMARK VINA RESULT:      -4.1     11.221     12.284
REMARK  4 active torsions:
REMARK  status: ('A' for Active; 'I' for Inactive)
REMARK    1  A    between atoms: C1_1  and  C7_7 
REMARK    2  A    between atoms: C1_1  and  C8_8 
REMARK    3  A    between atoms: C5_5  and  C6_6 
REMARK    4  A    between atoms: C6_6  and  C8_8 
ROOT
HETATM    1  C1  UNL     1     -33.811  15.022  -3.493  1.00 20.00     0.148 C 
HETATM    2  O9  UNL     1     -32.600  14.799  -3.559  1.00 20.00    -0.296 OA
ENDROOT
BRANCH   1   3
HETATM    3  C7  UNL     1     -34.359  16.387  -3.082  1.00 20.00     0.049 C 
HETATM    4  C3  UNL     1     -33.787  17.496  -3.961  1.00 20.00     0.017 C 
HETATM    5  C4  UNL     1     -34.053  16.648  -1.613  1.00 20.00     0.017 C 
ENDBRANCH   1   3
BRANCH   1   6
HETATM    6  C8  UNL     1     -34.833  13.940  -3.811  1.00 20.00     0.152 C 
HETATM    7 CL10 UNL     1     -36.443  14.683  -3.602  1.00 20.00    -0.117 Cl
BRANCH   6   8
HETATM    8  C6  UNL     1     -34.680  13.409  -5.238  1.00 20.00     0.027 C 
BRANCH   8   9
HETATM    9  C5  UNL     1     -35.370  14.311  -6.264  1.00 20.00    -0.003 C 
HETATM   10  C2  UNL     1     -34.357  15.044  -7.130  1.00 20.00     0.005 C 
ENDBRANCH   8   9
ENDBRANCH   6   8
ENDBRANCH   1   6
TORSDOF 4
ENDMDL
MODEL 9
REMARK VINA RESULT:      -4.0     11.290     12.726
REMARK  4 active torsions:
REMARK  status: ('A' for Active; 'I' for Inactive)
REMARK    1  A    between atoms: C1_1  and  C7_7 
REMARK    2  A    between atoms: C1_1  and  C8_8 
REMARK    3  A    between atoms: C5_5  and  C6_6 
REMARK    4  A    between atoms: C6_6  and  C8_8 
ROOT
HETATM    1  C1  UNL     1     -34.763  13.797  -4.913  1.00 20.00     0.148 C 
HETATM    2  O9  UNL     1     -34.988  12.661  -4.493  1.00 20.00    -0.296 OA
ENDROOT
BRANCH   1   3
HETATM    3  C7  UNL     1     -34.001  14.828  -4.084  1.00 20.00     0.049 C 
HETATM    4  C3  UNL     1     -32.697  14.245  -3.546  1.00 20.00     0.017 C 
HETATM    5  C4  UNL     1     -34.879  15.330  -2.945  1.00 20.00     0.017 C 
ENDBRANCH   1   3
BRANCH   1   6
HETATM    6  C8  UNL     1     -35.244  14.243  -6.288  1.00 20.00     0.152 C 
HETATM    7 CL10 UNL     1     -36.796  15.088  -6.035  1.00 20.00    -0.117 Cl
BRANCH   6   8
HETATM    8  C6  UNL     1     -34.242  15.175  -6.970  1.00 20.00     0.027 C 
BRANCH   8   9
HETATM    9  C5  UNL     1     -34.857  16.538  -7.300  1.00 20.00    -0.003 C 
HETATM   10  C2  UNL     1     -34.195  17.653  -6.505  1.00 20.00     0.005 C 
ENDBRANCH   8   9
ENDBRANCH   6   8
ENDBRANCH   1   6
TORSDOF 4
ENDMDL
