MODEL 1
REMARK VINA RESULT:      -5.1      0.000      0.000
REMARK  2 active torsions:
REMARK  status: ('A' for Active; 'I' for Inactive)
REMARK    1  A    between atoms: C4_4  and  C8_8 
REMARK    2  A    between atoms: C9_9  and  O11_11 
ROOT
HETATM    1  C1  UNL     1     -35.741  15.559  -3.152  1.00 20.00    -0.079 C 
HETATM    2  C2  UNL     1     -36.655  16.518  -3.374  1.00 20.00     0.015 C 
HETATM    3  C5  UNL     1     -35.895  14.198  -3.790  1.00 20.00     0.065 C 
HETATM    4  C6  UNL     1     -33.250  15.354  -3.166  1.00 20.00     0.016 C 
HETATM    5  C7  UNL     1     -33.377  13.979  -3.821  1.00 20.00     0.033 C 
HETATM    6  C8  UNL     1     -34.481  15.698  -2.306  1.00 20.00     0.041 C 
HETATM    7  C9  UNL     1     -34.667  13.853  -4.633  1.00 20.00     0.122 C 
ENDROOT
BRANCH   6   8
HETATM    8  C4  UNL     1     -34.297  17.031  -1.641  1.00 20.00    -0.085 C 
HETATM    9  C3  UNL     1     -33.732  18.068  -2.275  1.00 20.00     0.014 C 
HETATM   10  C10 UNL     1     -34.783  17.135  -0.225  1.00 20.00     0.043 C 
ENDBRANCH   6   8
BRANCH   7  11
HETATM   11  O11 UNL     1     -34.803  12.516  -5.106  1.00 20.00    -0.395 OA
HETATM   12  H27 UNL     1     -35.593  12.500  -5.669  1.00 20.00     0.210 HD
ENDBRANCH   7  11
TORSDOF 2
ENDMDL
MODEL 2
REMARK VINA RESULT:      -4.4      0.923      1.407
REMARK  2 active torsions:
REMARK  status: ('A' for Active; 'I' for Inactive)
REMARK    1  A    between atoms: C4_4  and  C8_8 
REMARK    2  A    between atoms: C9_9  and  O11_11 
ROOT
HETATM    1  C1  UNL     1     -35.984  16.286  -2.651  1.00 20.00    -0.079 C 
HETATM    2  C2  UNL     1     -36.806  17.348  -2.630  1.00 20.00     0.015 C 
HETATM    3  C5  UNL     1     -36.257  15.130  -3.587  1.00 20.00     0.065 C 
HETATM    4  C6  UNL     1     -33.522  15.867  -2.751  1.00 20.00     0.016 C 
HETATM    5  C7  UNL     1     -33.769  14.699  -3.706  1.00 20.00     0.033 C 
HETATM    6  C8  UNL     1     -34.722  16.110  -1.816  1.00 20.00     0.041 C 
HETATM    7  C9  UNL     1     -35.060  14.882  -4.505  1.00 20.00     0.122 C 
ENDROOT
BRANCH   6   8
HETATM    8  C4  UNL     1     -34.422  17.229  -0.861  1.00 20.00    -0.085 C 
HETATM    9  C3  UNL     1     -34.997  17.303   0.348  1.00 20.00     0.014 C 
HETATM   10  C10 UNL     1     -33.442  18.259  -1.338  1.00 20.00     0.043 C 
ENDBRANCH   6   8
BRANCH   7  11
HETATM   11  O11 UNL     1     -35.314  13.710  -5.274  1.00 20.00    -0.395 OA
HETATM   12  H27 UNL     1     -34.709  13.026  -4.945  1.00 20.00     0.210 HD
ENDBRANCH   7  11
TORSDOF 2
ENDMDL
MODEL 3
REMARK VINA RESULT:      -4.4      1.666      2.573
REMARK  2 active torsions:
REMARK  status: ('A' for Active; 'I' for Inactive)
REMARK    1  A    between atoms: C4_4  and  C8_8 
REMARK    2  A    between atoms: C9_9  and  O11_11 
ROOT
HETATM    1  C1  UNL     1     -34.218  15.976  -3.133  1.00 20.00    -0.079 C 
HETATM    2  C2  UNL     1     -34.108  16.518  -1.909  1.00 20.00     0.015 C 
HETATM    3  C5  UNL     1     -34.109  14.480  -3.316  1.00 20.00     0.065 C 
HETATM    4  C6  UNL     1     -35.749  16.169  -5.100  1.00 20.00     0.016 C 
HETATM    5  C7  UNL     1     -35.664  14.656  -5.302  1.00 20.00     0.033 C 
HETATM    6  C8  UNL     1     -34.481  16.732  -4.429  1.00 20.00     0.041 C 
HETATM    7  C9  UNL     1     -35.362  13.924  -3.993  1.00 20.00     0.122 C 
ENDROOT
BRANCH   6   8
HETATM    8  C4  UNL     1     -34.581  18.224  -4.295  1.00 20.00    -0.085 C 
HETATM    9  C3  UNL     1     -33.514  19.023  -4.444  1.00 20.00     0.014 C 
HETATM   10  C10 UNL     1     -35.943  18.769  -3.983  1.00 20.00     0.043 C 
ENDBRANCH   6   8
BRANCH   7  11
HETATM   11  O11 UNL     1     -35.158  12.540  -4.258  1.00 20.00    -0.395 OA
HETATM   12  H27 UNL     1     -35.802  12.055  -3.717  1.00 20.00     0.210 HD
ENDBRANCH   7  11
TORSDOF 2
ENDMDL
MODEL 4
REMARK VINA RESULT:      -4.3      2.463      3.731
REMARK  2 active torsions:
REMARK  status: ('A' for Active; 'I' for Inactive)
REMARK    1  A    between atoms: C4_4  and  C8_8 
REMARK    2  A    between atoms: C9_9  and  O11_11 
ROOT
HETATM    1  C1  UNL     1     -35.064  16.239  -4.785  1.00 20.00    -0.079 C 
HETATM    2  C2  UNL     1     -35.614  17.440  -4.545  1.00 20.00     0.015 C 
HETATM    3  C5  UNL     1     -33.567  16.054  -4.689  1.00 20.00     0.065 C 
HETATM    4  C6  UNL     1     -35.464  13.864  -4.114  1.00 20.00     0.016 C 
HETATM    5  C7  UNL     1     -33.955  13.653  -3.999  1.00 20.00     0.033 C 
HETATM    6  C8  UNL     1     -35.815  14.961  -5.138  1.00 20.00     0.041 C 
HETATM    7  C9  UNL     1     -33.221  14.957  -3.682  1.00 20.00     0.122 C 
ENDROOT
BRANCH   6   8
HETATM    8  C4  UNL     1     -37.304  15.104  -5.260  1.00 20.00    -0.085 C 
HETATM    9  C3  UNL     1     -37.891  15.465  -6.411  1.00 20.00     0.014 C 
HETATM   10  C10 UNL     1     -38.099  14.821  -4.019  1.00 20.00     0.043 C 
ENDBRANCH   6   8
BRANCH   7  11
HETATM   11  O11 UNL     1     -31.815  14.733  -3.721  1.00 20.00    -0.395 OA
HETATM   12  H27 UNL     1     -31.645  13.940  -3.187  1.00 20.00     0.210 HD
ENDBRANCH   7  11
TORSDOF 2
ENDMDL
MODEL 5
REMARK VINA RESULT:      -4.2      1.497      2.006
REMARK  2 active torsions:
REMARK  status: ('A' for Active; 'I' for Inactive)
REMARK    1  A    between atoms: C4_4  and  C8_8 
REMARK    2  A    between atoms: C9_9  and  O11_11 
ROOT
HETATM    1  C1  UNL     1     -35.799  16.200  -4.136  1.00 20.00    -0.079 C 
HETATM    2  C2  UNL     1     -36.647  16.991  -4.813  1.00 20.00     0.015 C 
HETATM    3  C5  UNL     1     -36.151  14.754  -3.874  1.00 20.00     0.065 C 
HETATM    4  C6  UNL     1     -33.357  15.665  -4.170  1.00 20.00     0.016 C 
HETATM    5  C7  UNL     1     -33.686  14.194  -3.915  1.00 20.00     0.033 C 
HETATM    6  C8  UNL     1     -34.434  16.604  -3.592  1.00 20.00     0.041 C 
HETATM    7  C9  UNL     1     -35.076  13.824  -4.437  1.00 20.00     0.122 C 
ENDROOT
BRANCH   6   8
HETATM    8  C4  UNL     1     -34.052  18.037  -3.817  1.00 20.00    -0.085 C 
HETATM    9  C3  UNL     1     -34.222  18.974  -2.872  1.00 20.00     0.014 C 
HETATM   10  C10 UNL     1     -33.467  18.363  -5.160  1.00 20.00     0.043 C 
ENDBRANCH   6   8
BRANCH   7  11
HETATM   11  O11 UNL     1     -35.386  12.487  -4.055  1.00 20.00    -0.395 OA
HETATM   12  H27 UNL     1     -36.168  12.227  -4.567  1.00 20.00     0.210 HD
ENDBRANCH   7  11
TORSDOF 2
ENDMDL
MODEL 6
REMARK VINA RESULT:      -4.2     11.493     12.257
REMARK  2 active torsions:
REMARK  status: ('A' for Active; 'I' for Inactive)
REMARK    1  A    between atoms: C4_4  and  C8_8 
REMARK    2  A    between atoms: C9_9  and  O11_11 
ROOT
HETATM    1  C1  UNL     1     -34.088   5.538   3.375  1.00 20.00    -0.079 C 
HETATM    2  C2  UNL     1     -33.618   4.955   2.260  1.00 20.00     0.015 C 
HETATM    3  C5  UNL     1     -35.166   4.862   4.191  1.00 20.00     0.065 C 
HETATM    4  C6  UNL     1     -33.148   6.640   5.412  1.00 20.00     0.016 C 
HETATM    5  C7  UNL     1     -34.222   5.961   6.263  1.00 20.00     0.033 C 
HETATM    6  C8  UNL     1     -33.619   6.863   3.962  1.00 20.00     0.041 C 
HETATM    7  C9  UNL     1     -34.702   4.652   5.633  1.00 20.00     0.122 C 
ENDROOT
BRANCH   6   8
HETATM    8  C4  UNL     1     -32.560   7.576   3.173  1.00 20.00    -0.085 C 
HETATM    9  C3  UNL     1     -32.846   8.258   2.054  1.00 20.00     0.014 C 
HETATM   10  C10 UNL     1     -31.162   7.483   3.709  1.00 20.00     0.043 C 
ENDBRANCH   6   8
BRANCH   7  11
HETATM   11  O11 UNL     1     -35.792   4.133   6.389  1.00 20.00    -0.395 OA
HETATM   12  H27 UNL     1     -35.465   3.335   6.835  1.00 20.00     0.210 HD
ENDBRANCH   7  11
TORSDOF 2
ENDMDL
MODEL 7
REMARK VINA RESULT:      -4.2      1.868      3.451
REMARK  2 active torsions:
REMARK  status: ('A' for Active; 'I' for Inactive)
REMARK    1  A    between atoms: C4_4  and  C8_8 
REMARK    2  A    between atoms: C9_9  and  O11_11 
ROOT
HETATM    1  C1  UNL     1     -35.523  14.743  -4.947  1.00 20.00    -0.079 C 
HETATM    2  C2  UNL     1     -36.019  14.896  -6.185  1.00 20.00     0.015 C 
HETATM    3  C5  UNL     1     -34.117  14.225  -4.749  1.00 20.00     0.065 C 
HETATM    4  C6  UNL     1     -35.395  16.078  -2.837  1.00 20.00     0.016 C 
HETATM    5  C7  UNL     1     -33.967  15.577  -2.618  1.00 20.00     0.033 C 
HETATM    6  C8  UNL     1     -36.240  15.074  -3.644  1.00 20.00     0.041 C 
HETATM    7  C9  UNL     1     -33.283  15.217  -3.938  1.00 20.00     0.122 C 
ENDROOT
BRANCH   6   8
HETATM    8  C4  UNL     1     -37.646  15.577  -3.795  1.00 20.00    -0.085 C 
HETATM    9  C3  UNL     1     -38.695  14.744  -3.856  1.00 20.00     0.014 C 
HETATM   10  C10 UNL     1     -37.810  17.066  -3.873  1.00 20.00     0.043 C 
ENDBRANCH   6   8
BRANCH   7  11
HETATM   11  O11 UNL     1     -32.013  14.630  -3.670  1.00 20.00    -0.395 OA
HETATM   12  H27 UNL     1     -32.180  13.847  -3.121  1.00 20.00     0.210 HD
ENDBRANCH   7  11
TORSDOF 2
ENDMDL
MODEL 8
REMARK VINA RESULT:      -4.1      2.655      4.338
REMARK  2 active torsions:
REMARK  status: ('A' for Active; 'I' for Inactive)
REMARK    1  A    between atoms: C4_4  and  C8_8 
REMARK    2  A    between atoms: C9_9  and  O11_11 
ROOT
HETATM    1  C1  UNL     1     -35.121  14.808  -4.009  1.00 20.00    -0.079 C 
HETATM    2  C2  UNL     1     -35.148  13.474  -4.169  1.00 20.00     0.015 C 
HETATM    3  C5  UNL     1     -34.941  15.405  -2.633  1.00 20.00     0.065 C 
HETATM    4  C6  UNL     1     -33.992  16.766  -5.076  1.00 20.00     0.016 C 
HETATM    5  C7  UNL     1     -33.789  17.389  -3.695  1.00 20.00     0.033 C 
HETATM    6  C8  UNL     1     -35.229  15.848  -5.117  1.00 20.00     0.041 C 
HETATM    7  C9  UNL     1     -33.721  16.326  -2.597  1.00 20.00     0.122 C 
ENDROOT
BRANCH   6   8
HETATM    8  C4  UNL     1     -35.424  15.296  -6.499  1.00 20.00    -0.085 C 
HETATM    9  C3  UNL     1     -34.387  14.984  -7.291  1.00 20.00     0.014 C 
HETATM   10  C10 UNL     1     -36.845  15.114  -6.943  1.00 20.00     0.043 C 
ENDBRANCH   6   8
BRANCH   7  11
HETATM   11  O11 UNL     1     -33.670  16.962  -1.323  1.00 20.00    -0.395 OA
HETATM   12  H27 UNL     1     -33.293  17.844  -1.468  1.00 20.00     0.210 HD
ENDBRANCH   7  11
TORSDOF 2
ENDMDL
MODEL 9
REMARK VINA RESULT:      -4.1      1.746      2.090
REMARK  2 active torsions:
REMARK  status: ('A' for Active; 'I' for Inactive)
REMARK    1  A    between atoms: C4_4  and  C8_8 
REMARK    2  A    between atoms: C9_9  and  O11_11 
ROOT
HETATM    1  C1  UNL     1     -35.402  15.494  -3.665  1.00 20.00    -0.079 C 
HETATM    2  C2  UNL     1     -36.668  15.327  -3.248  1.00 20.00     0.015 C 
HETATM    3  C5  UNL     1     -34.898  14.754  -4.883  1.00 20.00     0.065 C 
HETATM    4  C6  UNL     1     -33.844  17.399  -4.099  1.00 20.00     0.016 C 
HETATM    5  C7  UNL     1     -33.323  16.677  -5.342  1.00 20.00     0.033 C 
HETATM    6  C8  UNL     1     -34.363  16.413  -3.036  1.00 20.00     0.041 C 
HETATM    7  C9  UNL     1     -34.372  15.733  -5.932  1.00 20.00     0.122 C 
ENDROOT
BRANCH   6   8
HETATM    8  C4  UNL     1     -34.818  17.155  -1.813  1.00 20.00    -0.085 C 
HETATM    9  C3  UNL     1     -34.648  16.661  -0.578  1.00 20.00     0.014 C 
HETATM   10  C10 UNL     1     -35.474  18.483  -2.053  1.00 20.00     0.043 C 
ENDBRANCH   6   8
BRANCH   7  11
HETATM   11  O11 UNL     1     -33.793  14.987  -6.999  1.00 20.00    -0.395 OA
HETATM   12  H27 UNL     1     -33.922  14.050  -6.784  1.00 20.00     0.210 HD
ENDBRANCH   7  11
TORSDOF 2
ENDMDL
