MODEL 1
REMARK VINA RESULT:      -4.7      0.000      0.000
REMARK  1 active torsions:
REMARK  status: ('A' for Active; 'I' for Inactive)
REMARK    1  A    between atoms: C1_1  and  C5_5 
ROOT
HETATM    1  C3  UNL     1     -34.275  17.413  -4.667  1.00 20.00     0.207 C 
HETATM    2  C4  UNL     1     -35.775  15.553  -4.910  1.00 20.00     0.208 C 
HETATM    3  C5  UNL     1     -33.397  16.382  -3.950  1.00 20.00     0.267 C 
HETATM    4  C6  UNL     1     -34.560  14.755  -5.413  1.00 20.00     0.172 C 
HETATM    5  C8  UNL     1     -34.807  13.257  -5.176  1.00 20.00     0.051 C 
HETATM    6  C9  UNL     1     -34.347  14.983  -6.922  1.00 20.00     0.051 C 
HETATM    7  N10 UNL     1     -33.336  15.111  -4.676  1.00 20.00     0.104 N 
HETATM    8  O11 UNL     1     -35.587  16.962  -4.998  1.00 20.00    -0.386 OA
HETATM    9  H28 UNL     1     -32.539  15.124  -5.325  1.00 20.00     0.318 HD
ENDROOT
BRANCH   3  10
HETATM   10  C1  UNL     1     -33.804  16.184  -2.518  1.00 20.00     0.006 C 
HETATM   11  C2  UNL     1     -34.259  17.168  -1.728  1.00 20.00    -0.033 C 
HETATM   12  C7  UNL     1     -34.664  16.970  -0.305  1.00 20.00     0.036 C 
ENDBRANCH   3  10
TORSDOF 1
ENDMDL
MODEL 2
REMARK VINA RESULT:      -4.6      1.478      1.985
REMARK  1 active torsions:
REMARK  status: ('A' for Active; 'I' for Inactive)
REMARK    1  A    between atoms: C1_1  and  C5_5 
ROOT
HETATM    1  C3  UNL     1     -33.021  15.333  -3.848  1.00 20.00     0.207 C 
HETATM    2  C4  UNL     1     -34.145  16.968  -5.201  1.00 20.00     0.208 C 
HETATM    3  C5  UNL     1     -34.449  14.929  -3.467  1.00 20.00     0.267 C 
HETATM    4  C6  UNL     1     -35.024  15.813  -5.709  1.00 20.00     0.172 C 
HETATM    5  C8  UNL     1     -36.365  16.378  -6.202  1.00 20.00     0.051 C 
HETATM    6  C9  UNL     1     -34.339  15.083  -6.880  1.00 20.00     0.051 C 
HETATM    7  N10 UNL     1     -35.331  14.854  -4.634  1.00 20.00     0.104 N 
HETATM    8  O11 UNL     1     -32.920  16.523  -4.629  1.00 20.00    -0.386 OA
HETATM    9  H28 UNL     1     -35.317  13.899  -5.015  1.00 20.00     0.318 HD
ENDROOT
BRANCH   3  10
HETATM   10  C1  UNL     1     -35.023  15.808  -2.393  1.00 20.00     0.006 C 
HETATM   11  C2  UNL     1     -34.287  16.405  -1.444  1.00 20.00    -0.033 C 
HETATM   12  C7  UNL     1     -34.858  17.279  -0.377  1.00 20.00     0.036 C 
ENDBRANCH   3  10
TORSDOF 1
ENDMDL
MODEL 3
REMARK VINA RESULT:      -4.6      1.034      1.239
REMARK  1 active torsions:
REMARK  status: ('A' for Active; 'I' for Inactive)
REMARK    1  A    between atoms: C1_1  and  C5_5 
ROOT
HETATM    1  C3  UNL     1     -33.361  16.783  -4.977  1.00 20.00     0.207 C 
HETATM    2  C4  UNL     1     -35.752  16.558  -4.948  1.00 20.00     0.208 C 
HETATM    3  C5  UNL     1     -33.444  15.932  -3.706  1.00 20.00     0.267 C 
HETATM    4  C6  UNL     1     -35.518  15.053  -4.738  1.00 20.00     0.172 C 
HETATM    5  C8  UNL     1     -36.748  14.442  -4.048  1.00 20.00     0.051 C 
HETATM    6  C9  UNL     1     -35.310  14.341  -6.088  1.00 20.00     0.051 C 
HETATM    7  N10 UNL     1     -34.364  14.802  -3.858  1.00 20.00     0.104 N 
HETATM    8  O11 UNL     1     -34.617  17.225  -5.490  1.00 20.00    -0.386 OA
HETATM    9  H28 UNL     1     -33.847  13.982  -4.199  1.00 20.00     0.318 HD
ENDROOT
BRANCH   3  10
HETATM   10  C1  UNL     1     -33.770  16.753  -2.491  1.00 20.00     0.006 C 
HETATM   11  C2  UNL     1     -34.482  16.297  -1.450  1.00 20.00    -0.033 C 
HETATM   12  C7  UNL     1     -34.805  17.114  -0.243  1.00 20.00     0.036 C 
ENDBRANCH   3  10
TORSDOF 1
ENDMDL
MODEL 4
REMARK VINA RESULT:      -4.3      1.746      4.311
REMARK  1 active torsions:
REMARK  status: ('A' for Active; 'I' for Inactive)
REMARK    1  A    between atoms: C1_1  and  C5_5 
ROOT
HETATM    1  C3  UNL     1     -33.373  14.763  -3.827  1.00 20.00     0.207 C 
HETATM    2  C4  UNL     1     -35.588  15.342  -3.101  1.00 20.00     0.208 C 
HETATM    3  C5  UNL     1     -33.434  16.129  -4.515  1.00 20.00     0.267 C 
HETATM    4  C6  UNL     1     -34.998  16.699  -2.680  1.00 20.00     0.172 C 
HETATM    5  C8  UNL     1     -36.117  17.752  -2.665  1.00 20.00     0.051 C 
HETATM    6  C9  UNL     1     -34.389  16.611  -1.268  1.00 20.00     0.051 C 
HETATM    7  N10 UNL     1     -33.980  17.166  -3.635  1.00 20.00     0.104 N 
HETATM    8  O11 UNL     1     -34.600  14.327  -3.242  1.00 20.00    -0.386 OA
HETATM    9  H28 UNL     1     -33.214  17.620  -3.122  1.00 20.00     0.318 HD
ENDROOT
BRANCH   3  10
HETATM   10  C1  UNL     1     -34.162  16.075  -5.827  1.00 20.00     0.006 C 
HETATM   11  C2  UNL     1     -34.271  14.967  -6.575  1.00 20.00    -0.033 C 
HETATM   12  C7  UNL     1     -34.995  14.914  -7.880  1.00 20.00     0.036 C 
ENDBRANCH   3  10
TORSDOF 1
ENDMDL
MODEL 5
REMARK VINA RESULT:      -4.1      1.823      2.619
REMARK  1 active torsions:
REMARK  status: ('A' for Active; 'I' for Inactive)
REMARK    1  A    between atoms: C1_1  and  C5_5 
ROOT
HETATM    1  C3  UNL     1     -33.519  15.662  -3.519  1.00 20.00     0.207 C 
HETATM    2  C4  UNL     1     -34.970  17.381  -4.360  1.00 20.00     0.208 C 
HETATM    3  C5  UNL     1     -34.461  15.705  -2.312  1.00 20.00     0.267 C 
HETATM    4  C6  UNL     1     -36.138  16.459  -3.973  1.00 20.00     0.172 C 
HETATM    5  C8  UNL     1     -37.398  17.309  -3.746  1.00 20.00     0.051 C 
HETATM    6  C9  UNL     1     -36.427  15.446  -5.097  1.00 20.00     0.051 C 
HETATM    7  N10 UNL     1     -35.870  15.744  -2.713  1.00 20.00     0.104 N 
HETATM    8  O11 UNL     1     -33.734  16.685  -4.489  1.00 20.00    -0.386 OA
HETATM    9  H28 UNL     1     -36.234  14.786  -2.781  1.00 20.00     0.318 HD
ENDROOT
BRANCH   3  10
HETATM   10  C1  UNL     1     -34.123  16.820  -1.365  1.00 20.00     0.006 C 
HETATM   11  C2  UNL     1     -34.749  17.022  -0.196  1.00 20.00    -0.033 C 
HETATM   12  C7  UNL     1     -34.412  18.131   0.746  1.00 20.00     0.036 C 
ENDBRANCH   3  10
TORSDOF 1
ENDMDL
MODEL 6
REMARK VINA RESULT:      -4.0      1.714      2.450
REMARK  1 active torsions:
REMARK  status: ('A' for Active; 'I' for Inactive)
REMARK    1  A    between atoms: C1_1  and  C5_5 
ROOT
HETATM    1  C3  UNL     1     -36.555  14.250  -4.214  1.00 20.00     0.207 C 
HETATM    2  C4  UNL     1     -34.200  14.297  -4.682  1.00 20.00     0.208 C 
HETATM    3  C5  UNL     1     -36.323  15.710  -3.812  1.00 20.00     0.267 C 
HETATM    4  C6  UNL     1     -34.471  15.600  -5.454  1.00 20.00     0.172 C 
HETATM    5  C8  UNL     1     -33.182  16.435  -5.502  1.00 20.00     0.051 C 
HETATM    6  C9  UNL     1     -34.912  15.295  -6.898  1.00 20.00     0.051 C 
HETATM    7  N10 UNL     1     -35.491  16.424  -4.783  1.00 20.00     0.104 N 
HETATM    8  O11 UNL     1     -35.370  13.508  -4.500  1.00 20.00    -0.386 OA
HETATM    9  H28 UNL     1     -36.091  16.865  -5.491  1.00 20.00     0.318 HD
ENDROOT
BRANCH   3  10
HETATM   10  C1  UNL     1     -35.781  15.837  -2.417  1.00 20.00     0.006 C 
HETATM   11  C2  UNL     1     -34.952  16.816  -2.024  1.00 20.00    -0.033 C 
HETATM   12  C7  UNL     1     -34.414  16.942  -0.638  1.00 20.00     0.036 C 
ENDBRANCH   3  10
TORSDOF 1
ENDMDL
MODEL 7
REMARK VINA RESULT:      -3.9      2.118      3.773
REMARK  1 active torsions:
REMARK  status: ('A' for Active; 'I' for Inactive)
REMARK    1  A    between atoms: C1_1  and  C5_5 
ROOT
HETATM    1  C3  UNL     1     -35.105  14.221  -6.060  1.00 20.00     0.207 C 
HETATM    2  C4  UNL     1     -34.709  13.854  -3.720  1.00 20.00     0.208 C 
HETATM    3  C5  UNL     1     -35.937  15.402  -5.551  1.00 20.00     0.267 C 
HETATM    4  C6  UNL     1     -34.368  15.351  -3.634  1.00 20.00     0.172 C 
HETATM    5  C8  UNL     1     -34.595  15.839  -2.195  1.00 20.00     0.051 C 
HETATM    6  C9  UNL     1     -32.893  15.593  -4.007  1.00 20.00     0.051 C 
HETATM    7  N10 UNL     1     -35.242  16.156  -4.504  1.00 20.00     0.104 N 
HETATM    8  O11 UNL     1     -34.625  13.341  -5.045  1.00 20.00    -0.386 OA
HETATM    9  H28 UNL     1     -34.693  16.912  -4.932  1.00 20.00     0.318 HD
ENDROOT
BRANCH   3  10
HETATM   10  C1  UNL     1     -37.312  14.986  -5.115  1.00 20.00     0.006 C 
HETATM   11  C2  UNL     1     -37.992  15.579  -4.123  1.00 20.00    -0.033 C 
HETATM   12  C7  UNL     1     -39.360  15.165  -3.690  1.00 20.00     0.036 C 
ENDBRANCH   3  10
TORSDOF 1
ENDMDL
MODEL 8
REMARK VINA RESULT:      -3.9     11.726     12.854
REMARK  1 active torsions:
REMARK  status: ('A' for Active; 'I' for Inactive)
REMARK    1  A    between atoms: C1_1  and  C5_5 
ROOT
HETATM    1  C3  UNL     1     -33.839   5.295   2.524  1.00 20.00     0.207 C 
HETATM    2  C4  UNL     1     -35.238   6.179   4.265  1.00 20.00     0.208 C 
HETATM    3  C5  UNL     1     -32.747   6.093   3.241  1.00 20.00     0.267 C 
HETATM    4  C6  UNL     1     -34.149   5.720   5.249  1.00 20.00     0.172 C 
HETATM    5  C8  UNL     1     -34.236   6.566   6.529  1.00 20.00     0.051 C 
HETATM    6  C9  UNL     1     -34.347   4.239   5.626  1.00 20.00     0.051 C 
HETATM    7  N10 UNL     1     -32.799   5.918   4.695  1.00 20.00     0.104 N 
HETATM    8  O11 UNL     1     -35.163   5.516   3.008  1.00 20.00    -0.386 OA
HETATM    9  H28 UNL     1     -32.200   5.129   4.968  1.00 20.00     0.318 HD
ENDROOT
BRANCH   3  10
HETATM   10  C1  UNL     1     -32.757   7.545   2.857  1.00 20.00     0.006 C 
HETATM   11  C2  UNL     1     -32.148   8.033   1.766  1.00 20.00    -0.033 C 
HETATM   12  C7  UNL     1     -32.159   9.476   1.384  1.00 20.00     0.036 C 
ENDBRANCH   3  10
TORSDOF 1
ENDMDL
MODEL 9
REMARK VINA RESULT:      -3.8      1.965      3.969
REMARK  1 active torsions:
REMARK  status: ('A' for Active; 'I' for Inactive)
REMARK    1  A    between atoms: C1_1  and  C5_5 
ROOT
HETATM    1  C3  UNL     1     -34.800  13.217  -5.650  1.00 20.00     0.207 C 
HETATM    2  C4  UNL     1     -35.060  14.308  -3.526  1.00 20.00     0.208 C 
HETATM    3  C5  UNL     1     -34.612  14.648  -6.161  1.00 20.00     0.267 C 
HETATM    4  C6  UNL     1     -33.778  15.085  -3.870  1.00 20.00     0.172 C 
HETATM    5  C8  UNL     1     -33.766  16.409  -3.090  1.00 20.00     0.051 C 
HETATM    6  C9  UNL     1     -32.529  14.274  -3.477  1.00 20.00     0.051 C 
HETATM    7  N10 UNL     1     -33.721  15.430  -5.301  1.00 20.00     0.104 N 
HETATM    8  O11 UNL     1     -35.203  13.112  -4.285  1.00 20.00    -0.386 OA
HETATM    9  H28 UNL     1     -32.753  15.338  -5.634  1.00 20.00     0.318 HD
ENDROOT
BRANCH   3  10
HETATM   10  C1  UNL     1     -35.922  15.349  -6.386  1.00 20.00     0.006 C 
HETATM   11  C2  UNL     1     -36.082  16.678  -6.298  1.00 20.00    -0.033 C 
HETATM   12  C7  UNL     1     -37.384  17.374  -6.521  1.00 20.00     0.036 C 
ENDBRANCH   3  10
TORSDOF 1
ENDMDL
