MODEL 1
REMARK VINA RESULT:      -4.8      0.000      0.000
REMARK  2 active torsions:
REMARK  status: ('A' for Active; 'I' for Inactive)
REMARK    1  A    between atoms: C6_6  and  C8_8 
REMARK    2  A    between atoms: C7_7  and  C9_9 
ROOT
HETATM    1  C1  UNL     1     -34.362   5.869   6.261  1.00 20.00     0.005 C 
HETATM    2  C2  UNL     1     -34.669   4.352   6.290  1.00 20.00     0.005 C 
HETATM    3  C5  UNL     1     -35.717   5.210   4.391  1.00 20.00     0.010 C 
HETATM    4  C6  UNL     1     -34.674   6.268   4.809  1.00 20.00    -0.010 C 
HETATM    5  C7  UNL     1     -34.817   4.033   4.780  1.00 20.00    -0.010 C 
ENDROOT
BRANCH   4   6
HETATM    6  C8  UNL     1     -33.585   5.855   3.824  1.00 20.00    -0.006 C 
HETATM    7  C3  UNL     1     -33.053   5.765   2.370  1.00 20.00     0.006 C 
HETATM    8  C4  UNL     1     -31.679   6.192   3.054  1.00 20.00     0.006 C 
HETATM    9  C9  UNL     1     -32.601   7.087   3.937  1.00 20.00    -0.006 C 
ENDBRANCH   4   6
TORSDOF 2
ENDMDL
MODEL 2
REMARK VINA RESULT:      -4.7      0.744      3.629
REMARK  2 active torsions:
REMARK  status: ('A' for Active; 'I' for Inactive)
REMARK    1  A    between atoms: C6_6  and  C8_8 
REMARK    2  A    between atoms: C7_7  and  C9_9 
ROOT
HETATM    1  C1  UNL     1     -34.070   5.374   2.428  1.00 20.00     0.005 C 
HETATM    2  C2  UNL     1     -32.524   5.392   2.342  1.00 20.00     0.005 C 
HETATM    3  C5  UNL     1     -33.154   7.345   3.451  1.00 20.00     0.010 C 
HETATM    4  C6  UNL     1     -34.378   6.406   3.525  1.00 20.00    -0.010 C 
HETATM    5  C7  UNL     1     -32.149   6.200   3.611  1.00 20.00    -0.010 C 
ENDROOT
BRANCH   4   6
HETATM    6  C8  UNL     1     -34.123   5.881   4.935  1.00 20.00    -0.006 C 
HETATM    7  C3  UNL     1     -34.357   5.973   6.465  1.00 20.00     0.006 C 
HETATM    8  C4  UNL     1     -34.450   4.386   6.349  1.00 20.00     0.006 C 
HETATM    9  C9  UNL     1     -35.176   4.705   5.007  1.00 20.00    -0.006 C 
ENDBRANCH   4   6
TORSDOF 2
ENDMDL
MODEL 3
REMARK VINA RESULT:      -4.3     11.703     12.864
REMARK  2 active torsions:
REMARK  status: ('A' for Active; 'I' for Inactive)
REMARK    1  A    between atoms: C6_6  and  C8_8 
REMARK    2  A    between atoms: C7_7  and  C9_9 
ROOT
HETATM    1  C1  UNL     1     -35.009  14.430  -3.796  1.00 20.00     0.005 C 
HETATM    2  C2  UNL     1     -33.650  13.690  -3.838  1.00 20.00     0.005 C 
HETATM    3  C5  UNL     1     -33.223  15.905  -4.433  1.00 20.00     0.010 C 
HETATM    4  C6  UNL     1     -34.606  15.913  -3.746  1.00 20.00    -0.010 C 
HETATM    5  C7  UNL     1     -32.660  14.832  -3.495  1.00 20.00    -0.010 C 
ENDROOT
BRANCH   4   6
HETATM    6  C8  UNL     1     -34.125  16.361  -2.369  1.00 20.00    -0.006 C 
HETATM    7  C3  UNL     1     -33.534  17.456  -1.443  1.00 20.00     0.006 C 
HETATM    8  C4  UNL     1     -34.613  16.892  -0.415  1.00 20.00     0.006 C 
HETATM    9  C9  UNL     1     -35.497  16.755  -1.691  1.00 20.00    -0.006 C 
ENDBRANCH   4   6
TORSDOF 2
ENDMDL
MODEL 4
REMARK VINA RESULT:      -4.2     11.664     13.021
REMARK  2 active torsions:
REMARK  status: ('A' for Active; 'I' for Inactive)
REMARK    1  A    between atoms: C6_6  and  C8_8 
REMARK    2  A    between atoms: C7_7  and  C9_9 
ROOT
HETATM    1  C1  UNL     1     -34.060  15.295  -5.451  1.00 20.00     0.005 C 
HETATM    2  C2  UNL     1     -34.900  13.995  -5.441  1.00 20.00     0.005 C 
HETATM    3  C5  UNL     1     -33.343  13.797  -3.716  1.00 20.00     0.010 C 
HETATM    4  C6  UNL     1     -33.395  15.300  -4.064  1.00 20.00    -0.010 C 
HETATM    5  C7  UNL     1     -34.844  13.596  -3.944  1.00 20.00    -0.010 C 
ENDROOT
BRANCH   4   6
HETATM    6  C8  UNL     1     -34.342  15.717  -2.943  1.00 20.00    -0.006 C 
HETATM    7  C3  UNL     1     -34.568  16.266  -1.510  1.00 20.00     0.006 C 
HETATM    8  C4  UNL     1     -35.727  17.096  -2.223  1.00 20.00     0.006 C 
HETATM    9  C9  UNL     1     -34.699  17.190  -3.390  1.00 20.00    -0.006 C 
ENDBRANCH   4   6
TORSDOF 2
ENDMDL
MODEL 5
REMARK VINA RESULT:      -4.2     12.013     13.441
REMARK  2 active torsions:
REMARK  status: ('A' for Active; 'I' for Inactive)
REMARK    1  A    between atoms: C6_6  and  C8_8 
REMARK    2  A    between atoms: C7_7  and  C9_9 
ROOT
HETATM    1  C1  UNL     1     -35.415  15.226  -3.174  1.00 20.00     0.005 C 
HETATM    2  C2  UNL     1     -34.051  15.734  -2.648  1.00 20.00     0.005 C 
HETATM    3  C5  UNL     1     -33.620  13.776  -3.839  1.00 20.00     0.010 C 
HETATM    4  C6  UNL     1     -35.023  14.239  -4.286  1.00 20.00    -0.010 C 
HETATM    5  C7  UNL     1     -33.079  15.206  -3.733  1.00 20.00    -0.010 C 
ENDROOT
BRANCH   4   6
HETATM    6  C8  UNL     1     -34.588  14.927  -5.576  1.00 20.00    -0.006 C 
HETATM    7  C3  UNL     1     -34.399  14.900  -7.116  1.00 20.00     0.006 C 
HETATM    8  C4  UNL     1     -34.968  16.386  -7.015  1.00 20.00     0.006 C 
HETATM    9  C9  UNL     1     -35.882  15.771  -5.912  1.00 20.00    -0.006 C 
ENDBRANCH   4   6
TORSDOF 2
ENDMDL
MODEL 6
REMARK VINA RESULT:      -4.1     11.626     13.018
REMARK  2 active torsions:
REMARK  status: ('A' for Active; 'I' for Inactive)
REMARK    1  A    between atoms: C6_6  and  C8_8 
REMARK    2  A    between atoms: C7_7  and  C9_9 
ROOT
HETATM    1  C1  UNL     1     -36.072  16.718  -2.974  1.00 20.00     0.005 C 
HETATM    2  C2  UNL     1     -35.187  17.854  -3.542  1.00 20.00     0.005 C 
HETATM    3  C5  UNL     1     -33.869  16.679  -2.019  1.00 20.00     0.010 C 
HETATM    4  C6  UNL     1     -35.052  15.747  -2.357  1.00 20.00    -0.010 C 
HETATM    5  C7  UNL     1     -33.772  17.229  -3.446  1.00 20.00    -0.010 C 
ENDROOT
BRANCH   4   6
HETATM    6  C8  UNL     1     -34.326  14.896  -3.395  1.00 20.00    -0.006 C 
HETATM    7  C3  UNL     1     -33.460  13.659  -3.750  1.00 20.00     0.006 C 
HETATM    8  C4  UNL     1     -34.457  13.561  -4.989  1.00 20.00     0.006 C 
HETATM    9  C9  UNL     1     -35.519  14.016  -3.943  1.00 20.00    -0.006 C 
ENDBRANCH   4   6
TORSDOF 2
ENDMDL
MODEL 7
REMARK VINA RESULT:      -4.0     12.156     13.570
REMARK  2 active torsions:
REMARK  status: ('A' for Active; 'I' for Inactive)
REMARK    1  A    between atoms: C6_6  and  C8_8 
REMARK    2  A    between atoms: C7_7  and  C9_9 
ROOT
HETATM    1  C1  UNL     1     -33.126  15.860  -4.138  1.00 20.00     0.005 C 
HETATM    2  C2  UNL     1     -32.819  14.433  -3.623  1.00 20.00     0.005 C 
HETATM    3  C5  UNL     1     -35.115  14.754  -3.372  1.00 20.00     0.010 C 
HETATM    4  C6  UNL     1     -34.646  15.837  -4.367  1.00 20.00    -0.010 C 
HETATM    5  C7  UNL     1     -34.150  13.698  -3.922  1.00 20.00    -0.010 C 
ENDROOT
BRANCH   4   6
HETATM    6  C8  UNL     1     -35.052  15.104  -5.642  1.00 20.00    -0.006 C 
HETATM    7  C3  UNL     1     -36.074  14.859  -6.783  1.00 20.00     0.006 C 
HETATM    8  C4  UNL     1     -34.761  14.822  -7.686  1.00 20.00     0.006 C 
HETATM    9  C9  UNL     1     -34.287  15.958  -6.730  1.00 20.00    -0.006 C 
ENDBRANCH   4   6
TORSDOF 2
ENDMDL
MODEL 8
REMARK VINA RESULT:      -4.0     12.079     13.062
REMARK  2 active torsions:
REMARK  status: ('A' for Active; 'I' for Inactive)
REMARK    1  A    between atoms: C6_6  and  C8_8 
REMARK    2  A    between atoms: C7_7  and  C9_9 
ROOT
HETATM    1  C1  UNL     1     -34.635  14.109  -5.299  1.00 20.00     0.005 C 
HETATM    2  C2  UNL     1     -35.651  14.966  -6.092  1.00 20.00     0.005 C 
HETATM    3  C5  UNL     1     -36.721  14.311  -4.126  1.00 20.00     0.010 C 
HETATM    4  C6  UNL     1     -35.213  14.099  -3.874  1.00 20.00    -0.010 C 
HETATM    5  C7  UNL     1     -36.499  15.583  -4.951  1.00 20.00    -0.010 C 
ENDROOT
BRANCH   4   6
HETATM    6  C8  UNL     1     -34.967  15.400  -3.115  1.00 20.00    -0.006 C 
HETATM    7  C3  UNL     1     -34.778  16.158  -1.776  1.00 20.00     0.006 C 
HETATM    8  C4  UNL     1     -33.636  16.914  -2.591  1.00 20.00     0.006 C 
HETATM    9  C9  UNL     1     -33.393  15.505  -3.211  1.00 20.00    -0.006 C 
ENDBRANCH   4   6
TORSDOF 2
ENDMDL
MODEL 9
REMARK VINA RESULT:      -3.9     11.592     13.073
REMARK  2 active torsions:
REMARK  status: ('A' for Active; 'I' for Inactive)
REMARK    1  A    between atoms: C6_6  and  C8_8 
REMARK    2  A    between atoms: C7_7  and  C9_9 
ROOT
HETATM    1  C1  UNL     1     -34.491  16.196  -1.637  1.00 20.00     0.005 C 
HETATM    2  C2  UNL     1     -35.556  17.259  -2.001  1.00 20.00     0.005 C 
HETATM    3  C5  UNL     1     -33.868  17.429  -3.602  1.00 20.00     0.010 C 
HETATM    4  C6  UNL     1     -33.675  16.052  -2.932  1.00 20.00    -0.010 C 
HETATM    5  C7  UNL     1     -35.397  17.349  -3.540  1.00 20.00    -0.010 C 
ENDROOT
BRANCH   4   6
HETATM    6  C8  UNL     1     -34.382  15.225  -4.002  1.00 20.00    -0.006 C 
HETATM    7  C3  UNL     1     -34.382  14.558  -5.402  1.00 20.00     0.006 C 
HETATM    8  C4  UNL     1     -35.089  13.364  -4.616  1.00 20.00     0.006 C 
HETATM    9  C9  UNL     1     -34.097  13.761  -3.481  1.00 20.00    -0.006 C 
ENDBRANCH   4   6
TORSDOF 2
ENDMDL
