MODEL 1
REMARK VINA RESULT:      -5.0      0.000      0.000
REMARK  0 active torsions:
REMARK  status: ('A' for Active; 'I' for Inactive)
ROOT
HETATM    1  C1  UNL     1     -36.367  15.231  -5.015  1.00 20.00    -0.081 C 
HETATM    2  C2  UNL     1     -36.971  14.721  -3.927  1.00 20.00     0.015 C 
HETATM    3  C3  UNL     1     -37.072  16.334  -5.781  1.00 20.00     0.034 C 
HETATM    4  C4  UNL     1     -37.345  15.903  -7.220  1.00 20.00     0.004 C 
HETATM    5  C5  UNL     1     -36.086  15.396  -7.917  1.00 20.00     0.001 C 
HETATM    6  C6  UNL     1     -32.739  14.933  -3.682  1.00 20.00     0.000 C 
HETATM    7  C7  UNL     1     -33.728  13.781  -3.594  1.00 20.00     0.001 C 
HETATM    8  C8  UNL     1     -33.384  16.170  -4.289  1.00 20.00     0.001 C 
HETATM    9  C9  UNL     1     -35.385  14.308  -7.098  1.00 20.00     0.014 C 
HETATM   10  C10 UNL     1     -34.407  13.491  -4.938  1.00 20.00     0.014 C 
HETATM   11  C11 UNL     1     -33.971  15.860  -5.665  1.00 20.00     0.014 C 
HETATM   12  C12 UNL     1     -35.046  14.733  -5.636  1.00 20.00    -0.018 C 
ENDROOT
TORSDOF 0
ENDMDL
MODEL 2
REMARK VINA RESULT:      -5.0      1.813      2.985
REMARK  0 active torsions:
REMARK  status: ('A' for Active; 'I' for Inactive)
ROOT
HETATM    1  C1  UNL     1     -34.777  14.676  -4.539  1.00 20.00    -0.081 C 
HETATM    2  C2  UNL     1     -34.500  13.638  -3.732  1.00 20.00     0.015 C 
HETATM    3  C3  UNL     1     -35.426  14.394  -5.881  1.00 20.00     0.034 C 
HETATM    4  C4  UNL     1     -34.538  14.879  -7.023  1.00 20.00     0.004 C 
HETATM    5  C5  UNL     1     -34.123  16.337  -6.851  1.00 20.00     0.001 C 
HETATM    6  C6  UNL     1     -35.662  17.193  -1.727  1.00 20.00     0.000 C 
HETATM    7  C7  UNL     1     -34.408  16.335  -1.676  1.00 20.00     0.001 C 
HETATM    8  C8  UNL     1     -36.497  16.880  -2.961  1.00 20.00     0.001 C 
HETATM    9  C9  UNL     1     -33.503  16.589  -5.474  1.00 20.00     0.014 C 
HETATM   10  C10 UNL     1     -33.594  16.415  -2.973  1.00 20.00     0.014 C 
HETATM   11  C11 UNL     1     -35.673  17.056  -4.235  1.00 20.00     0.014 C 
HETATM   12  C12 UNL     1     -34.406  16.152  -4.280  1.00 20.00    -0.018 C 
ENDROOT
TORSDOF 0
ENDMDL
MODEL 3
REMARK VINA RESULT:      -4.9      1.638      3.823
REMARK  0 active torsions:
REMARK  status: ('A' for Active; 'I' for Inactive)
ROOT
HETATM    1  C1  UNL     1     -34.234  15.032  -3.667  1.00 20.00    -0.081 C 
HETATM    2  C2  UNL     1     -33.775  13.772  -3.764  1.00 20.00     0.015 C 
HETATM    3  C3  UNL     1     -33.645  15.935  -2.599  1.00 20.00     0.034 C 
HETATM    4  C4  UNL     1     -34.728  16.403  -1.631  1.00 20.00     0.004 C 
HETATM    5  C5  UNL     1     -35.917  17.026  -2.355  1.00 20.00     0.001 C 
HETATM    6  C6  UNL     1     -34.825  15.576  -7.460  1.00 20.00     0.000 C 
HETATM    7  C7  UNL     1     -35.310  14.328  -6.738  1.00 20.00     0.001 C 
HETATM    8  C8  UNL     1     -34.062  16.497  -6.519  1.00 20.00     0.001 C 
HETATM    9  C9  UNL     1     -36.462  16.100  -3.446  1.00 20.00     0.014 C 
HETATM   10  C10 UNL     1     -36.102  14.660  -5.468  1.00 20.00     0.014 C 
HETATM   11  C11 UNL     1     -34.918  16.873  -5.311  1.00 20.00     0.014 C 
HETATM   12  C12 UNL     1     -35.392  15.642  -4.484  1.00 20.00    -0.018 C 
ENDROOT
TORSDOF 0
ENDMDL
MODEL 4
REMARK VINA RESULT:      -4.9      2.096      4.179
REMARK  0 active torsions:
REMARK  status: ('A' for Active; 'I' for Inactive)
ROOT
HETATM    1  C1  UNL     1     -34.214  17.029  -4.152  1.00 20.00    -0.081 C 
HETATM    2  C2  UNL     1     -33.385  16.977  -5.209  1.00 20.00     0.015 C 
HETATM    3  C3  UNL     1     -34.996  18.306  -3.910  1.00 20.00     0.034 C 
HETATM    4  C4  UNL     1     -34.648  18.902  -2.548  1.00 20.00     0.004 C 
HETATM    5  C5  UNL     1     -34.793  17.885  -1.421  1.00 20.00     0.001 C 
HETATM    6  C6  UNL     1     -35.323  13.316  -4.284  1.00 20.00     0.000 C 
HETATM    7  C7  UNL     1     -33.860  13.725  -4.368  1.00 20.00     0.001 C 
HETATM    8  C8  UNL     1     -36.233  14.533  -4.204  1.00 20.00     0.001 C 
HETATM    9  C9  UNL     1     -34.018  16.598  -1.717  1.00 20.00     0.014 C 
HETATM   10  C10 UNL     1     -33.459  14.688  -3.244  1.00 20.00     0.014 C 
HETATM   11  C11 UNL     1     -35.855  15.420  -3.020  1.00 20.00     0.014 C 
HETATM   12  C12 UNL     1     -34.386  15.933  -3.079  1.00 20.00    -0.018 C 
ENDROOT
TORSDOF 0
ENDMDL
MODEL 5
REMARK VINA RESULT:      -4.7      1.233      2.712
REMARK  0 active torsions:
REMARK  status: ('A' for Active; 'I' for Inactive)
ROOT
HETATM    1  C1  UNL     1     -35.920  15.764  -5.480  1.00 20.00    -0.081 C 
HETATM    2  C2  UNL     1     -35.141  16.773  -5.905  1.00 20.00     0.015 C 
HETATM    3  C3  UNL     1     -37.053  15.299  -6.375  1.00 20.00     0.034 C 
HETATM    4  C4  UNL     1     -38.399  15.465  -5.674  1.00 20.00     0.004 C 
HETATM    5  C5  UNL     1     -38.414  14.810  -4.297  1.00 20.00     0.001 C 
HETATM    6  C6  UNL     1     -33.132  13.807  -3.629  1.00 20.00     0.000 C 
HETATM    7  C7  UNL     1     -33.326  15.305  -3.443  1.00 20.00     0.001 C 
HETATM    8  C8  UNL     1     -34.115  13.244  -4.645  1.00 20.00     0.001 C 
HETATM    9  C9  UNL     1     -37.238  15.278  -3.434  1.00 20.00     0.014 C 
HETATM   10  C10 UNL     1     -34.780  15.668  -3.120  1.00 20.00     0.014 C 
HETATM   11  C11 UNL     1     -35.555  13.553  -4.240  1.00 20.00     0.014 C 
HETATM   12  C12 UNL     1     -35.842  15.077  -4.100  1.00 20.00    -0.018 C 
ENDROOT
TORSDOF 0
ENDMDL
MODEL 6
REMARK VINA RESULT:      -4.7      2.334      4.208
REMARK  0 active torsions:
REMARK  status: ('A' for Active; 'I' for Inactive)
ROOT
HETATM    1  C1  UNL     1     -35.542  17.401  -3.628  1.00 20.00    -0.081 C 
HETATM    2  C2  UNL     1     -35.647  18.316  -4.606  1.00 20.00     0.015 C 
HETATM    3  C3  UNL     1     -36.454  17.524  -2.422  1.00 20.00     0.034 C 
HETATM    4  C4  UNL     1     -35.639  17.696  -1.143  1.00 20.00     0.004 C 
HETATM    5  C5  UNL     1     -34.579  16.609  -0.986  1.00 20.00     0.001 C 
HETATM    6  C6  UNL     1     -34.708  14.394  -5.929  1.00 20.00     0.000 C 
HETATM    7  C7  UNL     1     -33.998  15.733  -6.062  1.00 20.00     0.001 C 
HETATM    8  C8  UNL     1     -35.779  14.441  -4.849  1.00 20.00     0.001 C 
HETATM    9  C9  UNL     1     -33.700  16.492  -2.235  1.00 20.00     0.014 C 
HETATM   10  C10 UNL     1     -33.458  16.241  -4.719  1.00 20.00     0.014 C 
HETATM   11  C11 UNL     1     -35.183  14.867  -3.509  1.00 20.00     0.014 C 
HETATM   12  C12 UNL     1     -34.499  16.265  -3.555  1.00 20.00    -0.018 C 
ENDROOT
TORSDOF 0
ENDMDL
MODEL 7
REMARK VINA RESULT:      -4.7      2.170      4.008
REMARK  0 active torsions:
REMARK  status: ('A' for Active; 'I' for Inactive)
ROOT
HETATM    1  C1  UNL     1     -33.969  15.697  -4.133  1.00 20.00    -0.081 C 
HETATM    2  C2  UNL     1     -33.011  16.181  -4.942  1.00 20.00     0.015 C 
HETATM    3  C3  UNL     1     -34.087  14.193  -3.975  1.00 20.00     0.034 C 
HETATM    4  C4  UNL     1     -35.461  13.709  -4.432  1.00 20.00     0.004 C 
HETATM    5  C5  UNL     1     -36.595  14.476  -3.758  1.00 20.00     0.001 C 
HETATM    6  C6  UNL     1     -33.823  18.557  -1.519  1.00 20.00     0.000 C 
HETATM    7  C7  UNL     1     -33.888  18.832  -3.014  1.00 20.00     0.001 C 
HETATM    8  C8  UNL     1     -33.768  17.063  -1.234  1.00 20.00     0.001 C 
HETATM    9  C9  UNL     1     -36.422  15.990  -3.910  1.00 20.00     0.014 C 
HETATM   10  C10 UNL     1     -35.021  18.059  -3.700  1.00 20.00     0.014 C 
HETATM   11  C11 UNL     1     -34.960  16.344  -1.861  1.00 20.00     0.014 C 
HETATM   12  C12 UNL     1     -35.048  16.526  -3.405  1.00 20.00    -0.018 C 
ENDROOT
TORSDOF 0
ENDMDL
MODEL 8
REMARK VINA RESULT:      -4.7      0.594      4.098
REMARK  0 active torsions:
REMARK  status: ('A' for Active; 'I' for Inactive)
ROOT
HETATM    1  C1  UNL     1     -34.349  15.998  -5.492  1.00 20.00    -0.081 C 
HETATM    2  C2  UNL     1     -33.937  16.797  -6.492  1.00 20.00     0.015 C 
HETATM    3  C3  UNL     1     -33.853  16.285  -4.088  1.00 20.00     0.034 C 
HETATM    4  C4  UNL     1     -33.072  15.095  -3.537  1.00 20.00     0.004 C 
HETATM    5  C5  UNL     1     -33.860  13.792  -3.642  1.00 20.00     0.001 C 
HETATM    6  C6  UNL     1     -37.909  15.354  -6.885  1.00 20.00     0.000 C 
HETATM    7  C7  UNL     1     -36.667  15.228  -7.755  1.00 20.00     0.001 C 
HETATM    8  C8  UNL     1     -37.553  15.805  -5.476  1.00 20.00     0.001 C 
HETATM    9  C9  UNL     1     -34.371  13.554  -5.066  1.00 20.00     0.014 C 
HETATM   10  C10 UNL     1     -35.590  14.349  -7.109  1.00 20.00     0.014 C 
HETATM   11  C11 UNL     1     -36.544  14.853  -4.837  1.00 20.00     0.014 C 
HETATM   12  C12 UNL     1     -35.217  14.731  -5.642  1.00 20.00    -0.018 C 
ENDROOT
TORSDOF 0
ENDMDL
MODEL 9
REMARK VINA RESULT:      -4.7      1.692      3.556
REMARK  0 active torsions:
REMARK  status: ('A' for Active; 'I' for Inactive)
ROOT
HETATM    1  C1  UNL     1     -35.583  15.799  -4.309  1.00 20.00    -0.081 C 
HETATM    2  C2  UNL     1     -36.714  16.422  -3.935  1.00 20.00     0.015 C 
HETATM    3  C3  UNL     1     -35.697  14.499  -5.081  1.00 20.00     0.034 C 
HETATM    4  C4  UNL     1     -35.030  13.358  -4.318  1.00 20.00     0.004 C 
HETATM    5  C5  UNL     1     -33.597  13.694  -3.916  1.00 20.00     0.001 C 
HETATM    6  C6  UNL     1     -33.510  19.010  -4.962  1.00 20.00     0.000 C 
HETATM    7  C7  UNL     1     -34.326  18.821  -3.693  1.00 20.00     0.001 C 
HETATM    8  C8  UNL     1     -33.675  17.828  -5.907  1.00 20.00     0.001 C 
HETATM    9  C9  UNL     1     -33.519  15.029  -3.168  1.00 20.00     0.014 C 
HETATM   10  C10 UNL     1     -34.041  17.477  -3.011  1.00 20.00     0.014 C 
HETATM   11  C11 UNL     1     -33.298  16.520  -5.215  1.00 20.00     0.014 C 
HETATM   12  C12 UNL     1     -34.147  16.229  -3.942  1.00 20.00    -0.018 C 
ENDROOT
TORSDOF 0
ENDMDL
