MODEL 1
REMARK VINA RESULT:      -5.0      0.000      0.000
REMARK  1 active torsions:
REMARK  status: ('A' for Active; 'I' for Inactive)
REMARK    1  A    between atoms: C4_4  and  C9_9 
ROOT
HETATM    1  C1  UNL     1     -34.506   5.470   5.348  1.00 20.00    -0.089 C 
HETATM    2  C2  UNL     1     -34.507   4.801   6.510  1.00 20.00     0.014 C 
HETATM    3  C5  UNL     1     -35.460   5.147   4.229  1.00 20.00     0.033 C 
HETATM    4  C6  UNL     1     -33.535   6.586   5.059  1.00 20.00     0.042 C 
HETATM    5  C7  UNL     1     -34.700   4.889   2.928  1.00 20.00     0.005 C 
HETATM    6  C8  UNL     1     -33.740   6.032   2.591  1.00 20.00     0.009 C 
HETATM    7  C9  UNL     1     -32.771   6.317   3.751  1.00 20.00     0.017 C 
ENDROOT
BRANCH   7   8
HETATM    8  C4  UNL     1     -31.872   7.465   3.409  1.00 20.00    -0.089 C 
HETATM    9  C3  UNL     1     -30.964   7.938   4.277  1.00 20.00     0.014 C 
HETATM   10  C10 UNL     1     -32.044   8.055   2.040  1.00 20.00     0.043 C 
ENDBRANCH   7   8
TORSDOF 1
ENDMDL
MODEL 2
REMARK VINA RESULT:      -4.9      1.023      3.692
REMARK  1 active torsions:
REMARK  status: ('A' for Active; 'I' for Inactive)
REMARK    1  A    between atoms: C4_4  and  C9_9 
ROOT
HETATM    1  C1  UNL     1     -32.478   6.900   2.805  1.00 20.00    -0.089 C 
HETATM    2  C2  UNL     1     -32.015   8.004   2.203  1.00 20.00     0.014 C 
HETATM    3  C5  UNL     1     -32.894   5.674   2.034  1.00 20.00     0.033 C 
HETATM    4  C6  UNL     1     -32.640   6.801   4.300  1.00 20.00     0.042 C 
HETATM    5  C7  UNL     1     -34.318   5.261   2.405  1.00 20.00     0.005 C 
HETATM    6  C8  UNL     1     -34.494   5.110   3.918  1.00 20.00     0.009 C 
HETATM    7  C9  UNL     1     -34.077   6.388   4.664  1.00 20.00     0.017 C 
ENDROOT
BRANCH   7   8
HETATM    8  C4  UNL     1     -34.221   6.199   6.144  1.00 20.00    -0.089 C 
HETATM    9  C3  UNL     1     -33.791   7.117   7.022  1.00 20.00     0.014 C 
HETATM   10  C10 UNL     1     -34.875   4.923   6.586  1.00 20.00     0.043 C 
ENDBRANCH   7   8
TORSDOF 1
ENDMDL
MODEL 3
REMARK VINA RESULT:      -4.6     11.210     12.646
REMARK  1 active torsions:
REMARK  status: ('A' for Active; 'I' for Inactive)
REMARK    1  A    between atoms: C4_4  and  C9_9 
ROOT
HETATM    1  C1  UNL     1     -34.513  14.606  -4.315  1.00 20.00    -0.089 C 
HETATM    2  C2  UNL     1     -34.367  13.276  -4.403  1.00 20.00     0.014 C 
HETATM    3  C5  UNL     1     -34.444  15.508  -5.518  1.00 20.00     0.033 C 
HETATM    4  C6  UNL     1     -34.738  15.309  -3.001  1.00 20.00     0.042 C 
HETATM    5  C7  UNL     1     -33.411  16.614  -5.306  1.00 20.00     0.005 C 
HETATM    6  C8  UNL     1     -33.647  17.373  -3.997  1.00 20.00     0.009 C 
HETATM    7  C9  UNL     1     -33.693  16.418  -2.792  1.00 20.00     0.017 C 
ENDROOT
BRANCH   7   8
HETATM    8  C4  UNL     1     -33.965  17.182  -1.532  1.00 20.00    -0.089 C 
HETATM    9  C3  UNL     1     -34.741  16.687  -0.557  1.00 20.00     0.014 C 
HETATM   10  C10 UNL     1     -33.319  18.532  -1.425  1.00 20.00     0.043 C 
ENDBRANCH   7   8
TORSDOF 1
ENDMDL
MODEL 4
REMARK VINA RESULT:      -4.4     11.158     12.089
REMARK  1 active torsions:
REMARK  status: ('A' for Active; 'I' for Inactive)
REMARK    1  A    between atoms: C4_4  and  C9_9 
ROOT
HETATM    1  C1  UNL     1     -36.792  15.047  -3.931  1.00 20.00    -0.089 C 
HETATM    2  C2  UNL     1     -38.094  14.731  -3.903  1.00 20.00     0.014 C 
HETATM    3  C5  UNL     1     -35.783  14.251  -4.717  1.00 20.00     0.033 C 
HETATM    4  C6  UNL     1     -36.226  16.213  -3.161  1.00 20.00     0.042 C 
HETATM    5  C7  UNL     1     -34.628  13.806  -3.819  1.00 20.00     0.005 C 
HETATM    6  C8  UNL     1     -34.008  14.983  -3.062  1.00 20.00     0.009 C 
HETATM    7  C9  UNL     1     -35.067  15.757  -2.259  1.00 20.00     0.017 C 
ENDROOT
BRANCH   7   8
HETATM    8  C4  UNL     1     -34.440  16.925  -1.560  1.00 20.00    -0.089 C 
HETATM    9  C3  UNL     1     -33.632  17.785  -2.200  1.00 20.00     0.014 C 
HETATM   10  C10 UNL     1     -34.768  17.079  -0.104  1.00 20.00     0.043 C 
ENDBRANCH   7   8
TORSDOF 1
ENDMDL
MODEL 5
REMARK VINA RESULT:      -4.4      9.257     11.435
REMARK  1 active torsions:
REMARK  status: ('A' for Active; 'I' for Inactive)
REMARK    1  A    between atoms: C4_4  and  C9_9 
ROOT
HETATM    1  C1  UNL     1     -42.373   7.014  -2.612  1.00 20.00    -0.089 C 
HETATM    2  C2  UNL     1     -42.348   7.919  -3.601  1.00 20.00     0.014 C 
HETATM    3  C5  UNL     1     -41.894   7.327  -1.219  1.00 20.00     0.033 C 
HETATM    4  C6  UNL     1     -42.864   5.604  -2.818  1.00 20.00     0.042 C 
HETATM    5  C7  UNL     1     -40.845   6.311  -0.768  1.00 20.00     0.005 C 
HETATM    6  C8  UNL     1     -41.339   4.871  -0.926  1.00 20.00     0.009 C 
HETATM    7  C9  UNL     1     -41.801   4.588  -2.365  1.00 20.00     0.017 C 
ENDROOT
BRANCH   7   8
HETATM    8  C4  UNL     1     -42.317   3.186  -2.481  1.00 20.00    -0.089 C 
HETATM    9  C3  UNL     1     -43.417   2.778  -1.831  1.00 20.00     0.014 C 
HETATM   10  C10 UNL     1     -41.530   2.263  -3.365  1.00 20.00     0.043 C 
ENDBRANCH   7   8
TORSDOF 1
ENDMDL
MODEL 6
REMARK VINA RESULT:      -4.4     11.204     12.205
REMARK  1 active torsions:
REMARK  status: ('A' for Active; 'I' for Inactive)
REMARK    1  A    between atoms: C4_4  and  C9_9 
ROOT
HETATM    1  C1  UNL     1     -35.029  17.330  -0.911  1.00 20.00    -0.089 C 
HETATM    2  C2  UNL     1     -34.981  17.393   0.427  1.00 20.00     0.014 C 
HETATM    3  C5  UNL     1     -35.950  18.196  -1.729  1.00 20.00     0.033 C 
HETATM    4  C6  UNL     1     -34.179  16.372  -1.707  1.00 20.00     0.042 C 
HETATM    5  C7  UNL     1     -36.812  17.341  -2.658  1.00 20.00     0.005 C 
HETATM    6  C8  UNL     1     -35.965  16.392  -3.509  1.00 20.00     0.009 C 
HETATM    7  C9  UNL     1     -35.053  15.513  -2.636  1.00 20.00     0.017 C 
ENDROOT
BRANCH   7   8
HETATM    8  C4  UNL     1     -34.207  14.623  -3.496  1.00 20.00    -0.089 C 
HETATM    9  C3  UNL     1     -32.895  14.841  -3.667  1.00 20.00     0.014 C 
HETATM   10  C10 UNL     1     -34.914  13.475  -4.154  1.00 20.00     0.043 C 
ENDBRANCH   7   8
TORSDOF 1
ENDMDL
MODEL 7
REMARK VINA RESULT:      -4.4     11.397     12.913
REMARK  1 active torsions:
REMARK  status: ('A' for Active; 'I' for Inactive)
REMARK    1  A    between atoms: C4_4  and  C9_9 
ROOT
HETATM    1  C1  UNL     1     -34.188  16.656  -2.003  1.00 20.00    -0.089 C 
HETATM    2  C2  UNL     1     -34.732  16.590  -0.780  1.00 20.00     0.014 C 
HETATM    3  C5  UNL     1     -33.674  17.945  -2.590  1.00 20.00     0.033 C 
HETATM    4  C6  UNL     1     -34.066  15.452  -2.901  1.00 20.00     0.042 C 
HETATM    5  C7  UNL     1     -34.313  18.210  -3.953  1.00 20.00     0.005 C 
HETATM    6  C8  UNL     1     -34.161  17.015  -4.898  1.00 20.00     0.009 C 
HETATM    7  C9  UNL     1     -34.715  15.726  -4.269  1.00 20.00     0.017 C 
ENDROOT
BRANCH   7   8
HETATM    8  C4  UNL     1     -34.517  14.566  -5.198  1.00 20.00    -0.089 C 
HETATM    9  C3  UNL     1     -34.369  13.312  -4.745  1.00 20.00     0.014 C 
HETATM   10  C10 UNL     1     -34.495  14.889  -6.663  1.00 20.00     0.043 C 
ENDBRANCH   7   8
TORSDOF 1
ENDMDL
MODEL 8
REMARK VINA RESULT:      -4.3     11.245     12.579
REMARK  1 active torsions:
REMARK  status: ('A' for Active; 'I' for Inactive)
REMARK    1  A    between atoms: C4_4  and  C9_9 
ROOT
HETATM    1  C1  UNL     1     -35.917  15.205  -5.405  1.00 20.00    -0.089 C 
HETATM    2  C2  UNL     1     -37.120  15.220  -5.996  1.00 20.00     0.014 C 
HETATM    3  C5  UNL     1     -34.908  14.115  -5.654  1.00 20.00     0.033 C 
HETATM    4  C6  UNL     1     -35.483  16.266  -4.426  1.00 20.00     0.042 C 
HETATM    5  C7  UNL     1     -34.451  13.490  -4.335  1.00 20.00     0.005 C 
HETATM    6  C8  UNL     1     -33.964  14.547  -3.341  1.00 20.00     0.009 C 
HETATM    7  C9  UNL     1     -35.029  15.630  -3.101  1.00 20.00     0.017 C 
ENDROOT
BRANCH   7   8
HETATM    8  C4  UNL     1     -34.510  16.672  -2.157  1.00 20.00    -0.089 C 
HETATM    9  C3  UNL     1     -34.660  16.562  -0.828  1.00 20.00     0.014 C 
HETATM   10  C10 UNL     1     -33.814  17.844  -2.783  1.00 20.00     0.043 C 
ENDBRANCH   7   8
TORSDOF 1
ENDMDL
MODEL 9
REMARK VINA RESULT:      -4.2     11.391     12.871
REMARK  1 active torsions:
REMARK  status: ('A' for Active; 'I' for Inactive)
REMARK    1  A    between atoms: C4_4  and  C9_9 
ROOT
HETATM    1  C1  UNL     1     -34.258  15.090  -5.863  1.00 20.00    -0.089 C 
HETATM    2  C2  UNL     1     -34.398  15.414  -7.156  1.00 20.00     0.014 C 
HETATM    3  C5  UNL     1     -34.573  13.715  -5.336  1.00 20.00     0.033 C 
HETATM    4  C6  UNL     1     -33.796  16.082  -4.826  1.00 20.00     0.042 C 
HETATM    5  C7  UNL     1     -35.563  13.796  -4.174  1.00 20.00     0.005 C 
HETATM    6  C8  UNL     1     -35.091  14.764  -3.087  1.00 20.00     0.009 C 
HETATM    7  C9  UNL     1     -34.799  16.160  -3.663  1.00 20.00     0.017 C 
ENDROOT
BRANCH   7   8
HETATM    8  C4  UNL     1     -34.301  17.075  -2.586  1.00 20.00    -0.089 C 
HETATM    9  C3  UNL     1     -33.728  18.255  -2.867  1.00 20.00     0.014 C 
HETATM   10  C10 UNL     1     -34.481  16.596  -1.176  1.00 20.00     0.043 C 
ENDBRANCH   7   8
TORSDOF 1
ENDMDL
