MODEL 1
REMARK VINA RESULT:      -4.2      0.000      0.000
REMARK  5 active torsions:
REMARK  status: ('A' for Active; 'I' for Inactive)
REMARK    1  A    between atoms: C1_1  and  O9_9 
REMARK    2  A    between atoms: C5_5  and  C6_6 
REMARK    3  A    between atoms: C6_6  and  C7_7 
REMARK    4  A    between atoms: C7_7  and  C8_8 
REMARK    5  A    between atoms: C8_8  and  O9_9 
ROOT
HETATM    1  C4  UNL     1     -34.519   5.387   2.658  1.00 20.00     0.040 C 
HETATM    2  C8  UNL     1     -33.552   6.171   3.535  1.00 20.00     0.125 C 
ENDROOT
BRANCH   2   3
HETATM    3  C7  UNL     1     -32.197   6.440   2.873  1.00 20.00     0.032 C 
BRANCH   3   4
HETATM    4  C6  UNL     1     -31.836   7.924   2.802  1.00 20.00     0.002 C 
BRANCH   4   5
HETATM    5  C5  UNL     1     -31.896   8.440   1.364  1.00 20.00    -0.004 C 
HETATM    6  C3  UNL     1     -32.450   9.855   1.302  1.00 20.00     0.005 C 
ENDBRANCH   4   5
ENDBRANCH   3   4
ENDBRANCH   2   3
BRANCH   2   7
HETATM    7  O9  UNL     1     -33.327   5.428   4.734  1.00 20.00    -0.340 OA
BRANCH   7   8
HETATM    8  C1  UNL     1     -34.098   5.618   5.826  1.00 20.00     0.109 C 
HETATM    9  C2  UNL     1     -33.960   6.880   6.616  1.00 20.00     0.089 C 
HETATM   10  S10 UNL     1     -35.165   4.398   6.215  1.00 20.00    -0.058 SA
ENDBRANCH   7   8
ENDBRANCH   2   7
TORSDOF 5
ENDMDL
MODEL 2
REMARK VINA RESULT:      -4.0     11.490     12.563
REMARK  5 active torsions:
REMARK  status: ('A' for Active; 'I' for Inactive)
REMARK    1  A    between atoms: C1_1  and  O9_9 
REMARK    2  A    between atoms: C5_5  and  C6_6 
REMARK    3  A    between atoms: C6_6  and  C7_7 
REMARK    4  A    between atoms: C7_7  and  C8_8 
REMARK    5  A    between atoms: C8_8  and  O9_9 
ROOT
HETATM    1  C4  UNL     1     -33.557  17.678  -4.818  1.00 20.00     0.040 C 
HETATM    2  C8  UNL     1     -34.136  16.439  -4.148  1.00 20.00     0.125 C 
ENDROOT
BRANCH   2   3
HETATM    3  C7  UNL     1     -33.677  16.248  -2.700  1.00 20.00     0.032 C 
BRANCH   3   4
HETATM    4  C6  UNL     1     -34.831  16.126  -1.704  1.00 20.00     0.002 C 
BRANCH   4   5
HETATM    5  C5  UNL     1     -34.583  16.979  -0.461  1.00 20.00    -0.004 C 
HETATM    6  C3  UNL     1     -33.410  17.926  -0.659  1.00 20.00     0.005 C 
ENDBRANCH   4   5
ENDBRANCH   3   4
ENDBRANCH   2   3
BRANCH   2   7
HETATM    7  O9  UNL     1     -33.737  15.293  -4.902  1.00 20.00    -0.340 OA
BRANCH   7   8
HETATM    8  C1  UNL     1     -34.639  14.369  -5.296  1.00 20.00     0.109 C 
HETATM    9  C2  UNL     1     -35.059  13.295  -4.345  1.00 20.00     0.089 C 
HETATM   10  S10 UNL     1     -35.224  14.505  -6.851  1.00 20.00    -0.058 SA
ENDBRANCH   7   8
ENDBRANCH   2   7
TORSDOF 5
ENDMDL
MODEL 3
REMARK VINA RESULT:      -3.8     11.314     12.754
REMARK  5 active torsions:
REMARK  status: ('A' for Active; 'I' for Inactive)
REMARK    1  A    between atoms: C1_1  and  O9_9 
REMARK    2  A    between atoms: C5_5  and  C6_6 
REMARK    3  A    between atoms: C6_6  and  C7_7 
REMARK    4  A    between atoms: C7_7  and  C8_8 
REMARK    5  A    between atoms: C8_8  and  O9_9 
ROOT
HETATM    1  C4  UNL     1     -33.514  13.644  -3.792  1.00 20.00     0.040 C 
HETATM    2  C8  UNL     1     -33.587  15.120  -4.158  1.00 20.00     0.125 C 
ENDROOT
BRANCH   2   3
HETATM    3  C7  UNL     1     -33.556  16.058  -2.947  1.00 20.00     0.032 C 
BRANCH   3   4
HETATM    4  C6  UNL     1     -34.852  16.049  -2.135  1.00 20.00     0.002 C 
BRANCH   4   5
HETATM    5  C5  UNL     1     -34.635  16.635  -0.740  1.00 20.00    -0.004 C 
HETATM    6  C3  UNL     1     -33.620  17.767  -0.762  1.00 20.00     0.005 C 
ENDBRANCH   4   5
ENDBRANCH   3   4
ENDBRANCH   2   3
BRANCH   2   7
HETATM    7  O9  UNL     1     -34.802  15.347  -4.872  1.00 20.00    -0.340 OA
BRANCH   7   8
HETATM    8  C1  UNL     1     -34.790  15.696  -6.176  1.00 20.00     0.109 C 
HETATM    9  C2  UNL     1     -34.277  17.043  -6.574  1.00 20.00     0.089 C 
HETATM   10  S10 UNL     1     -35.362  14.569  -7.262  1.00 20.00    -0.058 SA
ENDBRANCH   7   8
ENDBRANCH   2   7
TORSDOF 5
ENDMDL
MODEL 4
REMARK VINA RESULT:      -3.7     11.028     12.245
REMARK  5 active torsions:
REMARK  status: ('A' for Active; 'I' for Inactive)
REMARK    1  A    between atoms: C1_1  and  O9_9 
REMARK    2  A    between atoms: C5_5  and  C6_6 
REMARK    3  A    between atoms: C6_6  and  C7_7 
REMARK    4  A    between atoms: C7_7  and  C8_8 
REMARK    5  A    between atoms: C8_8  and  O9_9 
ROOT
HETATM    1  C4  UNL     1     -34.730  16.539  -0.964  1.00 20.00     0.040 C 
HETATM    2  C8  UNL     1     -34.853  16.057  -2.404  1.00 20.00     0.125 C 
ENDROOT
BRANCH   2   3
HETATM    3  C7  UNL     1     -33.543  16.130  -3.194  1.00 20.00     0.032 C 
BRANCH   3   4
HETATM    4  C6  UNL     1     -33.050  14.768  -3.684  1.00 20.00     0.002 C 
BRANCH   4   5
HETATM    5  C5  UNL     1     -34.146  13.708  -3.570  1.00 20.00    -0.004 C 
HETATM    6  C3  UNL     1     -34.623  13.251  -4.939  1.00 20.00     0.005 C 
ENDBRANCH   4   5
ENDBRANCH   3   4
ENDBRANCH   2   3
BRANCH   2   7
HETATM    7  O9  UNL     1     -35.825  16.866  -3.067  1.00 20.00    -0.340 OA
BRANCH   7   8
HETATM    8  C1  UNL     1     -36.561  16.376  -4.087  1.00 20.00     0.109 C 
HETATM    9  C2  UNL     1     -36.325  16.878  -5.476  1.00 20.00     0.089 C 
HETATM   10  S10 UNL     1     -37.703  15.224  -3.705  1.00 20.00    -0.058 SA
ENDBRANCH   7   8
ENDBRANCH   2   7
TORSDOF 5
ENDMDL
MODEL 5
REMARK VINA RESULT:      -3.7      1.149      1.750
REMARK  5 active torsions:
REMARK  status: ('A' for Active; 'I' for Inactive)
REMARK    1  A    between atoms: C1_1  and  O9_9 
REMARK    2  A    between atoms: C5_5  and  C6_6 
REMARK    3  A    between atoms: C6_6  and  C7_7 
REMARK    4  A    between atoms: C7_7  and  C8_8 
REMARK    5  A    between atoms: C8_8  and  O9_9 
ROOT
HETATM    1  C4  UNL     1     -32.092   5.293   2.925  1.00 20.00     0.040 C 
HETATM    2  C8  UNL     1     -32.907   6.573   3.047  1.00 20.00     0.125 C 
ENDROOT
BRANCH   2   3
HETATM    3  C7  UNL     1     -32.092   7.849   2.808  1.00 20.00     0.032 C 
BRANCH   3   4
HETATM    4  C6  UNL     1     -31.808   8.124   1.331  1.00 20.00     0.002 C 
BRANCH   4   5
HETATM    5  C5  UNL     1     -32.288   9.518   0.926  1.00 20.00    -0.004 C 
HETATM    6  C3  UNL     1     -32.814  10.296   2.122  1.00 20.00     0.005 C 
ENDBRANCH   4   5
ENDBRANCH   3   4
ENDBRANCH   2   3
BRANCH   2   7
HETATM    7  O9  UNL     1     -33.460   6.631   4.362  1.00 20.00    -0.340 OA
BRANCH   7   8
HETATM    8  C1  UNL     1     -34.485   5.830   4.723  1.00 20.00     0.109 C 
HETATM    9  C2  UNL     1     -35.530   5.468   3.717  1.00 20.00     0.089 C 
HETATM   10  S10 UNL     1     -34.502   5.297   6.302  1.00 20.00    -0.058 SA
ENDBRANCH   7   8
ENDBRANCH   2   7
TORSDOF 5
ENDMDL
MODEL 6
REMARK VINA RESULT:      -3.7     11.224     12.480
REMARK  5 active torsions:
REMARK  status: ('A' for Active; 'I' for Inactive)
REMARK    1  A    between atoms: C1_1  and  O9_9 
REMARK    2  A    between atoms: C5_5  and  C6_6 
REMARK    3  A    between atoms: C6_6  and  C7_7 
REMARK    4  A    between atoms: C7_7  and  C8_8 
REMARK    5  A    between atoms: C8_8  and  O9_9 
ROOT
HETATM    1  C4  UNL     1     -33.353  13.715  -3.726  1.00 20.00     0.040 C 
HETATM    2  C8  UNL     1     -34.280  14.903  -3.501  1.00 20.00     0.125 C 
ENDROOT
BRANCH   2   3
HETATM    3  C7  UNL     1     -35.097  15.291  -4.738  1.00 20.00     0.032 C 
BRANCH   3   4
HETATM    4  C6  UNL     1     -34.266  15.961  -5.833  1.00 20.00     0.002 C 
BRANCH   4   5
HETATM    5  C5  UNL     1     -34.250  15.119  -7.109  1.00 20.00    -0.004 C 
HETATM    6  C3  UNL     1     -35.585  14.428  -7.337  1.00 20.00     0.005 C 
ENDBRANCH   4   5
ENDBRANCH   3   4
ENDBRANCH   2   3
BRANCH   2   7
HETATM    7  O9  UNL     1     -33.485  16.025  -3.116  1.00 20.00    -0.340 OA
BRANCH   7   8
HETATM    8  C1  UNL     1     -33.968  16.965  -2.276  1.00 20.00     0.109 C 
HETATM    9  C2  UNL     1     -34.605  16.548  -0.989  1.00 20.00     0.089 C 
HETATM   10  S10 UNL     1     -33.813  18.554  -2.755  1.00 20.00    -0.058 SA
ENDBRANCH   7   8
ENDBRANCH   2   7
TORSDOF 5
ENDMDL
MODEL 7
REMARK VINA RESULT:      -3.7     11.712     12.549
REMARK  5 active torsions:
REMARK  status: ('A' for Active; 'I' for Inactive)
REMARK    1  A    between atoms: C1_1  and  O9_9 
REMARK    2  A    between atoms: C5_5  and  C6_6 
REMARK    3  A    between atoms: C6_6  and  C7_7 
REMARK    4  A    between atoms: C7_7  and  C8_8 
REMARK    5  A    between atoms: C8_8  and  O9_9 
ROOT
HETATM    1  C4  UNL     1     -36.365  17.150  -3.853  1.00 20.00     0.040 C 
HETATM    2  C8  UNL     1     -35.611  15.856  -3.577  1.00 20.00     0.125 C 
ENDROOT
BRANCH   2   3
HETATM    3  C7  UNL     1     -34.943  15.812  -2.199  1.00 20.00     0.032 C 
BRANCH   3   4
HETATM    4  C6  UNL     1     -33.683  16.673  -2.104  1.00 20.00     0.002 C 
BRANCH   4   5
HETATM    5  C5  UNL     1     -33.728  17.586  -0.878  1.00 20.00    -0.004 C 
HETATM    6  C3  UNL     1     -34.861  17.203   0.061  1.00 20.00     0.005 C 
ENDBRANCH   4   5
ENDBRANCH   3   4
ENDBRANCH   2   3
BRANCH   2   7
HETATM    7  O9  UNL     1     -34.598  15.705  -4.573  1.00 20.00    -0.340 OA
BRANCH   7   8
HETATM    8  C1  UNL     1     -34.601  14.651  -5.416  1.00 20.00     0.109 C 
HETATM    9  C2  UNL     1     -34.625  13.262  -4.861  1.00 20.00     0.089 C 
HETATM   10  S10 UNL     1     -34.576  14.991  -7.047  1.00 20.00    -0.058 SA
ENDBRANCH   7   8
ENDBRANCH   2   7
TORSDOF 5
ENDMDL
MODEL 8
REMARK VINA RESULT:      -3.6      2.745      4.834
REMARK  5 active torsions:
REMARK  status: ('A' for Active; 'I' for Inactive)
REMARK    1  A    between atoms: C1_1  and  O9_9 
REMARK    2  A    between atoms: C5_5  and  C6_6 
REMARK    3  A    between atoms: C6_6  and  C7_7 
REMARK    4  A    between atoms: C7_7  and  C8_8 
REMARK    5  A    between atoms: C8_8  and  O9_9 
ROOT
HETATM    1  C4  UNL     1     -33.735   5.016   2.302  1.00 20.00     0.040 C 
HETATM    2  C8  UNL     1     -33.478   6.086   3.355  1.00 20.00     0.125 C 
ENDROOT
BRANCH   2   3
HETATM    3  C7  UNL     1     -34.602   6.221   4.386  1.00 20.00     0.032 C 
BRANCH   3   4
HETATM    4  C6  UNL     1     -34.103   6.275   5.830  1.00 20.00     0.002 C 
BRANCH   4   5
HETATM    5  C5  UNL     1     -34.438   4.986   6.580  1.00 20.00    -0.004 C 
HETATM    6  C3  UNL     1     -35.061   3.950   5.658  1.00 20.00     0.005 C 
ENDBRANCH   4   5
ENDBRANCH   3   4
ENDBRANCH   2   3
BRANCH   2   7
HETATM    7  O9  UNL     1     -33.322   7.341   2.691  1.00 20.00    -0.340 OA
BRANCH   7   8
HETATM    8  C1  UNL     1     -32.107   7.915   2.561  1.00 20.00     0.109 C 
HETATM    9  C2  UNL     1     -31.097   7.762   3.654  1.00 20.00     0.089 C 
HETATM   10  S10 UNL     1     -31.825   8.770   1.158  1.00 20.00    -0.058 SA
ENDBRANCH   7   8
ENDBRANCH   2   7
TORSDOF 5
ENDMDL
MODEL 9
REMARK VINA RESULT:      -3.6     11.454     12.580
REMARK  5 active torsions:
REMARK  status: ('A' for Active; 'I' for Inactive)
REMARK    1  A    between atoms: C1_1  and  O9_9 
REMARK    2  A    between atoms: C5_5  and  C6_6 
REMARK    3  A    between atoms: C6_6  and  C7_7 
REMARK    4  A    between atoms: C7_7  and  C8_8 
REMARK    5  A    between atoms: C8_8  and  O9_9 
ROOT
HETATM    1  C4  UNL     1     -34.429  14.857  -7.156  1.00 20.00     0.040 C 
HETATM    2  C8  UNL     1     -34.913  14.779  -5.714  1.00 20.00     0.125 C 
ENDROOT
BRANCH   2   3
HETATM    3  C7  UNL     1     -34.420  13.539  -4.963  1.00 20.00     0.032 C 
BRANCH   3   4
HETATM    4  C6  UNL     1     -33.794  13.856  -3.605  1.00 20.00     0.002 C 
BRANCH   4   5
HETATM    5  C5  UNL     1     -33.604  15.362  -3.421  1.00 20.00    -0.004 C 
HETATM    6  C3  UNL     1     -34.416  15.888  -2.248  1.00 20.00     0.005 C 
ENDBRANCH   4   5
ENDBRANCH   3   4
ENDBRANCH   2   3
BRANCH   2   7
HETATM    7  O9  UNL     1     -36.341  14.764  -5.719  1.00 20.00    -0.340 OA
BRANCH   7   8
HETATM    8  C1  UNL     1     -37.049  15.550  -4.881  1.00 20.00     0.109 C 
HETATM    9  C2  UNL     1     -37.865  14.925  -3.795  1.00 20.00     0.089 C 
HETATM   10  S10 UNL     1     -36.955  17.195  -5.132  1.00 20.00    -0.058 SA
ENDBRANCH   7   8
ENDBRANCH   2   7
TORSDOF 5
ENDMDL
