MODEL 1
REMARK VINA RESULT:      -4.4      0.000      0.000
REMARK  0 active torsions:
REMARK  status: ('A' for Active; 'I' for Inactive)
ROOT
HETATM    1  C1  UNL     1     -34.610  13.668  -4.387  1.00 20.00     0.141 C 
HETATM    2  C2  UNL     1     -33.495  13.808  -3.381  1.00 20.00     0.079 C 
HETATM    3  C3  UNL     1     -32.537  14.914  -3.797  1.00 20.00     0.008 C 
HETATM    4  C4  UNL     1     -33.222  16.147  -4.397  1.00 20.00     0.017 C 
HETATM    5  C5  UNL     1     -37.684  16.386  -3.954  1.00 20.00     0.085 C 
HETATM    6  C6  UNL     1     -37.158  17.273  -5.069  1.00 20.00     0.084 C 
HETATM    7  C7  UNL     1     -35.406  14.925  -4.717  1.00 20.00     0.130 C 
HETATM    8  C8  UNL     1     -34.734  16.176  -4.137  1.00 20.00     0.068 C 
HETATM    9  O9  UNL     1     -34.890  12.573  -4.879  1.00 20.00    -0.297 OA
HETATM   10  S10 UNL     1     -37.093  14.667  -4.058  1.00 20.00    -0.155 SA
HETATM   11  S11 UNL     1     -35.403  17.720  -4.869  1.00 20.00    -0.162 SA
ENDROOT
TORSDOF 0
ENDMDL
MODEL 2
REMARK VINA RESULT:      -4.2      2.050      2.726
REMARK  0 active torsions:
REMARK  status: ('A' for Active; 'I' for Inactive)
ROOT
HETATM    1  C1  UNL     1     -35.854  14.483  -4.323  1.00 20.00     0.141 C 
HETATM    2  C2  UNL     1     -35.009  13.598  -5.207  1.00 20.00     0.079 C 
HETATM    3  C3  UNL     1     -34.691  14.302  -6.518  1.00 20.00     0.008 C 
HETATM    4  C4  UNL     1     -34.388  15.798  -6.372  1.00 20.00     0.017 C 
HETATM    5  C5  UNL     1     -33.748  17.324  -2.197  1.00 20.00     0.085 C 
HETATM    6  C6  UNL     1     -34.102  18.429  -3.177  1.00 20.00     0.084 C 
HETATM    7  C7  UNL     1     -35.319  15.879  -4.028  1.00 20.00     0.130 C 
HETATM    8  C8  UNL     1     -34.116  16.213  -4.919  1.00 20.00     0.068 C 
HETATM    9  O9  UNL     1     -36.904  14.070  -3.828  1.00 20.00    -0.297 OA
HETATM   10  S10 UNL     1     -34.902  15.916  -2.247  1.00 20.00    -0.155 SA
HETATM   11  S11 UNL     1     -33.728  18.006  -4.909  1.00 20.00    -0.162 SA
ENDROOT
TORSDOF 0
ENDMDL
MODEL 3
REMARK VINA RESULT:      -4.1      2.414      3.290
REMARK  0 active torsions:
REMARK  status: ('A' for Active; 'I' for Inactive)
ROOT
HETATM    1  C1  UNL     1     -33.696  16.059  -3.733  1.00 20.00     0.141 C 
HETATM    2  C2  UNL     1     -32.735  14.900  -3.626  1.00 20.00     0.079 C 
HETATM    3  C3  UNL     1     -33.467  13.581  -3.821  1.00 20.00     0.008 C 
HETATM    4  C4  UNL     1     -34.548  13.615  -4.907  1.00 20.00     0.017 C 
HETATM    5  C5  UNL     1     -34.590  17.214  -7.592  1.00 20.00     0.085 C 
HETATM    6  C6  UNL     1     -35.914  16.470  -7.589  1.00 20.00     0.084 C 
HETATM    7  C7  UNL     1     -34.547  16.137  -4.995  1.00 20.00     0.130 C 
HETATM    8  C8  UNL     1     -34.441  14.846  -5.817  1.00 20.00     0.068 C 
HETATM    9  O9  UNL     1     -33.749  16.924  -2.858  1.00 20.00    -0.297 OA
HETATM   10  S10 UNL     1     -33.976  17.606  -5.923  1.00 20.00    -0.155 SA
HETATM   11  S11 UNL     1     -35.762  14.726  -7.085  1.00 20.00    -0.162 SA
ENDROOT
TORSDOF 0
ENDMDL
MODEL 4
REMARK VINA RESULT:      -4.1      1.909      3.047
REMARK  0 active torsions:
REMARK  status: ('A' for Active; 'I' for Inactive)
ROOT
HETATM    1  C1  UNL     1     -35.025  13.805  -5.187  1.00 20.00     0.141 C 
HETATM    2  C2  UNL     1     -35.140  14.264  -6.621  1.00 20.00     0.079 C 
HETATM    3  C3  UNL     1     -36.475  14.955  -6.853  1.00 20.00     0.008 C 
HETATM    4  C4  UNL     1     -36.932  15.850  -5.695  1.00 20.00     0.017 C 
HETATM    5  C5  UNL     1     -33.887  16.737  -2.516  1.00 20.00     0.085 C 
HETATM    6  C6  UNL     1     -35.312  16.964  -2.043  1.00 20.00     0.084 C 
HETATM    7  C7  UNL     1     -35.244  14.855  -4.105  1.00 20.00     0.130 C 
HETATM    8  C8  UNL     1     -35.806  16.154  -4.697  1.00 20.00     0.068 C 
HETATM    9  O9  UNL     1     -34.719  12.643  -4.915  1.00 20.00    -0.297 OA
HETATM   10  S10 UNL     1     -33.631  15.104  -3.280  1.00 20.00    -0.155 SA
HETATM   11  S11 UNL     1     -36.486  17.263  -3.402  1.00 20.00    -0.162 SA
ENDROOT
TORSDOF 0
ENDMDL
MODEL 5
REMARK VINA RESULT:      -4.1      1.482      1.800
REMARK  0 active torsions:
REMARK  status: ('A' for Active; 'I' for Inactive)
ROOT
HETATM    1  C1  UNL     1     -35.004  14.378  -5.618  1.00 20.00     0.141 C 
HETATM    2  C2  UNL     1     -34.751  13.381  -4.514  1.00 20.00     0.079 C 
HETATM    3  C3  UNL     1     -33.436  13.686  -3.812  1.00 20.00     0.008 C 
HETATM    4  C4  UNL     1     -33.164  15.180  -3.607  1.00 20.00     0.017 C 
HETATM    5  C5  UNL     1     -36.595  17.975  -4.369  1.00 20.00     0.085 C 
HETATM    6  C6  UNL     1     -35.247  18.674  -4.419  1.00 20.00     0.084 C 
HETATM    7  C7  UNL     1     -34.966  15.854  -5.239  1.00 20.00     0.130 C 
HETATM    8  C8  UNL     1     -34.410  16.049  -3.823  1.00 20.00     0.068 C 
HETATM    9  O9  UNL     1     -35.276  14.007  -6.761  1.00 20.00    -0.297 OA
HETATM   10  S10 UNL     1     -36.674  16.485  -5.413  1.00 20.00    -0.155 SA
HETATM   11  S11 UNL     1     -33.942  17.795  -3.501  1.00 20.00    -0.162 SA
ENDROOT
TORSDOF 0
ENDMDL
MODEL 6
REMARK VINA RESULT:      -4.1      2.119      2.318
REMARK  0 active torsions:
REMARK  status: ('A' for Active; 'I' for Inactive)
ROOT
HETATM    1  C1  UNL     1     -34.037  14.424  -4.050  1.00 20.00     0.141 C 
HETATM    2  C2  UNL     1     -34.566  14.998  -2.758  1.00 20.00     0.079 C 
HETATM    3  C3  UNL     1     -33.915  16.341  -2.464  1.00 20.00     0.008 C 
HETATM    4  C4  UNL     1     -33.714  17.226  -3.700  1.00 20.00     0.017 C 
HETATM    5  C5  UNL     1     -35.798  15.935  -7.462  1.00 20.00     0.085 C 
HETATM    6  C6  UNL     1     -34.643  16.885  -7.728  1.00 20.00     0.084 C 
HETATM    7  C7  UNL     1     -34.129  15.309  -5.287  1.00 20.00     0.130 C 
HETATM    8  C8  UNL     1     -34.518  16.746  -4.915  1.00 20.00     0.068 C 
HETATM    9  O9  UNL     1     -33.597  13.275  -4.102  1.00 20.00    -0.297 OA
HETATM   10  S10 UNL     1     -35.343  14.522  -6.406  1.00 20.00    -0.155 SA
HETATM   11  S11 UNL     1     -34.213  17.920  -6.292  1.00 20.00    -0.162 SA
ENDROOT
TORSDOF 0
ENDMDL
MODEL 7
REMARK VINA RESULT:      -4.1      2.009      2.384
REMARK  0 active torsions:
REMARK  status: ('A' for Active; 'I' for Inactive)
ROOT
HETATM    1  C1  UNL     1     -36.484  14.509  -4.096  1.00 20.00     0.141 C 
HETATM    2  C2  UNL     1     -35.362  13.501  -4.119  1.00 20.00     0.079 C 
HETATM    3  C3  UNL     1     -34.676  13.497  -5.477  1.00 20.00     0.008 C 
HETATM    4  C4  UNL     1     -34.505  14.888  -6.099  1.00 20.00     0.017 C 
HETATM    5  C5  UNL     1     -35.299  18.404  -3.421  1.00 20.00     0.085 C 
HETATM    6  C6  UNL     1     -35.374  18.761  -4.896  1.00 20.00     0.084 C 
HETATM    7  C7  UNL     1     -36.136  15.940  -4.488  1.00 20.00     0.130 C 
HETATM    8  C8  UNL     1     -34.729  16.024  -5.093  1.00 20.00     0.068 C 
HETATM    9  O9  UNL     1     -37.617  14.192  -3.728  1.00 20.00    -0.297 OA
HETATM   10  S10 UNL     1     -36.310  16.956  -2.977  1.00 20.00    -0.155 SA
HETATM   11  S11 UNL     1     -34.448  17.614  -5.966  1.00 20.00    -0.162 SA
ENDROOT
TORSDOF 0
ENDMDL
MODEL 8
REMARK VINA RESULT:      -4.0      1.941      2.889
REMARK  0 active torsions:
REMARK  status: ('A' for Active; 'I' for Inactive)
ROOT
HETATM    1  C1  UNL     1     -34.105  16.073  -2.580  1.00 20.00     0.141 C 
HETATM    2  C2  UNL     1     -33.198  15.377  -3.566  1.00 20.00     0.079 C 
HETATM    3  C3  UNL     1     -33.662  13.948  -3.800  1.00 20.00     0.008 C 
HETATM    4  C4  UNL     1     -35.185  13.785  -3.873  1.00 20.00     0.017 C 
HETATM    5  C5  UNL     1     -37.600  17.557  -4.197  1.00 20.00     0.085 C 
HETATM    6  C6  UNL     1     -38.418  16.378  -3.701  1.00 20.00     0.084 C 
HETATM    7  C7  UNL     1     -35.596  16.074  -2.895  1.00 20.00     0.130 C 
HETATM    8  C8  UNL     1     -35.920  15.120  -4.052  1.00 20.00     0.068 C 
HETATM    9  O9  UNL     1     -33.647  16.654  -1.595  1.00 20.00    -0.297 OA
HETATM   10  S10 UNL     1     -36.054  17.806  -3.267  1.00 20.00    -0.155 SA
HETATM   11  S11 UNL     1     -37.716  14.763  -4.168  1.00 20.00    -0.162 SA
ENDROOT
TORSDOF 0
ENDMDL
MODEL 9
REMARK VINA RESULT:      -3.9      2.675      3.833
REMARK  0 active torsions:
REMARK  status: ('A' for Active; 'I' for Inactive)
ROOT
HETATM    1  C1  UNL     1     -34.899  17.769  -3.916  1.00 20.00     0.141 C 
HETATM    2  C2  UNL     1     -33.829  17.708  -2.854  1.00 20.00     0.079 C 
HETATM    3  C3  UNL     1     -34.059  16.518  -1.934  1.00 20.00     0.008 C 
HETATM    4  C4  UNL     1     -34.537  15.251  -2.652  1.00 20.00     0.017 C 
HETATM    5  C5  UNL     1     -34.287  15.261  -7.135  1.00 20.00     0.085 C 
HETATM    6  C6  UNL     1     -35.258  14.220  -6.605  1.00 20.00     0.084 C 
HETATM    7  C7  UNL     1     -35.111  16.516  -4.758  1.00 20.00     0.130 C 
HETATM    8  C8  UNL     1     -34.349  15.320  -4.173  1.00 20.00     0.068 C 
HETATM    9  O9  UNL     1     -35.534  18.805  -4.120  1.00 20.00    -0.297 OA
HETATM   10  S10 UNL     1     -34.572  16.927  -6.457  1.00 20.00    -0.155 SA
HETATM   11  S11 UNL     1     -34.920  13.727  -4.884  1.00 20.00    -0.162 SA
ENDROOT
TORSDOF 0
ENDMDL
