MODEL 1
REMARK VINA RESULT:      -4.0      0.000      0.000
REMARK  0 active torsions:
REMARK  status: ('A' for Active; 'I' for Inactive)
ROOT
HETATM    1  C1  UNL     1     -34.808   6.340   3.892  1.00 20.00     0.062 A 
HETATM    2  C2  UNL     1     -33.409   5.797   3.845  1.00 20.00     0.119 A 
HETATM    3  C3  UNL     1     -34.181   5.763   5.137  1.00 20.00     0.112 A 
HETATM    4 CL4  UNL     1     -32.079   6.894   3.582  1.00 20.00    -0.122 Cl
HETATM    5 CL5  UNL     1     -33.794   6.878   6.445  1.00 20.00    -0.105 Cl
HETATM    6 BR6  UNL     1     -34.815   4.054   5.737  1.00 20.00    -0.066 Br
ENDROOT
TORSDOF 0
ENDMDL
MODEL 2
REMARK VINA RESULT:      -3.6      2.673      3.225
REMARK  0 active torsions:
REMARK  status: ('A' for Active; 'I' for Inactive)
ROOT
HETATM    1  C1  UNL     1     -34.185   6.517   5.701  1.00 20.00     0.062 A 
HETATM    2  C2  UNL     1     -33.888   5.053   5.546  1.00 20.00     0.119 A 
HETATM    3  C3  UNL     1     -34.081   5.910   4.323  1.00 20.00     0.112 A 
HETATM    4 CL4  UNL     1     -35.075   3.885   6.064  1.00 20.00    -0.122 Cl
HETATM    5 CL5  UNL     1     -35.559   5.798   3.372  1.00 20.00    -0.105 Cl
HETATM    6 BR6  UNL     1     -32.521   6.327   3.287  1.00 20.00    -0.066 Br
ENDROOT
TORSDOF 0
ENDMDL
MODEL 3
REMARK VINA RESULT:      -3.2      1.417      2.654
REMARK  0 active torsions:
REMARK  status: ('A' for Active; 'I' for Inactive)
ROOT
HETATM    1  C1  UNL     1     -33.978   4.839   5.968  1.00 20.00     0.062 A 
HETATM    2  C2  UNL     1     -34.352   6.278   6.169  1.00 20.00     0.119 A 
HETATM    3  C3  UNL     1     -34.131   5.751   4.776  1.00 20.00     0.112 A 
HETATM    4 CL4  UNL     1     -33.220   7.350   6.951  1.00 20.00    -0.122 Cl
HETATM    5 CL5  UNL     1     -32.674   6.167   3.878  1.00 20.00    -0.105 Cl
HETATM    6 BR6  UNL     1     -35.682   5.513   3.671  1.00 20.00    -0.066 Br
ENDROOT
TORSDOF 0
ENDMDL
MODEL 4
REMARK VINA RESULT:      -3.1     12.434     13.090
REMARK  0 active torsions:
REMARK  status: ('A' for Active; 'I' for Inactive)
ROOT
HETATM    1  C1  UNL     1     -33.574  13.913  -3.816  1.00 20.00     0.062 A 
HETATM    2  C2  UNL     1     -34.755  14.741  -3.402  1.00 20.00     0.119 A 
HETATM    3  C3  UNL     1     -34.105  14.983  -4.738  1.00 20.00     0.112 A 
HETATM    4 CL4  UNL     1     -34.588  15.855  -2.069  1.00 20.00    -0.122 Cl
HETATM    5 CL5  UNL     1     -33.096  16.402  -5.005  1.00 20.00    -0.105 Cl
HETATM    6 BR6  UNL     1     -35.065  14.410  -6.299  1.00 20.00    -0.066 Br
ENDROOT
TORSDOF 0
ENDMDL
MODEL 5
REMARK VINA RESULT:      -3.0     12.556     13.075
REMARK  0 active torsions:
REMARK  status: ('A' for Active; 'I' for Inactive)
ROOT
HETATM    1  C1  UNL     1     -32.844  15.040  -3.636  1.00 20.00     0.062 A 
HETATM    2  C2  UNL     1     -33.478  16.182  -4.376  1.00 20.00     0.119 A 
HETATM    3  C3  UNL     1     -34.256  15.460  -3.309  1.00 20.00     0.112 A 
HETATM    4 CL4  UNL     1     -33.835  16.002  -6.074  1.00 20.00    -0.122 Cl
HETATM    5 CL5  UNL     1     -35.555  14.350  -3.739  1.00 20.00    -0.105 Cl
HETATM    6 BR6  UNL     1     -34.544  16.387  -1.653  1.00 20.00    -0.066 Br
ENDROOT
TORSDOF 0
ENDMDL
MODEL 6
REMARK VINA RESULT:      -3.0     12.717     13.301
REMARK  0 active torsions:
REMARK  status: ('A' for Active; 'I' for Inactive)
ROOT
HETATM    1  C1  UNL     1     -33.171  16.307  -4.807  1.00 20.00     0.062 A 
HETATM    2  C2  UNL     1     -34.498  15.737  -5.216  1.00 20.00     0.119 A 
HETATM    3  C3  UNL     1     -33.879  15.321  -3.909  1.00 20.00     0.112 A 
HETATM    4 CL4  UNL     1     -34.578  14.670  -6.593  1.00 20.00    -0.122 Cl
HETATM    5 CL5  UNL     1     -33.155  13.725  -3.725  1.00 20.00    -0.105 Cl
HETATM    6 BR6  UNL     1     -34.677  16.001  -2.302  1.00 20.00    -0.066 Br
ENDROOT
TORSDOF 0
ENDMDL
MODEL 7
REMARK VINA RESULT:      -3.0      3.056      3.692
REMARK  0 active torsions:
REMARK  status: ('A' for Active; 'I' for Inactive)
ROOT
HETATM    1  C1  UNL     1     -32.216   5.866   2.974  1.00 20.00     0.062 A 
HETATM    2  C2  UNL     1     -33.383   6.632   3.527  1.00 20.00     0.119 A 
HETATM    3  C3  UNL     1     -32.112   7.357   3.176  1.00 20.00     0.112 A 
HETATM    4 CL4  UNL     1     -33.876   6.358   5.178  1.00 20.00    -0.122 Cl
HETATM    5 CL5  UNL     1     -31.027   7.932   4.439  1.00 20.00    -0.105 Cl
HETATM    6 BR6  UNL     1     -32.136   8.467   1.611  1.00 20.00    -0.066 Br
ENDROOT
TORSDOF 0
ENDMDL
MODEL 8
REMARK VINA RESULT:      -2.9     12.254     12.615
REMARK  0 active torsions:
REMARK  status: ('A' for Active; 'I' for Inactive)
ROOT
HETATM    1  C1  UNL     1     -35.186  15.943  -4.338  1.00 20.00     0.062 A 
HETATM    2  C2  UNL     1     -35.432  14.669  -3.583  1.00 20.00     0.119 A 
HETATM    3  C3  UNL     1     -34.285  15.561  -3.189  1.00 20.00     0.112 A 
HETATM    4 CL4  UNL     1     -35.191  13.141  -4.390  1.00 20.00    -0.122 Cl
HETATM    5 CL5  UNL     1     -32.625  15.113  -3.572  1.00 20.00    -0.105 Cl
HETATM    6 BR6  UNL     1     -34.464  16.553  -1.556  1.00 20.00    -0.066 Br
ENDROOT
TORSDOF 0
ENDMDL
MODEL 9
REMARK VINA RESULT:      -2.9     12.527     12.827
REMARK  0 active torsions:
REMARK  status: ('A' for Active; 'I' for Inactive)
ROOT
HETATM    1  C1  UNL     1     -35.993  14.408  -3.815  1.00 20.00     0.062 A 
HETATM    2  C2  UNL     1     -35.264  15.685  -3.512  1.00 20.00     0.119 A 
HETATM    3  C3  UNL     1     -34.623  14.650  -4.398  1.00 20.00     0.112 A 
HETATM    4 CL4  UNL     1     -34.718  15.987  -1.884  1.00 20.00    -0.122 Cl
HETATM    5 CL5  UNL     1     -33.298  13.653  -3.802  1.00 20.00    -0.105 Cl
HETATM    6 BR6  UNL     1     -34.514  15.044  -6.273  1.00 20.00    -0.066 Br
ENDROOT
TORSDOF 0
ENDMDL
