MODEL 1
REMARK VINA RESULT:      -5.5      0.000      0.000
REMARK  0 active torsions:
REMARK  status: ('A' for Active; 'I' for Inactive)
ROOT
HETATM    1  C1  UNL     1     -33.693   6.223   4.130  1.00 20.00    -0.064 A 
HETATM    2  C2  UNL     1     -32.607   6.476   3.433  1.00 20.00    -0.084 C 
HETATM    3  C3  UNL     1     -35.006   4.459   6.388  1.00 20.00     0.002 C 
HETATM    4  C4  UNL     1     -34.229   5.770   6.575  1.00 20.00     0.010 C 
HETATM    5  C5  UNL     1     -34.897   4.127   4.891  1.00 20.00     0.014 C 
HETATM    6  C6  UNL     1     -34.437   6.512   5.288  1.00 20.00     0.028 A 
HETATM    7  C7  UNL     1     -34.893   5.477   4.213  1.00 20.00    -0.013 A 
HETATM    8  C8  UNL     1     -32.298   5.790   2.119  1.00 20.00     0.043 C 
HETATM    9  C9  UNL     1     -31.562   7.476   3.880  1.00 20.00     0.043 C 
HETATM   10  C10 UNL     1     -36.045   5.804   3.320  1.00 20.00     0.021 C 
ENDROOT
TORSDOF 0
ENDMDL
MODEL 2
REMARK VINA RESULT:      -4.7     11.773     13.444
REMARK  0 active torsions:
REMARK  status: ('A' for Active; 'I' for Inactive)
ROOT
HETATM    1  C1  UNL     1     -33.693  16.162  -3.441  1.00 20.00    -0.064 A 
HETATM    2  C2  UNL     1     -33.982  16.919  -2.405  1.00 20.00    -0.084 C 
HETATM    3  C3  UNL     1     -34.647  15.075  -6.241  1.00 20.00     0.002 C 
HETATM    4  C4  UNL     1     -33.881  16.378  -5.968  1.00 20.00     0.010 C 
HETATM    5  C5  UNL     1     -34.958  14.484  -4.856  1.00 20.00     0.014 C 
HETATM    6  C6  UNL     1     -33.104  16.097  -4.717  1.00 20.00     0.028 A 
HETATM    7  C7  UNL     1     -33.766  14.870  -4.014  1.00 20.00    -0.013 A 
HETATM    8  C8  UNL     1     -34.704  16.392  -1.182  1.00 20.00     0.043 C 
HETATM    9  C9  UNL     1     -33.624  18.388  -2.338  1.00 20.00     0.043 C 
HETATM   10  C10 UNL     1     -32.901  13.767  -3.495  1.00 20.00     0.021 C 
ENDROOT
TORSDOF 0
ENDMDL
MODEL 3
REMARK VINA RESULT:      -4.6     11.599     13.007
REMARK  0 active torsions:
REMARK  status: ('A' for Active; 'I' for Inactive)
ROOT
HETATM    1  C1  UNL     1     -34.156  16.697  -2.230  1.00 20.00    -0.064 A 
HETATM    2  C2  UNL     1     -34.011  17.273  -1.057  1.00 20.00    -0.084 C 
HETATM    3  C3  UNL     1     -33.601  14.134  -3.978  1.00 20.00     0.002 C 
HETATM    4  C4  UNL     1     -34.806  14.382  -3.059  1.00 20.00     0.010 C 
HETATM    5  C5  UNL     1     -32.668  15.337  -3.765  1.00 20.00     0.014 C 
HETATM    6  C6  UNL     1     -34.958  15.873  -3.041  1.00 20.00     0.028 A 
HETATM    7  C7  UNL     1     -33.608  16.493  -3.518  1.00 20.00    -0.013 A 
HETATM    8  C8  UNL     1     -32.818  18.140  -0.711  1.00 20.00     0.043 C 
HETATM    9  C9  UNL     1     -35.022  17.123   0.060  1.00 20.00     0.043 C 
HETATM   10  C10 UNL     1     -33.622  17.597  -4.525  1.00 20.00     0.021 C 
ENDROOT
TORSDOF 0
ENDMDL
MODEL 4
REMARK VINA RESULT:      -4.5     11.751     13.155
REMARK  0 active torsions:
REMARK  status: ('A' for Active; 'I' for Inactive)
ROOT
HETATM    1  C1  UNL     1     -35.120  14.895  -4.831  1.00 20.00    -0.064 A 
HETATM    2  C2  UNL     1     -35.436  15.062  -6.097  1.00 20.00    -0.084 C 
HETATM    3  C3  UNL     1     -34.326  16.295  -2.122  1.00 20.00     0.002 C 
HETATM    4  C4  UNL     1     -35.746  16.009  -2.633  1.00 20.00     0.010 C 
HETATM    5  C5  UNL     1     -33.387  15.871  -3.263  1.00 20.00     0.014 C 
HETATM    6  C6  UNL     1     -35.590  14.802  -3.509  1.00 20.00     0.028 A 
HETATM    7  C7  UNL     1     -34.082  14.688  -3.893  1.00 20.00    -0.013 A 
HETATM    8  C8  UNL     1     -34.402  15.073  -7.204  1.00 20.00     0.043 C 
HETATM    9  C9  UNL     1     -36.861  15.260  -6.568  1.00 20.00     0.043 C 
HETATM   10  C10 UNL     1     -33.400  13.361  -3.806  1.00 20.00     0.021 C 
ENDROOT
TORSDOF 0
ENDMDL
MODEL 5
REMARK VINA RESULT:      -4.3     11.675     13.132
REMARK  0 active torsions:
REMARK  status: ('A' for Active; 'I' for Inactive)
ROOT
HETATM    1  C1  UNL     1     -34.908  15.369  -3.138  1.00 20.00    -0.064 A 
HETATM    2  C2  UNL     1     -34.318  14.298  -3.623  1.00 20.00    -0.084 C 
HETATM    3  C3  UNL     1     -35.785  18.347  -3.677  1.00 20.00     0.002 C 
HETATM    4  C4  UNL     1     -36.584  17.077  -4.000  1.00 20.00     0.010 C 
HETATM    5  C5  UNL     1     -34.424  17.856  -3.157  1.00 20.00     0.014 C 
HETATM    6  C6  UNL     1     -36.115  16.076  -2.987  1.00 20.00     0.028 A 
HETATM    7  C7  UNL     1     -34.750  16.578  -2.421  1.00 20.00    -0.013 A 
HETATM    8  C8  UNL     1     -32.834  14.037  -3.464  1.00 20.00     0.043 C 
HETATM    9  C9  UNL     1     -35.065  13.225  -4.386  1.00 20.00     0.043 C 
HETATM   10  C10 UNL     1     -34.513  16.552  -0.946  1.00 20.00     0.021 C 
ENDROOT
TORSDOF 0
ENDMDL
MODEL 6
REMARK VINA RESULT:      -4.2     12.068     13.616
REMARK  0 active torsions:
REMARK  status: ('A' for Active; 'I' for Inactive)
ROOT
HETATM    1  C1  UNL     1     -35.826  15.002  -4.985  1.00 20.00    -0.064 A 
HETATM    2  C2  UNL     1     -37.040  15.483  -4.828  1.00 20.00    -0.084 C 
HETATM    3  C3  UNL     1     -32.915  14.794  -3.794  1.00 20.00     0.002 C 
HETATM    4  C4  UNL     1     -34.104  13.870  -3.493  1.00 20.00     0.010 C 
HETATM    5  C5  UNL     1     -33.477  15.908  -4.692  1.00 20.00     0.014 C 
HETATM    6  C6  UNL     1     -34.946  13.933  -4.732  1.00 20.00     0.028 A 
HETATM    7  C7  UNL     1     -34.534  15.215  -5.521  1.00 20.00    -0.013 A 
HETATM    8  C8  UNL     1     -37.464  16.831  -5.373  1.00 20.00     0.043 C 
HETATM    9  C9  UNL     1     -38.128  14.736  -4.086  1.00 20.00     0.043 C 
HETATM   10  C10 UNL     1     -34.307  15.130  -6.995  1.00 20.00     0.021 C 
ENDROOT
TORSDOF 0
ENDMDL
MODEL 7
REMARK VINA RESULT:      -4.2     11.830     13.256
REMARK  0 active torsions:
REMARK  status: ('A' for Active; 'I' for Inactive)
ROOT
HETATM    1  C1  UNL     1     -34.032  15.855  -3.586  1.00 20.00    -0.064 A 
HETATM    2  C2  UNL     1     -34.002  14.750  -4.299  1.00 20.00    -0.084 C 
HETATM    3  C3  UNL     1     -35.655  17.597  -1.522  1.00 20.00     0.002 C 
HETATM    4  C4  UNL     1     -34.662  16.471  -1.201  1.00 20.00     0.010 C 
HETATM    5  C5  UNL     1     -35.784  17.607  -3.053  1.00 20.00     0.014 C 
HETATM    6  C6  UNL     1     -33.713  16.470  -2.362  1.00 20.00     0.028 A 
HETATM    7  C7  UNL     1     -34.408  17.218  -3.542  1.00 20.00    -0.013 A 
HETATM    8  C8  UNL     1     -34.550  14.669  -5.709  1.00 20.00     0.043 C 
HETATM    9  C9  UNL     1     -33.418  13.454  -3.778  1.00 20.00     0.043 C 
HETATM   10  C10 UNL     1     -33.640  18.236  -4.320  1.00 20.00     0.021 C 
ENDROOT
TORSDOF 0
ENDMDL
MODEL 8
REMARK VINA RESULT:      -4.2     11.882     13.256
REMARK  0 active torsions:
REMARK  status: ('A' for Active; 'I' for Inactive)
ROOT
HETATM    1  C1  UNL     1     -35.075  16.086  -3.343  1.00 20.00    -0.064 A 
HETATM    2  C2  UNL     1     -34.557  16.869  -2.423  1.00 20.00    -0.084 C 
HETATM    3  C3  UNL     1     -34.571  13.704  -5.345  1.00 20.00     0.002 C 
HETATM    4  C4  UNL     1     -35.004  13.600  -3.875  1.00 20.00     0.010 C 
HETATM    5  C5  UNL     1     -34.315  15.200  -5.592  1.00 20.00     0.014 C 
HETATM    6  C6  UNL     1     -35.743  14.878  -3.614  1.00 20.00     0.028 A 
HETATM    7  C7  UNL     1     -35.333  15.897  -4.722  1.00 20.00    -0.013 A 
HETATM    8  C8  UNL     1     -33.897  18.192  -2.751  1.00 20.00     0.043 C 
HETATM    9  C9  UNL     1     -34.568  16.522  -0.950  1.00 20.00     0.043 C 
HETATM   10  C10 UNL     1     -36.389  16.702  -5.407  1.00 20.00     0.021 C 
ENDROOT
TORSDOF 0
ENDMDL
MODEL 9
REMARK VINA RESULT:      -4.1     12.361     13.655
REMARK  0 active torsions:
REMARK  status: ('A' for Active; 'I' for Inactive)
ROOT
HETATM    1  C1  UNL     1     -35.116  15.520  -5.670  1.00 20.00    -0.064 A 
HETATM    2  C2  UNL     1     -35.266  15.901  -6.920  1.00 20.00    -0.084 C 
HETATM    3  C3  UNL     1     -33.403  13.836  -3.631  1.00 20.00     0.002 C 
HETATM    4  C4  UNL     1     -33.167  15.293  -4.053  1.00 20.00     0.010 C 
HETATM    5  C5  UNL     1     -34.566  13.338  -4.505  1.00 20.00     0.014 C 
HETATM    6  C6  UNL     1     -34.530  15.798  -4.422  1.00 20.00     0.028 A 
HETATM    7  C7  UNL     1     -35.439  14.557  -4.685  1.00 20.00    -0.013 A 
HETATM    8  C8  UNL     1     -36.102  15.127  -7.918  1.00 20.00     0.043 C 
HETATM    9  C9  UNL     1     -34.616  17.148  -7.481  1.00 20.00     0.043 C 
HETATM   10  C10 UNL     1     -36.812  14.514  -4.096  1.00 20.00     0.021 C 
ENDROOT
TORSDOF 0
ENDMDL
