MODEL 1
REMARK VINA RESULT:      -3.9      0.000      0.000
REMARK  0 active torsions:
REMARK  status: ('A' for Active; 'I' for Inactive)
ROOT
HETATM    1  C1  UNL     1     -34.678  13.642  -4.123  1.00 20.00     0.128 A 
HETATM    2  C2  UNL     1     -35.344  15.037  -4.077  1.00 20.00     0.089 A 
HETATM    3  C3  UNL     1     -33.300  14.215  -3.720  1.00 20.00     0.089 A 
HETATM    4  C4  UNL     1     -33.379  16.688  -4.514  1.00 20.00     0.085 C 
HETATM    5  C5  UNL     1     -33.906  16.328  -2.335  1.00 20.00     0.085 C 
HETATM    6  C6  UNL     1     -33.975  15.578  -3.659  1.00 20.00    -0.011 A 
HETATM    7  O7  UNL     1     -35.082  12.527  -4.376  1.00 20.00    -0.298 OA
HETATM    8  S8  UNL     1     -33.933  17.909  -3.263  1.00 20.00    -0.167 SA
ENDROOT
TORSDOF 0
ENDMDL
MODEL 2
REMARK VINA RESULT:      -3.9      0.900      1.792
REMARK  0 active torsions:
REMARK  status: ('A' for Active; 'I' for Inactive)
ROOT
HETATM    1  C1  UNL     1     -34.891  13.746  -3.958  1.00 20.00     0.128 A 
HETATM    2  C2  UNL     1     -33.713  14.649  -3.527  1.00 20.00     0.089 A 
HETATM    3  C3  UNL     1     -35.939  14.803  -3.542  1.00 20.00     0.089 A 
HETATM    4  C4  UNL     1     -34.741  16.203  -1.709  1.00 20.00     0.085 C 
HETATM    5  C5  UNL     1     -34.667  17.053  -3.813  1.00 20.00     0.085 C 
HETATM    6  C6  UNL     1     -34.767  15.689  -3.143  1.00 20.00    -0.011 A 
HETATM    7  O7  UNL     1     -34.965  12.635  -4.439  1.00 20.00    -0.298 OA
HETATM    8  S8  UNL     1     -33.875  17.708  -2.296  1.00 20.00    -0.167 SA
ENDROOT
TORSDOF 0
ENDMDL
MODEL 3
REMARK VINA RESULT:      -3.6      2.283      2.774
REMARK  0 active torsions:
REMARK  status: ('A' for Active; 'I' for Inactive)
ROOT
HETATM    1  C1  UNL     1     -33.806  13.634  -3.939  1.00 20.00     0.128 A 
HETATM    2  C2  UNL     1     -34.850  13.558  -5.077  1.00 20.00     0.089 A 
HETATM    3  C3  UNL     1     -34.505  14.851  -3.292  1.00 20.00     0.089 A 
HETATM    4  C4  UNL     1     -35.762  15.990  -5.260  1.00 20.00     0.085 C 
HETATM    5  C5  UNL     1     -36.990  14.563  -3.991  1.00 20.00     0.085 C 
HETATM    6  C6  UNL     1     -35.537  14.749  -4.406  1.00 20.00    -0.011 A 
HETATM    7  O7  UNL     1     -32.819  12.987  -3.662  1.00 20.00    -0.298 OA
HETATM    8  S8  UNL     1     -37.505  15.475  -5.496  1.00 20.00    -0.167 SA
ENDROOT
TORSDOF 0
ENDMDL
MODEL 4
REMARK VINA RESULT:      -3.6      2.020      2.752
REMARK  0 active torsions:
REMARK  status: ('A' for Active; 'I' for Inactive)
ROOT
HETATM    1  C1  UNL     1     -33.809  13.625  -3.920  1.00 20.00     0.128 A 
HETATM    2  C2  UNL     1     -34.511  14.834  -3.258  1.00 20.00     0.089 A 
HETATM    3  C3  UNL     1     -34.875  13.535  -5.036  1.00 20.00     0.089 A 
HETATM    4  C4  UNL     1     -37.001  14.588  -3.976  1.00 20.00     0.085 C 
HETATM    5  C5  UNL     1     -35.735  15.977  -5.250  1.00 20.00     0.085 C 
HETATM    6  C6  UNL     1     -35.541  14.738  -4.385  1.00 20.00    -0.011 A 
HETATM    7  O7  UNL     1     -32.807  12.993  -3.663  1.00 20.00    -0.298 OA
HETATM    8  S8  UNL     1     -37.242  16.378  -4.287  1.00 20.00    -0.167 SA
ENDROOT
TORSDOF 0
ENDMDL
MODEL 5
REMARK VINA RESULT:      -3.5     11.651     12.381
REMARK  0 active torsions:
REMARK  status: ('A' for Active; 'I' for Inactive)
ROOT
HETATM    1  C1  UNL     1     -32.651   7.104   2.965  1.00 20.00     0.128 A 
HETATM    2  C2  UNL     1     -32.571   5.749   3.707  1.00 20.00     0.089 A 
HETATM    3  C3  UNL     1     -34.043   7.420   3.558  1.00 20.00     0.089 A 
HETATM    4  C4  UNL     1     -35.061   5.088   4.081  1.00 20.00     0.085 C 
HETATM    5  C5  UNL     1     -34.042   6.138   5.818  1.00 20.00     0.085 C 
HETATM    6  C6  UNL     1     -33.939   6.095   4.299  1.00 20.00    -0.011 A 
HETATM    7  O7  UNL     1     -31.908   7.692   2.209  1.00 20.00    -0.298 OA
HETATM    8  S8  UNL     1     -34.793   4.466   5.785  1.00 20.00    -0.167 SA
ENDROOT
TORSDOF 0
ENDMDL
MODEL 6
REMARK VINA RESULT:      -3.4      2.658      3.199
REMARK  0 active torsions:
REMARK  status: ('A' for Active; 'I' for Inactive)
ROOT
HETATM    1  C1  UNL     1     -34.611  15.834  -2.223  1.00 20.00     0.128 A 
HETATM    2  C2  UNL     1     -35.662  15.354  -3.250  1.00 20.00     0.089 A 
HETATM    3  C3  UNL     1     -33.440  15.551  -3.191  1.00 20.00     0.089 A 
HETATM    4  C4  UNL     1     -34.348  13.696  -4.768  1.00 20.00     0.085 C 
HETATM    5  C5  UNL     1     -34.517  15.825  -5.539  1.00 20.00     0.085 C 
HETATM    6  C6  UNL     1     -34.488  15.103  -4.199  1.00 20.00    -0.011 A 
HETATM    7  O7  UNL     1     -34.679  16.267  -1.092  1.00 20.00    -0.298 OA
HETATM    8  S8  UNL     1     -35.118  14.283  -6.325  1.00 20.00    -0.167 SA
ENDROOT
TORSDOF 0
ENDMDL
MODEL 7
REMARK VINA RESULT:      -3.4      1.906      2.281
REMARK  0 active torsions:
REMARK  status: ('A' for Active; 'I' for Inactive)
ROOT
HETATM    1  C1  UNL     1     -37.085  14.569  -4.033  1.00 20.00     0.128 A 
HETATM    2  C2  UNL     1     -36.513  15.947  -4.437  1.00 20.00     0.089 A 
HETATM    3  C3  UNL     1     -35.700  13.891  -4.137  1.00 20.00     0.089 A 
HETATM    4  C4  UNL     1     -34.391  15.365  -5.829  1.00 20.00     0.085 C 
HETATM    5  C5  UNL     1     -34.041  15.826  -3.633  1.00 20.00     0.085 C 
HETATM    6  C6  UNL     1     -35.149  15.259  -4.512  1.00 20.00    -0.011 A 
HETATM    7  O7  UNL     1     -38.195  14.172  -3.745  1.00 20.00    -0.298 OA
HETATM    8  S8  UNL     1     -33.366  16.698  -5.097  1.00 20.00    -0.167 SA
ENDROOT
TORSDOF 0
ENDMDL
MODEL 8
REMARK VINA RESULT:      -3.4      2.890      3.658
REMARK  0 active torsions:
REMARK  status: ('A' for Active; 'I' for Inactive)
ROOT
HETATM    1  C1  UNL     1     -33.909  17.247  -2.902  1.00 20.00     0.128 A 
HETATM    2  C2  UNL     1     -33.974  16.503  -4.255  1.00 20.00     0.089 A 
HETATM    3  C3  UNL     1     -34.366  15.996  -2.118  1.00 20.00     0.089 A 
HETATM    4  C4  UNL     1     -35.719  14.614  -3.853  1.00 20.00     0.085 C 
HETATM    5  C5  UNL     1     -33.542  14.023  -3.594  1.00 20.00     0.085 C 
HETATM    6  C6  UNL     1     -34.404  15.271  -3.455  1.00 20.00    -0.011 A 
HETATM    7  O7  UNL     1     -33.612  18.378  -2.579  1.00 20.00    -0.298 OA
HETATM    8  S8  UNL     1     -34.771  13.340  -4.770  1.00 20.00    -0.167 SA
ENDROOT
TORSDOF 0
ENDMDL
MODEL 9
REMARK VINA RESULT:      -3.3     11.743     12.420
REMARK  0 active torsions:
REMARK  status: ('A' for Active; 'I' for Inactive)
ROOT
HETATM    1  C1  UNL     1     -34.758   5.154   5.413  1.00 20.00     0.128 A 
HETATM    2  C2  UNL     1     -33.644   6.226   5.434  1.00 20.00     0.089 A 
HETATM    3  C3  UNL     1     -34.792   5.125   3.869  1.00 20.00     0.089 A 
HETATM    4  C4  UNL     1     -33.928   7.472   3.166  1.00 20.00     0.085 C 
HETATM    5  C5  UNL     1     -32.378   5.813   3.198  1.00 20.00     0.085 C 
HETATM    6  C6  UNL     1     -33.681   6.164   3.905  1.00 20.00    -0.011 A 
HETATM    7  O7  UNL     1     -35.369   4.562   6.278  1.00 20.00    -0.298 OA
HETATM    8  S8  UNL     1     -32.128   7.593   2.839  1.00 20.00    -0.167 SA
ENDROOT
TORSDOF 0
ENDMDL
