MODEL 1
REMARK VINA RESULT:      -4.7      0.000      0.000
REMARK  0 active torsions:
REMARK  status: ('A' for Active; 'I' for Inactive)
ROOT
HETATM    1  C1  UNL     1     -42.283   4.786  -2.667  1.00 20.00     0.001 C 
HETATM    2  C2  UNL     1     -41.166   4.222  -1.766  1.00 20.00     0.005 C 
HETATM    3  C3  UNL     1     -42.252   4.646   0.538  1.00 20.00     0.005 C 
HETATM    4  C4  UNL     1     -43.140   5.878   0.822  1.00 20.00     0.006 C 
HETATM    5  C5  UNL     1     -42.308   6.324  -2.711  1.00 20.00     0.010 C 
HETATM    6  C6  UNL     1     -40.891   6.434  -0.650  1.00 20.00     0.014 C 
HETATM    7  C7  UNL     1     -42.959   8.024  -0.757  1.00 20.00     0.015 A 
HETATM    8  C8  UNL     1     -41.038   4.930  -0.393  1.00 20.00    -0.014 C 
HETATM    9  C9  UNL     1     -43.417   6.622  -0.449  1.00 20.00    -0.005 A 
HETATM   10  C10 UNL     1     -42.187   6.852  -1.304  1.00 20.00    -0.036 A 
ENDROOT
TORSDOF 0
ENDMDL
MODEL 2
REMARK VINA RESULT:      -4.7     11.952     13.167
REMARK  0 active torsions:
REMARK  status: ('A' for Active; 'I' for Inactive)
ROOT
HETATM    1  C1  UNL     1     -33.478  13.820  -3.792  1.00 20.00     0.001 C 
HETATM    2  C2  UNL     1     -34.879  13.381  -4.262  1.00 20.00     0.005 C 
HETATM    3  C3  UNL     1     -34.914  14.543  -6.568  1.00 20.00     0.005 C 
HETATM    4  C4  UNL     1     -34.237  15.908  -6.819  1.00 20.00     0.006 C 
HETATM    5  C5  UNL     1     -33.430  15.280  -3.308  1.00 20.00     0.010 C 
HETATM    6  C6  UNL     1     -35.608  15.759  -4.446  1.00 20.00     0.014 C 
HETATM    7  C7  UNL     1     -33.697  17.510  -4.752  1.00 20.00     0.015 A 
HETATM    8  C8  UNL     1     -35.595  14.410  -5.175  1.00 20.00    -0.014 C 
HETATM    9  C9  UNL     1     -33.426  16.313  -5.625  1.00 20.00    -0.005 A 
HETATM   10  C10 UNL     1     -34.155  16.147  -4.306  1.00 20.00    -0.036 A 
ENDROOT
TORSDOF 0
ENDMDL
MODEL 3
REMARK VINA RESULT:      -4.6      1.231      2.005
REMARK  0 active torsions:
REMARK  status: ('A' for Active; 'I' for Inactive)
ROOT
HETATM    1  C1  UNL     1     -43.149   6.020  -2.846  1.00 20.00     0.001 C 
HETATM    2  C2  UNL     1     -43.125   4.497  -3.086  1.00 20.00     0.005 C 
HETATM    3  C3  UNL     1     -43.293   3.699  -0.635  1.00 20.00     0.005 C 
HETATM    4  C4  UNL     1     -42.634   4.464   0.533  1.00 20.00     0.006 C 
HETATM    5  C5  UNL     1     -41.807   6.575  -2.336  1.00 20.00     0.010 C 
HETATM    6  C6  UNL     1     -41.059   4.270  -1.706  1.00 20.00     0.014 C 
HETATM    7  C7  UNL     1     -40.643   6.172   0.033  1.00 20.00     0.015 A 
HETATM    8  C8  UNL     1     -42.456   3.685  -1.947  1.00 20.00    -0.014 C 
HETATM    9  C9  UNL     1     -42.097   5.779   0.055  1.00 20.00    -0.005 A 
HETATM   10  C10 UNL     1     -41.301   5.684  -1.231  1.00 20.00    -0.036 A 
ENDROOT
TORSDOF 0
ENDMDL
MODEL 4
REMARK VINA RESULT:      -4.6     11.545     12.633
REMARK  0 active torsions:
REMARK  status: ('A' for Active; 'I' for Inactive)
ROOT
HETATM    1  C1  UNL     1     -34.117  15.902  -6.110  1.00 20.00     0.001 C 
HETATM    2  C2  UNL     1     -34.521  14.414  -6.142  1.00 20.00     0.005 C 
HETATM    3  C3  UNL     1     -36.320  14.444  -4.290  1.00 20.00     0.005 C 
HETATM    4  C4  UNL     1     -36.213  15.350  -3.044  1.00 20.00     0.006 C 
HETATM    5  C5  UNL     1     -33.209  16.259  -4.920  1.00 20.00     0.010 C 
HETATM    6  C6  UNL     1     -33.854  14.139  -3.754  1.00 20.00     0.014 C 
HETATM    7  C7  UNL     1     -33.832  16.323  -2.324  1.00 20.00     0.015 A 
HETATM    8  C8  UNL     1     -34.966  13.847  -4.769  1.00 20.00    -0.014 C 
HETATM    9  C9  UNL     1     -35.065  16.302  -3.191  1.00 20.00    -0.005 A 
HETATM   10  C10 UNL     1     -33.784  15.646  -3.669  1.00 20.00    -0.036 A 
ENDROOT
TORSDOF 0
ENDMDL
MODEL 5
REMARK VINA RESULT:      -4.6     11.563     12.863
REMARK  0 active torsions:
REMARK  status: ('A' for Active; 'I' for Inactive)
ROOT
HETATM    1  C1  UNL     1     -36.055  15.648  -3.026  1.00 20.00     0.001 C 
HETATM    2  C2  UNL     1     -34.649  15.682  -2.396  1.00 20.00     0.005 C 
HETATM    3  C3  UNL     1     -33.327  16.620  -4.406  1.00 20.00     0.005 C 
HETATM    4  C4  UNL     1     -33.680  16.268  -5.868  1.00 20.00     0.006 C 
HETATM    5  C5  UNL     1     -36.257  14.471  -3.997  1.00 20.00     0.010 C 
HETATM    6  C6  UNL     1     -33.780  14.133  -4.147  1.00 20.00     0.014 C 
HETATM    7  C7  UNL     1     -35.125  14.083  -6.384  1.00 20.00     0.015 A 
HETATM    8  C8  UNL     1     -33.494  15.443  -3.403  1.00 20.00    -0.014 C 
HETATM    9  C9  UNL     1     -34.970  15.508  -5.922  1.00 20.00    -0.005 A 
HETATM   10  C10 UNL     1     -35.060  14.383  -4.909  1.00 20.00    -0.036 A 
ENDROOT
TORSDOF 0
ENDMDL
MODEL 6
REMARK VINA RESULT:      -4.5     11.751     12.813
REMARK  0 active torsions:
REMARK  status: ('A' for Active; 'I' for Inactive)
ROOT
HETATM    1  C1  UNL     1     -34.536  13.420  -4.704  1.00 20.00     0.001 C 
HETATM    2  C2  UNL     1     -33.383  13.786  -3.748  1.00 20.00     0.005 C 
HETATM    3  C3  UNL     1     -34.499  15.755  -2.504  1.00 20.00     0.005 C 
HETATM    4  C4  UNL     1     -35.472  16.731  -3.201  1.00 20.00     0.006 C 
HETATM    5  C5  UNL     1     -34.670  14.389  -5.892  1.00 20.00     0.010 C 
HETATM    6  C6  UNL     1     -33.267  16.087  -4.702  1.00 20.00     0.014 C 
HETATM    7  C7  UNL     1     -35.442  16.945  -5.863  1.00 20.00     0.015 A 
HETATM    8  C8  UNL     1     -33.307  15.293  -3.391  1.00 20.00    -0.014 C 
HETATM    9  C9  UNL     1     -35.800  16.242  -4.579  1.00 20.00    -0.005 A 
HETATM   10  C10 UNL     1     -34.588  15.803  -5.377  1.00 20.00    -0.036 A 
ENDROOT
TORSDOF 0
ENDMDL
MODEL 7
REMARK VINA RESULT:      -4.5     11.561     12.759
REMARK  0 active torsions:
REMARK  status: ('A' for Active; 'I' for Inactive)
ROOT
HETATM    1  C1  UNL     1     -33.314  16.682  -4.551  1.00 20.00     0.001 C 
HETATM    2  C2  UNL     1     -33.706  16.215  -3.135  1.00 20.00     0.005 C 
HETATM    3  C3  UNL     1     -34.037  13.699  -3.616  1.00 20.00     0.005 C 
HETATM    4  C4  UNL     1     -34.604  13.178  -4.954  1.00 20.00     0.006 C 
HETATM    5  C5  UNL     1     -34.514  16.792  -5.507  1.00 20.00     0.010 C 
HETATM    6  C6  UNL     1     -35.904  15.386  -3.971  1.00 20.00     0.014 C 
HETATM    7  C7  UNL     1     -36.010  14.825  -6.519  1.00 20.00     0.015 A 
HETATM    8  C8  UNL     1     -34.691  15.018  -3.110  1.00 20.00    -0.014 C 
HETATM    9  C9  UNL     1     -34.721  14.301  -5.941  1.00 20.00    -0.005 A 
HETATM   10  C10 UNL     1     -35.360  15.552  -5.371  1.00 20.00    -0.036 A 
ENDROOT
TORSDOF 0
ENDMDL
MODEL 8
REMARK VINA RESULT:      -4.5     11.752     12.989
REMARK  0 active torsions:
REMARK  status: ('A' for Active; 'I' for Inactive)
ROOT
HETATM    1  C1  UNL     1     -34.462  13.334  -5.099  1.00 20.00     0.001 C 
HETATM    2  C2  UNL     1     -35.314  14.112  -6.121  1.00 20.00     0.005 C 
HETATM    3  C3  UNL     1     -33.994  16.332  -6.141  1.00 20.00     0.005 C 
HETATM    4  C4  UNL     1     -33.309  16.901  -4.878  1.00 20.00     0.006 C 
HETATM    5  C5  UNL     1     -34.721  13.761  -3.643  1.00 20.00     0.010 C 
HETATM    6  C6  UNL     1     -35.814  15.873  -4.427  1.00 20.00     0.014 C 
HETATM    7  C7  UNL     1     -34.104  16.077  -2.465  1.00 20.00     0.015 A 
HETATM    8  C8  UNL     1     -35.363  15.642  -5.874  1.00 20.00    -0.014 C 
HETATM    9  C9  UNL     1     -33.361  15.900  -3.764  1.00 20.00    -0.005 A 
HETATM   10  C10 UNL     1     -34.725  15.267  -3.573  1.00 20.00    -0.036 A 
ENDROOT
TORSDOF 0
ENDMDL
MODEL 9
REMARK VINA RESULT:      -4.5     11.861     13.219
REMARK  0 active torsions:
REMARK  status: ('A' for Active; 'I' for Inactive)
ROOT
HETATM    1  C1  UNL     1     -35.304  16.999  -3.344  1.00 20.00     0.001 C 
HETATM    2  C2  UNL     1     -33.907  17.434  -3.829  1.00 20.00     0.005 C 
HETATM    3  C3  UNL     1     -33.863  16.199  -6.097  1.00 20.00     0.005 C 
HETATM    4  C4  UNL     1     -34.530  14.822  -6.304  1.00 20.00     0.006 C 
HETATM    5  C5  UNL     1     -35.340  15.555  -2.814  1.00 20.00     0.010 C 
HETATM    6  C6  UNL     1     -33.159  15.057  -3.938  1.00 20.00     0.014 C 
HETATM    7  C7  UNL     1     -35.057  13.282  -4.187  1.00 20.00     0.015 A 
HETATM    8  C8  UNL     1     -33.184  16.382  -4.709  1.00 20.00    -0.014 C 
HETATM    9  C9  UNL     1     -35.337  14.449  -5.098  1.00 20.00    -0.005 A 
HETATM   10  C10 UNL     1     -34.609  14.663  -3.785  1.00 20.00    -0.036 A 
ENDROOT
TORSDOF 0
ENDMDL
