MODEL 1
REMARK VINA RESULT:      -4.6      0.000      0.000
REMARK  2 active torsions:
REMARK  status: ('A' for Active; 'I' for Inactive)
REMARK    1  A    between atoms: C1_1  and  C2_2 
REMARK    2  A    between atoms: C1_1  and  C3_3 
ROOT
HETATM    1  C2  UNL     1     -34.941  15.386  -2.283  1.00 20.00     0.043 A 
HETATM    2  C4  UNL     1     -35.717  15.635  -3.478  1.00 20.00     0.013 A 
HETATM    3  C5  UNL     1     -34.266  15.181  -3.561  1.00 20.00    -0.023 A 
HETATM    4  C8  UNL     1     -36.859  14.746  -3.829  1.00 20.00     0.012 C 
HETATM    5  C9  UNL     1     -33.937  13.755  -3.930  1.00 20.00     0.017 C 
HETATM    6  C10 UNL     1     -33.260  16.182  -4.076  1.00 20.00     0.017 C 
ENDROOT
BRANCH   1   7
HETATM    7  C1  UNL     1     -34.645  16.322  -1.437  1.00 20.00    -0.159 C 
BRANCH   7   8
HETATM    8  C3  UNL     1     -34.347  17.264  -0.585  1.00 20.00     0.022 C 
HETATM    9  C6  UNL     1     -35.093  17.444   0.707  1.00 20.00     0.029 C 
HETATM   10  C7  UNL     1     -33.230  18.240  -0.826  1.00 20.00     0.029 C 
ENDBRANCH   7   8
ENDBRANCH   1   7
TORSDOF 2
ENDMDL
MODEL 2
REMARK VINA RESULT:      -4.6      0.004      1.136
REMARK  2 active torsions:
REMARK  status: ('A' for Active; 'I' for Inactive)
REMARK    1  A    between atoms: C1_1  and  C2_2 
REMARK    2  A    between atoms: C1_1  and  C3_3 
ROOT
HETATM    1  C2  UNL     1     -34.941  15.383  -2.285  1.00 20.00     0.043 A 
HETATM    2  C4  UNL     1     -35.716  15.632  -3.480  1.00 20.00     0.013 A 
HETATM    3  C5  UNL     1     -34.265  15.180  -3.563  1.00 20.00    -0.023 A 
HETATM    4  C8  UNL     1     -36.858  14.743  -3.832  1.00 20.00     0.012 C 
HETATM    5  C9  UNL     1     -33.935  13.755  -3.935  1.00 20.00     0.017 C 
HETATM    6  C10 UNL     1     -33.260  16.183  -4.077  1.00 20.00     0.017 C 
ENDROOT
BRANCH   1   7
HETATM    7  C1  UNL     1     -34.645  16.318  -1.438  1.00 20.00    -0.159 C 
BRANCH   7   8
HETATM    8  C3  UNL     1     -34.348  17.260  -0.586  1.00 20.00     0.022 C 
HETATM    9  C6  UNL     1     -33.234  18.239  -0.828  1.00 20.00     0.029 C 
HETATM   10  C7  UNL     1     -35.097  17.442   0.704  1.00 20.00     0.029 C 
ENDBRANCH   7   8
ENDBRANCH   1   7
TORSDOF 2
ENDMDL
MODEL 3
REMARK VINA RESULT:      -4.4      1.088      2.057
REMARK  2 active torsions:
REMARK  status: ('A' for Active; 'I' for Inactive)
REMARK    1  A    between atoms: C1_1  and  C2_2 
REMARK    2  A    between atoms: C1_1  and  C3_3 
ROOT
HETATM    1  C2  UNL     1     -33.690  16.066  -2.840  1.00 20.00     0.043 A 
HETATM    2  C4  UNL     1     -34.646  15.042  -3.201  1.00 20.00     0.013 A 
HETATM    3  C5  UNL     1     -34.467  16.289  -4.056  1.00 20.00    -0.023 A 
HETATM    4  C8  UNL     1     -34.175  13.696  -3.632  1.00 20.00     0.012 C 
HETATM    5  C9  UNL     1     -33.716  16.211  -5.363  1.00 20.00     0.017 C 
HETATM    6  C10 UNL     1     -35.608  17.278  -4.077  1.00 20.00     0.017 C 
ENDROOT
BRANCH   1   7
HETATM    7  C1  UNL     1     -33.799  16.772  -1.759  1.00 20.00    -0.159 C 
BRANCH   7   8
HETATM    8  C3  UNL     1     -33.909  17.483  -0.670  1.00 20.00     0.022 C 
HETATM    9  C6  UNL     1     -32.926  18.561  -0.312  1.00 20.00     0.029 C 
HETATM   10  C7  UNL     1     -35.031  17.281   0.309  1.00 20.00     0.029 C 
ENDBRANCH   7   8
ENDBRANCH   1   7
TORSDOF 2
ENDMDL
MODEL 4
REMARK VINA RESULT:      -4.3      1.404      4.107
REMARK  2 active torsions:
REMARK  status: ('A' for Active; 'I' for Inactive)
REMARK    1  A    between atoms: C1_1  and  C2_2 
REMARK    2  A    between atoms: C1_1  and  C3_3 
ROOT
HETATM    1  C2  UNL     1     -35.145  16.205  -2.144  1.00 20.00     0.043 A 
HETATM    2  C4  UNL     1     -34.313  16.898  -1.185  1.00 20.00     0.013 A 
HETATM    3  C5  UNL     1     -34.829  17.601  -2.434  1.00 20.00    -0.023 A 
HETATM    4  C8  UNL     1     -34.831  17.197   0.179  1.00 20.00     0.012 C 
HETATM    5  C9  UNL     1     -35.966  18.587  -2.333  1.00 20.00     0.017 C 
HETATM    6  C10 UNL     1     -33.811  17.963  -3.488  1.00 20.00     0.017 C 
ENDROOT
BRANCH   1   7
HETATM    7  C1  UNL     1     -34.718  15.197  -2.837  1.00 20.00    -0.159 C 
BRANCH   7   8
HETATM    8  C3  UNL     1     -34.289  14.182  -3.535  1.00 20.00     0.022 C 
HETATM    9  C6  UNL     1     -35.208  13.335  -4.369  1.00 20.00     0.029 C 
HETATM   10  C7  UNL     1     -32.841  13.782  -3.563  1.00 20.00     0.029 C 
ENDBRANCH   7   8
ENDBRANCH   1   7
TORSDOF 2
ENDMDL
MODEL 5
REMARK VINA RESULT:      -4.3      1.051      4.617
REMARK  2 active torsions:
REMARK  status: ('A' for Active; 'I' for Inactive)
REMARK    1  A    between atoms: C1_1  and  C2_2 
REMARK    2  A    between atoms: C1_1  and  C3_3 
ROOT
HETATM    1  C2  UNL     1     -34.401  16.638  -0.944  1.00 20.00     0.043 A 
HETATM    2  C4  UNL     1     -33.906  17.994  -1.034  1.00 20.00     0.013 A 
HETATM    3  C5  UNL     1     -35.292  17.697  -0.477  1.00 20.00    -0.023 A 
HETATM    4  C8  UNL     1     -32.771  18.436  -0.175  1.00 20.00     0.012 C 
HETATM    5  C9  UNL     1     -35.542  17.763   1.009  1.00 20.00     0.017 C 
HETATM    6  C10 UNL     1     -36.474  18.137  -1.307  1.00 20.00     0.017 C 
ENDROOT
BRANCH   1   7
HETATM    7  C1  UNL     1     -34.617  15.905  -1.990  1.00 20.00    -0.159 C 
BRANCH   7   8
HETATM    8  C3  UNL     1     -34.834  15.167  -3.044  1.00 20.00     0.022 C 
HETATM    9  C6  UNL     1     -33.729  14.439  -3.756  1.00 20.00     0.029 C 
HETATM   10  C7  UNL     1     -36.207  14.983  -3.626  1.00 20.00     0.029 C 
ENDBRANCH   7   8
ENDBRANCH   1   7
TORSDOF 2
ENDMDL
MODEL 6
REMARK VINA RESULT:      -4.2     12.084     14.563
REMARK  2 active torsions:
REMARK  status: ('A' for Active; 'I' for Inactive)
REMARK    1  A    between atoms: C1_1  and  C2_2 
REMARK    2  A    between atoms: C1_1  and  C3_3 
ROOT
HETATM    1  C2  UNL     1     -41.483   4.689  -2.076  1.00 20.00     0.043 A 
HETATM    2  C4  UNL     1     -42.423   5.787  -2.023  1.00 20.00     0.013 A 
HETATM    3  C5  UNL     1     -41.827   5.198  -0.752  1.00 20.00    -0.023 A 
HETATM    4  C8  UNL     1     -42.040   7.128  -2.545  1.00 20.00     0.012 C 
HETATM    5  C9  UNL     1     -40.743   5.939  -0.008  1.00 20.00     0.017 C 
HETATM    6  C10 UNL     1     -42.762   4.432   0.154  1.00 20.00     0.017 C 
ENDROOT
BRANCH   1   7
HETATM    7  C1  UNL     1     -41.805   3.516  -2.520  1.00 20.00    -0.159 C 
BRANCH   7   8
HETATM    8  C3  UNL     1     -42.131   2.334  -2.966  1.00 20.00     0.022 C 
HETATM    9  C6  UNL     1     -41.337   1.629  -4.029  1.00 20.00     0.029 C 
HETATM   10  C7  UNL     1     -43.325   1.581  -2.448  1.00 20.00     0.029 C 
ENDBRANCH   7   8
ENDBRANCH   1   7
TORSDOF 2
ENDMDL
MODEL 7
REMARK VINA RESULT:      -4.1      1.335      2.214
REMARK  2 active torsions:
REMARK  status: ('A' for Active; 'I' for Inactive)
REMARK    1  A    between atoms: C1_1  and  C2_2 
REMARK    2  A    between atoms: C1_1  and  C3_3 
ROOT
HETATM    1  C2  UNL     1     -34.699  15.648  -3.916  1.00 20.00     0.043 A 
HETATM    2  C4  UNL     1     -33.870  15.678  -5.101  1.00 20.00     0.013 A 
HETATM    3  C5  UNL     1     -33.961  14.429  -4.234  1.00 20.00    -0.023 A 
HETATM    4  C8  UNL     1     -34.495  15.768  -6.450  1.00 20.00     0.012 C 
HETATM    5  C9  UNL     1     -34.776  13.245  -4.693  1.00 20.00     0.017 C 
HETATM    6  C10 UNL     1     -32.728  14.043  -3.453  1.00 20.00     0.017 C 
ENDROOT
BRANCH   1   7
HETATM    7  C1  UNL     1     -34.469  16.399  -2.885  1.00 20.00    -0.159 C 
BRANCH   7   8
HETATM    8  C3  UNL     1     -34.237  17.155  -1.847  1.00 20.00     0.022 C 
HETATM    9  C6  UNL     1     -33.511  18.466  -1.955  1.00 20.00     0.029 C 
HETATM   10  C7  UNL     1     -34.682  16.777  -0.463  1.00 20.00     0.029 C 
ENDBRANCH   7   8
ENDBRANCH   1   7
TORSDOF 2
ENDMDL
MODEL 8
REMARK VINA RESULT:      -3.9      2.322      4.761
REMARK  2 active torsions:
REMARK  status: ('A' for Active; 'I' for Inactive)
REMARK    1  A    between atoms: C1_1  and  C2_2 
REMARK    2  A    between atoms: C1_1  and  C3_3 
ROOT
HETATM    1  C2  UNL     1     -33.661  15.622  -4.624  1.00 20.00     0.043 A 
HETATM    2  C4  UNL     1     -34.511  15.584  -3.454  1.00 20.00     0.013 A 
HETATM    3  C5  UNL     1     -33.872  14.316  -4.006  1.00 20.00    -0.023 A 
HETATM    4  C8  UNL     1     -34.065  16.222  -2.183  1.00 20.00     0.012 C 
HETATM    5  C9  UNL     1     -32.686  13.699  -3.307  1.00 20.00     0.017 C 
HETATM    6  C10 UNL     1     -34.795  13.300  -4.635  1.00 20.00     0.017 C 
ENDROOT
BRANCH   1   7
HETATM    7  C1  UNL     1     -34.101  15.961  -5.794  1.00 20.00    -0.159 C 
BRANCH   7   8
HETATM    8  C3  UNL     1     -34.544  16.301  -6.973  1.00 20.00     0.022 C 
HETATM    9  C6  UNL     1     -34.472  17.713  -7.482  1.00 20.00     0.029 C 
HETATM   10  C7  UNL     1     -35.158  15.306  -7.917  1.00 20.00     0.029 C 
ENDBRANCH   7   8
ENDBRANCH   1   7
TORSDOF 2
ENDMDL
MODEL 9
REMARK VINA RESULT:      -3.9      1.165      4.198
REMARK  2 active torsions:
REMARK  status: ('A' for Active; 'I' for Inactive)
REMARK    1  A    between atoms: C1_1  and  C2_2 
REMARK    2  A    between atoms: C1_1  and  C3_3 
ROOT
HETATM    1  C2  UNL     1     -35.448  16.623  -2.460  1.00 20.00     0.043 A 
HETATM    2  C4  UNL     1     -34.635  16.353  -1.294  1.00 20.00     0.013 A 
HETATM    3  C5  UNL     1     -34.028  16.953  -2.556  1.00 20.00    -0.023 A 
HETATM    4  C8  UNL     1     -34.832  17.140  -0.045  1.00 20.00     0.012 C 
HETATM    5  C9  UNL     1     -33.676  18.419  -2.605  1.00 20.00     0.017 C 
HETATM    6  C10 UNL     1     -33.081  16.080  -3.345  1.00 20.00     0.017 C 
ENDROOT
BRANCH   1   7
HETATM    7  C1  UNL     1     -36.031  15.684  -3.136  1.00 20.00    -0.159 C 
BRANCH   7   8
HETATM    8  C3  UNL     1     -36.619  14.739  -3.817  1.00 20.00     0.022 C 
HETATM    9  C6  UNL     1     -35.856  13.599  -4.431  1.00 20.00     0.029 C 
HETATM   10  C7  UNL     1     -38.105  14.713  -4.037  1.00 20.00     0.029 C 
ENDBRANCH   7   8
ENDBRANCH   1   7
TORSDOF 2
ENDMDL
