MODEL 1
REMARK VINA RESULT:      -5.5      0.000      0.000
REMARK  0 active torsions:
REMARK  status: ('A' for Active; 'I' for Inactive)
ROOT
HETATM    1  C1  UNL     1     -35.358   4.759   6.188  1.00 20.00     0.010 A 
HETATM    2  C2  UNL     1     -34.163   3.948   5.767  1.00 20.00     0.010 A 
HETATM    3  C3  UNL     1     -32.165   5.936   3.136  1.00 20.00     0.010 A 
HETATM    4  C4  UNL     1     -32.853   7.251   2.890  1.00 20.00     0.010 A 
HETATM    5  C5  UNL     1     -34.722   5.585   3.754  1.00 20.00     0.019 C 
HETATM    6  C6  UNL     1     -33.548   6.492   5.330  1.00 20.00     0.019 C 
HETATM    7  C7  UNL     1     -34.408   5.300   5.170  1.00 20.00    -0.038 A 
HETATM    8  C8  UNL     1     -33.422   6.280   3.874  1.00 20.00    -0.038 A 
ENDROOT
TORSDOF 0
ENDMDL
MODEL 2
REMARK VINA RESULT:      -5.5      0.047      3.411
REMARK  0 active torsions:
REMARK  status: ('A' for Active; 'I' for Inactive)
ROOT
HETATM    1  C1  UNL     1     -32.902   7.255   2.866  1.00 20.00     0.010 A 
HETATM    2  C2  UNL     1     -32.199   5.952   3.133  1.00 20.00     0.010 A 
HETATM    3  C3  UNL     1     -34.170   3.992   5.806  1.00 20.00     0.010 A 
HETATM    4  C4  UNL     1     -35.372   4.798   6.217  1.00 20.00     0.010 A 
HETATM    5  C5  UNL     1     -33.583   6.535   5.321  1.00 20.00     0.019 C 
HETATM    6  C6  UNL     1     -34.750   5.585   3.766  1.00 20.00     0.019 C 
HETATM    7  C7  UNL     1     -33.459   6.297   3.868  1.00 20.00    -0.038 A 
HETATM    8  C8  UNL     1     -34.430   5.330   5.185  1.00 20.00    -0.038 A 
ENDROOT
TORSDOF 0
ENDMDL
MODEL 3
REMARK VINA RESULT:      -4.6      1.069      3.505
REMARK  0 active torsions:
REMARK  status: ('A' for Active; 'I' for Inactive)
ROOT
HETATM    1  C1  UNL     1     -31.497   7.353   3.217  1.00 20.00     0.010 A 
HETATM    2  C2  UNL     1     -32.755   7.825   2.540  1.00 20.00     0.010 A 
HETATM    3  C3  UNL     1     -35.706   5.639   3.713  1.00 20.00     0.010 A 
HETATM    4  C4  UNL     1     -35.197   4.612   4.688  1.00 20.00     0.010 A 
HETATM    5  C5  UNL     1     -33.136   5.274   3.162  1.00 20.00     0.019 C 
HETATM    6  C6  UNL     1     -33.503   6.645   4.795  1.00 20.00     0.019 C 
HETATM    7  C7  UNL     1     -32.798   6.673   3.497  1.00 20.00    -0.038 A 
HETATM    8  C8  UNL     1     -34.253   5.596   4.075  1.00 20.00    -0.038 A 
ENDROOT
TORSDOF 0
ENDMDL
MODEL 4
REMARK VINA RESULT:      -4.6      1.101      1.965
REMARK  0 active torsions:
REMARK  status: ('A' for Active; 'I' for Inactive)
ROOT
HETATM    1  C1  UNL     1     -35.197   4.607   4.607  1.00 20.00     0.010 A 
HETATM    2  C2  UNL     1     -35.681   5.656   3.644  1.00 20.00     0.010 A 
HETATM    3  C3  UNL     1     -32.702   7.870   2.600  1.00 20.00     0.010 A 
HETATM    4  C4  UNL     1     -31.462   7.383   3.299  1.00 20.00     0.010 A 
HETATM    5  C5  UNL     1     -33.507   6.636   4.807  1.00 20.00     0.019 C 
HETATM    6  C6  UNL     1     -33.098   5.305   3.151  1.00 20.00     0.019 C 
HETATM    7  C7  UNL     1     -34.238   5.604   4.042  1.00 20.00    -0.038 A 
HETATM    8  C8  UNL     1     -32.769   6.695   3.527  1.00 20.00    -0.038 A 
ENDROOT
TORSDOF 0
ENDMDL
MODEL 5
REMARK VINA RESULT:      -4.0     12.145     12.864
REMARK  0 active torsions:
REMARK  status: ('A' for Active; 'I' for Inactive)
ROOT
HETATM    1  C1  UNL     1     -34.466  13.225  -4.857  1.00 20.00     0.010 A 
HETATM    2  C2  UNL     1     -34.553  14.526  -5.607  1.00 20.00     0.010 A 
HETATM    3  C3  UNL     1     -33.985  17.434  -3.140  1.00 20.00     0.010 A 
HETATM    4  C4  UNL     1     -33.754  16.871  -1.765  1.00 20.00     0.010 A 
HETATM    5  C5  UNL     1     -35.169  15.060  -3.082  1.00 20.00     0.019 C 
HETATM    6  C6  UNL     1     -33.042  14.977  -3.473  1.00 20.00     0.019 C 
HETATM    7  C7  UNL     1     -34.282  14.519  -4.134  1.00 20.00    -0.038 A 
HETATM    8  C8  UNL     1     -34.002  15.953  -2.918  1.00 20.00    -0.038 A 
ENDROOT
TORSDOF 0
ENDMDL
MODEL 6
REMARK VINA RESULT:      -4.0     12.140     12.915
REMARK  0 active torsions:
REMARK  status: ('A' for Active; 'I' for Inactive)
ROOT
HETATM    1  C1  UNL     1     -33.719  16.921  -1.778  1.00 20.00     0.010 A 
HETATM    2  C2  UNL     1     -33.974  17.471  -3.155  1.00 20.00     0.010 A 
HETATM    3  C3  UNL     1     -34.564  14.539  -5.588  1.00 20.00     0.010 A 
HETATM    4  C4  UNL     1     -34.458  13.245  -4.829  1.00 20.00     0.010 A 
HETATM    5  C5  UNL     1     -33.022  15.016  -3.481  1.00 20.00     0.019 C 
HETATM    6  C6  UNL     1     -35.144  15.092  -3.059  1.00 20.00     0.019 C 
HETATM    7  C7  UNL     1     -33.980  15.992  -2.919  1.00 20.00    -0.038 A 
HETATM    8  C8  UNL     1     -34.271  14.546  -4.119  1.00 20.00    -0.038 A 
ENDROOT
TORSDOF 0
ENDMDL
MODEL 7
REMARK VINA RESULT:      -4.0     11.900     12.901
REMARK  0 active torsions:
REMARK  status: ('A' for Active; 'I' for Inactive)
ROOT
HETATM    1  C1  UNL     1     -34.514  14.070  -5.381  1.00 20.00     0.010 A 
HETATM    2  C2  UNL     1     -35.140  13.600  -4.097  1.00 20.00     0.010 A 
HETATM    3  C3  UNL     1     -34.596  16.283  -1.381  1.00 20.00     0.010 A 
HETATM    4  C4  UNL     1     -33.831  17.433  -1.977  1.00 20.00     0.010 A 
HETATM    5  C5  UNL     1     -33.219  15.304  -3.429  1.00 20.00     0.019 C 
HETATM    6  C6  UNL     1     -35.083  16.251  -3.989  1.00 20.00     0.019 C 
HETATM    7  C7  UNL     1     -34.448  14.927  -4.159  1.00 20.00    -0.038 A 
HETATM    8  C8  UNL     1     -34.179  16.249  -2.820  1.00 20.00    -0.038 A 
ENDROOT
TORSDOF 0
ENDMDL
MODEL 8
REMARK VINA RESULT:      -3.9      9.167     10.525
REMARK  0 active torsions:
REMARK  status: ('A' for Active; 'I' for Inactive)
ROOT
HETATM    1  C1  UNL     1     -41.046   6.853  -0.751  1.00 20.00     0.010 A 
HETATM    2  C2  UNL     1     -42.167   6.134  -0.052  1.00 20.00     0.010 A 
HETATM    3  C3  UNL     1     -42.947   2.876  -1.960  1.00 20.00     0.010 A 
HETATM    4  C4  UNL     1     -42.024   2.768  -3.142  1.00 20.00     0.010 A 
HETATM    5  C5  UNL     1     -42.222   5.350  -2.587  1.00 20.00     0.019 C 
HETATM    6  C6  UNL     1     -40.783   4.290  -1.366  1.00 20.00     0.019 C 
HETATM    7  C7  UNL     1     -41.549   5.552  -1.286  1.00 20.00    -0.038 A 
HETATM    8  C8  UNL     1     -41.934   3.945  -2.226  1.00 20.00    -0.038 A 
ENDROOT
TORSDOF 0
ENDMDL
MODEL 9
REMARK VINA RESULT:      -3.9      9.212     10.477
REMARK  0 active torsions:
REMARK  status: ('A' for Active; 'I' for Inactive)
ROOT
HETATM    1  C1  UNL     1     -42.043   2.812  -3.128  1.00 20.00     0.010 A 
HETATM    2  C2  UNL     1     -42.976   2.932  -1.954  1.00 20.00     0.010 A 
HETATM    3  C3  UNL     1     -42.213   6.213  -0.079  1.00 20.00     0.010 A 
HETATM    4  C4  UNL     1     -41.086   6.925  -0.776  1.00 20.00     0.010 A 
HETATM    5  C5  UNL     1     -40.817   4.355  -1.360  1.00 20.00     0.019 C 
HETATM    6  C6  UNL     1     -42.248   5.400  -2.603  1.00 20.00     0.019 C 
HETATM    7  C7  UNL     1     -41.961   3.999  -2.226  1.00 20.00    -0.038 A 
HETATM    8  C8  UNL     1     -41.585   5.617  -1.301  1.00 20.00    -0.038 A 
ENDROOT
TORSDOF 0
ENDMDL
