MODEL 1
REMARK VINA RESULT:      -5.3      0.000      0.000
REMARK  1 active torsions:
REMARK  status: ('A' for Active; 'I' for Inactive)
REMARK    1  A    between atoms: C7_7  and  O10_10 
ROOT
HETATM    1  C1  UNL     1     -31.988   6.739   2.997  1.00 20.00     0.013 C 
HETATM    2  C2  UNL     1     -32.966   6.443   3.627  1.00 20.00    -0.102 C 
HETATM    3  C3  UNL     1     -34.161   6.042   5.870  1.00 20.00    -0.040 C 
HETATM    4  C4  UNL     1     -33.971   7.073   6.704  1.00 20.00     0.019 C 
HETATM    5  C5  UNL     1     -35.340   4.066   5.154  1.00 20.00     0.043 C 
HETATM    6  C6  UNL     1     -35.473   6.215   3.675  1.00 20.00     0.034 A 
HETATM    7  C7  UNL     1     -34.545   4.656   6.331  1.00 20.00     0.148 C 
HETATM    8  C8  UNL     1     -34.905   4.850   3.943  1.00 20.00     0.015 A 
HETATM    9  C9  UNL     1     -34.140   6.086   4.383  1.00 20.00     0.052 A 
ENDROOT
BRANCH   7  10
HETATM   10  O10 UNL     1     -33.354   3.902   6.532  1.00 20.00    -0.391 OA
HETATM   11  H20 UNL     1     -33.381   3.166   5.900  1.00 20.00     0.210 HD
ENDBRANCH   7  10
TORSDOF 1
ENDMDL
MODEL 2
REMARK VINA RESULT:      -5.1     12.077     13.126
REMARK  1 active torsions:
REMARK  status: ('A' for Active; 'I' for Inactive)
REMARK    1  A    between atoms: C7_7  and  O10_10 
ROOT
HETATM    1  C1  UNL     1     -34.602  16.628  -0.821  1.00 20.00     0.013 C 
HETATM    2  C2  UNL     1     -34.584  16.134  -1.914  1.00 20.00    -0.102 C 
HETATM    3  C3  UNL     1     -35.651  15.737  -4.222  1.00 20.00    -0.040 C 
HETATM    4  C4  UNL     1     -36.024  16.895  -4.782  1.00 20.00     0.019 C 
HETATM    5  C5  UNL     1     -35.099  13.393  -4.332  1.00 20.00     0.043 C 
HETATM    6  C6  UNL     1     -33.210  15.105  -3.758  1.00 20.00     0.034 A 
HETATM    7  C7  UNL     1     -36.230  14.397  -4.612  1.00 20.00     0.148 C 
HETATM    8  C8  UNL     1     -34.205  14.067  -3.322  1.00 20.00     0.015 A 
HETATM    9  C9  UNL     1     -34.561  15.540  -3.228  1.00 20.00     0.052 A 
ENDROOT
BRANCH   7  10
HETATM   10  O10 UNL     1     -37.338  14.121  -3.761  1.00 20.00    -0.391 OA
HETATM   11  H20 UNL     1     -37.043  13.443  -3.132  1.00 20.00     0.210 HD
ENDBRANCH   7  10
TORSDOF 1
ENDMDL
MODEL 3
REMARK VINA RESULT:      -4.9     12.129     13.735
REMARK  1 active torsions:
REMARK  status: ('A' for Active; 'I' for Inactive)
REMARK    1  A    between atoms: C7_7  and  O10_10 
ROOT
HETATM    1  C1  UNL     1     -36.645  17.237  -4.236  1.00 20.00     0.013 C 
HETATM    2  C2  UNL     1     -35.722  16.511  -4.486  1.00 20.00    -0.102 C 
HETATM    3  C3  UNL     1     -34.754  14.403  -5.601  1.00 20.00    -0.040 C 
HETATM    4  C4  UNL     1     -35.123  14.330  -6.886  1.00 20.00     0.019 C 
HETATM    5  C5  UNL     1     -33.341  13.790  -3.747  1.00 20.00     0.043 C 
HETATM    6  C6  UNL     1     -33.225  16.234  -4.662  1.00 20.00     0.034 A 
HETATM    7  C7  UNL     1     -34.309  13.208  -4.791  1.00 20.00     0.148 C 
HETATM    8  C8  UNL     1     -33.702  15.248  -3.634  1.00 20.00     0.015 A 
HETATM    9  C9  UNL     1     -34.613  15.640  -4.785  1.00 20.00     0.052 A 
ENDROOT
BRANCH   7  10
HETATM   10  O10 UNL     1     -35.447  12.657  -4.136  1.00 20.00    -0.391 OA
HETATM   11  H20 UNL     1     -35.111  12.044  -3.464  1.00 20.00     0.210 HD
ENDBRANCH   7  10
TORSDOF 1
ENDMDL
MODEL 4
REMARK VINA RESULT:      -4.9     12.306     13.506
REMARK  1 active torsions:
REMARK  status: ('A' for Active; 'I' for Inactive)
REMARK    1  A    between atoms: C7_7  and  O10_10 
ROOT
HETATM    1  C1  UNL     1     -34.625  16.372  -1.421  1.00 20.00     0.013 C 
HETATM    2  C2  UNL     1     -34.308  15.789  -2.421  1.00 20.00    -0.102 C 
HETATM    3  C3  UNL     1     -34.110  15.659  -4.984  1.00 20.00    -0.040 C 
HETATM    4  C4  UNL     1     -33.527  16.760  -5.475  1.00 20.00     0.019 C 
HETATM    5  C5  UNL     1     -34.816  13.361  -5.154  1.00 20.00     0.043 C 
HETATM    6  C6  UNL     1     -32.915  13.972  -3.470  1.00 20.00     0.034 A 
HETATM    7  C7  UNL     1     -34.988  14.744  -5.805  1.00 20.00     0.148 C 
HETATM    8  C8  UNL     1     -34.352  13.634  -3.747  1.00 20.00     0.015 A 
HETATM    9  C9  UNL     1     -33.928  15.088  -3.622  1.00 20.00     0.052 A 
ENDROOT
BRANCH   7  10
HETATM   10  O10 UNL     1     -36.339  15.173  -5.669  1.00 20.00    -0.391 OA
HETATM   11  H20 UNL     1     -36.812  14.461  -5.210  1.00 20.00     0.210 HD
ENDBRANCH   7  10
TORSDOF 1
ENDMDL
MODEL 5
REMARK VINA RESULT:      -4.7     12.284     13.619
REMARK  1 active torsions:
REMARK  status: ('A' for Active; 'I' for Inactive)
REMARK    1  A    between atoms: C7_7  and  O10_10 
ROOT
HETATM    1  C1  UNL     1     -34.540  16.630  -0.814  1.00 20.00     0.013 C 
HETATM    2  C2  UNL     1     -34.777  16.128  -1.878  1.00 20.00    -0.102 C 
HETATM    3  C3  UNL     1     -34.043  14.779  -3.944  1.00 20.00    -0.040 C 
HETATM    4  C4  UNL     1     -33.421  13.650  -3.581  1.00 20.00     0.019 C 
HETATM    5  C5  UNL     1     -35.206  16.157  -5.543  1.00 20.00     0.043 C 
HETATM    6  C6  UNL     1     -36.518  15.253  -3.474  1.00 20.00     0.034 A 
HETATM    7  C7  UNL     1     -33.874  15.427  -5.298  1.00 20.00     0.148 C 
HETATM    8  C8  UNL     1     -35.804  16.371  -4.177  1.00 20.00     0.015 A 
HETATM    9  C9  UNL     1     -35.062  15.526  -3.156  1.00 20.00     0.052 A 
ENDROOT
BRANCH   7  10
HETATM   10  O10 UNL     1     -32.815  16.375  -5.216  1.00 20.00    -0.391 OA
HETATM   11  H20 UNL     1     -33.140  17.191  -5.629  1.00 20.00     0.210 HD
ENDBRANCH   7  10
TORSDOF 1
ENDMDL
MODEL 6
REMARK VINA RESULT:      -4.7     12.424     13.763
REMARK  1 active torsions:
REMARK  status: ('A' for Active; 'I' for Inactive)
REMARK    1  A    between atoms: C7_7  and  O10_10 
ROOT
HETATM    1  C1  UNL     1     -35.563  14.414  -7.836  1.00 20.00     0.013 C 
HETATM    2  C2  UNL     1     -35.335  14.459  -6.658  1.00 20.00    -0.102 C 
HETATM    3  C3  UNL     1     -34.585  15.745  -4.560  1.00 20.00    -0.040 C 
HETATM    4  C4  UNL     1     -35.245  16.905  -4.448  1.00 20.00     0.019 C 
HETATM    5  C5  UNL     1     -33.250  13.954  -3.656  1.00 20.00     0.043 C 
HETATM    6  C6  UNL     1     -35.708  13.448  -4.382  1.00 20.00     0.034 A 
HETATM    7  C7  UNL     1     -33.257  15.473  -3.892  1.00 20.00     0.148 C 
HETATM    8  C8  UNL     1     -34.231  13.388  -4.650  1.00 20.00     0.015 A 
HETATM    9  C9  UNL     1     -35.061  14.513  -5.244  1.00 20.00     0.052 A 
ENDROOT
BRANCH   7  10
HETATM   10  O10 UNL     1     -32.216  15.824  -4.798  1.00 20.00    -0.391 OA
HETATM   11  H20 UNL     1     -31.801  14.993  -5.079  1.00 20.00     0.210 HD
ENDBRANCH   7  10
TORSDOF 1
ENDMDL
MODEL 7
REMARK VINA RESULT:      -4.5      1.613      3.141
REMARK  1 active torsions:
REMARK  status: ('A' for Active; 'I' for Inactive)
REMARK    1  A    between atoms: C7_7  and  O10_10 
ROOT
HETATM    1  C1  UNL     1     -33.901   7.828   7.281  1.00 20.00     0.013 C 
HETATM    2  C2  UNL     1     -33.905   6.862   6.569  1.00 20.00    -0.102 C 
HETATM    3  C3  UNL     1     -33.782   5.786   4.234  1.00 20.00    -0.040 C 
HETATM    4  C4  UNL     1     -32.732   6.253   3.547  1.00 20.00     0.019 C 
HETATM    5  C5  UNL     1     -35.521   4.166   4.635  1.00 20.00     0.043 C 
HETATM    6  C6  UNL     1     -33.573   4.374   6.363  1.00 20.00     0.034 A 
HETATM    7  C7  UNL     1     -34.991   5.155   3.584  1.00 20.00     0.148 C 
HETATM    8  C8  UNL     1     -34.990   4.660   5.956  1.00 20.00     0.015 A 
HETATM    9  C9  UNL     1     -33.909   5.701   5.715  1.00 20.00     0.052 A 
ENDROOT
BRANCH   7  10
HETATM   10  O10 UNL     1     -35.960   6.173   3.351  1.00 20.00    -0.391 OA
HETATM   11  H20 UNL     1     -36.808   5.722   3.213  1.00 20.00     0.210 HD
ENDBRANCH   7  10
TORSDOF 1
ENDMDL
MODEL 8
REMARK VINA RESULT:      -4.4     12.454     13.544
REMARK  1 active torsions:
REMARK  status: ('A' for Active; 'I' for Inactive)
REMARK    1  A    between atoms: C7_7  and  O10_10 
ROOT
HETATM    1  C1  UNL     1     -37.718  14.772  -3.775  1.00 20.00     0.013 C 
HETATM    2  C2  UNL     1     -36.539  14.905  -3.593  1.00 20.00    -0.102 C 
HETATM    3  C3  UNL     1     -34.551  16.167  -2.556  1.00 20.00    -0.040 C 
HETATM    4  C4  UNL     1     -34.747  16.377  -1.248  1.00 20.00     0.019 C 
HETATM    5  C5  UNL     1     -33.142  16.021  -4.507  1.00 20.00     0.043 C 
HETATM    6  C6  UNL     1     -34.257  13.842  -3.594  1.00 20.00     0.034 A 
HETATM    7  C7  UNL     1     -33.600  16.985  -3.399  1.00 20.00     0.148 C 
HETATM    8  C8  UNL     1     -34.215  14.966  -4.590  1.00 20.00     0.015 A 
HETATM    9  C9  UNL     1     -35.124  15.065  -3.376  1.00 20.00     0.052 A 
ENDROOT
BRANCH   7  10
HETATM   10  O10 UNL     1     -34.325  18.068  -3.973  1.00 20.00    -0.391 OA
HETATM   11  H20 UNL     1     -35.229  17.749  -4.122  1.00 20.00     0.210 HD
ENDBRANCH   7  10
TORSDOF 1
ENDMDL
MODEL 9
REMARK VINA RESULT:      -4.4     12.506     13.597
REMARK  1 active torsions:
REMARK  status: ('A' for Active; 'I' for Inactive)
REMARK    1  A    between atoms: C7_7  and  O10_10 
ROOT
HETATM    1  C1  UNL     1     -34.417  14.966  -7.188  1.00 20.00     0.013 C 
HETATM    2  C2  UNL     1     -34.499  14.861  -5.995  1.00 20.00    -0.102 C 
HETATM    3  C3  UNL     1     -35.806  15.143  -3.796  1.00 20.00    -0.040 C 
HETATM    4  C4  UNL     1     -37.034  14.617  -3.899  1.00 20.00     0.019 C 
HETATM    5  C5  UNL     1     -33.933  15.958  -2.517  1.00 20.00     0.043 C 
HETATM    6  C6  UNL     1     -33.653  13.757  -3.896  1.00 20.00     0.034 A 
HETATM    7  C7  UNL     1     -35.431  16.192  -2.776  1.00 20.00     0.148 C 
HETATM    8  C8  UNL     1     -33.424  15.233  -3.736  1.00 20.00     0.015 A 
HETATM    9  C9  UNL     1     -34.597  14.736  -4.563  1.00 20.00     0.052 A 
ENDROOT
BRANCH   7  10
HETATM   10  O10 UNL     1     -35.622  17.477  -3.359  1.00 20.00    -0.391 OA
HETATM   11  H20 UNL     1     -36.505  17.471  -3.761  1.00 20.00     0.210 HD
ENDBRANCH   7  10
TORSDOF 1
ENDMDL
