MODEL 1
REMARK VINA RESULT:      -5.3      0.000      0.000
REMARK  0 active torsions:
REMARK  status: ('A' for Active; 'I' for Inactive)
ROOT
HETATM    1  C1  UNL     1     -31.823   8.314   1.811  1.00 20.00     0.012 C 
HETATM    2  C2  UNL     1     -32.286   7.510   2.573  1.00 20.00    -0.113 C 
HETATM    3  C3  UNL     1     -33.540   7.234   4.682  1.00 20.00     0.020 C 
HETATM    4  C4  UNL     1     -33.984   6.231   5.749  1.00 20.00     0.041 C 
HETATM    5  C5  UNL     1     -33.843   5.609   2.777  1.00 20.00     0.052 C 
HETATM    6  C6  UNL     1     -32.853   6.525   3.509  1.00 20.00     0.067 C 
HETATM    7  C7  UNL     1     -34.606   4.727   3.716  1.00 20.00     0.158 A 
HETATM    8  C8  UNL     1     -34.715   5.043   5.191  1.00 20.00     0.084 A 
HETATM    9  C9  UNL     1     -35.069   3.953   6.151  1.00 20.00     0.049 C 
HETATM   10  O10 UNL     1     -35.770   5.362   4.278  1.00 20.00    -0.370 OA
ENDROOT
TORSDOF 0
ENDMDL
MODEL 2
REMARK VINA RESULT:      -4.7     11.797     12.802
REMARK  0 active torsions:
REMARK  status: ('A' for Active; 'I' for Inactive)
ROOT
HETATM    1  C1  UNL     1     -34.721  16.859  -0.241  1.00 20.00     0.012 C 
HETATM    2  C2  UNL     1     -34.742  16.619  -1.417  1.00 20.00    -0.113 C 
HETATM    3  C3  UNL     1     -33.342  16.132  -3.392  1.00 20.00     0.020 C 
HETATM    4  C4  UNL     1     -33.335  15.997  -4.916  1.00 20.00     0.041 C 
HETATM    5  C5  UNL     1     -35.619  15.080  -3.132  1.00 20.00     0.052 C 
HETATM    6  C6  UNL     1     -34.767  16.326  -2.860  1.00 20.00     0.067 C 
HETATM    7  C7  UNL     1     -35.510  14.612  -4.550  1.00 20.00     0.158 A 
HETATM    8  C8  UNL     1     -34.360  15.031  -5.438  1.00 20.00     0.084 A 
HETATM    9  C9  UNL     1     -34.508  14.939  -6.923  1.00 20.00     0.049 C 
HETATM   10  O10 UNL     1     -34.373  13.759  -4.784  1.00 20.00    -0.370 OA
ENDROOT
TORSDOF 0
ENDMDL
MODEL 3
REMARK VINA RESULT:      -4.6     12.209     13.135
REMARK  0 active torsions:
REMARK  status: ('A' for Active; 'I' for Inactive)
ROOT
HETATM    1  C1  UNL     1     -34.761  17.071  -0.025  1.00 20.00     0.012 C 
HETATM    2  C2  UNL     1     -34.648  16.571  -1.111  1.00 20.00    -0.113 C 
HETATM    3  C3  UNL     1     -35.888  15.586  -3.007  1.00 20.00     0.020 C 
HETATM    4  C4  UNL     1     -35.755  14.794  -4.309  1.00 20.00     0.041 C 
HETATM    5  C5  UNL     1     -33.778  16.913  -3.393  1.00 20.00     0.052 C 
HETATM    6  C6  UNL     1     -34.510  15.957  -2.442  1.00 20.00     0.067 C 
HETATM    7  C7  UNL     1     -33.794  16.433  -4.811  1.00 20.00     0.158 A 
HETATM    8  C8  UNL     1     -34.796  15.405  -5.290  1.00 20.00     0.084 A 
HETATM    9  C9  UNL     1     -34.509  14.626  -6.533  1.00 20.00     0.049 C 
HETATM   10  O10 UNL     1     -34.988  16.803  -5.526  1.00 20.00    -0.370 OA
ENDROOT
TORSDOF 0
ENDMDL
MODEL 4
REMARK VINA RESULT:      -4.5     12.210     13.402
REMARK  0 active torsions:
REMARK  status: ('A' for Active; 'I' for Inactive)
ROOT
HETATM    1  C1  UNL     1     -34.791  17.040  -0.038  1.00 20.00     0.012 C 
HETATM    2  C2  UNL     1     -34.758  16.644  -1.171  1.00 20.00    -0.113 C 
HETATM    3  C3  UNL     1     -35.314  17.204  -3.511  1.00 20.00     0.020 C 
HETATM    4  C4  UNL     1     -35.439  16.651  -4.931  1.00 20.00     0.041 C 
HETATM    5  C5  UNL     1     -33.277  15.821  -2.963  1.00 20.00     0.052 C 
HETATM    6  C6  UNL     1     -34.719  16.158  -2.560  1.00 20.00     0.067 C 
HETATM    7  C7  UNL     1     -33.147  15.524  -4.424  1.00 20.00     0.158 A 
HETATM    8  C8  UNL     1     -34.197  15.963  -5.420  1.00 20.00     0.084 A 
HETATM    9  C9  UNL     1     -34.279  15.280  -6.748  1.00 20.00     0.049 C 
HETATM   10  O10 UNL     1     -32.987  16.704  -5.235  1.00 20.00    -0.370 OA
ENDROOT
TORSDOF 0
ENDMDL
MODEL 5
REMARK VINA RESULT:      -4.4     12.145     13.437
REMARK  0 active torsions:
REMARK  status: ('A' for Active; 'I' for Inactive)
ROOT
HETATM    1  C1  UNL     1     -34.595  18.183   1.482  1.00 20.00     0.012 C 
HETATM    2  C2  UNL     1     -34.253  17.871   0.374  1.00 20.00    -0.113 C 
HETATM    3  C3  UNL     1     -34.640  16.280  -1.475  1.00 20.00     0.020 C 
HETATM    4  C4  UNL     1     -34.102  15.762  -2.810  1.00 20.00     0.041 C 
HETATM    5  C5  UNL     1     -34.001  18.674  -1.944  1.00 20.00     0.052 C 
HETATM    6  C6  UNL     1     -33.833  17.489  -0.985  1.00 20.00     0.067 C 
HETATM    7  C7  UNL     1     -33.791  18.285  -3.375  1.00 20.00     0.158 A 
HETATM    8  C8  UNL     1     -33.874  16.844  -3.826  1.00 20.00     0.084 A 
HETATM    9  C9  UNL     1     -33.226  16.440  -5.112  1.00 20.00     0.049 C 
HETATM   10  O10 UNL     1     -34.971  17.746  -4.000  1.00 20.00    -0.370 OA
ENDROOT
TORSDOF 0
ENDMDL
MODEL 6
REMARK VINA RESULT:      -4.1      9.664     10.856
REMARK  0 active torsions:
REMARK  status: ('A' for Active; 'I' for Inactive)
ROOT
HETATM    1  C1  UNL     1     -41.654   1.463  -3.631  1.00 20.00     0.012 C 
HETATM    2  C2  UNL     1     -41.887   2.488  -3.051  1.00 20.00    -0.113 C 
HETATM    3  C3  UNL     1     -40.908   4.269  -1.649  1.00 20.00     0.020 C 
HETATM    4  C4  UNL     1     -41.222   5.478  -0.766  1.00 20.00     0.041 C 
HETATM    5  C5  UNL     1     -42.728   4.791  -3.315  1.00 20.00     0.052 C 
HETATM    6  C6  UNL     1     -42.173   3.745  -2.339  1.00 20.00     0.067 C 
HETATM    7  C7  UNL     1     -42.839   6.149  -2.694  1.00 20.00     0.158 A 
HETATM    8  C8  UNL     1     -42.067   6.517  -1.446  1.00 20.00     0.084 A 
HETATM    9  C9  UNL     1     -42.529   7.668  -0.610  1.00 20.00     0.049 C 
HETATM   10  O10 UNL     1     -41.613   6.903  -2.746  1.00 20.00    -0.370 OA
ENDROOT
TORSDOF 0
ENDMDL
MODEL 7
REMARK VINA RESULT:      -4.1     11.755     13.200
REMARK  0 active torsions:
REMARK  status: ('A' for Active; 'I' for Inactive)
ROOT
HETATM    1  C1  UNL     1     -35.550  14.446  -7.885  1.00 20.00     0.012 C 
HETATM    2  C2  UNL     1     -35.504  14.748  -6.724  1.00 20.00    -0.113 C 
HETATM    3  C3  UNL     1     -34.188  14.537  -4.645  1.00 20.00     0.020 C 
HETATM    4  C4  UNL     1     -34.199  14.764  -3.132  1.00 20.00     0.041 C 
HETATM    5  C5  UNL     1     -35.480  16.644  -5.147  1.00 20.00     0.052 C 
HETATM    6  C6  UNL     1     -35.448  15.118  -5.300  1.00 20.00     0.067 C 
HETATM    7  C7  UNL     1     -35.214  17.084  -3.741  1.00 20.00     0.158 A 
HETATM    8  C8  UNL     1     -34.545  16.172  -2.738  1.00 20.00     0.084 A 
HETATM    9  C9  UNL     1     -34.705  16.446  -1.276  1.00 20.00     0.049 C 
HETATM   10  O10 UNL     1     -33.812  17.186  -3.430  1.00 20.00    -0.370 OA
ENDROOT
TORSDOF 0
ENDMDL
MODEL 8
REMARK VINA RESULT:      -4.0     11.015     12.707
REMARK  0 active torsions:
REMARK  status: ('A' for Active; 'I' for Inactive)
ROOT
HETATM    1  C1  UNL     1     -38.730  16.361  -6.027  1.00 20.00     0.012 C 
HETATM    2  C2  UNL     1     -37.657  16.008  -5.622  1.00 20.00    -0.113 C 
HETATM    3  C3  UNL     1     -36.423  15.211  -3.636  1.00 20.00     0.020 C 
HETATM    4  C4  UNL     1     -35.034  14.925  -3.061  1.00 20.00     0.041 C 
HETATM    5  C5  UNL     1     -35.831  14.380  -5.943  1.00 20.00     0.052 C 
HETATM    6  C6  UNL     1     -36.340  15.574  -5.124  1.00 20.00     0.067 C 
HETATM    7  C7  UNL     1     -34.601  13.765  -5.352  1.00 20.00     0.158 A 
HETATM    8  C8  UNL     1     -34.211  13.998  -3.909  1.00 20.00     0.084 A 
HETATM    9  C9  UNL     1     -32.796  13.770  -3.486  1.00 20.00     0.049 C 
HETATM   10  O10 UNL     1     -34.883  12.803  -4.318  1.00 20.00    -0.370 OA
ENDROOT
TORSDOF 0
ENDMDL
MODEL 9
REMARK VINA RESULT:      -4.0     11.888     12.717
REMARK  0 active torsions:
REMARK  status: ('A' for Active; 'I' for Inactive)
ROOT
HETATM    1  C1  UNL     1     -34.472  13.349  -4.686  1.00 20.00     0.012 C 
HETATM    2  C2  UNL     1     -34.863  14.165  -3.897  1.00 20.00    -0.113 C 
HETATM    3  C3  UNL     1     -34.158  15.865  -2.250  1.00 20.00     0.020 C 
HETATM    4  C4  UNL     1     -34.633  16.783  -1.122  1.00 20.00     0.041 C 
HETATM    5  C5  UNL     1     -36.243  16.193  -3.632  1.00 20.00     0.052 C 
HETATM    6  C6  UNL     1     -35.343  15.167  -2.930  1.00 20.00     0.067 C 
HETATM    7  C7  UNL     1     -36.588  17.350  -2.747  1.00 20.00     0.158 A 
HETATM    8  C8  UNL     1     -35.774  17.677  -1.515  1.00 20.00     0.084 A 
HETATM    9  C9  UNL     1     -36.383  18.512  -0.434  1.00 20.00     0.049 C 
HETATM   10  O10 UNL     1     -35.587  18.385  -2.744  1.00 20.00    -0.370 OA
ENDROOT
TORSDOF 0
ENDMDL
