MODEL 1
REMARK VINA RESULT:      -4.6      0.000      0.000
REMARK  2 active torsions:
REMARK  status: ('A' for Active; 'I' for Inactive)
REMARK    1  A    between atoms: C7_7  and  C9_9 
REMARK    2  A    between atoms: C8_8  and  C10_10 
ROOT
HETATM    1  C1  UNL     1     -33.369  13.901  -3.780  1.00 20.00     0.005 C 
HETATM    2  C2  UNL     1     -34.901  13.644  -3.824  1.00 20.00     0.005 C 
HETATM    3  C3  UNL     1     -33.596  16.143  -2.735  1.00 20.00     0.005 C 
HETATM    4  C4  UNL     1     -35.008  15.633  -2.338  1.00 20.00     0.005 C 
HETATM    5  C7  UNL     1     -33.106  15.417  -4.006  1.00 20.00    -0.010 C 
HETATM    6  C8  UNL     1     -35.668  14.961  -3.576  1.00 20.00    -0.010 C 
ENDROOT
BRANCH   5   7
HETATM    7  C9  UNL     1     -33.971  15.758  -5.228  1.00 20.00    -0.006 C 
HETATM    8  C5  UNL     1     -34.068  15.551  -6.765  1.00 20.00     0.006 C 
HETATM    9  C6  UNL     1     -34.695  17.014  -6.743  1.00 20.00     0.006 C 
HETATM   10  C10 UNL     1     -33.660  17.253  -5.608  1.00 20.00    -0.006 C 
ENDBRANCH   5   7
TORSDOF 2
ENDMDL
MODEL 2
REMARK VINA RESULT:      -4.4      0.921      2.503
REMARK  2 active torsions:
REMARK  status: ('A' for Active; 'I' for Inactive)
REMARK    1  A    between atoms: C7_7  and  C9_9 
REMARK    2  A    between atoms: C8_8  and  C10_10 
ROOT
HETATM    1  C1  UNL     1     -35.489  15.313  -2.985  1.00 20.00     0.005 C 
HETATM    2  C2  UNL     1     -34.063  15.919  -2.864  1.00 20.00     0.005 C 
HETATM    3  C3  UNL     1     -34.723  13.310  -4.240  1.00 20.00     0.005 C 
HETATM    4  C4  UNL     1     -33.333  13.679  -3.655  1.00 20.00     0.005 C 
HETATM    5  C7  UNL     1     -35.607  14.571  -4.348  1.00 20.00    -0.010 C 
HETATM    6  C8  UNL     1     -33.099  15.207  -3.837  1.00 20.00    -0.010 C 
ENDROOT
BRANCH   5   7
HETATM    7  C9  UNL     1     -35.043  15.579  -5.360  1.00 20.00    -0.006 C 
HETATM    8  C5  UNL     1     -35.413  16.859  -6.160  1.00 20.00     0.006 C 
HETATM    9  C6  UNL     1     -34.470  16.222  -7.272  1.00 20.00     0.006 C 
HETATM   10  C10 UNL     1     -35.074  14.881  -6.769  1.00 20.00    -0.006 C 
ENDBRANCH   5   7
TORSDOF 2
ENDMDL
MODEL 3
REMARK VINA RESULT:      -4.3      1.471      3.685
REMARK  2 active torsions:
REMARK  status: ('A' for Active; 'I' for Inactive)
REMARK    1  A    between atoms: C7_7  and  C9_9 
REMARK    2  A    between atoms: C8_8  and  C10_10 
ROOT
HETATM    1  C1  UNL     1     -35.545  14.874  -3.614  1.00 20.00     0.005 C 
HETATM    2  C2  UNL     1     -34.142  14.229  -3.435  1.00 20.00     0.005 C 
HETATM    3  C3  UNL     1     -34.664  16.902  -4.746  1.00 20.00     0.005 C 
HETATM    4  C4  UNL     1     -33.416  16.015  -5.004  1.00 20.00     0.005 C 
HETATM    5  C7  UNL     1     -35.410  16.418  -3.484  1.00 20.00    -0.010 C 
HETATM    6  C8  UNL     1     -33.039  15.281  -3.685  1.00 20.00    -0.010 C 
ENDROOT
BRANCH   5   7
HETATM    7  C9  UNL     1     -34.566  16.604  -2.216  1.00 20.00    -0.006 C 
HETATM    8  C5  UNL     1     -34.664  16.642  -0.665  1.00 20.00     0.006 C 
HETATM    9  C6  UNL     1     -33.505  17.724  -0.795  1.00 20.00     0.006 C 
HETATM   10  C10 UNL     1     -34.278  18.144  -2.076  1.00 20.00    -0.006 C 
ENDBRANCH   5   7
TORSDOF 2
ENDMDL
MODEL 4
REMARK VINA RESULT:      -4.3      1.160      3.107
REMARK  2 active torsions:
REMARK  status: ('A' for Active; 'I' for Inactive)
REMARK    1  A    between atoms: C7_7  and  C9_9 
REMARK    2  A    between atoms: C8_8  and  C10_10 
ROOT
HETATM    1  C1  UNL     1     -34.035  15.761  -5.426  1.00 20.00     0.005 C 
HETATM    2  C2  UNL     1     -35.202  14.781  -5.120  1.00 20.00     0.005 C 
HETATM    3  C3  UNL     1     -32.537  14.798  -3.694  1.00 20.00     0.005 C 
HETATM    4  C4  UNL     1     -33.484  13.570  -3.793  1.00 20.00     0.005 C 
HETATM    5  C7  UNL     1     -33.288  16.083  -4.100  1.00 20.00    -0.010 C 
HETATM    6  C8  UNL     1     -34.958  14.069  -3.772  1.00 20.00    -0.010 C 
ENDROOT
BRANCH   5   7
HETATM    7  C9  UNL     1     -34.419  16.418  -3.118  1.00 20.00    -0.006 C 
HETATM    8  C5  UNL     1     -35.435  17.534  -2.742  1.00 20.00     0.006 C 
HETATM    9  C6  UNL     1     -35.205  16.998  -1.262  1.00 20.00     0.006 C 
HETATM   10  C10 UNL     1     -33.743  16.793  -1.748  1.00 20.00    -0.006 C 
ENDBRANCH   5   7
TORSDOF 2
ENDMDL
MODEL 5
REMARK VINA RESULT:      -4.2      1.354      2.773
REMARK  2 active torsions:
REMARK  status: ('A' for Active; 'I' for Inactive)
REMARK    1  A    between atoms: C7_7  and  C9_9 
REMARK    2  A    between atoms: C8_8  and  C10_10 
ROOT
HETATM    1  C1  UNL     1     -33.509  16.772  -2.339  1.00 20.00     0.005 C 
HETATM    2  C2  UNL     1     -34.797  16.261  -1.634  1.00 20.00     0.005 C 
HETATM    3  C3  UNL     1     -34.694  17.417  -4.425  1.00 20.00     0.005 C 
HETATM    4  C4  UNL     1     -35.957  17.388  -3.521  1.00 20.00     0.005 C 
HETATM    5  C7  UNL     1     -33.615  16.469  -3.861  1.00 20.00    -0.010 C 
HETATM    6  C8  UNL     1     -35.934  16.089  -2.664  1.00 20.00    -0.010 C 
ENDROOT
BRANCH   5   7
HETATM    7  C9  UNL     1     -34.061  15.001  -3.910  1.00 20.00    -0.006 C 
HETATM    8  C5  UNL     1     -33.522  13.546  -3.825  1.00 20.00     0.006 C 
HETATM    9  C6  UNL     1     -34.686  13.243  -4.867  1.00 20.00     0.006 C 
HETATM   10  C10 UNL     1     -34.321  14.649  -5.420  1.00 20.00    -0.006 C 
ENDBRANCH   5   7
TORSDOF 2
ENDMDL
MODEL 6
REMARK VINA RESULT:      -4.1      1.379      3.241
REMARK  2 active torsions:
REMARK  status: ('A' for Active; 'I' for Inactive)
REMARK    1  A    between atoms: C7_7  and  C9_9 
REMARK    2  A    between atoms: C8_8  and  C10_10 
ROOT
HETATM    1  C1  UNL     1     -34.930  13.490  -5.295  1.00 20.00     0.005 C 
HETATM    2  C2  UNL     1     -34.768  14.673  -6.290  1.00 20.00     0.005 C 
HETATM    3  C3  UNL     1     -36.907  14.482  -4.163  1.00 20.00     0.005 C 
HETATM    4  C4  UNL     1     -37.015  15.333  -5.458  1.00 20.00     0.005 C 
HETATM    5  C7  UNL     1     -35.445  14.044  -3.935  1.00 20.00    -0.010 C 
HETATM    6  C8  UNL     1     -35.605  15.882  -5.819  1.00 20.00    -0.010 C 
ENDROOT
BRANCH   5   7
HETATM    7  C9  UNL     1     -34.526  15.242  -3.659  1.00 20.00    -0.006 C 
HETATM    8  C5  UNL     1     -33.082  15.611  -3.218  1.00 20.00     0.006 C 
HETATM    9  C6  UNL     1     -33.801  16.850  -2.524  1.00 20.00     0.006 C 
HETATM   10  C10 UNL     1     -34.933  15.820  -2.254  1.00 20.00    -0.006 C 
ENDBRANCH   5   7
TORSDOF 2
ENDMDL
MODEL 7
REMARK VINA RESULT:      -4.1     11.750     13.832
REMARK  2 active torsions:
REMARK  status: ('A' for Active; 'I' for Inactive)
REMARK    1  A    between atoms: C7_7  and  C9_9 
REMARK    2  A    between atoms: C8_8  and  C10_10 
ROOT
HETATM    1  C1  UNL     1     -42.641   5.396   0.816  1.00 20.00     0.005 C 
HETATM    2  C2  UNL     1     -43.393   6.441  -0.055  1.00 20.00     0.005 C 
HETATM    3  C3  UNL     1     -40.480   5.698  -0.373  1.00 20.00     0.005 C 
HETATM    4  C4  UNL     1     -41.111   7.042  -0.833  1.00 20.00     0.005 C 
HETATM    5  C7  UNL     1     -41.588   4.668  -0.069  1.00 20.00    -0.010 C 
HETATM    6  C8  UNL     1     -42.566   6.777  -1.315  1.00 20.00    -0.010 C 
ENDROOT
BRANCH   5   7
HETATM    7  C9  UNL     1     -42.375   4.286  -1.330  1.00 20.00    -0.006 C 
HETATM    8  C5  UNL     1     -43.414   3.264  -1.872  1.00 20.00     0.006 C 
HETATM    9  C6  UNL     1     -42.605   3.433  -3.232  1.00 20.00     0.006 C 
HETATM   10  C10 UNL     1     -41.376   3.538  -2.287  1.00 20.00    -0.006 C 
ENDBRANCH   5   7
TORSDOF 2
ENDMDL
MODEL 8
REMARK VINA RESULT:      -4.1      1.415      3.731
REMARK  2 active torsions:
REMARK  status: ('A' for Active; 'I' for Inactive)
REMARK    1  A    between atoms: C7_7  and  C9_9 
REMARK    2  A    between atoms: C8_8  and  C10_10 
ROOT
HETATM    1  C1  UNL     1     -36.725  15.372  -6.240  1.00 20.00     0.005 C 
HETATM    2  C2  UNL     1     -35.903  14.623  -7.326  1.00 20.00     0.005 C 
HETATM    3  C3  UNL     1     -34.948  17.051  -5.800  1.00 20.00     0.005 C 
HETATM    4  C4  UNL     1     -34.417  16.610  -7.192  1.00 20.00     0.005 C 
HETATM    5  C7  UNL     1     -35.751  15.905  -5.150  1.00 20.00    -0.010 C 
HETATM    6  C8  UNL     1     -34.423  15.056  -7.264  1.00 20.00    -0.010 C 
ENDROOT
BRANCH   5   7
HETATM    7  C9  UNL     1     -34.864  14.694  -4.832  1.00 20.00    -0.006 C 
HETATM    8  C5  UNL     1     -34.873  13.313  -4.119  1.00 20.00     0.006 C 
HETATM    9  C6  UNL     1     -33.359  13.671  -3.789  1.00 20.00     0.006 C 
HETATM   10  C10 UNL     1     -33.911  15.117  -3.654  1.00 20.00    -0.006 C 
ENDBRANCH   5   7
TORSDOF 2
ENDMDL
MODEL 9
REMARK VINA RESULT:      -4.1      1.858      4.076
REMARK  2 active torsions:
REMARK  status: ('A' for Active; 'I' for Inactive)
REMARK    1  A    between atoms: C7_7  and  C9_9 
REMARK    2  A    between atoms: C8_8  and  C10_10 
ROOT
HETATM    1  C1  UNL     1     -33.240  16.074  -3.951  1.00 20.00     0.005 C 
HETATM    2  C2  UNL     1     -33.751  17.432  -4.508  1.00 20.00     0.005 C 
HETATM    3  C3  UNL     1     -35.479  15.358  -3.148  1.00 20.00     0.005 C 
HETATM    4  C4  UNL     1     -35.997  16.432  -4.144  1.00 20.00     0.005 C 
HETATM    5  C7  UNL     1     -34.054  15.714  -2.675  1.00 20.00    -0.010 C 
HETATM    6  C8  UNL     1     -35.163  17.732  -3.960  1.00 20.00    -0.010 C 
ENDROOT
BRANCH   5   7
HETATM    7  C9  UNL     1     -34.033  17.010  -1.853  1.00 20.00    -0.006 C 
HETATM    8  C5  UNL     1     -33.114  17.884  -0.954  1.00 20.00     0.006 C 
HETATM    9  C6  UNL     1     -34.469  18.199  -0.181  1.00 20.00     0.006 C 
HETATM   10  C10 UNL     1     -34.799  16.717  -0.511  1.00 20.00    -0.006 C 
ENDBRANCH   5   7
TORSDOF 2
ENDMDL
