MODEL 1
REMARK VINA RESULT:      -2.9      0.000      0.000
REMARK  0 active torsions:
REMARK  status: ('A' for Active; 'I' for Inactive)
ROOT
HETATM    1  C1  UNL     1     -35.204   4.692   5.166  1.00 20.00     0.128 C 
HETATM    2  C2  UNL     1     -34.561   5.431   6.290  1.00 20.00     0.234 C 
HETATM    3  N3  UNL     1     -34.902   5.016   3.957  1.00 20.00    -0.203 NA
HETATM    4  O4  UNL     1     -33.848   6.486   5.669  1.00 20.00    -0.295 OA
HETATM    5  S5  UNL     1     -33.789   6.267   4.017  1.00 20.00     0.137 SA
ENDROOT
TORSDOF 0
ENDMDL
MODEL 2
REMARK VINA RESULT:      -2.9      1.692      1.876
REMARK  0 active torsions:
REMARK  status: ('A' for Active; 'I' for Inactive)
ROOT
HETATM    1  C1  UNL     1     -34.329   5.639   6.232  1.00 20.00     0.128 C 
HETATM    2  C2  UNL     1     -35.092   4.371   6.047  1.00 20.00     0.234 C 
HETATM    3  N3  UNL     1     -34.015   6.332   5.192  1.00 20.00    -0.203 NA
HETATM    4  O4  UNL     1     -35.135   4.175   4.645  1.00 20.00    -0.295 OA
HETATM    5  S5  UNL     1     -34.609   5.538   3.841  1.00 20.00     0.137 SA
ENDROOT
TORSDOF 0
ENDMDL
MODEL 3
REMARK VINA RESULT:      -2.9      1.675      1.838
REMARK  0 active torsions:
REMARK  status: ('A' for Active; 'I' for Inactive)
ROOT
HETATM    1  C1  UNL     1     -35.177   4.560   4.792  1.00 20.00     0.128 C 
HETATM    2  C2  UNL     1     -34.607   5.509   3.793  1.00 20.00     0.234 C 
HETATM    3  N3  UNL     1     -35.005   4.799   6.045  1.00 20.00    -0.203 NA
HETATM    4  O4  UNL     1     -33.829   6.414   4.557  1.00 20.00    -0.295 OA
HETATM    5  S5  UNL     1     -34.125   6.218   6.186  1.00 20.00     0.137 SA
ENDROOT
TORSDOF 0
ENDMDL
MODEL 4
REMARK VINA RESULT:      -2.8      2.380      2.556
REMARK  0 active torsions:
REMARK  status: ('A' for Active; 'I' for Inactive)
ROOT
HETATM    1  C1  UNL     1     -33.941   6.337   4.455  1.00 20.00     0.128 C 
HETATM    2  C2  UNL     1     -34.649   5.380   3.557  1.00 20.00     0.234 C 
HETATM    3  N3  UNL     1     -33.976   6.138   5.727  1.00 20.00    -0.203 NA
HETATM    4  O4  UNL     1     -35.360   4.521   4.432  1.00 20.00    -0.295 OA
HETATM    5  S5  UNL     1     -34.874   4.751   6.010  1.00 20.00     0.137 SA
ENDROOT
TORSDOF 0
ENDMDL
MODEL 5
REMARK VINA RESULT:      -2.5     12.512     12.553
REMARK  0 active torsions:
REMARK  status: ('A' for Active; 'I' for Inactive)
ROOT
HETATM    1  C1  UNL     1     -33.726  13.454  -4.024  1.00 20.00     0.128 C 
HETATM    2  C2  UNL     1     -33.617  14.913  -3.736  1.00 20.00     0.234 C 
HETATM    3  N3  UNL     1     -34.886  12.955  -4.275  1.00 20.00    -0.203 NA
HETATM    4  O4  UNL     1     -34.957  15.367  -3.656  1.00 20.00    -0.295 OA
HETATM    5  S5  UNL     1     -36.011  14.195  -4.199  1.00 20.00     0.137 SA
ENDROOT
TORSDOF 0
ENDMDL
MODEL 6
REMARK VINA RESULT:      -2.5     13.010     13.103
REMARK  0 active torsions:
REMARK  status: ('A' for Active; 'I' for Inactive)
ROOT
HETATM    1  C1  UNL     1     -34.694  13.171  -4.832  1.00 20.00     0.128 C 
HETATM    2  C2  UNL     1     -34.804  14.311  -5.787  1.00 20.00     0.234 C 
HETATM    3  N3  UNL     1     -34.011  13.329  -3.752  1.00 20.00    -0.203 NA
HETATM    4  O4  UNL     1     -33.922  15.296  -5.278  1.00 20.00    -0.295 OA
HETATM    5  S5  UNL     1     -33.406  14.893  -3.745  1.00 20.00     0.137 SA
ENDROOT
TORSDOF 0
ENDMDL
MODEL 7
REMARK VINA RESULT:      -2.4     12.995     13.027
REMARK  0 active torsions:
REMARK  status: ('A' for Active; 'I' for Inactive)
ROOT
HETATM    1  C1  UNL     1     -33.659  15.511  -4.550  1.00 20.00     0.128 C 
HETATM    2  C2  UNL     1     -32.862  14.676  -3.607  1.00 20.00     0.234 C 
HETATM    3  N3  UNL     1     -34.622  14.960  -5.205  1.00 20.00    -0.203 NA
HETATM    4  O4  UNL     1     -33.319  13.352  -3.819  1.00 20.00    -0.295 OA
HETATM    5  S5  UNL     1     -34.695  13.346  -4.761  1.00 20.00     0.137 SA
ENDROOT
TORSDOF 0
ENDMDL
MODEL 8
REMARK VINA RESULT:      -2.4     12.369     12.442
REMARK  0 active torsions:
REMARK  status: ('A' for Active; 'I' for Inactive)
ROOT
HETATM    1  C1  UNL     1     -35.492  15.043  -3.466  1.00 20.00     0.128 C 
HETATM    2  C2  UNL     1     -36.056  13.873  -4.198  1.00 20.00     0.234 C 
HETATM    3  N3  UNL     1     -34.235  15.053  -3.185  1.00 20.00    -0.203 NA
HETATM    4  O4  UNL     1     -34.994  12.936  -4.255  1.00 20.00    -0.295 OA
HETATM    5  S5  UNL     1     -33.560  13.638  -3.777  1.00 20.00     0.137 SA
ENDROOT
TORSDOF 0
ENDMDL
MODEL 9
REMARK VINA RESULT:      -2.4     12.956     13.045
REMARK  0 active torsions:
REMARK  status: ('A' for Active; 'I' for Inactive)
ROOT
HETATM    1  C1  UNL     1     -34.667  14.418  -5.575  1.00 20.00     0.128 C 
HETATM    2  C2  UNL     1     -34.715  13.130  -4.827  1.00 20.00     0.234 C 
HETATM    3  N3  UNL     1     -33.963  15.387  -5.101  1.00 20.00    -0.203 NA
HETATM    4  O4  UNL     1     -34.039  13.393  -3.609  1.00 20.00    -0.295 OA
HETATM    5  S5  UNL     1     -33.256  14.864  -3.674  1.00 20.00     0.137 SA
ENDROOT
TORSDOF 0
ENDMDL
