MODEL 1
REMARK VINA RESULT:      -4.9      0.000      0.000
REMARK  0 active torsions:
REMARK  status: ('A' for Active; 'I' for Inactive)
ROOT
HETATM    1  C1  UNL     1     -33.894   6.491   6.223  1.00 20.00     0.023 C 
HETATM    2  C2  UNL     1     -31.673   7.204   3.435  1.00 20.00     0.017 A 
HETATM    3  C3  UNL     1     -33.601   5.732   2.740  1.00 20.00     0.012 C 
HETATM    4  C4  UNL     1     -34.756   5.373   6.668  1.00 20.00     0.110 C 
HETATM    5  C5  UNL     1     -32.778   7.312   4.142  1.00 20.00     0.010 A 
HETATM    6  C6  UNL     1     -32.839   6.843   2.703  1.00 20.00    -0.008 A 
HETATM    7  C7  UNL     1     -33.442   6.336   4.979  1.00 20.00    -0.061 C 
HETATM    8  C8  UNL     1     -35.227   4.733   4.459  1.00 20.00     0.158 C 
HETATM    9  C9  UNL     1     -33.804   5.169   4.115  1.00 20.00     0.040 C 
HETATM   10  N10 UNL     1     -35.383   4.532   5.915  1.00 20.00    -0.301 NA
ENDROOT
TORSDOF 0
ENDMDL
MODEL 2
REMARK VINA RESULT:      -4.8      1.725      3.912
REMARK  0 active torsions:
REMARK  status: ('A' for Active; 'I' for Inactive)
ROOT
HETATM    1  C1  UNL     1     -33.917   5.445   2.778  1.00 20.00     0.023 C 
HETATM    2  C2  UNL     1     -35.160   4.041   5.893  1.00 20.00     0.017 A 
HETATM    3  C3  UNL     1     -33.985   6.243   6.265  1.00 20.00     0.012 C 
HETATM    4  C4  UNL     1     -32.768   6.266   2.339  1.00 20.00     0.110 C 
HETATM    5  C5  UNL     1     -35.151   4.880   4.879  1.00 20.00     0.010 A 
HETATM    6  C6  UNL     1     -35.036   5.401   6.296  1.00 20.00    -0.008 A 
HETATM    7  C7  UNL     1     -34.038   5.386   4.104  1.00 20.00    -0.061 C 
HETATM    8  C8  UNL     1     -32.687   7.417   4.384  1.00 20.00     0.158 C 
HETATM    9  C9  UNL     1     -33.125   6.110   5.043  1.00 20.00     0.040 C 
HETATM   10  N10 UNL     1     -32.157   7.174   3.025  1.00 20.00    -0.301 NA
ENDROOT
TORSDOF 0
ENDMDL
MODEL 3
REMARK VINA RESULT:      -4.6      0.746      2.074
REMARK  0 active torsions:
REMARK  status: ('A' for Active; 'I' for Inactive)
ROOT
HETATM    1  C1  UNL     1     -34.524   5.086   3.352  1.00 20.00     0.023 C 
HETATM    2  C2  UNL     1     -32.234   7.741   2.391  1.00 20.00     0.017 A 
HETATM    3  C3  UNL     1     -32.246   7.377   4.887  1.00 20.00     0.012 C 
HETATM    4  C4  UNL     1     -35.400   4.770   4.502  1.00 20.00     0.110 C 
HETATM    5  C5  UNL     1     -32.560   6.535   2.806  1.00 20.00     0.010 A 
HETATM    6  C6  UNL     1     -31.683   7.423   3.664  1.00 20.00    -0.008 A 
HETATM    7  C7  UNL     1     -33.696   6.102   3.593  1.00 20.00    -0.061 C 
HETATM    8  C8  UNL     1     -33.947   5.820   6.018  1.00 20.00     0.158 C 
HETATM    9  C9  UNL     1     -33.638   6.819   4.905  1.00 20.00     0.040 C 
HETATM   10  N10 UNL     1     -35.198   5.084   5.738  1.00 20.00    -0.301 NA
ENDROOT
TORSDOF 0
ENDMDL
MODEL 4
REMARK VINA RESULT:      -4.4     12.105     13.408
REMARK  0 active torsions:
REMARK  status: ('A' for Active; 'I' for Inactive)
ROOT
HETATM    1  C1  UNL     1     -33.992  16.273  -2.369  1.00 20.00     0.023 C 
HETATM    2  C2  UNL     1     -35.270  13.369  -4.142  1.00 20.00     0.017 A 
HETATM    3  C3  UNL     1     -34.302  15.078  -5.726  1.00 20.00     0.012 C 
HETATM    4  C4  UNL     1     -33.864  17.727  -2.615  1.00 20.00     0.110 C 
HETATM    5  C5  UNL     1     -34.335  14.156  -3.655  1.00 20.00     0.010 A 
HETATM    6  C6  UNL     1     -34.386  13.867  -5.141  1.00 20.00    -0.008 A 
HETATM    7  C7  UNL     1     -34.341  15.590  -3.459  1.00 20.00    -0.061 C 
HETATM    8  C8  UNL     1     -33.579  17.408  -4.923  1.00 20.00     0.158 C 
HETATM    9  C9  UNL     1     -34.544  16.230  -4.797  1.00 20.00     0.040 C 
HETATM   10  N10 UNL     1     -33.684  18.307  -3.754  1.00 20.00    -0.301 NA
ENDROOT
TORSDOF 0
ENDMDL
MODEL 5
REMARK VINA RESULT:      -4.4     11.684     13.174
REMARK  0 active torsions:
REMARK  status: ('A' for Active; 'I' for Inactive)
ROOT
HETATM    1  C1  UNL     1     -34.471  15.014  -5.938  1.00 20.00     0.023 C 
HETATM    2  C2  UNL     1     -34.479  18.052  -3.941  1.00 20.00     0.017 A 
HETATM    3  C3  UNL     1     -34.025  16.010  -2.531  1.00 20.00     0.012 C 
HETATM    4  C4  UNL     1     -34.837  13.593  -5.754  1.00 20.00     0.110 C 
HETATM    5  C5  UNL     1     -33.929  17.026  -4.555  1.00 20.00     0.010 A 
HETATM    6  C6  UNL     1     -33.735  17.212  -3.064  1.00 20.00    -0.008 A 
HETATM    7  C7  UNL     1     -34.454  15.699  -4.794  1.00 20.00    -0.061 C 
HETATM    8  C8  UNL     1     -34.243  13.634  -3.484  1.00 20.00     0.158 C 
HETATM    9  C9  UNL     1     -34.741  15.078  -3.463  1.00 20.00     0.040 C 
HETATM   10  N10 UNL     1     -34.765  12.909  -4.661  1.00 20.00    -0.301 NA
ENDROOT
TORSDOF 0
ENDMDL
MODEL 6
REMARK VINA RESULT:      -4.4     12.456     13.987
REMARK  0 active torsions:
REMARK  status: ('A' for Active; 'I' for Inactive)
ROOT
HETATM    1  C1  UNL     1     -34.411  13.485  -4.890  1.00 20.00     0.023 C 
HETATM    2  C2  UNL     1     -36.185  14.798  -7.779  1.00 20.00     0.017 A 
HETATM    3  C3  UNL     1     -34.441  16.417  -6.939  1.00 20.00     0.012 C 
HETATM    4  C4  UNL     1     -33.784  14.023  -3.664  1.00 20.00     0.110 C 
HETATM    5  C5  UNL     1     -35.159  14.276  -7.142  1.00 20.00     0.010 A 
HETATM    6  C6  UNL     1     -35.016  15.607  -7.850  1.00 20.00    -0.008 A 
HETATM    7  C7  UNL     1     -34.745  14.434  -5.764  1.00 20.00    -0.061 C 
HETATM    8  C8  UNL     1     -33.181  16.023  -4.735  1.00 20.00     0.158 C 
HETATM    9  C9  UNL     1     -34.476  15.889  -5.536  1.00 20.00     0.040 C 
HETATM   10  N10 UNL     1     -33.215  15.174  -3.526  1.00 20.00    -0.301 NA
ENDROOT
TORSDOF 0
ENDMDL
MODEL 7
REMARK VINA RESULT:      -4.3     11.967     13.191
REMARK  0 active torsions:
REMARK  status: ('A' for Active; 'I' for Inactive)
ROOT
HETATM    1  C1  UNL     1     -34.776  14.271  -3.420  1.00 20.00     0.023 C 
HETATM    2  C2  UNL     1     -34.051  16.890  -1.006  1.00 20.00     0.017 A 
HETATM    3  C3  UNL     1     -34.066  17.776  -3.368  1.00 20.00     0.012 C 
HETATM    4  C4  UNL     1     -34.401  13.944  -4.813  1.00 20.00     0.110 C 
HETATM    5  C5  UNL     1     -34.794  16.236  -1.873  1.00 20.00     0.010 A 
HETATM    6  C6  UNL     1     -34.487  17.703  -2.091  1.00 20.00    -0.008 A 
HETATM    7  C7  UNL     1     -34.404  15.498  -3.056  1.00 20.00    -0.061 C 
HETATM    8  C8  UNL     1     -34.223  16.210  -5.398  1.00 20.00     0.158 C 
HETATM    9  C9  UNL     1     -33.713  16.453  -3.979  1.00 20.00     0.040 C 
HETATM   10  N10 UNL     1     -34.129  14.780  -5.759  1.00 20.00    -0.301 NA
ENDROOT
TORSDOF 0
ENDMDL
MODEL 8
REMARK VINA RESULT:      -4.3     12.299     13.680
REMARK  0 active torsions:
REMARK  status: ('A' for Active; 'I' for Inactive)
ROOT
HETATM    1  C1  UNL     1     -33.407  15.022  -3.652  1.00 20.00     0.023 C 
HETATM    2  C2  UNL     1     -33.545  17.968  -5.777  1.00 20.00     0.017 A 
HETATM    3  C3  UNL     1     -35.117  16.164  -6.579  1.00 20.00     0.012 C 
HETATM    4  C4  UNL     1     -33.552  13.558  -3.813  1.00 20.00     0.110 C 
HETATM    5  C5  UNL     1     -33.990  17.129  -4.866  1.00 20.00     0.010 A 
HETATM    6  C6  UNL     1     -34.801  17.389  -6.118  1.00 20.00    -0.008 A 
HETATM    7  C7  UNL     1     -33.778  15.703  -4.736  1.00 20.00    -0.061 C 
HETATM    8  C8  UNL     1     -35.104  13.807  -5.556  1.00 20.00     0.158 C 
HETATM    9  C9  UNL     1     -34.318  15.051  -5.970  1.00 20.00     0.040 C 
HETATM   10  N10 UNL     1     -34.300  12.943  -4.667  1.00 20.00    -0.301 NA
ENDROOT
TORSDOF 0
ENDMDL
MODEL 9
REMARK VINA RESULT:      -4.3     11.779     12.682
REMARK  0 active torsions:
REMARK  status: ('A' for Active; 'I' for Inactive)
ROOT
HETATM    1  C1  UNL     1     -36.260  15.863  -3.045  1.00 20.00     0.023 C 
HETATM    2  C2  UNL     1     -34.399  13.324  -4.863  1.00 20.00     0.017 A 
HETATM    3  C3  UNL     1     -32.878  14.777  -3.469  1.00 20.00     0.012 C 
HETATM    4  C4  UNL     1     -36.038  17.252  -2.585  1.00 20.00     0.110 C 
HETATM    5  C5  UNL     1     -34.934  13.881  -3.797  1.00 20.00     0.010 A 
HETATM    6  C6  UNL     1     -33.444  13.615  -3.847  1.00 20.00    -0.008 A 
HETATM    7  C7  UNL     1     -35.148  15.279  -3.490  1.00 20.00    -0.061 C 
HETATM    8  C8  UNL     1     -33.740  16.884  -2.278  1.00 20.00     0.158 C 
HETATM    9  C9  UNL     1     -33.811  15.952  -3.487  1.00 20.00     0.040 C 
HETATM   10  N10 UNL     1     -34.914  17.780  -2.230  1.00 20.00    -0.301 NA
ENDROOT
TORSDOF 0
ENDMDL
