MODEL 1
REMARK VINA RESULT:      -5.5      0.000      0.000
REMARK  3 active torsions:
REMARK  status: ('A' for Active; 'I' for Inactive)
REMARK    1  A    between atoms: C1_1  and  C3_3 
REMARK    2  A    between atoms: C2_2  and  C4_4 
REMARK    3  A    between atoms: C5_5  and  C6_6 
ROOT
HETATM    1  C3  UNL     1     -32.904   6.543   4.045  1.00 20.00     0.010 C 
HETATM    2  C5  UNL     1     -34.093   5.971   4.300  1.00 20.00    -0.017 C 
HETATM    3  C7  UNL     1     -35.153   5.581   3.318  1.00 20.00     0.052 C 
ENDROOT
BRANCH   1   4
HETATM    4  C1  UNL     1     -32.415   6.947   2.742  1.00 20.00     0.004 C 
HETATM    5  C2  UNL     1     -32.231   8.232   2.410  1.00 20.00     0.041 C 
BRANCH   5   6
HETATM    6  C4  UNL     1     -31.734   8.560   1.059  1.00 20.00     0.258 C 
HETATM    7  O9  UNL     1     -32.466   9.028   0.196  1.00 20.00    -0.302 OA
ENDBRANCH   5   6
ENDBRANCH   1   4
BRANCH   2   8
HETATM    8  C6  UNL     1     -34.360   5.655   5.738  1.00 20.00     0.151 C 
HETATM    9  C8  UNL     1     -34.905   4.288   6.059  1.00 20.00     0.096 C 
HETATM   10  O10 UNL     1     -34.126   6.475   6.624  1.00 20.00    -0.293 OA
ENDBRANCH   2   8
TORSDOF 3
ENDMDL
MODEL 2
REMARK VINA RESULT:      -4.7     10.827     11.520
REMARK  3 active torsions:
REMARK  status: ('A' for Active; 'I' for Inactive)
REMARK    1  A    between atoms: C1_1  and  C3_3 
REMARK    2  A    between atoms: C2_2  and  C4_4 
REMARK    3  A    between atoms: C5_5  and  C6_6 
ROOT
HETATM    1  C3  UNL     1     -34.840  15.661  -2.324  1.00 20.00     0.010 C 
HETATM    2  C5  UNL     1     -34.292  14.854  -3.250  1.00 20.00    -0.017 C 
HETATM    3  C7  UNL     1     -32.854  14.768  -3.655  1.00 20.00     0.052 C 
ENDROOT
BRANCH   1   4
HETATM    4  C1  UNL     1     -34.141  16.663  -1.545  1.00 20.00     0.004 C 
HETATM    5  C2  UNL     1     -34.618  17.131  -0.384  1.00 20.00     0.041 C 
BRANCH   5   6
HETATM    6  C4  UNL     1     -33.846  18.157   0.346  1.00 20.00     0.258 C 
HETATM    7  O9  UNL     1     -32.705  18.461   0.021  1.00 20.00    -0.302 OA
ENDBRANCH   5   6
ENDBRANCH   1   4
BRANCH   2   8
HETATM    8  C6  UNL     1     -35.237  13.907  -3.919  1.00 20.00     0.151 C 
HETATM    9  C8  UNL     1     -36.639  14.393  -4.178  1.00 20.00     0.096 C 
HETATM   10  O10 UNL     1     -34.877  12.782  -4.259  1.00 20.00    -0.293 OA
ENDBRANCH   2   8
TORSDOF 3
ENDMDL
MODEL 3
REMARK VINA RESULT:      -4.6      1.483      1.763
REMARK  3 active torsions:
REMARK  status: ('A' for Active; 'I' for Inactive)
REMARK    1  A    between atoms: C1_1  and  C3_3 
REMARK    2  A    between atoms: C2_2  and  C4_4 
REMARK    3  A    between atoms: C5_5  and  C6_6 
ROOT
HETATM    1  C3  UNL     1     -33.416   5.799   3.803  1.00 20.00     0.010 C 
HETATM    2  C5  UNL     1     -33.937   5.768   5.042  1.00 20.00    -0.017 C 
HETATM    3  C7  UNL     1     -33.746   6.765   6.142  1.00 20.00     0.052 C 
ENDROOT
BRANCH   1   4
HETATM    4  C1  UNL     1     -32.509   6.803   3.284  1.00 20.00     0.004 C 
HETATM    5  C2  UNL     1     -32.858   7.650   2.307  1.00 20.00     0.041 C 
BRANCH   5   6
HETATM    6  C4  UNL     1     -31.872   8.641   1.832  1.00 20.00     0.258 C 
HETATM    7  O9  UNL     1     -32.211   9.659   1.240  1.00 20.00    -0.302 OA
ENDBRANCH   5   6
ENDBRANCH   1   4
BRANCH   2   8
HETATM    8  C6  UNL     1     -34.846   4.615   5.329  1.00 20.00     0.151 C 
HETATM    9  C8  UNL     1     -35.296   4.424   6.755  1.00 20.00     0.096 C 
HETATM   10  O10 UNL     1     -35.225   3.864   4.432  1.00 20.00    -0.293 OA
ENDBRANCH   2   8
TORSDOF 3
ENDMDL
MODEL 4
REMARK VINA RESULT:      -4.6      1.556      5.382
REMARK  3 active torsions:
REMARK  status: ('A' for Active; 'I' for Inactive)
REMARK    1  A    between atoms: C1_1  and  C3_3 
REMARK    2  A    between atoms: C2_2  and  C4_4 
REMARK    3  A    between atoms: C5_5  and  C6_6 
ROOT
HETATM    1  C3  UNL     1     -33.115   6.805   2.825  1.00 20.00     0.010 C 
HETATM    2  C5  UNL     1     -32.104   7.690   2.870  1.00 20.00    -0.017 C 
HETATM    3  C7  UNL     1     -31.058   7.834   3.930  1.00 20.00     0.052 C 
ENDROOT
BRANCH   1   4
HETATM    4  C1  UNL     1     -33.427   5.816   3.837  1.00 20.00     0.004 C 
HETATM    5  C2  UNL     1     -34.636   5.729   4.407  1.00 20.00     0.041 C 
BRANCH   5   6
HETATM    6  C4  UNL     1     -34.871   4.695   5.435  1.00 20.00     0.258 C 
HETATM    7  O9  UNL     1     -35.110   3.530   5.139  1.00 20.00    -0.302 OA
ENDBRANCH   5   6
ENDBRANCH   1   4
BRANCH   2   8
HETATM    8  C6  UNL     1     -32.003   8.611   1.695  1.00 20.00     0.151 C 
HETATM    9  C8  UNL     1     -32.710   9.939   1.790  1.00 20.00     0.096 C 
HETATM   10  O10 UNL     1     -31.353   8.302   0.698  1.00 20.00    -0.293 OA
ENDBRANCH   2   8
TORSDOF 3
ENDMDL
MODEL 5
REMARK VINA RESULT:      -4.5     11.002     11.754
REMARK  3 active torsions:
REMARK  status: ('A' for Active; 'I' for Inactive)
REMARK    1  A    between atoms: C1_1  and  C3_3 
REMARK    2  A    between atoms: C2_2  and  C4_4 
REMARK    3  A    between atoms: C5_5  and  C6_6 
ROOT
HETATM    1  C3  UNL     1     -34.518  15.118  -3.017  1.00 20.00     0.010 C 
HETATM    2  C5  UNL     1     -35.480  14.623  -3.815  1.00 20.00    -0.017 C 
HETATM    3  C7  UNL     1     -36.957  14.842  -3.714  1.00 20.00     0.052 C 
ENDROOT
BRANCH   1   4
HETATM    4  C1  UNL     1     -34.724  15.947  -1.846  1.00 20.00     0.004 C 
HETATM    5  C2  UNL     1     -33.873  16.921  -1.497  1.00 20.00     0.041 C 
BRANCH   5   6
HETATM    6  C4  UNL     1     -34.153  17.717  -0.285  1.00 20.00     0.258 C 
HETATM    7  O9  UNL     1     -35.001  17.377   0.531  1.00 20.00    -0.302 OA
ENDBRANCH   5   6
ENDBRANCH   1   4
BRANCH   2   8
HETATM    8  C6  UNL     1     -35.000  13.787  -4.959  1.00 20.00     0.151 C 
HETATM    9  C8  UNL     1     -34.830  14.468  -6.293  1.00 20.00     0.096 C 
HETATM   10  O10 UNL     1     -34.737  12.595  -4.811  1.00 20.00    -0.293 OA
ENDBRANCH   2   8
TORSDOF 3
ENDMDL
MODEL 6
REMARK VINA RESULT:      -4.3     11.065     12.108
REMARK  3 active torsions:
REMARK  status: ('A' for Active; 'I' for Inactive)
REMARK    1  A    between atoms: C1_1  and  C3_3 
REMARK    2  A    between atoms: C2_2  and  C4_4 
REMARK    3  A    between atoms: C5_5  and  C6_6 
ROOT
HETATM    1  C3  UNL     1     -34.392  15.152  -3.065  1.00 20.00     0.010 C 
HETATM    2  C5  UNL     1     -34.174  15.140  -4.391  1.00 20.00    -0.017 C 
HETATM    3  C7  UNL     1     -33.464  16.169  -5.214  1.00 20.00     0.052 C 
ENDROOT
BRANCH   1   4
HETATM    4  C1  UNL     1     -34.011  16.209  -2.149  1.00 20.00     0.004 C 
HETATM    5  C2  UNL     1     -34.713  16.487  -1.042  1.00 20.00     0.041 C 
BRANCH   5   6
HETATM    6  C4  UNL     1     -34.260  17.584  -0.163  1.00 20.00     0.258 C 
HETATM    7  O9  UNL     1     -34.001  18.699  -0.601  1.00 20.00    -0.302 OA
ENDBRANCH   5   6
ENDBRANCH   1   4
BRANCH   2   8
HETATM    8  C6  UNL     1     -34.673  13.928  -5.114  1.00 20.00     0.151 C 
HETATM    9  C8  UNL     1     -35.154  14.113  -6.530  1.00 20.00     0.096 C 
HETATM   10  O10 UNL     1     -34.673  12.822  -4.577  1.00 20.00    -0.293 OA
ENDBRANCH   2   8
TORSDOF 3
ENDMDL
MODEL 7
REMARK VINA RESULT:      -4.3     10.730     11.861
REMARK  3 active torsions:
REMARK  status: ('A' for Active; 'I' for Inactive)
REMARK    1  A    between atoms: C1_1  and  C3_3 
REMARK    2  A    between atoms: C2_2  and  C4_4 
REMARK    3  A    between atoms: C5_5  and  C6_6 
ROOT
HETATM    1  C3  UNL     1     -34.563  16.355  -1.489  1.00 20.00     0.010 C 
HETATM    2  C5  UNL     1     -33.977  17.565  -1.487  1.00 20.00    -0.017 C 
HETATM    3  C7  UNL     1     -33.725  18.464  -2.656  1.00 20.00     0.052 C 
ENDROOT
BRANCH   1   4
HETATM    4  C1  UNL     1     -35.042  15.642  -2.656  1.00 20.00     0.004 C 
HETATM    5  C2  UNL     1     -34.438  14.542  -3.125  1.00 20.00     0.041 C 
BRANCH   5   6
HETATM    6  C4  UNL     1     -34.987  13.878  -4.324  1.00 20.00     0.258 C 
HETATM    7  O9  UNL     1     -34.943  12.663  -4.468  1.00 20.00    -0.302 OA
ENDBRANCH   5   6
ENDBRANCH   1   4
BRANCH   2   8
HETATM    8  C6  UNL     1     -33.567  18.078  -0.143  1.00 20.00     0.151 C 
HETATM    9  C8  UNL     1     -32.275  18.850  -0.058  1.00 20.00     0.096 C 
HETATM   10  O10 UNL     1     -34.267  17.892   0.851  1.00 20.00    -0.293 OA
ENDBRANCH   2   8
TORSDOF 3
ENDMDL
MODEL 8
REMARK VINA RESULT:      -4.2     10.881     11.467
REMARK  3 active torsions:
REMARK  status: ('A' for Active; 'I' for Inactive)
REMARK    1  A    between atoms: C1_1  and  C3_3 
REMARK    2  A    between atoms: C2_2  and  C4_4 
REMARK    3  A    between atoms: C5_5  and  C6_6 
ROOT
HETATM    1  C3  UNL     1     -34.783  16.530  -1.053  1.00 20.00     0.010 C 
HETATM    2  C5  UNL     1     -34.304  17.527  -0.287  1.00 20.00    -0.017 C 
HETATM    3  C7  UNL     1     -33.027  18.286  -0.464  1.00 20.00     0.052 C 
ENDROOT
BRANCH   1   4
HETATM    4  C1  UNL     1     -34.125  15.949  -2.205  1.00 20.00     0.004 C 
HETATM    5  C2  UNL     1     -34.670  14.956  -2.919  1.00 20.00     0.041 C 
BRANCH   5   6
HETATM    6  C4  UNL     1     -33.931  14.415  -4.077  1.00 20.00     0.258 C 
HETATM    7  O9  UNL     1     -33.539  13.255  -4.110  1.00 20.00    -0.302 OA
ENDBRANCH   5   6
ENDBRANCH   1   4
BRANCH   2   8
HETATM    8  C6  UNL     1     -35.181  17.941   0.852  1.00 20.00     0.151 C 
HETATM    9  C8  UNL     1     -34.513  18.251   2.166  1.00 20.00     0.096 C 
HETATM   10  O10 UNL     1     -36.399  18.042   0.714  1.00 20.00    -0.293 OA
ENDBRANCH   2   8
TORSDOF 3
ENDMDL
MODEL 9
REMARK VINA RESULT:      -4.0     11.125     11.846
REMARK  3 active torsions:
REMARK  status: ('A' for Active; 'I' for Inactive)
REMARK    1  A    between atoms: C1_1  and  C3_3 
REMARK    2  A    between atoms: C2_2  and  C4_4 
REMARK    3  A    between atoms: C5_5  and  C6_6 
ROOT
HETATM    1  C3  UNL     1     -33.841  17.333  -0.806  1.00 20.00     0.010 C 
HETATM    2  C5  UNL     1     -34.253  17.860   0.360  1.00 20.00    -0.017 C 
HETATM    3  C7  UNL     1     -35.534  17.593   1.086  1.00 20.00     0.052 C 
ENDROOT
BRANCH   1   4
HETATM    4  C1  UNL     1     -34.589  16.411  -1.636  1.00 20.00     0.004 C 
HETATM    5  C2  UNL     1     -34.063  15.834  -2.725  1.00 20.00     0.041 C 
BRANCH   5   6
HETATM    6  C4  UNL     1     -34.896  14.910  -3.519  1.00 20.00     0.258 C 
HETATM    7  O9  UNL     1     -34.689  13.702  -3.534  1.00 20.00    -0.302 OA
ENDBRANCH   5   6
ENDBRANCH   1   4
BRANCH   2   8
HETATM    8  C6  UNL     1     -33.289  18.795   1.019  1.00 20.00     0.151 C 
HETATM    9  C8  UNL     1     -32.041  19.158   0.256  1.00 20.00     0.096 C 
HETATM   10  O10 UNL     1     -33.515  19.262   2.134  1.00 20.00    -0.293 OA
ENDBRANCH   2   8
TORSDOF 3
ENDMDL
