MODEL 1
REMARK VINA RESULT:      -5.7      0.000      0.000
REMARK  4 active torsions:
REMARK  status: ('A' for Active; 'I' for Inactive)
REMARK    1  A    between atoms: C1_1  and  C6_6 
REMARK    2  A    between atoms: C2_2  and  C7_7 
REMARK    3  A    between atoms: C6_6  and  C8_8 
REMARK    4  A    between atoms: C7_7  and  C9_9 
ROOT
HETATM    1  C1  UNL     1     -32.797   6.861   3.127  1.00 20.00    -0.107 C 
HETATM    2  C2  UNL     1     -33.731   6.184   3.462  1.00 20.00    -0.106 C 
ENDROOT
BRANCH   2   3
HETATM    3  C7  UNL     1     -34.880   5.365   3.875  1.00 20.00     0.097 C 
BRANCH   3   4
HETATM    4  C9  UNL     1     -35.021   5.225   5.401  1.00 20.00    -0.012 C 
HETATM    5  C4  UNL     1     -34.162   6.239   6.160  1.00 20.00     0.010 C 
HETATM    6  C5  UNL     1     -34.728   3.803   5.884  1.00 20.00     0.010 C 
ENDBRANCH   3   4
ENDBRANCH   2   3
BRANCH   1   7
HETATM    7  C6  UNL     1     -31.664   7.701   2.720  1.00 20.00     0.093 C 
BRANCH   7   8
HETATM    8  C8  UNL     1     -31.915   8.402   1.385  1.00 20.00     0.007 C 
HETATM    9  C3  UNL     1     -32.500   9.799   1.545  1.00 20.00     0.006 C 
ENDBRANCH   7   8
ENDBRANCH   1   7
TORSDOF 4
ENDMDL
MODEL 2
REMARK VINA RESULT:      -5.5      0.455      1.254
REMARK  4 active torsions:
REMARK  status: ('A' for Active; 'I' for Inactive)
REMARK    1  A    between atoms: C1_1  and  C6_6 
REMARK    2  A    between atoms: C2_2  and  C7_7 
REMARK    3  A    between atoms: C6_6  and  C8_8 
REMARK    4  A    between atoms: C7_7  and  C9_9 
ROOT
HETATM    1  C1  UNL     1     -32.581   7.057   2.996  1.00 20.00    -0.107 C 
HETATM    2  C2  UNL     1     -33.439   6.356   3.459  1.00 20.00    -0.106 C 
ENDROOT
BRANCH   2   3
HETATM    3  C7  UNL     1     -34.481   5.487   4.027  1.00 20.00     0.097 C 
BRANCH   3   4
HETATM    4  C9  UNL     1     -34.239   5.116   5.501  1.00 20.00    -0.012 C 
HETATM    5  C4  UNL     1     -35.285   4.134   6.032  1.00 20.00     0.010 C 
HETATM    6  C5  UNL     1     -34.149   6.348   6.404  1.00 20.00     0.010 C 
ENDBRANCH   3   4
ENDBRANCH   2   3
BRANCH   1   7
HETATM    7  C6  UNL     1     -31.522   7.904   2.433  1.00 20.00     0.093 C 
BRANCH   7   8
HETATM    8  C8  UNL     1     -31.979   8.638   1.173  1.00 20.00     0.007 C 
HETATM    9  C3  UNL     1     -32.603   9.996   1.466  1.00 20.00     0.006 C 
ENDBRANCH   7   8
ENDBRANCH   1   7
TORSDOF 4
ENDMDL
MODEL 3
REMARK VINA RESULT:      -5.3      0.570      5.317
REMARK  4 active torsions:
REMARK  status: ('A' for Active; 'I' for Inactive)
REMARK    1  A    between atoms: C1_1  and  C6_6 
REMARK    2  A    between atoms: C2_2  and  C7_7 
REMARK    3  A    between atoms: C6_6  and  C8_8 
REMARK    4  A    between atoms: C7_7  and  C9_9 
ROOT
HETATM    1  C1  UNL     1     -33.887   5.982   3.646  1.00 20.00    -0.107 C 
HETATM    2  C2  UNL     1     -33.025   6.733   3.280  1.00 20.00    -0.106 C 
ENDROOT
BRANCH   2   3
HETATM    3  C7  UNL     1     -31.975   7.653   2.819  1.00 20.00     0.097 C 
BRANCH   3   4
HETATM    4  C9  UNL     1     -32.408   8.544   1.641  1.00 20.00    -0.012 C 
HETATM    5  C4  UNL     1     -31.394   8.526   0.495  1.00 20.00     0.010 C 
HETATM    6  C5  UNL     1     -32.705   9.980   2.075  1.00 20.00     0.010 C 
ENDBRANCH   3   4
ENDBRANCH   2   3
BRANCH   1   7
HETATM    7  C6  UNL     1     -34.950   5.066   4.081  1.00 20.00     0.093 C 
BRANCH   7   8
HETATM    8  C8  UNL     1     -34.798   4.661   5.547  1.00 20.00     0.007 C 
HETATM    9  C3  UNL     1     -34.434   5.828   6.455  1.00 20.00     0.006 C 
ENDBRANCH   7   8
ENDBRANCH   1   7
TORSDOF 4
ENDMDL
MODEL 4
REMARK VINA RESULT:      -4.9      0.858      4.916
REMARK  4 active torsions:
REMARK  status: ('A' for Active; 'I' for Inactive)
REMARK    1  A    between atoms: C1_1  and  C6_6 
REMARK    2  A    between atoms: C2_2  and  C7_7 
REMARK    3  A    between atoms: C6_6  and  C8_8 
REMARK    4  A    between atoms: C7_7  and  C9_9 
ROOT
HETATM    1  C1  UNL     1     -34.356   5.273   3.940  1.00 20.00    -0.107 C 
HETATM    2  C2  UNL     1     -33.569   5.755   3.172  1.00 20.00    -0.106 C 
ENDROOT
BRANCH   2   3
HETATM    3  C7  UNL     1     -32.599   6.350   2.241  1.00 20.00     0.097 C 
BRANCH   3   4
HETATM    4  C9  UNL     1     -32.254   7.815   2.562  1.00 20.00    -0.012 C 
HETATM    5  C4  UNL     1     -31.765   8.581   1.331  1.00 20.00     0.010 C 
HETATM    6  C5  UNL     1     -31.247   7.937   3.708  1.00 20.00     0.010 C 
ENDBRANCH   3   4
ENDBRANCH   2   3
BRANCH   1   7
HETATM    7  C6  UNL     1     -35.309   4.686   4.891  1.00 20.00     0.093 C 
BRANCH   7   8
HETATM    8  C8  UNL     1     -34.948   5.006   6.341  1.00 20.00     0.007 C 
HETATM    9  C3  UNL     1     -34.152   6.297   6.488  1.00 20.00     0.006 C 
ENDBRANCH   7   8
ENDBRANCH   1   7
TORSDOF 4
ENDMDL
MODEL 5
REMARK VINA RESULT:      -4.8      0.654      5.126
REMARK  4 active torsions:
REMARK  status: ('A' for Active; 'I' for Inactive)
REMARK    1  A    between atoms: C1_1  and  C6_6 
REMARK    2  A    between atoms: C2_2  and  C7_7 
REMARK    3  A    between atoms: C6_6  and  C8_8 
REMARK    4  A    between atoms: C7_7  and  C9_9 
ROOT
HETATM    1  C1  UNL     1     -33.818   6.199   3.476  1.00 20.00    -0.107 C 
HETATM    2  C2  UNL     1     -32.822   6.838   3.271  1.00 20.00    -0.106 C 
ENDROOT
BRANCH   2   3
HETATM    3  C7  UNL     1     -31.600   7.613   3.010  1.00 20.00     0.097 C 
BRANCH   3   4
HETATM    4  C9  UNL     1     -31.773   8.694   1.929  1.00 20.00    -0.012 C 
HETATM    5  C4  UNL     1     -32.973   9.603   2.202  1.00 20.00     0.010 C 
HETATM    6  C5  UNL     1     -31.856   8.101   0.521  1.00 20.00     0.010 C 
ENDBRANCH   3   4
ENDBRANCH   2   3
BRANCH   1   7
HETATM    7  C6  UNL     1     -35.031   5.408   3.715  1.00 20.00     0.093 C 
BRANCH   7   8
HETATM    8  C8  UNL     1     -34.978   4.657   5.046  1.00 20.00     0.007 C 
HETATM    9  C3  UNL     1     -34.533   5.534   6.209  1.00 20.00     0.006 C 
ENDBRANCH   7   8
ENDBRANCH   1   7
TORSDOF 4
ENDMDL
MODEL 6
REMARK VINA RESULT:      -4.6      0.919      5.094
REMARK  4 active torsions:
REMARK  status: ('A' for Active; 'I' for Inactive)
REMARK    1  A    between atoms: C1_1  and  C6_6 
REMARK    2  A    between atoms: C2_2  and  C7_7 
REMARK    3  A    between atoms: C6_6  and  C8_8 
REMARK    4  A    between atoms: C7_7  and  C9_9 
ROOT
HETATM    1  C1  UNL     1     -33.832   6.208   5.004  1.00 20.00    -0.107 C 
HETATM    2  C2  UNL     1     -33.378   6.353   3.902  1.00 20.00    -0.106 C 
ENDROOT
BRANCH   2   3
HETATM    3  C7  UNL     1     -32.809   6.533   2.558  1.00 20.00     0.097 C 
BRANCH   3   4
HETATM    4  C9  UNL     1     -31.761   7.658   2.477  1.00 20.00    -0.012 C 
HETATM    5  C4  UNL     1     -31.192   8.022   3.850  1.00 20.00     0.010 C 
HETATM    6  C5  UNL     1     -32.297   8.903   1.769  1.00 20.00     0.010 C 
ENDBRANCH   3   4
ENDBRANCH   2   3
BRANCH   1   7
HETATM    7  C6  UNL     1     -34.375   6.030   6.357  1.00 20.00     0.093 C 
BRANCH   7   8
HETATM    8  C8  UNL     1     -35.046   4.668   6.536  1.00 20.00     0.007 C 
HETATM    9  C3  UNL     1     -35.063   3.838   5.258  1.00 20.00     0.006 C 
ENDBRANCH   7   8
ENDBRANCH   1   7
TORSDOF 4
ENDMDL
MODEL 7
REMARK VINA RESULT:      -4.3     10.775     11.715
REMARK  4 active torsions:
REMARK  status: ('A' for Active; 'I' for Inactive)
REMARK    1  A    between atoms: C1_1  and  C6_6 
REMARK    2  A    between atoms: C2_2  and  C7_7 
REMARK    3  A    between atoms: C6_6  and  C8_8 
REMARK    4  A    between atoms: C7_7  and  C9_9 
ROOT
HETATM    1  C1  UNL     1     -34.432  16.845  -1.051  1.00 20.00    -0.107 C 
HETATM    2  C2  UNL     1     -34.784  16.100  -1.924  1.00 20.00    -0.106 C 
ENDROOT
BRANCH   2   3
HETATM    3  C7  UNL     1     -35.227  15.192  -2.992  1.00 20.00     0.097 C 
BRANCH   3   4
HETATM    4  C9  UNL     1     -34.150  14.183  -3.430  1.00 20.00    -0.012 C 
HETATM    5  C4  UNL     1     -32.808  14.856  -3.725  1.00 20.00     0.010 C 
HETATM    6  C5  UNL     1     -34.599  13.332  -4.620  1.00 20.00     0.010 C 
ENDBRANCH   3   4
ENDBRANCH   2   3
BRANCH   1   7
HETATM    7  C6  UNL     1     -34.015  17.762   0.017  1.00 20.00     0.093 C 
BRANCH   7   8
HETATM    8  C8  UNL     1     -32.888  18.693  -0.428  1.00 20.00     0.007 C 
HETATM    9  C3  UNL     1     -31.861  18.954   0.666  1.00 20.00     0.006 C 
ENDBRANCH   7   8
ENDBRANCH   1   7
TORSDOF 4
ENDMDL
MODEL 8
REMARK VINA RESULT:      -4.2     10.761     11.575
REMARK  4 active torsions:
REMARK  status: ('A' for Active; 'I' for Inactive)
REMARK    1  A    between atoms: C1_1  and  C6_6 
REMARK    2  A    between atoms: C2_2  and  C7_7 
REMARK    3  A    between atoms: C6_6  and  C8_8 
REMARK    4  A    between atoms: C7_7  and  C9_9 
ROOT
HETATM    1  C1  UNL     1     -34.598  16.717  -1.078  1.00 20.00    -0.107 C 
HETATM    2  C2  UNL     1     -34.876  16.009  -2.007  1.00 20.00    -0.106 C 
ENDROOT
BRANCH   2   3
HETATM    3  C7  UNL     1     -35.225  15.149  -3.148  1.00 20.00     0.097 C 
BRANCH   3   4
HETATM    4  C9  UNL     1     -34.136  14.120  -3.501  1.00 20.00    -0.012 C 
HETATM    5  C4  UNL     1     -32.763  14.769  -3.693  1.00 20.00     0.010 C 
HETATM    6  C5  UNL     1     -34.508  13.276  -4.722  1.00 20.00     0.010 C 
ENDBRANCH   3   4
ENDBRANCH   2   3
BRANCH   1   7
HETATM    7  C6  UNL     1     -34.269  17.593   0.054  1.00 20.00     0.093 C 
BRANCH   7   8
HETATM    8  C8  UNL     1     -35.360  17.588   1.124  1.00 20.00     0.007 C 
HETATM    9  C3  UNL     1     -34.849  17.999   2.499  1.00 20.00     0.006 C 
ENDBRANCH   7   8
ENDBRANCH   1   7
TORSDOF 4
ENDMDL
MODEL 9
REMARK VINA RESULT:      -4.2     10.721     11.863
REMARK  4 active torsions:
REMARK  status: ('A' for Active; 'I' for Inactive)
REMARK    1  A    between atoms: C1_1  and  C6_6 
REMARK    2  A    between atoms: C2_2  and  C7_7 
REMARK    3  A    between atoms: C6_6  and  C8_8 
REMARK    4  A    between atoms: C7_7  and  C9_9 
ROOT
HETATM    1  C1  UNL     1     -33.798  15.890  -2.670  1.00 20.00    -0.107 C 
HETATM    2  C2  UNL     1     -34.241  16.438  -1.697  1.00 20.00    -0.106 C 
ENDROOT
BRANCH   2   3
HETATM    3  C7  UNL     1     -34.778  17.119  -0.510  1.00 20.00     0.097 C 
BRANCH   3   4
HETATM    4  C9  UNL     1     -33.749  18.010   0.208  1.00 20.00    -0.012 C 
HETATM    5  C4  UNL     1     -34.327  18.675   1.459  1.00 20.00     0.010 C 
HETATM    6  C5  UNL     1     -33.136  19.058  -0.723  1.00 20.00     0.010 C 
ENDBRANCH   3   4
ENDBRANCH   2   3
BRANCH   1   7
HETATM    7  C6  UNL     1     -33.252  15.234  -3.865  1.00 20.00     0.093 C 
BRANCH   7   8
HETATM    8  C8  UNL     1     -33.537  13.733  -3.880  1.00 20.00     0.007 C 
HETATM    9  C3  UNL     1     -34.996  13.404  -4.168  1.00 20.00     0.006 C 
ENDBRANCH   7   8
ENDBRANCH   1   7
TORSDOF 4
ENDMDL
