MODEL 1
REMARK VINA RESULT:      -5.3      0.000      0.000
REMARK  2 active torsions:
REMARK  status: ('A' for Active; 'I' for Inactive)
REMARK    1  A    between atoms: C1_1  and  C2_2 
REMARK    2  A    between atoms: C1_1  and  C3_3 
ROOT
HETATM    1  C1  UNL     1     -33.843   5.224   3.748  1.00 20.00     0.346 C 
HETATM    2  F4  UNL     1     -34.235   5.059   2.448  1.00 20.00    -0.234 F 
ENDROOT
BRANCH   1   3
HETATM    3  C2  UNL     1     -33.383   6.666   3.916  1.00 20.00     0.357 C 
HETATM    4  F5  UNL     1     -32.816   6.850   5.133  1.00 20.00    -0.184 F 
HETATM    5  F6  UNL     1     -34.447   7.504   3.846  1.00 20.00    -0.184 F 
HETATM    6 CL9  UNL     1     -32.207   7.115   2.665  1.00 20.00    -0.045 Cl
ENDBRANCH   1   3
BRANCH   1   7
HETATM    7  C3  UNL     1     -35.030   4.820   4.613  1.00 20.00     0.357 C 
HETATM    8  F7  UNL     1     -35.140   3.466   4.592  1.00 20.00    -0.184 F 
HETATM    9  F8  UNL     1     -36.177   5.308   4.077  1.00 20.00    -0.184 F 
HETATM   10 CL10 UNL     1     -34.887   5.350   6.297  1.00 20.00    -0.045 Cl
ENDBRANCH   1   7
TORSDOF 2
ENDMDL
MODEL 2
REMARK VINA RESULT:      -5.3      0.773      3.604
REMARK  2 active torsions:
REMARK  status: ('A' for Active; 'I' for Inactive)
REMARK    1  A    between atoms: C1_1  and  C2_2 
REMARK    2  A    between atoms: C1_1  and  C3_3 
ROOT
HETATM    1  C1  UNL     1     -33.760   5.491   4.864  1.00 20.00     0.346 C 
HETATM    2  F4  UNL     1     -33.815   6.471   5.817  1.00 20.00    -0.234 F 
ENDROOT
BRANCH   1   3
HETATM    3  C2  UNL     1     -35.018   4.642   4.997  1.00 20.00     0.357 C 
HETATM    4  F5  UNL     1     -34.841   3.428   4.421  1.00 20.00    -0.184 F 
HETATM    5  F6  UNL     1     -36.050   5.239   4.350  1.00 20.00    -0.184 F 
HETATM    6 CL9  UNL     1     -35.458   4.407   6.700  1.00 20.00    -0.045 Cl
ENDBRANCH   1   3
BRANCH   1   7
HETATM    7  C3  UNL     1     -33.596   6.196   3.525  1.00 20.00     0.357 C 
HETATM    8  F7  UNL     1     -34.428   7.271   3.496  1.00 20.00    -0.184 F 
HETATM    9  F8  UNL     1     -33.994   5.375   2.520  1.00 20.00    -0.184 F 
HETATM   10 CL10 UNL     1     -31.943   6.752   3.219  1.00 20.00    -0.045 Cl
ENDBRANCH   1   7
TORSDOF 2
ENDMDL
MODEL 3
REMARK VINA RESULT:      -5.2      1.468      2.068
REMARK  2 active torsions:
REMARK  status: ('A' for Active; 'I' for Inactive)
REMARK    1  A    between atoms: C1_1  and  C2_2 
REMARK    2  A    between atoms: C1_1  and  C3_3 
ROOT
HETATM    1  C1  UNL     1     -33.970   6.657   4.119  1.00 20.00     0.346 C 
HETATM    2  F4  UNL     1     -33.918   6.542   5.481  1.00 20.00    -0.234 F 
ENDROOT
BRANCH   1   3
HETATM    3  C2  UNL     1     -32.540   6.765   3.606  1.00 20.00     0.357 C 
HETATM    4  F5  UNL     1     -32.026   5.537   3.355  1.00 20.00    -0.184 F 
HETATM    5  F6  UNL     1     -31.751   7.336   4.551  1.00 20.00    -0.184 F 
HETATM    6 CL9  UNL     1     -32.461   7.733   2.121  1.00 20.00    -0.045 Cl
ENDBRANCH   1   3
BRANCH   1   7
HETATM    7  C3  UNL     1     -34.749   5.451   3.611  1.00 20.00     0.357 C 
HETATM    8  F7  UNL     1     -34.175   5.020   2.457  1.00 20.00    -0.184 F 
HETATM    9  F8  UNL     1     -36.016   5.821   3.295  1.00 20.00    -0.184 F 
HETATM   10 CL10 UNL     1     -34.791   4.104   4.760  1.00 20.00    -0.045 Cl
ENDBRANCH   1   7
TORSDOF 2
ENDMDL
MODEL 4
REMARK VINA RESULT:      -5.2      1.307      3.379
REMARK  2 active torsions:
REMARK  status: ('A' for Active; 'I' for Inactive)
REMARK    1  A    between atoms: C1_1  and  C2_2 
REMARK    2  A    between atoms: C1_1  and  C3_3 
ROOT
HETATM    1  C1  UNL     1     -34.035   6.210   3.681  1.00 20.00     0.346 C 
HETATM    2  F4  UNL     1     -34.282   5.329   2.664  1.00 20.00    -0.234 F 
ENDROOT
BRANCH   1   3
HETATM    3  C2  UNL     1     -34.378   5.516   4.993  1.00 20.00     0.357 C 
HETATM    4  F5  UNL     1     -33.611   4.413   5.167  1.00 20.00    -0.184 F 
HETATM    5  F6  UNL     1     -35.669   5.099   4.972  1.00 20.00    -0.184 F 
HETATM    6 CL9  UNL     1     -34.140   6.602   6.376  1.00 20.00    -0.045 Cl
ENDBRANCH   1   3
BRANCH   1   7
HETATM    7  C3  UNL     1     -32.581   6.640   3.539  1.00 20.00     0.357 C 
HETATM    8  F7  UNL     1     -31.831   5.542   3.255  1.00 20.00    -0.184 F 
HETATM    9  F8  UNL     1     -32.125   7.120   4.723  1.00 20.00    -0.184 F 
HETATM   10 CL10 UNL     1     -32.323   7.846   2.268  1.00 20.00    -0.045 Cl
ENDBRANCH   1   7
TORSDOF 2
ENDMDL
MODEL 5
REMARK VINA RESULT:      -5.2      1.581      2.095
REMARK  2 active torsions:
REMARK  status: ('A' for Active; 'I' for Inactive)
REMARK    1  A    between atoms: C1_1  and  C2_2 
REMARK    2  A    between atoms: C1_1  and  C3_3 
ROOT
HETATM    1  C1  UNL     1     -34.135   4.699   4.771  1.00 20.00     0.346 C 
HETATM    2  F4  UNL     1     -35.192   3.877   4.487  1.00 20.00    -0.234 F 
ENDROOT
BRANCH   1   3
HETATM    3  C2  UNL     1     -34.082   5.777   3.696  1.00 20.00     0.357 C 
HETATM    4  F5  UNL     1     -34.838   6.844   4.049  1.00 20.00    -0.184 F 
HETATM    5  F6  UNL     1     -34.594   5.298   2.534  1.00 20.00    -0.184 F 
HETATM    6 CL9  UNL     1     -32.417   6.323   3.415  1.00 20.00    -0.045 Cl
ENDBRANCH   1   3
BRANCH   1   7
HETATM    7  C3  UNL     1     -34.352   5.211   6.188  1.00 20.00     0.357 C 
HETATM    8  F7  UNL     1     -33.756   4.350   7.056  1.00 20.00    -0.184 F 
HETATM    9  F8  UNL     1     -35.677   5.199   6.484  1.00 20.00    -0.184 F 
HETATM   10 CL10 UNL     1     -33.697   6.833   6.460  1.00 20.00    -0.045 Cl
ENDBRANCH   1   7
TORSDOF 2
ENDMDL
MODEL 6
REMARK VINA RESULT:      -5.1      1.764      3.189
REMARK  2 active torsions:
REMARK  status: ('A' for Active; 'I' for Inactive)
REMARK    1  A    between atoms: C1_1  and  C2_2 
REMARK    2  A    between atoms: C1_1  and  C3_3 
ROOT
HETATM    1  C1  UNL     1     -35.106   5.107   4.725  1.00 20.00     0.346 C 
HETATM    2  F4  UNL     1     -35.193   3.794   4.350  1.00 20.00    -0.234 F 
ENDROOT
BRANCH   1   3
HETATM    3  C2  UNL     1     -34.679   5.147   6.186  1.00 20.00     0.357 C 
HETATM    4  F5  UNL     1     -33.766   4.180   6.446  1.00 20.00    -0.184 F 
HETATM    5  F6  UNL     1     -35.746   4.906   6.988  1.00 20.00    -0.184 F 
HETATM    6 CL9  UNL     1     -33.978   6.722   6.608  1.00 20.00    -0.045 Cl
ENDBRANCH   1   3
BRANCH   1   7
HETATM    7  C3  UNL     1     -34.143   5.773   3.752  1.00 20.00     0.357 C 
HETATM    8  F7  UNL     1     -32.877   5.618   4.221  1.00 20.00    -0.184 F 
HETATM    9  F8  UNL     1     -34.377   7.109   3.715  1.00 20.00    -0.184 F 
HETATM   10 CL10 UNL     1     -34.225   5.109   2.112  1.00 20.00    -0.045 Cl
ENDBRANCH   1   7
TORSDOF 2
ENDMDL
MODEL 7
REMARK VINA RESULT:      -5.1      1.362      3.582
REMARK  2 active torsions:
REMARK  status: ('A' for Active; 'I' for Inactive)
REMARK    1  A    between atoms: C1_1  and  C2_2 
REMARK    2  A    between atoms: C1_1  and  C3_3 
ROOT
HETATM    1  C1  UNL     1     -33.722   5.867   5.138  1.00 20.00     0.346 C 
HETATM    2  F4  UNL     1     -33.831   6.949   5.968  1.00 20.00    -0.234 F 
ENDROOT
BRANCH   1   3
HETATM    3  C2  UNL     1     -34.964   5.007   5.331  1.00 20.00     0.357 C 
HETATM    4  F5  UNL     1     -35.927   5.347   4.440  1.00 20.00    -0.184 F 
HETATM    5  F6  UNL     1     -35.482   5.211   6.568  1.00 20.00    -0.184 F 
HETATM    6 CL9  UNL     1     -34.589   3.283   5.136  1.00 20.00    -0.045 Cl
ENDBRANCH   1   3
BRANCH   1   7
HETATM    7  C3  UNL     1     -33.529   6.416   3.731  1.00 20.00     0.357 C 
HETATM    8  F7  UNL     1     -34.448   7.395   3.518  1.00 20.00    -0.184 F 
HETATM    9  F8  UNL     1     -33.785   5.445   2.818  1.00 20.00    -0.184 F 
HETATM   10 CL10 UNL     1     -31.914   7.086   3.451  1.00 20.00    -0.045 Cl
ENDBRANCH   1   7
TORSDOF 2
ENDMDL
MODEL 8
REMARK VINA RESULT:      -4.9      1.663      2.538
REMARK  2 active torsions:
REMARK  status: ('A' for Active; 'I' for Inactive)
REMARK    1  A    between atoms: C1_1  and  C2_2 
REMARK    2  A    between atoms: C1_1  and  C3_3 
ROOT
HETATM    1  C1  UNL     1     -33.636   6.631   4.564  1.00 20.00     0.346 C 
HETATM    2  F4  UNL     1     -32.740   7.009   5.527  1.00 20.00    -0.234 F 
ENDROOT
BRANCH   1   3
HETATM    3  C2  UNL     1     -32.850   6.286   3.306  1.00 20.00     0.357 C 
HETATM    4  F5  UNL     1     -33.589   5.511   2.476  1.00 20.00    -0.184 F 
HETATM    5  F6  UNL     1     -31.744   5.571   3.633  1.00 20.00    -0.184 F 
HETATM    6 CL9  UNL     1     -32.358   7.751   2.433  1.00 20.00    -0.045 Cl
ENDBRANCH   1   3
BRANCH   1   7
HETATM    7  C3  UNL     1     -34.448   5.485   5.153  1.00 20.00     0.357 C 
HETATM    8  F7  UNL     1     -34.882   5.852   6.388  1.00 20.00    -0.184 F 
HETATM    9  F8  UNL     1     -33.652   4.401   5.332  1.00 20.00    -0.184 F 
HETATM   10 CL10 UNL     1     -35.851   5.037   4.170  1.00 20.00    -0.045 Cl
ENDBRANCH   1   7
TORSDOF 2
ENDMDL
MODEL 9
REMARK VINA RESULT:      -4.9      1.657      3.549
REMARK  2 active torsions:
REMARK  status: ('A' for Active; 'I' for Inactive)
REMARK    1  A    between atoms: C1_1  and  C2_2 
REMARK    2  A    between atoms: C1_1  and  C3_3 
ROOT
HETATM    1  C1  UNL     1     -33.813   6.374   3.554  1.00 20.00     0.346 C 
HETATM    2  F4  UNL     1     -34.054   5.455   2.570  1.00 20.00    -0.234 F 
ENDROOT
BRANCH   1   3
HETATM    3  C2  UNL     1     -34.160   5.729   4.889  1.00 20.00     0.357 C 
HETATM    4  F5  UNL     1     -34.330   6.671   5.848  1.00 20.00    -0.184 F 
HETATM    5  F6  UNL     1     -33.142   4.931   5.297  1.00 20.00    -0.184 F 
HETATM    6 CL9  UNL     1     -35.644   4.762   4.769  1.00 20.00    -0.045 Cl
ENDBRANCH   1   3
BRANCH   1   7
HETATM    7  C3  UNL     1     -32.359   6.802   3.402  1.00 20.00     0.357 C 
HETATM    8  F7  UNL     1     -31.603   5.695   3.177  1.00 20.00    -0.184 F 
HETATM    9  F8  UNL     1     -31.914   7.341   4.566  1.00 20.00    -0.184 F 
HETATM   10 CL10 UNL     1     -32.096   7.946   2.077  1.00 20.00    -0.045 Cl
ENDBRANCH   1   7
TORSDOF 2
ENDMDL
