MODEL 1
REMARK VINA RESULT:      -3.9      0.000      0.000
REMARK  2 active torsions:
REMARK  status: ('A' for Active; 'I' for Inactive)
REMARK    1  A    between atoms: C5_5  and  C6_6 
REMARK    2  A    between atoms: C5_5  and  O8_8 
ROOT
HETATM    1  C1  UNL     1     -32.244   7.359   2.943  1.00 20.00     0.228 C 
HETATM    2  N7  UNL     1     -32.024   8.030   2.022  1.00 20.00    -0.164 NA
HETATM    3  O8  UNL     1     -32.492   6.595   4.006  1.00 20.00    -0.283 OA
ENDROOT
BRANCH   3   4
HETATM    4  C5  UNL     1     -33.330   5.504   3.650  1.00 20.00     0.198 C 
BRANCH   4   5
HETATM    5  C6  UNL     1     -34.515   5.374   4.630  1.00 20.00    -0.029 C 
HETATM    6  C2  UNL     1     -34.643   3.924   5.122  1.00 20.00     0.016 C 
HETATM    7  C3  UNL     1     -35.808   5.781   3.907  1.00 20.00     0.016 C 
HETATM    8  C4  UNL     1     -34.304   6.294   5.845  1.00 20.00     0.016 C 
ENDBRANCH   4   5
ENDBRANCH   3   4
TORSDOF 2
ENDMDL
MODEL 2
REMARK VINA RESULT:      -3.9      0.049      1.525
REMARK  2 active torsions:
REMARK  status: ('A' for Active; 'I' for Inactive)
REMARK    1  A    between atoms: C5_5  and  C6_6 
REMARK    2  A    between atoms: C5_5  and  O8_8 
ROOT
HETATM    1  C1  UNL     1     -32.244   7.405   2.931  1.00 20.00     0.228 C 
HETATM    2  N7  UNL     1     -32.005   8.045   1.993  1.00 20.00    -0.164 NA
HETATM    3  O8  UNL     1     -32.513   6.676   4.014  1.00 20.00    -0.283 OA
ENDROOT
BRANCH   3   4
HETATM    4  C5  UNL     1     -33.293   5.540   3.667  1.00 20.00     0.198 C 
BRANCH   4   5
HETATM    5  C6  UNL     1     -34.493   5.381   4.623  1.00 20.00    -0.029 C 
HETATM    6  C2  UNL     1     -35.800   5.746   3.902  1.00 20.00     0.016 C 
HETATM    7  C3  UNL     1     -34.300   6.316   5.827  1.00 20.00     0.016 C 
HETATM    8  C4  UNL     1     -34.588   3.929   5.121  1.00 20.00     0.016 C 
ENDBRANCH   4   5
ENDBRANCH   3   4
TORSDOF 2
ENDMDL
MODEL 3
REMARK VINA RESULT:      -3.5     11.157     12.266
REMARK  2 active torsions:
REMARK  status: ('A' for Active; 'I' for Inactive)
REMARK    1  A    between atoms: C5_5  and  C6_6 
REMARK    2  A    between atoms: C5_5  and  O8_8 
ROOT
HETATM    1  C1  UNL     1     -34.600  13.586  -3.925  1.00 20.00     0.228 C 
HETATM    2  N7  UNL     1     -34.832  12.722  -4.665  1.00 20.00    -0.164 NA
HETATM    3  O8  UNL     1     -34.323  14.573  -3.075  1.00 20.00    -0.283 OA
ENDROOT
BRANCH   3   4
HETATM    4  C5  UNL     1     -35.442  15.440  -2.938  1.00 20.00     0.198 C 
BRANCH   4   5
HETATM    5  C6  UNL     1     -35.020  16.797  -2.339  1.00 20.00    -0.029 C 
HETATM    6  C2  UNL     1     -33.828  17.375  -3.118  1.00 20.00     0.016 C 
HETATM    7  C3  UNL     1     -34.614  16.591  -0.872  1.00 20.00     0.016 C 
HETATM    8  C4  UNL     1     -36.188  17.795  -2.405  1.00 20.00     0.016 C 
ENDBRANCH   4   5
ENDBRANCH   3   4
TORSDOF 2
ENDMDL
MODEL 4
REMARK VINA RESULT:      -3.4     11.648     12.601
REMARK  2 active torsions:
REMARK  status: ('A' for Active; 'I' for Inactive)
REMARK    1  A    between atoms: C5_5  and  C6_6 
REMARK    2  A    between atoms: C5_5  and  O8_8 
ROOT
HETATM    1  C1  UNL     1     -37.556  14.927  -3.778  1.00 20.00     0.228 C 
HETATM    2  N7  UNL     1     -38.531  14.299  -3.834  1.00 20.00    -0.164 NA
HETATM    3  O8  UNL     1     -36.442  15.653  -3.706  1.00 20.00    -0.283 OA
ENDROOT
BRANCH   3   4
HETATM    4  C5  UNL     1     -35.410  15.060  -4.484  1.00 20.00     0.198 C 
BRANCH   4   5
HETATM    5  C6  UNL     1     -34.036  15.235  -3.806  1.00 20.00    -0.029 C 
HETATM    6  C2  UNL     1     -34.209  15.823  -2.396  1.00 20.00     0.016 C 
HETATM    7  C3  UNL     1     -33.179  16.190  -4.651  1.00 20.00     0.016 C 
HETATM    8  C4  UNL     1     -33.320  13.878  -3.694  1.00 20.00     0.016 C 
ENDBRANCH   4   5
ENDBRANCH   3   4
TORSDOF 2
ENDMDL
MODEL 5
REMARK VINA RESULT:      -3.4     11.651     12.607
REMARK  2 active torsions:
REMARK  status: ('A' for Active; 'I' for Inactive)
REMARK    1  A    between atoms: C5_5  and  C6_6 
REMARK    2  A    between atoms: C5_5  and  O8_8 
ROOT
HETATM    1  C1  UNL     1     -37.551  14.926  -3.823  1.00 20.00     0.228 C 
HETATM    2  N7  UNL     1     -38.530  14.302  -3.852  1.00 20.00    -0.164 NA
HETATM    3  O8  UNL     1     -36.433  15.648  -3.783  1.00 20.00    -0.283 OA
ENDROOT
BRANCH   3   4
HETATM    4  C5  UNL     1     -35.395  14.997  -4.505  1.00 20.00     0.198 C 
BRANCH   4   5
HETATM    5  C6  UNL     1     -34.028  15.217  -3.825  1.00 20.00    -0.029 C 
HETATM    6  C2  UNL     1     -33.164  16.174  -4.663  1.00 20.00     0.016 C 
HETATM    7  C3  UNL     1     -33.309  13.865  -3.698  1.00 20.00     0.016 C 
HETATM    8  C4  UNL     1     -34.221  15.821  -2.424  1.00 20.00     0.016 C 
ENDBRANCH   4   5
ENDBRANCH   3   4
TORSDOF 2
ENDMDL
MODEL 6
REMARK VINA RESULT:      -3.4     11.401     12.012
REMARK  2 active torsions:
REMARK  status: ('A' for Active; 'I' for Inactive)
REMARK    1  A    between atoms: C5_5  and  C6_6 
REMARK    2  A    between atoms: C5_5  and  O8_8 
ROOT
HETATM    1  C1  UNL     1     -34.437  16.642  -1.108  1.00 20.00     0.228 C 
HETATM    2  N7  UNL     1     -34.821  16.984  -0.067  1.00 20.00    -0.164 NA
HETATM    3  O8  UNL     1     -33.988  16.254  -2.300  1.00 20.00    -0.283 OA
ENDROOT
BRANCH   3   4
HETATM    4  C5  UNL     1     -34.937  15.412  -2.940  1.00 20.00     0.198 C 
BRANCH   4   5
HETATM    5  C6  UNL     1     -34.267  14.553  -4.032  1.00 20.00    -0.029 C 
HETATM    6  C2  UNL     1     -32.864  14.117  -3.580  1.00 20.00     0.016 C 
HETATM    7  C3  UNL     1     -34.151  15.383  -5.320  1.00 20.00     0.016 C 
HETATM    8  C4  UNL     1     -35.110  13.298  -4.314  1.00 20.00     0.016 C 
ENDBRANCH   4   5
ENDBRANCH   3   4
TORSDOF 2
ENDMDL
MODEL 7
REMARK VINA RESULT:      -3.4     11.946     12.579
REMARK  2 active torsions:
REMARK  status: ('A' for Active; 'I' for Inactive)
REMARK    1  A    between atoms: C5_5  and  C6_6 
REMARK    2  A    between atoms: C5_5  and  O8_8 
ROOT
HETATM    1  C1  UNL     1     -37.218  14.715  -4.103  1.00 20.00     0.228 C 
HETATM    2  N7  UNL     1     -38.243  14.321  -3.728  1.00 20.00    -0.164 NA
HETATM    3  O8  UNL     1     -36.046  15.175  -4.538  1.00 20.00    -0.283 OA
ENDROOT
BRANCH   3   4
HETATM    4  C5  UNL     1     -34.976  14.449  -3.947  1.00 20.00     0.198 C 
BRANCH   4   5
HETATM    5  C6  UNL     1     -33.776  15.373  -3.657  1.00 20.00    -0.029 C 
HETATM    6  C2  UNL     1     -32.487  14.546  -3.523  1.00 20.00     0.016 C 
HETATM    7  C3  UNL     1     -34.032  16.128  -2.343  1.00 20.00     0.016 C 
HETATM    8  C4  UNL     1     -33.598  16.390  -4.797  1.00 20.00     0.016 C 
ENDBRANCH   4   5
ENDBRANCH   3   4
TORSDOF 2
ENDMDL
MODEL 8
REMARK VINA RESULT:      -3.4     11.896     12.628
REMARK  2 active torsions:
REMARK  status: ('A' for Active; 'I' for Inactive)
REMARK    1  A    between atoms: C5_5  and  C6_6 
REMARK    2  A    between atoms: C5_5  and  O8_8 
ROOT
HETATM    1  C1  UNL     1     -37.480  14.990  -3.885  1.00 20.00     0.228 C 
HETATM    2  N7  UNL     1     -38.439  14.359  -3.710  1.00 20.00    -0.164 NA
HETATM    3  O8  UNL     1     -36.386  15.720  -4.091  1.00 20.00    -0.283 OA
ENDROOT
BRANCH   3   4
HETATM    4  C5  UNL     1     -35.284  15.179  -3.374  1.00 20.00     0.198 C 
BRANCH   4   5
HETATM    5  C6  UNL     1     -34.166  14.728  -4.336  1.00 20.00    -0.029 C 
HETATM    6  C2  UNL     1     -34.354  13.250  -4.715  1.00 20.00     0.016 C 
HETATM    7  C3  UNL     1     -32.807  14.904  -3.642  1.00 20.00     0.016 C 
HETATM    8  C4  UNL     1     -34.193  15.577  -5.618  1.00 20.00     0.016 C 
ENDBRANCH   4   5
ENDBRANCH   3   4
TORSDOF 2
ENDMDL
MODEL 9
REMARK VINA RESULT:      -3.3     11.412     12.234
REMARK  2 active torsions:
REMARK  status: ('A' for Active; 'I' for Inactive)
REMARK    1  A    between atoms: C5_5  and  C6_6 
REMARK    2  A    between atoms: C5_5  and  O8_8 
ROOT
HETATM    1  C1  UNL     1     -34.217  16.453  -1.606  1.00 20.00     0.228 C 
HETATM    2  N7  UNL     1     -34.773  16.808  -0.650  1.00 20.00    -0.164 NA
HETATM    3  O8  UNL     1     -33.572  16.044  -2.696  1.00 20.00    -0.283 OA
ENDROOT
BRANCH   3   4
HETATM    4  C5  UNL     1     -34.429  16.089  -3.829  1.00 20.00     0.198 C 
BRANCH   4   5
HETATM    5  C6  UNL     1     -34.611  14.685  -4.441  1.00 20.00    -0.029 C 
HETATM    6  C2  UNL     1     -34.480  14.751  -5.972  1.00 20.00     0.016 C 
HETATM    7  C3  UNL     1     -36.006  14.157  -4.074  1.00 20.00     0.016 C 
HETATM    8  C4  UNL     1     -33.544  13.723  -3.892  1.00 20.00     0.016 C 
ENDBRANCH   4   5
ENDBRANCH   3   4
TORSDOF 2
ENDMDL
