MODEL 1
REMARK VINA RESULT:      -4.4      0.000      0.000
REMARK  5 active torsions:
REMARK  status: ('A' for Active; 'I' for Inactive)
REMARK    1  A    between atoms: C1_1  and  C5_5 
REMARK    2  A    between atoms: C1_1  and  S10_10 
REMARK    3  A    between atoms: C5_5  and  C8_8 
REMARK    4  A    between atoms: C6_6  and  C7_7 
REMARK    5  A    between atoms: C7_7  and  S10_10 
ROOT
HETATM    1  C1  UNL     1     -33.804   5.736   3.076  1.00 20.00     0.186 C 
HETATM    2  O9  UNL     1     -34.299   5.038   2.200  1.00 20.00    -0.286 OA
ENDROOT
BRANCH   1   3
HETATM    3  C5  UNL     1     -34.566   6.266   4.277  1.00 20.00     0.094 C 
BRANCH   3   4
HETATM    4  C8  UNL     1     -34.095   5.659   5.609  1.00 20.00    -0.015 C 
HETATM    5  C3  UNL     1     -33.963   6.756   6.668  1.00 20.00     0.010 C 
HETATM    6  C4  UNL     1     -35.061   4.578   6.103  1.00 20.00     0.010 C 
ENDBRANCH   3   4
ENDBRANCH   1   3
BRANCH   1   7
HETATM    7  S10 UNL     1     -32.093   6.180   3.084  1.00 20.00    -0.093 SA
BRANCH   7   8
HETATM    8  C7  UNL     1     -32.216   7.970   2.879  1.00 20.00     0.082 C 
BRANCH   8   9
HETATM    9  C6  UNL     1     -31.880   8.368   1.446  1.00 20.00     0.006 C 
HETATM   10  C2  UNL     1     -32.384   9.770   1.134  1.00 20.00     0.006 C 
ENDBRANCH   8   9
ENDBRANCH   7   8
ENDBRANCH   1   7
TORSDOF 5
ENDMDL
MODEL 2
REMARK VINA RESULT:      -4.3      1.462      5.045
REMARK  5 active torsions:
REMARK  status: ('A' for Active; 'I' for Inactive)
REMARK    1  A    between atoms: C1_1  and  C5_5 
REMARK    2  A    between atoms: C1_1  and  S10_10 
REMARK    3  A    between atoms: C5_5  and  C8_8 
REMARK    4  A    between atoms: C6_6  and  C7_7 
REMARK    5  A    between atoms: C7_7  and  S10_10 
ROOT
HETATM    1  C1  UNL     1     -32.439   6.544   3.262  1.00 20.00     0.186 C 
HETATM    2  O9  UNL     1     -32.121   5.519   2.671  1.00 20.00    -0.286 OA
ENDROOT
BRANCH   1   3
HETATM    3  C5  UNL     1     -31.841   7.911   2.983  1.00 20.00     0.094 C 
BRANCH   3   4
HETATM    4  C8  UNL     1     -32.438   8.590   1.739  1.00 20.00    -0.015 C 
HETATM    5  C3  UNL     1     -32.755  10.056   2.045  1.00 20.00     0.010 C 
HETATM    6  C4  UNL     1     -31.485   8.507   0.544  1.00 20.00     0.010 C 
ENDBRANCH   3   4
ENDBRANCH   1   3
BRANCH   1   7
HETATM    7  S10 UNL     1     -33.699   6.573   4.501  1.00 20.00    -0.093 SA
BRANCH   7   8
HETATM    8  C7  UNL     1     -34.862   5.372   3.817  1.00 20.00     0.082 C 
BRANCH   8   9
HETATM    9  C6  UNL     1     -35.161   4.278   4.836  1.00 20.00     0.006 C 
HETATM   10  C2  UNL     1     -34.835   4.741   6.249  1.00 20.00     0.006 C 
ENDBRANCH   8   9
ENDBRANCH   7   8
ENDBRANCH   1   7
TORSDOF 5
ENDMDL
MODEL 3
REMARK VINA RESULT:      -4.2     10.988     12.548
REMARK  5 active torsions:
REMARK  status: ('A' for Active; 'I' for Inactive)
REMARK    1  A    between atoms: C1_1  and  C5_5 
REMARK    2  A    between atoms: C1_1  and  S10_10 
REMARK    3  A    between atoms: C5_5  and  C8_8 
REMARK    4  A    between atoms: C6_6  and  C7_7 
REMARK    5  A    between atoms: C7_7  and  S10_10 
ROOT
HETATM    1  C1  UNL     1     -34.618  13.793  -4.510  1.00 20.00     0.186 C 
HETATM    2  O9  UNL     1     -34.993  12.641  -4.330  1.00 20.00    -0.286 OA
ENDROOT
BRANCH   1   3
HETATM    3  C5  UNL     1     -35.329  14.793  -5.404  1.00 20.00     0.094 C 
BRANCH   3   4
HETATM    4  C8  UNL     1     -34.642  14.980  -6.767  1.00 20.00    -0.015 C 
HETATM    5  C3  UNL     1     -35.543  14.451  -7.885  1.00 20.00     0.010 C 
HETATM    6  C4  UNL     1     -34.308  16.452  -7.026  1.00 20.00     0.010 C 
ENDBRANCH   3   4
ENDBRANCH   1   3
BRANCH   1   7
HETATM    7  S10 UNL     1     -33.205  14.470  -3.692  1.00 20.00    -0.093 SA
BRANCH   7   8
HETATM    8  C7  UNL     1     -33.857  16.074  -3.181  1.00 20.00     0.082 C 
BRANCH   8   9
HETATM    9  C6  UNL     1     -34.838  15.909  -2.025  1.00 20.00     0.006 C 
HETATM   10  C2  UNL     1     -34.435  16.772  -0.838  1.00 20.00     0.006 C 
ENDBRANCH   8   9
ENDBRANCH   7   8
ENDBRANCH   1   7
TORSDOF 5
ENDMDL
MODEL 4
REMARK VINA RESULT:      -4.1     10.946     12.191
REMARK  5 active torsions:
REMARK  status: ('A' for Active; 'I' for Inactive)
REMARK    1  A    between atoms: C1_1  and  C5_5 
REMARK    2  A    between atoms: C1_1  and  S10_10 
REMARK    3  A    between atoms: C5_5  and  C8_8 
REMARK    4  A    between atoms: C6_6  and  C7_7 
REMARK    5  A    between atoms: C7_7  and  S10_10 
ROOT
HETATM    1  C1  UNL     1     -35.102  13.798  -4.155  1.00 20.00     0.186 C 
HETATM    2  O9  UNL     1     -35.012  12.601  -4.399  1.00 20.00    -0.286 OA
ENDROOT
BRANCH   1   3
HETATM    3  C5  UNL     1     -34.165  14.552  -3.229  1.00 20.00     0.094 C 
BRANCH   3   4
HETATM    4  C8  UNL     1     -34.592  16.010  -2.993  1.00 20.00    -0.015 C 
HETATM    5  C3  UNL     1     -34.677  16.294  -1.491  1.00 20.00     0.010 C 
HETATM    6  C4  UNL     1     -33.617  16.992  -3.649  1.00 20.00     0.010 C 
ENDBRANCH   3   4
ENDBRANCH   1   3
BRANCH   1   7
HETATM    7  S10 UNL     1     -36.323  14.832  -4.905  1.00 20.00    -0.093 SA
BRANCH   7   8
HETATM    8  C7  UNL     1     -35.888  14.645  -6.648  1.00 20.00     0.082 C 
BRANCH   8   9
HETATM    9  C6  UNL     1     -34.476  15.160  -6.905  1.00 20.00     0.006 C 
HETATM   10  C2  UNL     1     -34.490  16.638  -7.267  1.00 20.00     0.006 C 
ENDBRANCH   8   9
ENDBRANCH   7   8
ENDBRANCH   1   7
TORSDOF 5
ENDMDL
MODEL 5
REMARK VINA RESULT:      -4.1     11.024     12.021
REMARK  5 active torsions:
REMARK  status: ('A' for Active; 'I' for Inactive)
REMARK    1  A    between atoms: C1_1  and  C5_5 
REMARK    2  A    between atoms: C1_1  and  S10_10 
REMARK    3  A    between atoms: C5_5  and  C8_8 
REMARK    4  A    between atoms: C6_6  and  C7_7 
REMARK    5  A    between atoms: C7_7  and  S10_10 
ROOT
HETATM    1  C1  UNL     1     -33.689  14.504  -3.665  1.00 20.00     0.186 C 
HETATM    2  O9  UNL     1     -32.470  14.626  -3.652  1.00 20.00    -0.286 OA
ENDROOT
BRANCH   1   3
HETATM    3  C5  UNL     1     -34.641  15.356  -2.846  1.00 20.00     0.094 C 
BRANCH   3   4
HETATM    4  C8  UNL     1     -33.935  16.486  -2.079  1.00 20.00    -0.015 C 
HETATM    5  C3  UNL     1     -33.956  17.774  -2.907  1.00 20.00     0.010 C 
HETATM    6  C4  UNL     1     -34.593  16.736  -0.719  1.00 20.00     0.010 C 
ENDBRANCH   3   4
ENDBRANCH   1   3
BRANCH   1   7
HETATM    7  S10 UNL     1     -34.515  13.333  -4.700  1.00 20.00    -0.093 SA
BRANCH   7   8
HETATM    8  C7  UNL     1     -35.361  14.446  -5.845  1.00 20.00     0.082 C 
BRANCH   8   9
HETATM    9  C6  UNL     1     -34.363  15.090  -6.801  1.00 20.00     0.006 C 
HETATM   10  C2  UNL     1     -34.340  16.602  -6.631  1.00 20.00     0.006 C 
ENDBRANCH   8   9
ENDBRANCH   7   8
ENDBRANCH   1   7
TORSDOF 5
ENDMDL
MODEL 6
REMARK VINA RESULT:      -4.0     11.181     12.141
REMARK  5 active torsions:
REMARK  status: ('A' for Active; 'I' for Inactive)
REMARK    1  A    between atoms: C1_1  and  C5_5 
REMARK    2  A    between atoms: C1_1  and  S10_10 
REMARK    3  A    between atoms: C5_5  and  C8_8 
REMARK    4  A    between atoms: C6_6  and  C7_7 
REMARK    5  A    between atoms: C7_7  and  S10_10 
ROOT
HETATM    1  C1  UNL     1     -36.453  14.634  -3.768  1.00 20.00     0.186 C 
HETATM    2  O9  UNL     1     -37.595  14.200  -3.685  1.00 20.00    -0.286 OA
ENDROOT
BRANCH   1   3
HETATM    3  C5  UNL     1     -36.023  16.004  -3.277  1.00 20.00     0.094 C 
BRANCH   3   4
HETATM    4  C8  UNL     1     -34.625  16.006  -2.635  1.00 20.00    -0.015 C 
HETATM    5  C3  UNL     1     -33.708  16.980  -3.379  1.00 20.00     0.010 C 
HETATM    6  C4  UNL     1     -34.691  16.388  -1.154  1.00 20.00     0.010 C 
ENDBRANCH   3   4
ENDBRANCH   1   3
BRANCH   1   7
HETATM    7  S10 UNL     1     -35.121  13.681  -4.433  1.00 20.00    -0.093 SA
BRANCH   7   8
HETATM    8  C7  UNL     1     -35.253  14.105  -6.183  1.00 20.00     0.082 C 
BRANCH   8   9
HETATM    9  C6  UNL     1     -34.227  15.171  -6.554  1.00 20.00     0.006 C 
HETATM   10  C2  UNL     1     -34.909  16.444  -7.034  1.00 20.00     0.006 C 
ENDBRANCH   8   9
ENDBRANCH   7   8
ENDBRANCH   1   7
TORSDOF 5
ENDMDL
MODEL 7
REMARK VINA RESULT:      -3.8      1.810      5.253
REMARK  5 active torsions:
REMARK  status: ('A' for Active; 'I' for Inactive)
REMARK    1  A    between atoms: C1_1  and  C5_5 
REMARK    2  A    between atoms: C1_1  and  S10_10 
REMARK    3  A    between atoms: C5_5  and  C8_8 
REMARK    4  A    between atoms: C6_6  and  C7_7 
REMARK    5  A    between atoms: C7_7  and  S10_10 
ROOT
HETATM    1  C1  UNL     1     -32.238   7.143   3.279  1.00 20.00     0.186 C 
HETATM    2  O9  UNL     1     -31.411   7.592   4.063  1.00 20.00    -0.286 OA
ENDROOT
BRANCH   1   3
HETATM    3  C5  UNL     1     -32.181   7.338   1.775  1.00 20.00     0.094 C 
BRANCH   3   4
HETATM    4  C8  UNL     1     -31.942   8.800   1.363  1.00 20.00    -0.015 C 
HETATM    5  C3  UNL     1     -32.203   8.971  -0.136  1.00 20.00     0.010 C 
HETATM    6  C4  UNL     1     -32.836   9.758   2.155  1.00 20.00     0.010 C 
ENDBRANCH   3   4
ENDBRANCH   1   3
BRANCH   1   7
HETATM    7  S10 UNL     1     -33.601   6.146   3.802  1.00 20.00    -0.093 SA
BRANCH   7   8
HETATM    8  C7  UNL     1     -33.718   6.633   5.537  1.00 20.00     0.082 C 
BRANCH   8   9
HETATM    9  C6  UNL     1     -34.439   5.560   6.347  1.00 20.00     0.006 C 
HETATM   10  C2  UNL     1     -34.966   4.455   5.443  1.00 20.00     0.006 C 
ENDBRANCH   8   9
ENDBRANCH   7   8
ENDBRANCH   1   7
TORSDOF 5
ENDMDL
MODEL 8
REMARK VINA RESULT:      -3.8     11.573     12.996
REMARK  5 active torsions:
REMARK  status: ('A' for Active; 'I' for Inactive)
REMARK    1  A    between atoms: C1_1  and  C5_5 
REMARK    2  A    between atoms: C1_1  and  S10_10 
REMARK    3  A    between atoms: C5_5  and  C8_8 
REMARK    4  A    between atoms: C6_6  and  C7_7 
REMARK    5  A    between atoms: C7_7  and  S10_10 
ROOT
HETATM    1  C1  UNL     1     -33.689  17.471  -4.776  1.00 20.00     0.186 C 
HETATM    2  O9  UNL     1     -33.404  18.228  -5.695  1.00 20.00    -0.286 OA
ENDROOT
BRANCH   1   3
HETATM    3  C5  UNL     1     -33.096  16.085  -4.595  1.00 20.00     0.094 C 
BRANCH   3   4
HETATM    4  C8  UNL     1     -34.155  14.971  -4.581  1.00 20.00    -0.015 C 
HETATM    5  C3  UNL     1     -34.561  14.616  -6.014  1.00 20.00     0.010 C 
HETATM    6  C4  UNL     1     -33.640  13.718  -3.866  1.00 20.00     0.010 C 
ENDBRANCH   3   4
ENDBRANCH   1   3
BRANCH   1   7
HETATM    7  S10 UNL     1     -34.809  17.923  -3.485  1.00 20.00    -0.093 SA
BRANCH   7   8
HETATM    8  C7  UNL     1     -33.648  18.510  -2.232  1.00 20.00     0.082 C 
BRANCH   8   9
HETATM    9  C6  UNL     1     -33.604  17.547  -1.051  1.00 20.00     0.006 C 
HETATM   10  C2  UNL     1     -34.670  16.469  -1.183  1.00 20.00     0.006 C 
ENDBRANCH   8   9
ENDBRANCH   7   8
ENDBRANCH   1   7
TORSDOF 5
ENDMDL
MODEL 9
REMARK VINA RESULT:      -3.8     11.430     12.060
REMARK  5 active torsions:
REMARK  status: ('A' for Active; 'I' for Inactive)
REMARK    1  A    between atoms: C1_1  and  C5_5 
REMARK    2  A    between atoms: C1_1  and  S10_10 
REMARK    3  A    between atoms: C5_5  and  C8_8 
REMARK    4  A    between atoms: C6_6  and  C7_7 
REMARK    5  A    between atoms: C7_7  and  S10_10 
ROOT
HETATM    1  C1  UNL     1     -33.292  15.770  -3.824  1.00 20.00     0.186 C 
HETATM    2  O9  UNL     1     -32.859  16.290  -4.845  1.00 20.00    -0.286 OA
ENDROOT
BRANCH   1   3
HETATM    3  C5  UNL     1     -33.373  16.467  -2.479  1.00 20.00     0.094 C 
BRANCH   3   4
HETATM    4  C8  UNL     1     -34.803  16.529  -1.915  1.00 20.00    -0.015 C 
HETATM    5  C3  UNL     1     -34.762  16.836  -0.416  1.00 20.00     0.010 C 
HETATM    6  C4  UNL     1     -35.643  17.588  -2.635  1.00 20.00     0.010 C 
ENDBRANCH   3   4
ENDBRANCH   1   3
BRANCH   1   7
HETATM    7  S10 UNL     1     -33.941  14.126  -3.798  1.00 20.00    -0.093 SA
BRANCH   7   8
HETATM    8  C7  UNL     1     -34.823  14.094  -5.374  1.00 20.00     0.082 C 
BRANCH   8   9
HETATM    9  C6  UNL     1     -36.104  14.918  -5.286  1.00 20.00     0.006 C 
HETATM   10  C2  UNL     1     -36.948  14.492  -4.093  1.00 20.00     0.006 C 
ENDBRANCH   8   9
ENDBRANCH   7   8
ENDBRANCH   1   7
TORSDOF 5
ENDMDL
