MODEL 1
REMARK VINA RESULT:      -4.5      0.000      0.000
REMARK  2 active torsions:
REMARK  status: ('A' for Active; 'I' for Inactive)
REMARK    1  A    between atoms: C1_1  and  C2_2 
REMARK    2  A    between atoms: C1_1  and  C3_3 
ROOT
HETATM    1  C2  UNL     1     -35.144  15.573  -2.437  1.00 20.00     0.043 A 
HETATM    2  C4  UNL     1     -35.473  15.947  -3.794  1.00 20.00     0.013 A 
HETATM    3  C5  UNL     1     -34.300  15.022  -3.491  1.00 20.00    -0.023 A 
HETATM    4  C8  UNL     1     -35.299  17.324  -4.339  1.00 20.00     0.012 C 
HETATM    5  C9  UNL     1     -34.479  13.555  -3.804  1.00 20.00     0.017 C 
HETATM    6  C10 UNL     1     -32.882  15.504  -3.682  1.00 20.00     0.017 C 
ENDROOT
BRANCH   1   7
HETATM    7  C1  UNL     1     -34.747  16.391  -1.514  1.00 20.00    -0.159 C 
BRANCH   7   8
HETATM    8  C3  UNL     1     -34.348  17.216  -0.585  1.00 20.00     0.022 C 
HETATM    9  C6  UNL     1     -33.115  18.060  -0.736  1.00 20.00     0.029 C 
HETATM   10  C7  UNL     1     -35.094  17.389   0.708  1.00 20.00     0.029 C 
ENDBRANCH   7   8
ENDBRANCH   1   7
TORSDOF 2
ENDMDL
MODEL 2
REMARK VINA RESULT:      -4.5      0.014      1.136
REMARK  2 active torsions:
REMARK  status: ('A' for Active; 'I' for Inactive)
REMARK    1  A    between atoms: C1_1  and  C2_2 
REMARK    2  A    between atoms: C1_1  and  C3_3 
ROOT
HETATM    1  C2  UNL     1     -35.146  15.561  -2.442  1.00 20.00     0.043 A 
HETATM    2  C4  UNL     1     -35.481  15.933  -3.799  1.00 20.00     0.013 A 
HETATM    3  C5  UNL     1     -34.303  15.013  -3.498  1.00 20.00    -0.023 A 
HETATM    4  C8  UNL     1     -35.314  17.310  -4.345  1.00 20.00     0.012 C 
HETATM    5  C9  UNL     1     -34.477  13.545  -3.809  1.00 20.00     0.017 C 
HETATM    6  C10 UNL     1     -32.888  15.501  -3.693  1.00 20.00     0.017 C 
ENDROOT
BRANCH   1   7
HETATM    7  C1  UNL     1     -34.751  16.382  -1.521  1.00 20.00    -0.159 C 
BRANCH   7   8
HETATM    8  C3  UNL     1     -34.353  17.209  -0.593  1.00 20.00     0.022 C 
HETATM    9  C6  UNL     1     -35.099  17.386   0.698  1.00 20.00     0.029 C 
HETATM   10  C7  UNL     1     -33.114  18.046  -0.743  1.00 20.00     0.029 C 
ENDBRANCH   7   8
ENDBRANCH   1   7
TORSDOF 2
ENDMDL
MODEL 3
REMARK VINA RESULT:      -4.2      1.022      4.280
REMARK  2 active torsions:
REMARK  status: ('A' for Active; 'I' for Inactive)
REMARK    1  A    between atoms: C1_1  and  C2_2 
REMARK    2  A    between atoms: C1_1  and  C3_3 
ROOT
HETATM    1  C2  UNL     1     -34.439  16.641  -0.772  1.00 20.00     0.043 A 
HETATM    2  C4  UNL     1     -33.768  17.916  -0.640  1.00 20.00     0.013 A 
HETATM    3  C5  UNL     1     -35.185  17.710  -0.117  1.00 20.00    -0.023 A 
HETATM    4  C8  UNL     1     -33.451  18.808  -1.791  1.00 20.00     0.012 C 
HETATM    5  C9  UNL     1     -35.359  17.595   1.379  1.00 20.00     0.017 C 
HETATM    6  C10 UNL     1     -36.353  18.375  -0.804  1.00 20.00     0.017 C 
ENDROOT
BRANCH   1   7
HETATM    7  C1  UNL     1     -34.764  16.084  -1.894  1.00 20.00    -0.159 C 
BRANCH   7   8
HETATM    8  C3  UNL     1     -35.090  15.522  -3.026  1.00 20.00     0.022 C 
HETATM    9  C6  UNL     1     -34.465  14.239  -3.495  1.00 20.00     0.029 C 
HETATM   10  C7  UNL     1     -36.121  16.111  -3.947  1.00 20.00     0.029 C 
ENDBRANCH   7   8
ENDBRANCH   1   7
TORSDOF 2
ENDMDL
MODEL 4
REMARK VINA RESULT:      -4.2      1.385      4.083
REMARK  2 active torsions:
REMARK  status: ('A' for Active; 'I' for Inactive)
REMARK    1  A    between atoms: C1_1  and  C2_2 
REMARK    2  A    between atoms: C1_1  and  C3_3 
ROOT
HETATM    1  C2  UNL     1     -34.438  15.902  -2.032  1.00 20.00     0.043 A 
HETATM    2  C4  UNL     1     -33.761  17.150  -2.306  1.00 20.00     0.013 A 
HETATM    3  C5  UNL     1     -34.990  17.099  -1.408  1.00 20.00    -0.023 A 
HETATM    4  C8  UNL     1     -33.759  17.816  -3.640  1.00 20.00     0.012 C 
HETATM    5  C9  UNL     1     -34.767  17.251   0.078  1.00 20.00     0.017 C 
HETATM    6  C10 UNL     1     -36.300  17.685  -1.877  1.00 20.00     0.017 C 
ENDROOT
BRANCH   1   7
HETATM    7  C1  UNL     1     -35.043  15.175  -2.916  1.00 20.00    -0.159 C 
BRANCH   7   8
HETATM    8  C3  UNL     1     -35.654  14.441  -3.806  1.00 20.00     0.022 C 
HETATM    9  C6  UNL     1     -34.949  13.364  -4.579  1.00 20.00     0.029 C 
HETATM   10  C7  UNL     1     -37.112  14.614  -4.124  1.00 20.00     0.029 C 
ENDBRANCH   7   8
ENDBRANCH   1   7
TORSDOF 2
ENDMDL
MODEL 5
REMARK VINA RESULT:      -4.0      2.019      4.604
REMARK  2 active torsions:
REMARK  status: ('A' for Active; 'I' for Inactive)
REMARK    1  A    between atoms: C1_1  and  C2_2 
REMARK    2  A    between atoms: C1_1  and  C3_3 
ROOT
HETATM    1  C2  UNL     1     -35.221  15.880  -4.235  1.00 20.00     0.043 A 
HETATM    2  C4  UNL     1     -35.378  14.610  -3.561  1.00 20.00     0.013 A 
HETATM    3  C5  UNL     1     -34.223  15.545  -3.225  1.00 20.00    -0.023 A 
HETATM    4  C8  UNL     1     -35.185  13.290  -4.227  1.00 20.00     0.012 C 
HETATM    5  C9  UNL     1     -34.303  16.299  -1.919  1.00 20.00     0.017 C 
HETATM    6  C10 UNL     1     -32.812  15.182  -3.620  1.00 20.00     0.017 C 
ENDROOT
BRANCH   1   7
HETATM    7  C1  UNL     1     -34.983  16.028  -5.499  1.00 20.00    -0.159 C 
BRANCH   7   8
HETATM    8  C3  UNL     1     -34.744  16.178  -6.773  1.00 20.00     0.022 C 
HETATM    9  C6  UNL     1     -34.501  17.524  -7.391  1.00 20.00     0.029 C 
HETATM   10  C7  UNL     1     -34.690  15.014  -7.721  1.00 20.00     0.029 C 
ENDBRANCH   7   8
ENDBRANCH   1   7
TORSDOF 2
ENDMDL
MODEL 6
REMARK VINA RESULT:      -4.0      1.424      2.716
REMARK  2 active torsions:
REMARK  status: ('A' for Active; 'I' for Inactive)
REMARK    1  A    between atoms: C1_1  and  C2_2 
REMARK    2  A    between atoms: C1_1  and  C3_3 
ROOT
HETATM    1  C2  UNL     1     -33.463  16.113  -4.157  1.00 20.00     0.043 A 
HETATM    2  C4  UNL     1     -33.722  14.722  -4.452  1.00 20.00     0.013 A 
HETATM    3  C5  UNL     1     -34.484  15.836  -5.160  1.00 20.00    -0.023 A 
HETATM    4  C8  UNL     1     -34.369  13.779  -3.495  1.00 20.00     0.012 C 
HETATM    5  C9  UNL     1     -34.115  16.119  -6.597  1.00 20.00     0.017 C 
HETATM    6  C10 UNL     1     -35.946  16.065  -4.863  1.00 20.00     0.017 C 
ENDROOT
BRANCH   1   7
HETATM    7  C1  UNL     1     -33.675  16.684  -3.014  1.00 20.00    -0.159 C 
BRANCH   7   8
HETATM    8  C3  UNL     1     -33.889  17.260  -1.863  1.00 20.00     0.022 C 
HETATM    9  C6  UNL     1     -34.669  16.596  -0.765  1.00 20.00     0.029 C 
HETATM   10  C7  UNL     1     -33.368  18.633  -1.543  1.00 20.00     0.029 C 
ENDBRANCH   7   8
ENDBRANCH   1   7
TORSDOF 2
ENDMDL
MODEL 7
REMARK VINA RESULT:      -4.0     12.586     14.849
REMARK  2 active torsions:
REMARK  status: ('A' for Active; 'I' for Inactive)
REMARK    1  A    between atoms: C1_1  and  C2_2 
REMARK    2  A    between atoms: C1_1  and  C3_3 
ROOT
HETATM    1  C2  UNL     1     -41.367   4.579  -2.075  1.00 20.00     0.043 A 
HETATM    2  C4  UNL     1     -42.087   5.818  -2.270  1.00 20.00     0.013 A 
HETATM    3  C5  UNL     1     -41.908   5.218  -0.881  1.00 20.00    -0.023 A 
HETATM    4  C8  UNL     1     -43.411   5.907  -2.949  1.00 20.00     0.012 C 
HETATM    5  C9  UNL     1     -40.913   5.888   0.037  1.00 20.00     0.017 C 
HETATM    6  C10 UNL     1     -43.089   4.625  -0.150  1.00 20.00     0.017 C 
ENDROOT
BRANCH   1   7
HETATM    7  C1  UNL     1     -41.733   3.425  -2.534  1.00 20.00    -0.159 C 
BRANCH   7   8
HETATM    8  C3  UNL     1     -42.102   2.262  -2.998  1.00 20.00     0.022 C 
HETATM    9  C6  UNL     1     -41.344   1.554  -4.085  1.00 20.00     0.029 C 
HETATM   10  C7  UNL     1     -43.311   1.538  -2.478  1.00 20.00     0.029 C 
ENDBRANCH   7   8
ENDBRANCH   1   7
TORSDOF 2
ENDMDL
MODEL 8
REMARK VINA RESULT:      -3.9      2.106      4.831
REMARK  2 active torsions:
REMARK  status: ('A' for Active; 'I' for Inactive)
REMARK    1  A    between atoms: C1_1  and  C2_2 
REMARK    2  A    between atoms: C1_1  and  C3_3 
ROOT
HETATM    1  C2  UNL     1     -35.533  14.940  -3.826  1.00 20.00     0.043 A 
HETATM    2  C4  UNL     1     -34.466  14.194  -3.196  1.00 20.00     0.013 A 
HETATM    3  C5  UNL     1     -34.514  15.716  -3.129  1.00 20.00    -0.023 A 
HETATM    4  C8  UNL     1     -33.418  13.450  -3.951  1.00 20.00     0.012 C 
HETATM    5  C9  UNL     1     -34.919  16.336  -1.812  1.00 20.00     0.017 C 
HETATM    6  C10 UNL     1     -33.509  16.543  -3.894  1.00 20.00     0.017 C 
ENDROOT
BRANCH   1   7
HETATM    7  C1  UNL     1     -35.761  14.981  -5.100  1.00 20.00    -0.159 C 
BRANCH   7   8
HETATM    8  C3  UNL     1     -35.990  15.022  -6.384  1.00 20.00     0.022 C 
HETATM    9  C6  UNL     1     -37.354  15.299  -6.948  1.00 20.00     0.029 C 
HETATM   10  C7  UNL     1     -34.905  14.800  -7.400  1.00 20.00     0.029 C 
ENDBRANCH   7   8
ENDBRANCH   1   7
TORSDOF 2
ENDMDL
MODEL 9
REMARK VINA RESULT:      -3.9      1.642      4.259
REMARK  2 active torsions:
REMARK  status: ('A' for Active; 'I' for Inactive)
REMARK    1  A    between atoms: C1_1  and  C2_2 
REMARK    2  A    between atoms: C1_1  and  C3_3 
ROOT
HETATM    1  C2  UNL     1     -35.155  15.461  -2.541  1.00 20.00     0.043 A 
HETATM    2  C4  UNL     1     -33.794  15.867  -2.815  1.00 20.00     0.013 A 
HETATM    3  C5  UNL     1     -34.744  16.765  -2.032  1.00 20.00    -0.023 A 
HETATM    4  C8  UNL     1     -33.291  16.212  -4.176  1.00 20.00     0.012 C 
HETATM    5  C9  UNL     1     -34.523  16.871  -0.542  1.00 20.00     0.017 C 
HETATM    6  C10 UNL     1     -35.269  18.039  -2.649  1.00 20.00     0.017 C 
ENDROOT
BRANCH   1   7
HETATM    7  C1  UNL     1     -36.068  15.263  -3.437  1.00 20.00    -0.159 C 
BRANCH   7   8
HETATM    8  C3  UNL     1     -36.987  15.063  -4.341  1.00 20.00     0.022 C 
HETATM    9  C6  UNL     1     -38.411  14.747  -3.982  1.00 20.00     0.029 C 
HETATM   10  C7  UNL     1     -36.695  15.137  -5.813  1.00 20.00     0.029 C 
ENDBRANCH   7   8
ENDBRANCH   1   7
TORSDOF 2
ENDMDL
