MODEL 1
REMARK VINA RESULT:      -3.5      0.000      0.000
REMARK  0 active torsions:
REMARK  status: ('A' for Active; 'I' for Inactive)
ROOT
HETATM    1  C1  UNL     1     -34.214  15.479  -6.858  1.00 20.00     0.027 C 
HETATM    2  C2  UNL     1     -33.990  16.544  -5.775  1.00 20.00     0.012 C 
HETATM    3  C3  UNL     1     -35.105  14.312  -6.449  1.00 20.00     0.167 C 
HETATM    4  C4  UNL     1     -35.280  13.542  -4.189  1.00 20.00     0.177 C 
HETATM    5  C5  UNL     1     -33.170  16.061  -4.574  1.00 20.00     0.074 C 
HETATM    6  C6  UNL     1     -35.570  14.903  -3.563  1.00 20.00     0.100 C 
HETATM    7  O7  UNL     1     -34.502  13.597  -5.377  1.00 20.00    -0.390 OA
HETATM    8  S8  UNL     1     -34.087  15.810  -3.014  1.00 20.00    -0.167 SA
ENDROOT
TORSDOF 0
ENDMDL
MODEL 2
REMARK VINA RESULT:      -3.5     11.682     12.693
REMARK  0 active torsions:
REMARK  status: ('A' for Active; 'I' for Inactive)
ROOT
HETATM    1  C1  UNL     1     -40.749   6.118  -0.131  1.00 20.00     0.027 C 
HETATM    2  C2  UNL     1     -41.420   4.746  -0.298  1.00 20.00     0.012 C 
HETATM    3  C3  UNL     1     -41.362   7.247  -0.951  1.00 20.00     0.167 C 
HETATM    4  C4  UNL     1     -42.463   6.881  -3.046  1.00 20.00     0.177 C 
HETATM    5  C5  UNL     1     -41.244   4.122  -1.686  1.00 20.00     0.074 C 
HETATM    6  C6  UNL     1     -43.395   5.774  -2.562  1.00 20.00     0.100 C 
HETATM    7  O7  UNL     1     -41.232   6.962  -2.339  1.00 20.00    -0.390 OA
HETATM    8  S8  UNL     1     -42.726   4.090  -2.754  1.00 20.00    -0.167 SA
ENDROOT
TORSDOF 0
ENDMDL
MODEL 3
REMARK VINA RESULT:      -3.5      1.999      3.334
REMARK  0 active torsions:
REMARK  status: ('A' for Active; 'I' for Inactive)
ROOT
HETATM    1  C1  UNL     1     -33.403  13.867  -3.813  1.00 20.00     0.027 C 
HETATM    2  C2  UNL     1     -34.758  13.758  -4.526  1.00 20.00     0.012 C 
HETATM    3  C3  UNL     1     -32.938  15.288  -3.512  1.00 20.00     0.167 C 
HETATM    4  C4  UNL     1     -33.553  17.168  -4.861  1.00 20.00     0.177 C 
HETATM    5  C5  UNL     1     -34.761  14.291  -5.962  1.00 20.00     0.074 C 
HETATM    6  C6  UNL     1     -35.055  16.902  -4.857  1.00 20.00     0.100 C 
HETATM    7  O7  UNL     1     -32.750  16.002  -4.728  1.00 20.00    -0.390 OA
HETATM    8  S8  UNL     1     -35.641  15.869  -6.239  1.00 20.00    -0.167 SA
ENDROOT
TORSDOF 0
ENDMDL
MODEL 4
REMARK VINA RESULT:      -3.5      1.508      2.614
REMARK  0 active torsions:
REMARK  status: ('A' for Active; 'I' for Inactive)
ROOT
HETATM    1  C1  UNL     1     -33.796  13.694  -3.636  1.00 20.00     0.027 C 
HETATM    2  C2  UNL     1     -32.928  14.954  -3.762  1.00 20.00     0.012 C 
HETATM    3  C3  UNL     1     -34.643  13.362  -4.859  1.00 20.00     0.167 C 
HETATM    4  C4  UNL     1     -35.458  15.034  -6.367  1.00 20.00     0.177 C 
HETATM    5  C5  UNL     1     -33.721  16.263  -3.833  1.00 20.00     0.074 C 
HETATM    6  C6  UNL     1     -34.118  15.723  -6.604  1.00 20.00     0.100 C 
HETATM    7  O7  UNL     1     -35.579  14.407  -5.097  1.00 20.00    -0.390 OA
HETATM    8  S8  UNL     1     -33.765  17.097  -5.458  1.00 20.00    -0.167 SA
ENDROOT
TORSDOF 0
ENDMDL
MODEL 5
REMARK VINA RESULT:      -3.5      2.021      3.424
REMARK  0 active torsions:
REMARK  status: ('A' for Active; 'I' for Inactive)
ROOT
HETATM    1  C1  UNL     1     -33.818  16.477  -2.602  1.00 20.00     0.027 C 
HETATM    2  C2  UNL     1     -34.680  15.213  -2.730  1.00 20.00     0.012 C 
HETATM    3  C3  UNL     1     -33.652  17.285  -3.884  1.00 20.00     0.167 C 
HETATM    4  C4  UNL     1     -33.717  16.292  -6.062  1.00 20.00     0.177 C 
HETATM    5  C5  UNL     1     -34.061  14.112  -3.596  1.00 20.00     0.074 C 
HETATM    6  C6  UNL     1     -35.028  15.535  -5.869  1.00 20.00     0.100 C 
HETATM    7  O7  UNL     1     -32.980  16.503  -4.864  1.00 20.00    -0.390 OA
HETATM    8  S8  UNL     1     -34.831  13.839  -5.231  1.00 20.00    -0.167 SA
ENDROOT
TORSDOF 0
ENDMDL
MODEL 6
REMARK VINA RESULT:      -3.4      1.907      2.655
REMARK  0 active torsions:
REMARK  status: ('A' for Active; 'I' for Inactive)
ROOT
HETATM    1  C1  UNL     1     -34.104  16.489  -6.524  1.00 20.00     0.027 C 
HETATM    2  C2  UNL     1     -34.467  15.009  -6.709  1.00 20.00     0.012 C 
HETATM    3  C3  UNL     1     -33.388  16.825  -5.220  1.00 20.00     0.167 C 
HETATM    4  C4  UNL     1     -33.710  15.577  -3.203  1.00 20.00     0.177 C 
HETATM    5  C5  UNL     1     -35.536  14.494  -5.741  1.00 20.00     0.074 C 
HETATM    6  C6  UNL     1     -33.461  14.199  -3.809  1.00 20.00     0.100 C 
HETATM    7  O7  UNL     1     -34.234  16.533  -4.115  1.00 20.00    -0.390 OA
HETATM    8  S8  UNL     1     -34.961  13.366  -4.423  1.00 20.00    -0.167 SA
ENDROOT
TORSDOF 0
ENDMDL
MODEL 7
REMARK VINA RESULT:      -3.4      1.768      2.337
REMARK  0 active torsions:
REMARK  status: ('A' for Active; 'I' for Inactive)
ROOT
HETATM    1  C1  UNL     1     -33.431  13.645  -3.809  1.00 20.00     0.027 C 
HETATM    2  C2  UNL     1     -33.097  15.133  -3.623  1.00 20.00     0.012 C 
HETATM    3  C3  UNL     1     -34.656  13.355  -4.669  1.00 20.00     0.167 C 
HETATM    4  C4  UNL     1     -36.509  14.862  -4.839  1.00 20.00     0.177 C 
HETATM    5  C5  UNL     1     -34.125  15.913  -2.798  1.00 20.00     0.074 C 
HETATM    6  C6  UNL     1     -35.693  16.107  -5.172  1.00 20.00     0.100 C 
HETATM    7  O7  UNL     1     -35.817  13.899  -4.054  1.00 20.00    -0.390 OA
HETATM    8  S8  UNL     1     -35.184  17.084  -3.720  1.00 20.00    -0.167 SA
ENDROOT
TORSDOF 0
ENDMDL
MODEL 8
REMARK VINA RESULT:      -3.4      1.166      2.603
REMARK  0 active torsions:
REMARK  status: ('A' for Active; 'I' for Inactive)
ROOT
HETATM    1  C1  UNL     1     -34.790  13.281  -5.015  1.00 20.00     0.027 C 
HETATM    2  C2  UNL     1     -33.977  13.725  -3.790  1.00 20.00     0.012 C 
HETATM    3  C3  UNL     1     -34.808  14.266  -6.178  1.00 20.00     0.167 C 
HETATM    4  C4  UNL     1     -34.598  16.632  -5.877  1.00 20.00     0.177 C 
HETATM    5  C5  UNL     1     -34.566  14.925  -3.043  1.00 20.00     0.074 C 
HETATM    6  C6  UNL     1     -33.343  16.588  -5.010  1.00 20.00     0.100 C 
HETATM    7  O7  UNL     1     -35.426  15.481  -5.771  1.00 20.00    -0.390 OA
HETATM    8  S8  UNL     1     -33.670  16.509  -3.218  1.00 20.00    -0.167 SA
ENDROOT
TORSDOF 0
ENDMDL
MODEL 9
REMARK VINA RESULT:      -3.4      1.994      2.875
REMARK  0 active torsions:
REMARK  status: ('A' for Active; 'I' for Inactive)
ROOT
HETATM    1  C1  UNL     1     -33.574  15.764  -2.850  1.00 20.00     0.027 C 
HETATM    2  C2  UNL     1     -34.869  16.439  -3.325  1.00 20.00     0.012 C 
HETATM    3  C3  UNL     1     -33.127  14.561  -3.673  1.00 20.00     0.167 C 
HETATM    4  C4  UNL     1     -34.662  13.147  -4.846  1.00 20.00     0.177 C 
HETATM    5  C5  UNL     1     -36.128  15.584  -3.153  1.00 20.00     0.074 C 
HETATM    6  C6  UNL     1     -35.406  14.263  -5.575  1.00 20.00     0.100 C 
HETATM    7  O7  UNL     1     -34.106  13.532  -3.596  1.00 20.00    -0.390 OA
HETATM    8  S8  UNL     1     -36.861  14.904  -4.684  1.00 20.00    -0.167 SA
ENDROOT
TORSDOF 0
ENDMDL
