MODEL 1
REMARK VINA RESULT:      -4.5      0.000      0.000
REMARK  0 active torsions:
REMARK  status: ('A' for Active; 'I' for Inactive)
ROOT
HETATM    1  C1  UNL     1     -34.456  13.781  -4.936  1.00 20.00     0.141 C 
HETATM    2  C2  UNL     1     -33.419  13.902  -3.837  1.00 20.00     0.079 C 
HETATM    3  C3  UNL     1     -33.336  15.330  -3.314  1.00 20.00     0.008 C 
HETATM    4  C4  UNL     1     -33.199  16.358  -4.443  1.00 20.00     0.017 C 
HETATM    5  C5  UNL     1     -37.049  15.099  -6.650  1.00 20.00     0.085 C 
HETATM    6  C6  UNL     1     -36.970  16.557  -6.238  1.00 20.00     0.084 C 
HETATM    7  C7  UNL     1     -34.324  14.799  -6.062  1.00 20.00     0.130 C 
HETATM    8  C8  UNL     1     -34.297  16.235  -5.518  1.00 20.00     0.068 C 
HETATM    9  O9  UNL     1     -35.271  12.861  -4.929  1.00 20.00    -0.297 OA
HETATM   10  S10 UNL     1     -35.510  14.506  -7.410  1.00 20.00    -0.155 SA
HETATM   11  S11 UNL     1     -35.890  16.801  -4.803  1.00 20.00    -0.162 SA
ENDROOT
TORSDOF 0
ENDMDL
MODEL 2
REMARK VINA RESULT:      -4.5      2.257      2.941
REMARK  0 active torsions:
REMARK  status: ('A' for Active; 'I' for Inactive)
ROOT
HETATM    1  C1  UNL     1     -36.153  14.411  -4.160  1.00 20.00     0.141 C 
HETATM    2  C2  UNL     1     -35.117  13.314  -4.302  1.00 20.00     0.079 C 
HETATM    3  C3  UNL     1     -33.822  13.686  -3.590  1.00 20.00     0.008 C 
HETATM    4  C4  UNL     1     -33.331  15.088  -3.968  1.00 20.00     0.017 C 
HETATM    5  C5  UNL     1     -37.189  17.265  -2.683  1.00 20.00     0.085 C 
HETATM    6  C6  UNL     1     -35.910  17.740  -2.020  1.00 20.00     0.084 C 
HETATM    7  C7  UNL     1     -35.671  15.807  -4.535  1.00 20.00     0.130 C 
HETATM    8  C8  UNL     1     -34.396  16.184  -3.767  1.00 20.00     0.068 C 
HETATM    9  O9  UNL     1     -37.312  14.142  -3.849  1.00 20.00    -0.297 OA
HETATM   10  S10 UNL     1     -37.004  17.045  -4.476  1.00 20.00    -0.155 SA
HETATM   11  S11 UNL     1     -34.648  16.441  -1.967  1.00 20.00    -0.162 SA
ENDROOT
TORSDOF 0
ENDMDL
MODEL 3
REMARK VINA RESULT:      -4.4      2.207      3.285
REMARK  0 active torsions:
REMARK  status: ('A' for Active; 'I' for Inactive)
ROOT
HETATM    1  C1  UNL     1     -34.955  15.478  -5.622  1.00 20.00     0.141 C 
HETATM    2  C2  UNL     1     -35.032  13.965  -5.669  1.00 20.00     0.079 C 
HETATM    3  C3  UNL     1     -34.673  13.354  -4.321  1.00 20.00     0.008 C 
HETATM    4  C4  UNL     1     -33.362  13.914  -3.757  1.00 20.00     0.017 C 
HETATM    5  C5  UNL     1     -34.707  18.326  -3.827  1.00 20.00     0.085 C 
HETATM    6  C6  UNL     1     -34.262  17.793  -2.479  1.00 20.00     0.084 C 
HETATM    7  C7  UNL     1     -33.654  16.041  -5.063  1.00 20.00     0.130 C 
HETATM    8  C8  UNL     1     -33.339  15.454  -3.681  1.00 20.00     0.068 C 
HETATM    9  O9  UNL     1     -35.859  16.166  -6.092  1.00 20.00    -0.297 OA
HETATM   10  S10 UNL     1     -33.578  17.856  -5.169  1.00 20.00    -0.155 SA
HETATM   11  S11 UNL     1     -34.482  15.998  -2.352  1.00 20.00    -0.162 SA
ENDROOT
TORSDOF 0
ENDMDL
MODEL 4
REMARK VINA RESULT:      -4.3      2.406      3.331
REMARK  0 active torsions:
REMARK  status: ('A' for Active; 'I' for Inactive)
ROOT
HETATM    1  C1  UNL     1     -34.086  17.327  -4.321  1.00 20.00     0.141 C 
HETATM    2  C2  UNL     1     -33.713  17.922  -2.978  1.00 20.00     0.079 C 
HETATM    3  C3  UNL     1     -33.730  16.862  -1.883  1.00 20.00     0.008 C 
HETATM    4  C4  UNL     1     -35.025  16.042  -1.886  1.00 20.00     0.017 C 
HETATM    5  C5  UNL     1     -34.627  14.613  -6.254  1.00 20.00     0.085 C 
HETATM    6  C6  UNL     1     -34.743  13.519  -5.209  1.00 20.00     0.084 C 
HETATM    7  C7  UNL     1     -35.373  16.511  -4.330  1.00 20.00     0.130 C 
HETATM    8  C8  UNL     1     -35.348  15.414  -3.257  1.00 20.00     0.068 C 
HETATM    9  O9  UNL     1     -33.422  17.581  -5.324  1.00 20.00    -0.297 OA
HETATM   10  S10 UNL     1     -35.830  15.949  -5.999  1.00 20.00    -0.155 SA
HETATM   11  S11 UNL     1     -34.148  14.064  -3.586  1.00 20.00    -0.162 SA
ENDROOT
TORSDOF 0
ENDMDL
MODEL 5
REMARK VINA RESULT:      -4.2      1.992      2.765
REMARK  0 active torsions:
REMARK  status: ('A' for Active; 'I' for Inactive)
ROOT
HETATM    1  C1  UNL     1     -35.328  16.021  -3.270  1.00 20.00     0.141 C 
HETATM    2  C2  UNL     1     -33.956  15.855  -2.646  1.00 20.00     0.079 C 
HETATM    3  C3  UNL     1     -33.040  15.034  -3.544  1.00 20.00     0.008 C 
HETATM    4  C4  UNL     1     -33.696  13.730  -4.011  1.00 20.00     0.017 C 
HETATM    5  C5  UNL     1     -37.357  15.756  -5.954  1.00 20.00     0.085 C 
HETATM    6  C6  UNL     1     -36.533  14.866  -6.866  1.00 20.00     0.084 C 
HETATM    7  C7  UNL     1     -35.986  14.729  -3.735  1.00 20.00     0.130 C 
HETATM    8  C8  UNL     1     -35.068  13.943  -4.682  1.00 20.00     0.068 C 
HETATM    9  O9  UNL     1     -35.873  17.123  -3.298  1.00 20.00    -0.297 OA
HETATM   10  S10 UNL     1     -37.682  14.989  -4.341  1.00 20.00    -0.155 SA
HETATM   11  S11 UNL     1     -34.811  14.739  -6.316  1.00 20.00    -0.162 SA
ENDROOT
TORSDOF 0
ENDMDL
MODEL 6
REMARK VINA RESULT:      -4.2      1.822      2.830
REMARK  0 active torsions:
REMARK  status: ('A' for Active; 'I' for Inactive)
ROOT
HETATM    1  C1  UNL     1     -33.691  16.105  -4.468  1.00 20.00     0.141 C 
HETATM    2  C2  UNL     1     -33.136  14.978  -3.620  1.00 20.00     0.079 C 
HETATM    3  C3  UNL     1     -33.695  13.632  -4.060  1.00 20.00     0.008 C 
HETATM    4  C4  UNL     1     -35.223  13.648  -4.188  1.00 20.00     0.017 C 
HETATM    5  C5  UNL     1     -35.370  17.129  -7.211  1.00 20.00     0.085 C 
HETATM    6  C6  UNL     1     -36.031  15.839  -7.657  1.00 20.00     0.084 C 
HETATM    7  C7  UNL     1     -35.208  16.128  -4.598  1.00 20.00     0.130 C 
HETATM    8  C8  UNL     1     -35.748  14.779  -5.095  1.00 20.00     0.068 C 
HETATM    9  O9  UNL     1     -32.945  16.970  -4.927  1.00 20.00    -0.297 OA
HETATM   10  S10 UNL     1     -35.809  17.584  -5.510  1.00 20.00    -0.155 SA
HETATM   11  S11 UNL     1     -35.316  14.390  -6.836  1.00 20.00    -0.162 SA
ENDROOT
TORSDOF 0
ENDMDL
MODEL 7
REMARK VINA RESULT:      -4.1      2.329      3.633
REMARK  0 active torsions:
REMARK  status: ('A' for Active; 'I' for Inactive)
ROOT
HETATM    1  C1  UNL     1     -33.573  14.775  -3.434  1.00 20.00     0.141 C 
HETATM    2  C2  UNL     1     -34.000  13.471  -4.078  1.00 20.00     0.079 C 
HETATM    3  C3  UNL     1     -35.259  13.657  -4.914  1.00 20.00     0.008 C 
HETATM    4  C4  UNL     1     -36.367  14.388  -4.146  1.00 20.00     0.017 C 
HETATM    5  C5  UNL     1     -33.843  18.132  -3.198  1.00 20.00     0.085 C 
HETATM    6  C6  UNL     1     -35.140  18.381  -3.945  1.00 20.00     0.084 C 
HETATM    7  C7  UNL     1     -34.669  15.506  -2.668  1.00 20.00     0.130 C 
HETATM    8  C8  UNL     1     -35.908  15.732  -3.544  1.00 20.00     0.068 C 
HETATM    9  O9  UNL     1     -32.398  15.138  -3.473  1.00 20.00    -0.297 OA
HETATM   10  S10 UNL     1     -34.050  16.985  -1.807  1.00 20.00    -0.155 SA
HETATM   11  S11 UNL     1     -35.659  16.935  -4.908  1.00 20.00    -0.162 SA
ENDROOT
TORSDOF 0
ENDMDL
MODEL 8
REMARK VINA RESULT:      -4.1      2.083      3.174
REMARK  0 active torsions:
REMARK  status: ('A' for Active; 'I' for Inactive)
ROOT
HETATM    1  C1  UNL     1     -33.297  15.106  -3.872  1.00 20.00     0.141 C 
HETATM    2  C2  UNL     1     -33.583  13.620  -3.792  1.00 20.00     0.079 C 
HETATM    3  C3  UNL     1     -34.856  13.264  -4.549  1.00 20.00     0.008 C 
HETATM    4  C4  UNL     1     -36.034  14.167  -4.167  1.00 20.00     0.017 C 
HETATM    5  C5  UNL     1     -33.923  18.121  -5.255  1.00 20.00     0.085 C 
HETATM    6  C6  UNL     1     -35.240  17.859  -5.962  1.00 20.00     0.084 C 
HETATM    7  C7  UNL     1     -34.464  16.009  -3.493  1.00 20.00     0.130 C 
HETATM    8  C8  UNL     1     -35.721  15.670  -4.306  1.00 20.00     0.068 C 
HETATM    9  O9  UNL     1     -32.168  15.513  -4.140  1.00 20.00    -0.297 OA
HETATM   10  S10 UNL     1     -34.006  17.771  -3.476  1.00 20.00    -0.155 SA
HETATM   11  S11 UNL     1     -35.602  16.088  -6.089  1.00 20.00    -0.162 SA
ENDROOT
TORSDOF 0
ENDMDL
MODEL 9
REMARK VINA RESULT:      -4.1      2.266      3.146
REMARK  0 active torsions:
REMARK  status: ('A' for Active; 'I' for Inactive)
ROOT
HETATM    1  C1  UNL     1     -34.030  16.427  -2.697  1.00 20.00     0.141 C 
HETATM    2  C2  UNL     1     -33.830  17.929  -2.650  1.00 20.00     0.079 C 
HETATM    3  C3  UNL     1     -34.142  18.567  -3.997  1.00 20.00     0.008 C 
HETATM    4  C4  UNL     1     -33.432  17.860  -5.157  1.00 20.00     0.017 C 
HETATM    5  C5  UNL     1     -35.217  13.696  -4.287  1.00 20.00     0.085 C 
HETATM    6  C6  UNL     1     -35.470  14.246  -5.679  1.00 20.00     0.084 C 
HETATM    7  C7  UNL     1     -33.326  15.718  -3.847  1.00 20.00     0.130 C 
HETATM    8  C8  UNL     1     -33.696  16.341  -5.200  1.00 20.00     0.068 C 
HETATM    9  O9  UNL     1     -34.648  15.849  -1.804  1.00 20.00    -0.297 OA
HETATM   10  S10 UNL     1     -33.494  13.908  -3.758  1.00 20.00    -0.155 SA
HETATM   11  S11 UNL     1     -35.436  16.058  -5.710  1.00 20.00    -0.162 SA
ENDROOT
TORSDOF 0
ENDMDL
