MODEL 1
REMARK VINA RESULT:      -5.5      0.000      0.000
REMARK  1 active torsions:
REMARK  status: ('A' for Active; 'I' for Inactive)
REMARK    1  A    between atoms: C9_9  and  O10_10 
ROOT
HETATM    1  C1  UNL     1     -33.900  17.105  -4.804  1.00 20.00     0.053 A 
HETATM    2  C2  UNL     1     -34.079  15.064  -2.855  1.00 20.00     0.055 A 
HETATM    3  C3  UNL     1     -34.149  15.792  -5.166  1.00 20.00    -0.046 A 
HETATM    4  C4  UNL     1     -34.237  14.779  -4.202  1.00 20.00    -0.020 A 
HETATM    5  C5  UNL     1     -33.752  17.400  -3.447  1.00 20.00     0.155 A 
HETATM    6  C6  UNL     1     -33.841  16.388  -2.480  1.00 20.00     0.155 A 
HETATM    7  C7  UNL     1     -34.306  15.233  -6.546  1.00 20.00     0.042 C 
HETATM    8  C8  UNL     1     -34.967  13.882  -6.241  1.00 20.00     0.041 C 
HETATM    9  C9  UNL     1     -34.458  13.449  -4.856  1.00 20.00     0.152 C 
HETATM   10  F11 UNL     1     -33.516  18.663  -3.064  1.00 20.00    -0.203 F 
HETATM   11  F12 UNL     1     -33.687  16.693  -1.184  1.00 20.00    -0.203 F 
ENDROOT
BRANCH   9  12
HETATM   12  O10 UNL     1     -35.429  12.677  -4.179  1.00 20.00    -0.391 OA
HETATM   13  H20 UNL     1     -35.283  12.803  -3.225  1.00 20.00     0.210 HD
ENDBRANCH   9  12
TORSDOF 1
ENDMDL
MODEL 2
REMARK VINA RESULT:      -5.1     11.844     13.136
REMARK  1 active torsions:
REMARK  status: ('A' for Active; 'I' for Inactive)
REMARK    1  A    between atoms: C9_9  and  O10_10 
ROOT
HETATM    1  C1  UNL     1     -32.609   7.270   5.215  1.00 20.00     0.053 A 
HETATM    2  C2  UNL     1     -33.651   5.679   3.122  1.00 20.00     0.055 A 
HETATM    3  C3  UNL     1     -33.658   6.394   5.438  1.00 20.00    -0.046 A 
HETATM    4  C4  UNL     1     -34.175   5.605   4.402  1.00 20.00    -0.020 A 
HETATM    5  C5  UNL     1     -32.068   7.339   3.930  1.00 20.00     0.155 A 
HETATM    6  C6  UNL     1     -32.584   6.550   2.892  1.00 20.00     0.155 A 
HETATM    7  C7  UNL     1     -34.418   6.174   6.710  1.00 20.00     0.042 C 
HETATM    8  C8  UNL     1     -35.105   4.834   6.412  1.00 20.00     0.041 C 
HETATM    9  C9  UNL     1     -35.333   4.789   4.892  1.00 20.00     0.152 C 
HETATM   10  F11 UNL     1     -31.048   8.174   3.683  1.00 20.00    -0.203 F 
HETATM   11  F12 UNL     1     -32.054   6.640   1.664  1.00 20.00    -0.203 F 
ENDROOT
BRANCH   9  12
HETATM   12  O10 UNL     1     -35.287   3.460   4.413  1.00 20.00    -0.391 OA
HETATM   13  H20 UNL     1     -34.535   3.400   3.799  1.00 20.00     0.210 HD
ENDBRANCH   9  12
TORSDOF 1
ENDMDL
MODEL 3
REMARK VINA RESULT:      -4.9      1.355      2.443
REMARK  1 active torsions:
REMARK  status: ('A' for Active; 'I' for Inactive)
REMARK    1  A    between atoms: C9_9  and  O10_10 
ROOT
HETATM    1  C1  UNL     1     -34.534  15.504  -2.296  1.00 20.00     0.053 A 
HETATM    2  C2  UNL     1     -33.934  17.086  -4.562  1.00 20.00     0.055 A 
HETATM    3  C3  UNL     1     -34.709  15.011  -3.577  1.00 20.00    -0.046 A 
HETATM    4  C4  UNL     1     -34.412  15.794  -4.701  1.00 20.00    -0.020 A 
HETATM    5  C5  UNL     1     -34.040  16.802  -2.148  1.00 20.00     0.155 A 
HETATM    6  C6  UNL     1     -33.742  17.587  -3.272  1.00 20.00     0.155 A 
HETATM    7  C7  UNL     1     -35.253  13.676  -3.982  1.00 20.00     0.042 C 
HETATM    8  C8  UNL     1     -34.788  13.601  -5.443  1.00 20.00     0.041 C 
HETATM    9  C9  UNL     1     -34.738  15.049  -5.960  1.00 20.00     0.152 C 
HETATM   10  F11 UNL     1     -33.855  17.307  -0.920  1.00 20.00    -0.203 F 
HETATM   11  F12 UNL     1     -33.278  18.833  -3.106  1.00 20.00    -0.203 F 
ENDROOT
BRANCH   9  12
HETATM   12  O10 UNL     1     -33.734  15.200  -6.943  1.00 20.00    -0.391 OA
HETATM   13  H20 UNL     1     -33.707  14.375  -7.458  1.00 20.00     0.210 HD
ENDBRANCH   9  12
TORSDOF 1
ENDMDL
MODEL 4
REMARK VINA RESULT:      -4.9      2.745      3.569
REMARK  1 active torsions:
REMARK  status: ('A' for Active; 'I' for Inactive)
REMARK    1  A    between atoms: C9_9  and  O10_10 
ROOT
HETATM    1  C1  UNL     1     -33.688  16.654  -5.908  1.00 20.00     0.053 A 
HETATM    2  C2  UNL     1     -35.960  14.974  -6.007  1.00 20.00     0.055 A 
HETATM    3  C3  UNL     1     -33.869  15.644  -4.979  1.00 20.00    -0.046 A 
HETATM    4  C4  UNL     1     -34.995  14.810  -5.027  1.00 20.00    -0.020 A 
HETATM    5  C5  UNL     1     -34.651  16.816  -6.906  1.00 20.00     0.155 A 
HETATM    6  C6  UNL     1     -35.778  15.982  -6.956  1.00 20.00     0.155 A 
HETATM    7  C7  UNL     1     -33.001  15.304  -3.808  1.00 20.00     0.042 C 
HETATM    8  C8  UNL     1     -33.497  13.890  -3.475  1.00 20.00     0.041 C 
HETATM    9  C9  UNL     1     -34.978  13.840  -3.885  1.00 20.00     0.152 C 
HETATM   10  F11 UNL     1     -34.501  17.783  -7.823  1.00 20.00    -0.203 F 
HETATM   11  F12 UNL     1     -36.694  16.162  -7.918  1.00 20.00    -0.203 F 
ENDROOT
BRANCH   9  12
HETATM   12  O10 UNL     1     -35.348  12.537  -4.289  1.00 20.00    -0.391 OA
HETATM   13  H20 UNL     1     -36.174  12.615  -4.796  1.00 20.00     0.210 HD
ENDBRANCH   9  12
TORSDOF 1
ENDMDL
MODEL 5
REMARK VINA RESULT:      -4.9      3.073      4.602
REMARK  1 active torsions:
REMARK  status: ('A' for Active; 'I' for Inactive)
REMARK    1  A    between atoms: C9_9  and  O10_10 
ROOT
HETATM    1  C1  UNL     1     -34.674  14.371  -3.426  1.00 20.00     0.053 A 
HETATM    2  C2  UNL     1     -33.911  16.383  -5.261  1.00 20.00     0.055 A 
HETATM    3  C3  UNL     1     -34.434  15.667  -3.005  1.00 20.00    -0.046 A 
HETATM    4  C4  UNL     1     -34.055  16.665  -3.912  1.00 20.00    -0.020 A 
HETATM    5  C5  UNL     1     -34.543  14.083  -4.786  1.00 20.00     0.155 A 
HETATM    6  C6  UNL     1     -34.165  15.081  -5.697  1.00 20.00     0.155 A 
HETATM    7  C7  UNL     1     -34.475  16.202  -1.606  1.00 20.00     0.042 C 
HETATM    8  C8  UNL     1     -34.548  17.712  -1.872  1.00 20.00     0.041 C 
HETATM    9  C9  UNL     1     -33.806  17.958  -3.196  1.00 20.00     0.152 C 
HETATM   10  F11 UNL     1     -34.773  12.838  -5.227  1.00 20.00    -0.203 F 
HETATM   11  F12 UNL     1     -34.037  14.779  -6.996  1.00 20.00    -0.203 F 
ENDROOT
BRANCH   9  12
HETATM   12  O10 UNL     1     -34.355  19.063  -3.886  1.00 20.00    -0.391 OA
HETATM   13  H20 UNL     1     -34.659  18.741  -4.752  1.00 20.00     0.210 HD
ENDBRANCH   9  12
TORSDOF 1
ENDMDL
MODEL 6
REMARK VINA RESULT:      -4.8      1.767      2.187
REMARK  1 active torsions:
REMARK  status: ('A' for Active; 'I' for Inactive)
REMARK    1  A    between atoms: C9_9  and  O10_10 
ROOT
HETATM    1  C1  UNL     1     -36.207  16.277  -2.608  1.00 20.00     0.053 A 
HETATM    2  C2  UNL     1     -33.399  15.953  -2.704  1.00 20.00     0.055 A 
HETATM    3  C3  UNL     1     -35.630  15.271  -3.364  1.00 20.00    -0.046 A 
HETATM    4  C4  UNL     1     -34.239  15.109  -3.413  1.00 20.00    -0.020 A 
HETATM    5  C5  UNL     1     -35.367  17.123  -1.881  1.00 20.00     0.155 A 
HETATM    6  C6  UNL     1     -33.974  16.962  -1.928  1.00 20.00     0.155 A 
HETATM    7  C7  UNL     1     -36.316  14.274  -4.246  1.00 20.00     0.042 C 
HETATM    8  C8  UNL     1     -35.207  13.229  -4.426  1.00 20.00     0.041 C 
HETATM    9  C9  UNL     1     -33.872  13.989  -4.338  1.00 20.00     0.152 C 
HETATM   10  F11 UNL     1     -35.895  18.104  -1.136  1.00 20.00    -0.203 F 
HETATM   11  F12 UNL     1     -33.187  17.792  -1.229  1.00 20.00    -0.203 F 
ENDROOT
BRANCH   9  12
HETATM   12  O10 UNL     1     -32.856  13.166  -3.802  1.00 20.00    -0.391 OA
HETATM   13  H20 UNL     1     -32.896  13.252  -2.834  1.00 20.00     0.210 HD
ENDBRANCH   9  12
TORSDOF 1
ENDMDL
MODEL 7
REMARK VINA RESULT:      -4.8      2.800      3.528
REMARK  1 active torsions:
REMARK  status: ('A' for Active; 'I' for Inactive)
REMARK    1  A    between atoms: C9_9  and  O10_10 
ROOT
HETATM    1  C1  UNL     1     -33.991  15.943  -3.221  1.00 20.00     0.053 A 
HETATM    2  C2  UNL     1     -35.422  13.801  -4.387  1.00 20.00     0.055 A 
HETATM    3  C3  UNL     1     -35.362  16.014  -3.399  1.00 20.00    -0.046 A 
HETATM    4  C4  UNL     1     -36.072  14.954  -3.977  1.00 20.00    -0.020 A 
HETATM    5  C5  UNL     1     -33.331  14.779  -3.619  1.00 20.00     0.155 A 
HETATM    6  C6  UNL     1     -34.040  13.716  -4.198  1.00 20.00     0.155 A 
HETATM    7  C7  UNL     1     -36.272  17.161  -3.087  1.00 20.00     0.042 C 
HETATM    8  C8  UNL     1     -37.639  16.464  -3.104  1.00 20.00     0.041 C 
HETATM    9  C9  UNL     1     -37.524  15.302  -4.105  1.00 20.00     0.152 C 
HETATM   10  F11 UNL     1     -32.004  14.678  -3.455  1.00 20.00    -0.203 F 
HETATM   11  F12 UNL     1     -33.385  12.612  -4.581  1.00 20.00    -0.203 F 
ENDROOT
BRANCH   9  12
HETATM   12  O10 UNL     1     -38.364  14.229  -3.733  1.00 20.00    -0.391 OA
HETATM   13  H20 UNL     1     -38.098  13.950  -2.840  1.00 20.00     0.210 HD
ENDBRANCH   9  12
TORSDOF 1
ENDMDL
MODEL 8
REMARK VINA RESULT:      -4.7      3.289      4.332
REMARK  1 active torsions:
REMARK  status: ('A' for Active; 'I' for Inactive)
REMARK    1  A    between atoms: C9_9  and  O10_10 
ROOT
HETATM    1  C1  UNL     1     -36.656  15.695  -4.770  1.00 20.00     0.053 A 
HETATM    2  C2  UNL     1     -34.390  14.427  -5.890  1.00 20.00     0.055 A 
HETATM    3  C3  UNL     1     -35.477  15.579  -4.055  1.00 20.00    -0.046 A 
HETATM    4  C4  UNL     1     -34.353  14.951  -4.608  1.00 20.00    -0.020 A 
HETATM    5  C5  UNL     1     -36.696  15.181  -6.068  1.00 20.00     0.155 A 
HETATM    6  C6  UNL     1     -35.572  14.553  -6.624  1.00 20.00     0.155 A 
HETATM    7  C7  UNL     1     -35.208  16.016  -2.648  1.00 20.00     0.042 C 
HETATM    8  C8  UNL     1     -33.673  16.002  -2.625  1.00 20.00     0.041 C 
HETATM    9  C9  UNL     1     -33.232  14.910  -3.614  1.00 20.00     0.152 C 
HETATM   10  F11 UNL     1     -37.821  15.282  -6.789  1.00 20.00    -0.203 F 
HETATM   11  F12 UNL     1     -35.636  14.059  -7.868  1.00 20.00    -0.203 F 
ENDROOT
BRANCH   9  12
HETATM   12  O10 UNL     1     -31.988  15.232  -4.201  1.00 20.00    -0.391 OA
HETATM   13  H20 UNL     1     -31.695  14.452  -4.704  1.00 20.00     0.210 HD
ENDBRANCH   9  12
TORSDOF 1
ENDMDL
MODEL 9
REMARK VINA RESULT:      -4.7     12.103     13.452
REMARK  1 active torsions:
REMARK  status: ('A' for Active; 'I' for Inactive)
REMARK    1  A    between atoms: C9_9  and  O10_10 
ROOT
HETATM    1  C1  UNL     1     -34.888   4.502   4.521  1.00 20.00     0.053 A 
HETATM    2  C2  UNL     1     -33.644   6.824   5.548  1.00 20.00     0.055 A 
HETATM    3  C3  UNL     1     -34.076   5.289   3.723  1.00 20.00    -0.046 A 
HETATM    4  C4  UNL     1     -33.459   6.440   4.230  1.00 20.00    -0.020 A 
HETATM    5  C5  UNL     1     -35.068   4.877   5.854  1.00 20.00     0.155 A 
HETATM    6  C6  UNL     1     -34.451   6.029   6.364  1.00 20.00     0.155 A 
HETATM    7  C7  UNL     1     -33.765   5.110   2.269  1.00 20.00     0.042 C 
HETATM    8  C8  UNL     1     -32.527   6.007   2.122  1.00 20.00     0.041 C 
HETATM    9  C9  UNL     1     -32.682   7.136   3.154  1.00 20.00     0.152 C 
HETATM   10  F11 UNL     1     -35.845   4.133   6.654  1.00 20.00    -0.203 F 
HETATM   11  F12 UNL     1     -34.646   6.374   7.644  1.00 20.00    -0.203 F 
ENDROOT
BRANCH   9  12
HETATM   12  O10 UNL     1     -31.420   7.580   3.610  1.00 20.00    -0.391 OA
HETATM   13  H20 UNL     1     -31.083   8.215   2.955  1.00 20.00     0.210 HD
ENDBRANCH   9  12
TORSDOF 1
ENDMDL
