MODEL 1
REMARK VINA RESULT:      -4.6      0.000      0.000
REMARK  0 active torsions:
REMARK  status: ('A' for Active; 'I' for Inactive)
ROOT
HETATM    1  C1  UNL     1     -34.751  18.116   2.428  1.00 20.00     0.011 A 
HETATM    2  C2  UNL     1     -34.112  18.238   3.664  1.00 20.00     0.024 A 
HETATM    3  C3  UNL     1     -32.041  18.915   2.580  1.00 20.00     0.031 A 
HETATM    4  C4  UNL     1     -34.026  18.402   1.282  1.00 20.00    -0.033 A 
HETATM    5  C5  UNL     1     -32.685  18.803   1.359  1.00 20.00    -0.049 A 
HETATM    6  C6  UNL     1     -32.768  18.634   3.740  1.00 20.00     0.034 A 
HETATM    7  C7  UNL     1     -32.112  19.020  -0.007  1.00 20.00     0.041 C 
HETATM    8  C8  UNL     1     -33.395  19.161  -0.843  1.00 20.00     0.030 C 
HETATM    9  C9  UNL     1     -34.477  18.319  -0.144  1.00 20.00     0.116 C 
HETATM   10 CL10 UNL     1     -32.005  18.769   5.278  1.00 20.00    -0.084 Cl
HETATM   11 CL11 UNL     1     -34.445  16.632  -0.701  1.00 20.00    -0.120 Cl
ENDROOT
TORSDOF 0
ENDMDL
MODEL 2
REMARK VINA RESULT:      -4.6      4.974      6.768
REMARK  0 active torsions:
REMARK  status: ('A' for Active; 'I' for Inactive)
ROOT
HETATM    1  C1  UNL     1     -33.750  16.969  -4.505  1.00 20.00     0.011 A 
HETATM    2  C2  UNL     1     -33.696  17.490  -3.210  1.00 20.00     0.024 A 
HETATM    3  C3  UNL     1     -34.742  15.486  -2.310  1.00 20.00     0.031 A 
HETATM    4  C4  UNL     1     -34.295  15.708  -4.684  1.00 20.00    -0.033 A 
HETATM    5  C5  UNL     1     -34.781  14.972  -3.595  1.00 20.00    -0.049 A 
HETATM    6  C6  UNL     1     -34.188  16.754  -2.121  1.00 20.00     0.034 A 
HETATM    7  C7  UNL     1     -35.348  13.662  -4.046  1.00 20.00     0.041 C 
HETATM    8  C8  UNL     1     -34.704  13.527  -5.436  1.00 20.00     0.030 C 
HETATM    9  C9  UNL     1     -34.486  14.955  -5.965  1.00 20.00     0.116 C 
HETATM   10 CL10 UNL     1     -34.116  17.426  -0.537  1.00 20.00    -0.084 Cl
HETATM   11 CL11 UNL     1     -35.921  15.556  -6.822  1.00 20.00    -0.120 Cl
ENDROOT
TORSDOF 0
ENDMDL
MODEL 3
REMARK VINA RESULT:      -4.5      6.774      8.429
REMARK  0 active torsions:
REMARK  status: ('A' for Active; 'I' for Inactive)
ROOT
HETATM    1  C1  UNL     1     -34.691  15.380  -6.867  1.00 20.00     0.011 A 
HETATM    2  C2  UNL     1     -34.521  16.685  -7.335  1.00 20.00     0.024 A 
HETATM    3  C3  UNL     1     -33.447  17.342  -5.252  1.00 20.00     0.031 A 
HETATM    4  C4  UNL     1     -34.229  15.072  -5.598  1.00 20.00    -0.033 A 
HETATM    5  C5  UNL     1     -33.608  16.043  -4.801  1.00 20.00    -0.049 A 
HETATM    6  C6  UNL     1     -33.905  17.659  -6.534  1.00 20.00     0.034 A 
HETATM    7  C7  UNL     1     -33.230  15.479  -3.467  1.00 20.00     0.041 C 
HETATM    8  C8  UNL     1     -33.270  13.971  -3.765  1.00 20.00     0.030 C 
HETATM    9  C9  UNL     1     -34.318  13.764  -4.873  1.00 20.00     0.116 C 
HETATM   10 CL10 UNL     1     -33.718  19.263  -7.135  1.00 20.00    -0.084 Cl
HETATM   11 CL11 UNL     1     -35.945  13.549  -4.193  1.00 20.00    -0.120 Cl
ENDROOT
TORSDOF 0
ENDMDL
MODEL 4
REMARK VINA RESULT:      -4.5      5.569      7.472
REMARK  0 active torsions:
REMARK  status: ('A' for Active; 'I' for Inactive)
ROOT
HETATM    1  C1  UNL     1     -33.176  16.164  -4.632  1.00 20.00     0.011 A 
HETATM    2  C2  UNL     1     -33.350  16.368  -3.261  1.00 20.00     0.024 A 
HETATM    3  C3  UNL     1     -35.653  15.592  -3.390  1.00 20.00     0.031 A 
HETATM    4  C4  UNL     1     -34.243  15.669  -5.364  1.00 20.00    -0.033 A 
HETATM    5  C5  UNL     1     -35.468  15.381  -4.746  1.00 20.00    -0.049 A 
HETATM    6  C6  UNL     1     -34.579  16.085  -2.645  1.00 20.00     0.034 A 
HETATM    7  C7  UNL     1     -36.470  14.894  -5.746  1.00 20.00     0.041 C 
HETATM    8  C8  UNL     1     -35.548  14.484  -6.908  1.00 20.00     0.030 C 
HETATM    9  C9  UNL     1     -34.310  15.395  -6.834  1.00 20.00     0.116 C 
HETATM   10 CL10 UNL     1     -34.766  16.355  -0.954  1.00 20.00    -0.084 Cl
HETATM   11 CL11 UNL     1     -34.563  16.908  -7.730  1.00 20.00    -0.120 Cl
ENDROOT
TORSDOF 0
ENDMDL
MODEL 5
REMARK VINA RESULT:      -4.4      1.288      4.528
REMARK  0 active torsions:
REMARK  status: ('A' for Active; 'I' for Inactive)
ROOT
HETATM    1  C1  UNL     1     -32.711  18.897   0.441  1.00 20.00     0.011 A 
HETATM    2  C2  UNL     1     -32.839  18.235  -0.782  1.00 20.00     0.024 A 
HETATM    3  C3  UNL     1     -34.844  17.094  -0.007  1.00 20.00     0.031 A 
HETATM    4  C4  UNL     1     -33.658  18.654   1.423  1.00 20.00    -0.033 A 
HETATM    5  C5  UNL     1     -34.718  17.764   1.198  1.00 20.00    -0.049 A 
HETATM    6  C6  UNL     1     -33.897  17.339  -1.004  1.00 20.00     0.034 A 
HETATM    7  C7  UNL     1     -35.582  17.644   2.414  1.00 20.00     0.041 C 
HETATM    8  C8  UNL     1     -35.180  18.913   3.185  1.00 20.00     0.030 C 
HETATM    9  C9  UNL     1     -33.720  19.217   2.809  1.00 20.00     0.116 C 
HETATM   10 CL10 UNL     1     -34.024  16.530  -2.520  1.00 20.00    -0.084 Cl
HETATM   11 CL11 UNL     1     -32.584  18.358   3.872  1.00 20.00    -0.120 Cl
ENDROOT
TORSDOF 0
ENDMDL
MODEL 6
REMARK VINA RESULT:      -4.4      3.994      5.711
REMARK  0 active torsions:
REMARK  status: ('A' for Active; 'I' for Inactive)
ROOT
HETATM    1  C1  UNL     1     -33.699  17.969  -3.532  1.00 20.00     0.011 A 
HETATM    2  C2  UNL     1     -33.740  18.342  -2.187  1.00 20.00     0.024 A 
HETATM    3  C3  UNL     1     -34.548  16.136  -1.552  1.00 20.00     0.031 A 
HETATM    4  C4  UNL     1     -34.079  16.680  -3.870  1.00 20.00    -0.033 A 
HETATM    5  C5  UNL     1     -34.494  15.771  -2.887  1.00 20.00    -0.049 A 
HETATM    6  C6  UNL     1     -34.161  17.432  -1.204  1.00 20.00     0.034 A 
HETATM    7  C7  UNL     1     -34.883  14.462  -3.500  1.00 20.00     0.041 C 
HETATM    8  C8  UNL     1     -34.196  14.565  -4.872  1.00 20.00     0.030 C 
HETATM    9  C9  UNL     1     -34.145  16.061  -5.232  1.00 20.00     0.116 C 
HETATM   10 CL10 UNL     1     -34.208  17.923   0.446  1.00 20.00    -0.084 Cl
HETATM   11 CL11 UNL     1     -35.625  16.577  -6.069  1.00 20.00    -0.120 Cl
ENDROOT
TORSDOF 0
ENDMDL
MODEL 7
REMARK VINA RESULT:      -4.4      3.197      5.887
REMARK  0 active torsions:
REMARK  status: ('A' for Active; 'I' for Inactive)
ROOT
HETATM    1  C1  UNL     1     -33.602  18.000  -3.381  1.00 20.00     0.011 A 
HETATM    2  C2  UNL     1     -33.673  16.836  -4.149  1.00 20.00     0.024 A 
HETATM    3  C3  UNL     1     -34.544  15.583  -2.253  1.00 20.00     0.031 A 
HETATM    4  C4  UNL     1     -34.009  17.942  -2.059  1.00 20.00    -0.033 A 
HETATM    5  C5  UNL     1     -34.482  16.745  -1.502  1.00 20.00    -0.049 A 
HETATM    6  C6  UNL     1     -34.140  15.637  -3.589  1.00 20.00     0.034 A 
HETATM    7  C7  UNL     1     -34.827  16.927  -0.057  1.00 20.00     0.041 C 
HETATM    8  C8  UNL     1     -34.953  18.458   0.024  1.00 20.00     0.030 C 
HETATM    9  C9  UNL     1     -34.002  19.038  -1.038  1.00 20.00     0.116 C 
HETATM   10 CL10 UNL     1     -34.209  14.214  -4.559  1.00 20.00    -0.084 Cl
HETATM   11 CL11 UNL     1     -32.363  19.261  -0.388  1.00 20.00    -0.120 Cl
ENDROOT
TORSDOF 0
ENDMDL
MODEL 8
REMARK VINA RESULT:      -4.4      6.264      9.048
REMARK  0 active torsions:
REMARK  status: ('A' for Active; 'I' for Inactive)
ROOT
HETATM    1  C1  UNL     1     -34.346  15.031  -6.482  1.00 20.00     0.011 A 
HETATM    2  C2  UNL     1     -35.449  14.997  -7.339  1.00 20.00     0.024 A 
HETATM    3  C3  UNL     1     -36.977  15.200  -5.456  1.00 20.00     0.031 A 
HETATM    4  C4  UNL     1     -34.574  15.155  -5.122  1.00 20.00    -0.033 A 
HETATM    5  C5  UNL     1     -35.878  15.245  -4.615  1.00 20.00    -0.049 A 
HETATM    6  C6  UNL     1     -36.754  15.080  -6.830  1.00 20.00     0.034 A 
HETATM    7  C7  UNL     1     -35.866  15.338  -3.121  1.00 20.00     0.041 C 
HETATM    8  C8  UNL     1     -34.412  15.771  -2.866  1.00 20.00     0.030 C 
HETATM    9  C9  UNL     1     -33.568  15.187  -4.013  1.00 20.00     0.116 C 
HETATM   10 CL10 UNL     1     -38.095  15.027  -7.911  1.00 20.00    -0.084 Cl
HETATM   11 CL11 UNL     1     -33.015  13.541  -3.639  1.00 20.00    -0.120 Cl
ENDROOT
TORSDOF 0
ENDMDL
MODEL 9
REMARK VINA RESULT:      -4.3      6.654      8.482
REMARK  0 active torsions:
REMARK  status: ('A' for Active; 'I' for Inactive)
ROOT
HETATM    1  C1  UNL     1     -33.674  16.865  -4.279  1.00 20.00     0.011 A 
HETATM    2  C2  UNL     1     -33.708  17.758  -5.352  1.00 20.00     0.024 A 
HETATM    3  C3  UNL     1     -34.670  16.055  -6.799  1.00 20.00     0.031 A 
HETATM    4  C4  UNL     1     -34.145  15.578  -4.479  1.00 20.00    -0.033 A 
HETATM    5  C5  UNL     1     -34.644  15.179  -5.727  1.00 20.00    -0.049 A 
HETATM    6  C6  UNL     1     -34.201  17.356  -6.603  1.00 20.00     0.034 A 
HETATM    7  C7  UNL     1     -35.059  13.741  -5.702  1.00 20.00     0.041 C 
HETATM    8  C8  UNL     1     -35.188  13.500  -4.188  1.00 20.00     0.030 C 
HETATM    9  C9  UNL     1     -34.187  14.445  -3.501  1.00 20.00     0.116 C 
HETATM   10 CL10 UNL     1     -34.223  18.477  -7.910  1.00 20.00    -0.084 Cl
HETATM   11 CL11 UNL     1     -32.582  13.696  -3.359  1.00 20.00    -0.120 Cl
ENDROOT
TORSDOF 0
ENDMDL
