MODEL 1
REMARK VINA RESULT:      -3.5      0.000      0.000
REMARK  0 active torsions:
REMARK  status: ('A' for Active; 'I' for Inactive)
ROOT
HETATM    1  C1  UNL     1     -35.598  13.957  -4.815  1.00 20.00     0.175 C 
HETATM    2  C2  UNL     1     -36.467  16.347  -3.667  1.00 20.00     0.175 C 
HETATM    3  C3  UNL     1     -34.814  16.399  -5.915  1.00 20.00     0.175 C 
HETATM    4  C4  UNL     1     -33.791  15.586  -3.449  1.00 20.00     0.175 C 
HETATM    5  S5  UNL     1     -37.048  14.659  -3.984  1.00 20.00    -0.117 SA
HETATM    6  S6  UNL     1     -35.251  14.715  -6.425  1.00 20.00    -0.117 SA
HETATM    7  S7  UNL     1     -36.195  17.313  -5.178  1.00 20.00    -0.117 SA
HETATM    8  S8  UNL     1     -34.141  13.831  -3.746  1.00 20.00    -0.117 SA
HETATM    9  S9  UNL     1     -35.084  16.429  -2.499  1.00 20.00    -0.117 SA
HETATM   10  S10 UNL     1     -33.288  16.485  -4.941  1.00 20.00    -0.117 SA
ENDROOT
TORSDOF 0
ENDMDL
MODEL 2
REMARK VINA RESULT:      -3.5      0.049      2.815
REMARK  0 active torsions:
REMARK  status: ('A' for Active; 'I' for Inactive)
ROOT
HETATM    1  C1  UNL     1     -33.745  15.584  -3.459  1.00 20.00     0.175 C 
HETATM    2  C2  UNL     1     -36.423  16.342  -3.664  1.00 20.00     0.175 C 
HETATM    3  C3  UNL     1     -35.565  13.936  -4.785  1.00 20.00     0.175 C 
HETATM    4  C4  UNL     1     -34.790  16.361  -5.927  1.00 20.00     0.175 C 
HETATM    5  S5  UNL     1     -35.030  16.440  -2.509  1.00 20.00    -0.117 SA
HETATM    6  S6  UNL     1     -34.097  13.826  -3.728  1.00 20.00    -0.117 SA
HETATM    7  S7  UNL     1     -37.007  14.649  -3.950  1.00 20.00    -0.117 SA
HETATM    8  S8  UNL     1     -33.255  16.462  -4.967  1.00 20.00    -0.117 SA
HETATM    9  S9  UNL     1     -36.164  17.285  -5.191  1.00 20.00    -0.117 SA
HETATM   10  S10 UNL     1     -35.232  14.670  -6.408  1.00 20.00    -0.117 SA
ENDROOT
TORSDOF 0
ENDMDL
MODEL 3
REMARK VINA RESULT:      -3.5      0.062      3.236
REMARK  0 active torsions:
REMARK  status: ('A' for Active; 'I' for Inactive)
ROOT
HETATM    1  C1  UNL     1     -33.751  15.534  -3.421  1.00 20.00     0.175 C 
HETATM    2  C2  UNL     1     -34.775  16.382  -5.874  1.00 20.00     0.175 C 
HETATM    3  C3  UNL     1     -36.419  16.329  -3.620  1.00 20.00     0.175 C 
HETATM    4  C4  UNL     1     -35.584  13.939  -4.794  1.00 20.00     0.175 C 
HETATM    5  S5  UNL     1     -33.244  16.442  -4.905  1.00 20.00    -0.117 SA
HETATM    6  S6  UNL     1     -35.030  16.383  -2.456  1.00 20.00    -0.117 SA
HETATM    7  S7  UNL     1     -36.142  17.305  -5.122  1.00 20.00    -0.117 SA
HETATM    8  S8  UNL     1     -34.122  13.787  -3.732  1.00 20.00    -0.117 SA
HETATM    9  S9  UNL     1     -35.235  14.708  -6.397  1.00 20.00    -0.117 SA
HETATM   10  S10 UNL     1     -37.020  14.651  -3.948  1.00 20.00    -0.117 SA
ENDROOT
TORSDOF 0
ENDMDL
MODEL 4
REMARK VINA RESULT:      -3.5      0.086      2.788
REMARK  0 active torsions:
REMARK  status: ('A' for Active; 'I' for Inactive)
ROOT
HETATM    1  C1  UNL     1     -33.748  15.522  -3.399  1.00 20.00     0.175 C 
HETATM    2  C2  UNL     1     -35.587  13.937  -4.775  1.00 20.00     0.175 C 
HETATM    3  C3  UNL     1     -34.782  16.386  -5.843  1.00 20.00     0.175 C 
HETATM    4  C4  UNL     1     -36.416  16.320  -3.581  1.00 20.00     0.175 C 
HETATM    5  S5  UNL     1     -34.121  13.777  -3.721  1.00 20.00    -0.117 SA
HETATM    6  S6  UNL     1     -33.247  16.439  -4.880  1.00 20.00    -0.117 SA
HETATM    7  S7  UNL     1     -35.245  14.717  -6.376  1.00 20.00    -0.117 SA
HETATM    8  S8  UNL     1     -35.021  16.365  -2.423  1.00 20.00    -0.117 SA
HETATM    9  S9  UNL     1     -37.020  14.644  -3.918  1.00 20.00    -0.117 SA
HETATM   10  S10 UNL     1     -36.145  17.305  -5.078  1.00 20.00    -0.117 SA
ENDROOT
TORSDOF 0
ENDMDL
MODEL 5
REMARK VINA RESULT:      -3.5      0.038      2.810
REMARK  0 active torsions:
REMARK  status: ('A' for Active; 'I' for Inactive)
ROOT
HETATM    1  C1  UNL     1     -35.569  13.951  -4.784  1.00 20.00     0.175 C 
HETATM    2  C2  UNL     1     -34.798  16.379  -5.923  1.00 20.00     0.175 C 
HETATM    3  C3  UNL     1     -33.786  15.622  -3.435  1.00 20.00     0.175 C 
HETATM    4  C4  UNL     1     -36.466  16.355  -3.686  1.00 20.00     0.175 C 
HETATM    5  S5  UNL     1     -35.216  14.683  -6.404  1.00 20.00    -0.117 SA
HETATM    6  S6  UNL     1     -34.117  13.859  -3.701  1.00 20.00    -0.117 SA
HETATM    7  S7  UNL     1     -33.279  16.497  -4.939  1.00 20.00    -0.117 SA
HETATM    8  S8  UNL     1     -37.030  14.656  -3.975  1.00 20.00    -0.117 SA
HETATM    9  S9  UNL     1     -36.192  17.294  -5.212  1.00 20.00    -0.117 SA
HETATM   10  S10 UNL     1     -35.093  16.470  -2.509  1.00 20.00    -0.117 SA
ENDROOT
TORSDOF 0
ENDMDL
MODEL 6
REMARK VINA RESULT:      -3.5      0.036      2.792
REMARK  0 active torsions:
REMARK  status: ('A' for Active; 'I' for Inactive)
ROOT
HETATM    1  C1  UNL     1     -35.583  13.958  -4.779  1.00 20.00     0.175 C 
HETATM    2  C2  UNL     1     -33.795  15.615  -3.421  1.00 20.00     0.175 C 
HETATM    3  C3  UNL     1     -36.471  16.363  -3.677  1.00 20.00     0.175 C 
HETATM    4  C4  UNL     1     -34.797  16.385  -5.909  1.00 20.00     0.175 C 
HETATM    5  S5  UNL     1     -34.135  13.856  -3.692  1.00 20.00    -0.117 SA
HETATM    6  S6  UNL     1     -37.042  14.668  -3.972  1.00 20.00    -0.117 SA
HETATM    7  S7  UNL     1     -35.101  16.469  -2.496  1.00 20.00    -0.117 SA
HETATM    8  S8  UNL     1     -35.223  14.691  -6.397  1.00 20.00    -0.117 SA
HETATM    9  S9  UNL     1     -33.281  16.493  -4.922  1.00 20.00    -0.117 SA
HETATM   10  S10 UNL     1     -36.189  17.304  -5.200  1.00 20.00    -0.117 SA
ENDROOT
TORSDOF 0
ENDMDL
MODEL 7
REMARK VINA RESULT:      -3.5      0.145      3.237
REMARK  0 active torsions:
REMARK  status: ('A' for Active; 'I' for Inactive)
ROOT
HETATM    1  C1  UNL     1     -34.796  16.464  -5.767  1.00 20.00     0.175 C 
HETATM    2  C2  UNL     1     -33.770  15.488  -3.362  1.00 20.00     0.175 C 
HETATM    3  C3  UNL     1     -35.632  13.984  -4.796  1.00 20.00     0.175 C 
HETATM    4  C4  UNL     1     -36.428  16.327  -3.508  1.00 20.00     0.175 C 
HETATM    5  S5  UNL     1     -33.258  16.456  -4.806  1.00 20.00    -0.117 SA
HETATM    6  S6  UNL     1     -35.281  14.822  -6.365  1.00 20.00    -0.117 SA
HETATM    7  S7  UNL     1     -34.167  13.762  -3.752  1.00 20.00    -0.117 SA
HETATM    8  S8  UNL     1     -36.145  17.369  -4.965  1.00 20.00    -0.117 SA
HETATM    9  S9  UNL     1     -35.032  16.309  -2.352  1.00 20.00    -0.117 SA
HETATM   10  S10 UNL     1     -37.054  14.675  -3.911  1.00 20.00    -0.117 SA
ENDROOT
TORSDOF 0
ENDMDL
MODEL 8
REMARK VINA RESULT:      -3.5      0.129      2.840
REMARK  0 active torsions:
REMARK  status: ('A' for Active; 'I' for Inactive)
ROOT
HETATM    1  C1  UNL     1     -34.788  16.468  -5.779  1.00 20.00     0.175 C 
HETATM    2  C2  UNL     1     -36.436  16.342  -3.531  1.00 20.00     0.175 C 
HETATM    3  C3  UNL     1     -33.777  15.514  -3.359  1.00 20.00     0.175 C 
HETATM    4  C4  UNL     1     -35.622  13.992  -4.798  1.00 20.00     0.175 C 
HETATM    5  S5  UNL     1     -36.146  17.374  -4.992  1.00 20.00    -0.117 SA
HETATM    6  S6  UNL     1     -33.258  16.474  -4.807  1.00 20.00    -0.117 SA
HETATM    7  S7  UNL     1     -35.048  16.337  -2.363  1.00 20.00    -0.117 SA
HETATM    8  S8  UNL     1     -35.263  14.822  -6.370  1.00 20.00    -0.117 SA
HETATM    9  S9  UNL     1     -37.053  14.684  -3.927  1.00 20.00    -0.117 SA
HETATM   10  S10 UNL     1     -34.164  13.785  -3.741  1.00 20.00    -0.117 SA
ENDROOT
TORSDOF 0
ENDMDL
MODEL 9
REMARK VINA RESULT:      -3.5      0.132      2.826
REMARK  0 active torsions:
REMARK  status: ('A' for Active; 'I' for Inactive)
ROOT
HETATM    1  C1  UNL     1     -34.788  16.470  -5.777  1.00 20.00     0.175 C 
HETATM    2  C2  UNL     1     -35.624  13.994  -4.798  1.00 20.00     0.175 C 
HETATM    3  C3  UNL     1     -36.436  16.342  -3.528  1.00 20.00     0.175 C 
HETATM    4  C4  UNL     1     -33.777  15.512  -3.359  1.00 20.00     0.175 C 
HETATM    5  S5  UNL     1     -35.265  14.825  -6.369  1.00 20.00    -0.117 SA
HETATM    6  S6  UNL     1     -36.146  17.376  -4.989  1.00 20.00    -0.117 SA
HETATM    7  S7  UNL     1     -37.055  14.686  -3.926  1.00 20.00    -0.117 SA
HETATM    8  S8  UNL     1     -33.257  16.474  -4.806  1.00 20.00    -0.117 SA
HETATM    9  S9  UNL     1     -34.166  13.784  -3.742  1.00 20.00    -0.117 SA
HETATM   10  S10 UNL     1     -35.048  16.335  -2.362  1.00 20.00    -0.117 SA
ENDROOT
TORSDOF 0
ENDMDL
