MODEL 1
REMARK VINA RESULT:      -3.7      0.000      0.000
REMARK  0 active torsions:
REMARK  status: ('A' for Active; 'I' for Inactive)
ROOT
HETATM    1  C1  UNL     1     -35.489   5.645   3.882  1.00 20.00     0.177 A 
HETATM    2  C2  UNL     1     -34.040   5.390   3.673  1.00 20.00     0.218 A 
HETATM    3  O3  UNL     1     -34.555   5.948   6.294  1.00 20.00    -0.226 OA
HETATM    4  O4  UNL     1     -35.074   3.568   5.401  1.00 20.00    -0.226 OA
HETATM    5  S5  UNL     1     -34.542   4.904   5.300  1.00 20.00     0.165 S 
HETATM    6 CL6  UNL     1     -32.942   6.737   3.513  1.00 20.00    -0.107 Cl
ENDROOT
TORSDOF 0
ENDMDL
MODEL 2
REMARK VINA RESULT:      -3.5     12.523     12.652
REMARK  0 active torsions:
REMARK  status: ('A' for Active; 'I' for Inactive)
ROOT
HETATM    1  C1  UNL     1     -34.726  14.888  -3.127  1.00 20.00     0.177 A 
HETATM    2  C2  UNL     1     -34.459  15.231  -4.548  1.00 20.00     0.218 A 
HETATM    3  O3  UNL     1     -32.869  13.167  -3.735  1.00 20.00    -0.226 OA
HETATM    4  O4  UNL     1     -35.340  12.670  -4.350  1.00 20.00    -0.226 OA
HETATM    5  S5  UNL     1     -34.173  13.510  -4.245  1.00 20.00     0.165 S 
HETATM    6 CL6  UNL     1     -33.092  16.239  -4.950  1.00 20.00    -0.107 Cl
ENDROOT
TORSDOF 0
ENDMDL
MODEL 3
REMARK VINA RESULT:      -3.4      2.562      2.615
REMARK  0 active torsions:
REMARK  status: ('A' for Active; 'I' for Inactive)
ROOT
HETATM    1  C1  UNL     1     -34.245   4.713   5.756  1.00 20.00     0.177 A 
HETATM    2  C2  UNL     1     -34.518   6.149   6.020  1.00 20.00     0.218 A 
HETATM    3  O3  UNL     1     -32.999   5.852   3.773  1.00 20.00    -0.226 OA
HETATM    4  O4  UNL     1     -35.553   5.424   3.616  1.00 20.00    -0.226 OA
HETATM    5  S5  UNL     1     -34.347   5.844   4.284  1.00 20.00     0.165 S 
HETATM    6 CL6  UNL     1     -33.309   7.125   6.813  1.00 20.00    -0.107 Cl
ENDROOT
TORSDOF 0
ENDMDL
MODEL 4
REMARK VINA RESULT:      -3.4     12.461     12.582
REMARK  0 active torsions:
REMARK  status: ('A' for Active; 'I' for Inactive)
ROOT
HETATM    1  C1  UNL     1     -34.644  15.196  -4.822  1.00 20.00     0.177 A 
HETATM    2  C2  UNL     1     -34.202  14.842  -3.448  1.00 20.00     0.218 A 
HETATM    3  O3  UNL     1     -36.740  13.952  -3.908  1.00 20.00    -0.226 OA
HETATM    4  O4  UNL     1     -34.750  12.592  -4.867  1.00 20.00    -0.226 OA
HETATM    5  S5  UNL     1     -35.343  13.643  -4.078  1.00 20.00     0.165 S 
HETATM    6 CL6  UNL     1     -34.701  15.832  -2.100  1.00 20.00    -0.107 Cl
ENDROOT
TORSDOF 0
ENDMDL
MODEL 5
REMARK VINA RESULT:      -3.1     12.862     13.018
REMARK  0 active torsions:
REMARK  status: ('A' for Active; 'I' for Inactive)
ROOT
HETATM    1  C1  UNL     1     -35.174  14.871  -3.545  1.00 20.00     0.177 A 
HETATM    2  C2  UNL     1     -33.889  15.114  -4.251  1.00 20.00     0.218 A 
HETATM    3  O3  UNL     1     -34.782  12.577  -4.715  1.00 20.00    -0.226 OA
HETATM    4  O4  UNL     1     -35.849  14.536  -6.040  1.00 20.00    -0.226 OA
HETATM    5  S5  UNL     1     -34.890  13.951  -5.136  1.00 20.00     0.165 S 
HETATM    6 CL6  UNL     1     -32.397  14.551  -3.544  1.00 20.00    -0.107 Cl
ENDROOT
TORSDOF 0
ENDMDL
MODEL 6
REMARK VINA RESULT:      -3.1     12.589     12.800
REMARK  0 active torsions:
REMARK  status: ('A' for Active; 'I' for Inactive)
ROOT
HETATM    1  C1  UNL     1     -34.705  15.094  -5.186  1.00 20.00     0.177 A 
HETATM    2  C2  UNL     1     -35.364  15.061  -3.855  1.00 20.00     0.218 A 
HETATM    3  O3  UNL     1     -34.822  12.533  -4.729  1.00 20.00    -0.226 OA
HETATM    4  O4  UNL     1     -32.895  13.939  -3.708  1.00 20.00    -0.226 OA
HETATM    5  S5  UNL     1     -34.270  13.683  -4.057  1.00 20.00     0.165 S 
HETATM    6 CL6  UNL     1     -37.077  14.749  -3.748  1.00 20.00    -0.107 Cl
ENDROOT
TORSDOF 0
ENDMDL
MODEL 7
REMARK VINA RESULT:      -3.0      2.939      3.014
REMARK  0 active torsions:
REMARK  status: ('A' for Active; 'I' for Inactive)
ROOT
HETATM    1  C1  UNL     1     -34.140   6.472   5.323  1.00 20.00     0.177 A 
HETATM    2  C2  UNL     1     -34.062   4.990   5.399  1.00 20.00     0.218 A 
HETATM    3  O3  UNL     1     -35.852   5.767   3.492  1.00 20.00    -0.226 OA
HETATM    4  O4  UNL     1     -33.321   5.843   2.930  1.00 20.00    -0.226 OA
HETATM    5  S5  UNL     1     -34.457   5.521   3.757  1.00 20.00     0.165 S 
HETATM    6 CL6  UNL     1     -35.271   4.108   6.297  1.00 20.00    -0.107 Cl
ENDROOT
TORSDOF 0
ENDMDL
MODEL 8
REMARK VINA RESULT:      -3.0     12.699     12.861
REMARK  0 active torsions:
REMARK  status: ('A' for Active; 'I' for Inactive)
ROOT
HETATM    1  C1  UNL     1     -34.827  13.203  -4.721  1.00 20.00     0.177 A 
HETATM    2  C2  UNL     1     -34.405  14.003  -3.541  1.00 20.00     0.218 A 
HETATM    3  O3  UNL     1     -35.718  15.567  -5.351  1.00 20.00    -0.226 OA
HETATM    4  O4  UNL     1     -37.110  14.040  -3.783  1.00 20.00    -0.226 OA
HETATM    5  S5  UNL     1     -35.892  14.653  -4.251  1.00 20.00     0.165 S 
HETATM    6 CL6  UNL     1     -32.955  14.970  -3.628  1.00 20.00    -0.107 Cl
ENDROOT
TORSDOF 0
ENDMDL
MODEL 9
REMARK VINA RESULT:      -3.0     13.145     13.182
REMARK  0 active torsions:
REMARK  status: ('A' for Active; 'I' for Inactive)
ROOT
HETATM    1  C1  UNL     1     -35.787  14.980  -5.221  1.00 20.00     0.177 A 
HETATM    2  C2  UNL     1     -34.384  14.979  -5.708  1.00 20.00     0.218 A 
HETATM    3  O3  UNL     1     -34.468  14.623  -3.004  1.00 20.00    -0.226 OA
HETATM    4  O4  UNL     1     -34.974  12.598  -4.545  1.00 20.00    -0.226 OA
HETATM    5  S5  UNL     1     -34.559  13.952  -4.277  1.00 20.00     0.165 S 
HETATM    6 CL6  UNL     1     -33.424  16.430  -5.574  1.00 20.00    -0.107 Cl
ENDROOT
TORSDOF 0
ENDMDL
