MODEL 1
REMARK VINA RESULT:      -4.0      0.000      0.000
REMARK  0 active torsions:
REMARK  status: ('A' for Active; 'I' for Inactive)
ROOT
HETATM    1  C1  UNL     1     -34.391   6.110   6.078  1.00 20.00     0.080 A 
HETATM    2  C2  UNL     1     -34.124   4.680   5.731  1.00 20.00     0.207 A 
HETATM    3  C3  UNL     1     -34.333   5.681   4.632  1.00 20.00     0.128 A 
HETATM    4  F4  UNL     1     -35.130   3.766   5.992  1.00 20.00    -0.246 F 
HETATM    5 CL5  UNL     1     -35.840   5.630   3.726  1.00 20.00    -0.103 Cl
HETATM    6 BR6  UNL     1     -32.806   6.209   3.606  1.00 20.00    -0.065 Br
ENDROOT
TORSDOF 0
ENDMDL
MODEL 2
REMARK VINA RESULT:      -4.0      2.935      3.140
REMARK  0 active torsions:
REMARK  status: ('A' for Active; 'I' for Inactive)
ROOT
HETATM    1  C1  UNL     1     -34.613   6.472   3.878  1.00 20.00     0.080 A 
HETATM    2  C2  UNL     1     -33.231   5.908   3.966  1.00 20.00     0.207 A 
HETATM    3  C3  UNL     1     -34.131   5.849   5.166  1.00 20.00     0.128 A 
HETATM    4  F4  UNL     1     -32.179   6.809   3.973  1.00 20.00    -0.246 F 
HETATM    5 CL5  UNL     1     -33.793   6.917   6.522  1.00 20.00    -0.103 Cl
HETATM    6 BR6  UNL     1     -34.851   4.145   5.656  1.00 20.00    -0.065 Br
ENDROOT
TORSDOF 0
ENDMDL
MODEL 3
REMARK VINA RESULT:      -3.6      2.280      2.617
REMARK  0 active torsions:
REMARK  status: ('A' for Active; 'I' for Inactive)
ROOT
HETATM    1  C1  UNL     1     -33.460   5.691   3.840  1.00 20.00     0.080 A 
HETATM    2  C2  UNL     1     -34.853   6.235   3.887  1.00 20.00     0.207 A 
HETATM    3  C3  UNL     1     -34.256   5.625   5.122  1.00 20.00     0.128 A 
HETATM    4  F4  UNL     1     -35.831   5.528   3.209  1.00 20.00    -0.246 F 
HETATM    5 CL5  UNL     1     -34.840   4.050   5.648  1.00 20.00    -0.103 Cl
HETATM    6 BR6  UNL     1     -33.756   6.802   6.545  1.00 20.00    -0.065 Br
ENDROOT
TORSDOF 0
ENDMDL
MODEL 4
REMARK VINA RESULT:      -3.6      2.392      2.543
REMARK  0 active torsions:
REMARK  status: ('A' for Active; 'I' for Inactive)
ROOT
HETATM    1  C1  UNL     1     -33.916   4.837   6.013  1.00 20.00     0.080 A 
HETATM    2  C2  UNL     1     -34.317   6.257   6.257  1.00 20.00     0.207 A 
HETATM    3  C3  UNL     1     -34.101   5.782   4.850  1.00 20.00     0.128 A 
HETATM    4  F4  UNL     1     -33.371   7.093   6.825  1.00 20.00    -0.246 F 
HETATM    5 CL5  UNL     1     -32.663   6.325   3.993  1.00 20.00    -0.103 Cl
HETATM    6 BR6  UNL     1     -35.643   5.544   3.743  1.00 20.00    -0.065 Br
ENDROOT
TORSDOF 0
ENDMDL
MODEL 5
REMARK VINA RESULT:      -3.2      1.799      1.982
REMARK  0 active torsions:
REMARK  status: ('A' for Active; 'I' for Inactive)
ROOT
HETATM    1  C1  UNL     1     -33.833   4.038   5.841  1.00 20.00     0.080 A 
HETATM    2  C2  UNL     1     -35.281   4.414   5.812  1.00 20.00     0.207 A 
HETATM    3  C3  UNL     1     -34.247   5.422   5.403  1.00 20.00     0.128 A 
HETATM    4  F4  UNL     1     -35.917   4.576   7.031  1.00 20.00    -0.246 F 
HETATM    5 CL5  UNL     1     -33.909   6.765   6.489  1.00 20.00    -0.103 Cl
HETATM    6 BR6  UNL     1     -34.105   5.850   3.543  1.00 20.00    -0.065 Br
ENDROOT
TORSDOF 0
ENDMDL
MODEL 6
REMARK VINA RESULT:      -3.2      2.023      2.150
REMARK  0 active torsions:
REMARK  status: ('A' for Active; 'I' for Inactive)
ROOT
HETATM    1  C1  UNL     1     -35.640   5.635   4.241  1.00 20.00     0.080 A 
HETATM    2  C2  UNL     1     -35.053   4.443   4.929  1.00 20.00     0.207 A 
HETATM    3  C3  UNL     1     -34.221   5.681   4.753  1.00 20.00     0.128 A 
HETATM    4  F4  UNL     1     -34.766   3.339   4.145  1.00 20.00    -0.246 F 
HETATM    5 CL5  UNL     1     -32.917   5.656   3.572  1.00 20.00    -0.103 Cl
HETATM    6 BR6  UNL     1     -33.866   6.743   6.306  1.00 20.00    -0.065 Br
ENDROOT
TORSDOF 0
ENDMDL
MODEL 7
REMARK VINA RESULT:      -3.1     12.708     12.966
REMARK  0 active torsions:
REMARK  status: ('A' for Active; 'I' for Inactive)
ROOT
HETATM    1  C1  UNL     1     -33.248  13.722  -3.755  1.00 20.00     0.080 A 
HETATM    2  C2  UNL     1     -34.470  13.716  -4.618  1.00 20.00     0.207 A 
HETATM    3  C3  UNL     1     -34.066  14.981  -3.917  1.00 20.00     0.128 A 
HETATM    4  F4  UNL     1     -35.573  13.024  -4.149  1.00 20.00    -0.246 F 
HETATM    5 CL5  UNL     1     -35.025  15.522  -2.545  1.00 20.00    -0.103 Cl
HETATM    6 BR6  UNL     1     -33.331  16.393  -4.980  1.00 20.00    -0.065 Br
ENDROOT
TORSDOF 0
ENDMDL
MODEL 8
REMARK VINA RESULT:      -3.0     13.156     13.405
REMARK  0 active torsions:
REMARK  status: ('A' for Active; 'I' for Inactive)
ROOT
HETATM    1  C1  UNL     1     -33.538  13.719  -3.871  1.00 20.00     0.080 A 
HETATM    2  C2  UNL     1     -34.697  14.523  -3.375  1.00 20.00     0.207 A 
HETATM    3  C3  UNL     1     -34.068  14.869  -4.693  1.00 20.00     0.128 A 
HETATM    4  F4  UNL     1     -34.471  15.360  -2.295  1.00 20.00    -0.246 F 
HETATM    5 CL5  UNL     1     -33.089  16.327  -4.800  1.00 20.00    -0.103 Cl
HETATM    6 BR6  UNL     1     -35.047  14.452  -6.284  1.00 20.00    -0.065 Br
ENDROOT
TORSDOF 0
ENDMDL
MODEL 9
REMARK VINA RESULT:      -3.0     12.700     13.037
REMARK  0 active torsions:
REMARK  status: ('A' for Active; 'I' for Inactive)
ROOT
HETATM    1  C1  UNL     1     -35.379  14.554  -4.071  1.00 20.00     0.080 A 
HETATM    2  C2  UNL     1     -34.227  13.855  -3.421  1.00 20.00     0.207 A 
HETATM    3  C3  UNL     1     -34.265  15.356  -3.441  1.00 20.00     0.128 A 
HETATM    4  F4  UNL     1     -33.330  13.206  -4.251  1.00 20.00    -0.246 F 
HETATM    5 CL5  UNL     1     -33.158  16.209  -4.510  1.00 20.00    -0.103 Cl
HETATM    6 BR6  UNL     1     -34.637  16.261  -1.796  1.00 20.00    -0.065 Br
ENDROOT
TORSDOF 0
ENDMDL
