MODEL 1
REMARK VINA RESULT:      -4.8      0.000      0.000
REMARK  0 active torsions:
REMARK  status: ('A' for Active; 'I' for Inactive)
ROOT
HETATM    1  C1  UNL     1     -34.579  13.434  -4.973  1.00 20.00     0.083 C 
HETATM    2  C2  UNL     1     -35.337  16.201  -2.805  1.00 20.00    -0.003 A 
HETATM    3  C3  UNL     1     -34.852  17.515  -2.858  1.00 20.00    -0.011 A 
HETATM    4  C4  UNL     1     -35.015  16.920  -4.075  1.00 20.00    -0.006 A 
HETATM    5  C5  UNL     1     -34.166  15.687  -2.328  1.00 20.00    -0.016 C 
HETATM    6  C6  UNL     1     -33.603  13.654  -3.861  1.00 20.00     0.052 C 
HETATM    7  C7  UNL     1     -33.894  17.132  -1.700  1.00 20.00     0.023 C 
HETATM    8  C8  UNL     1     -34.182  15.508  -6.037  1.00 20.00     0.153 C 
HETATM    9  C9  UNL     1     -33.818  16.110  -4.703  1.00 20.00     0.022 C 
HETATM   10  C10 UNL     1     -33.270  15.124  -3.618  1.00 20.00     0.007 C 
HETATM   11  N11 UNL     1     -34.849  14.229  -5.938  1.00 20.00    -0.305 NA
ENDROOT
TORSDOF 0
ENDMDL
MODEL 2
REMARK VINA RESULT:      -4.8      1.305      2.155
REMARK  0 active torsions:
REMARK  status: ('A' for Active; 'I' for Inactive)
ROOT
HETATM    1  C1  UNL     1     -36.080  14.824  -5.971  1.00 20.00     0.083 C 
HETATM    2  C2  UNL     1     -34.361  16.693  -3.424  1.00 20.00    -0.003 A 
HETATM    3  C3  UNL     1     -33.660  16.215  -2.308  1.00 20.00    -0.011 A 
HETATM    4  C4  UNL     1     -33.579  15.419  -3.414  1.00 20.00    -0.006 A 
HETATM    5  C5  UNL     1     -35.587  16.412  -2.893  1.00 20.00    -0.016 C 
HETATM    6  C6  UNL     1     -36.874  15.083  -4.730  1.00 20.00     0.052 C 
HETATM    7  C7  UNL     1     -34.903  16.586  -1.458  1.00 20.00     0.023 C 
HETATM    8  C8  UNL     1     -34.418  13.521  -4.908  1.00 20.00     0.153 C 
HETATM    9  C9  UNL     1     -34.652  14.285  -3.629  1.00 20.00     0.022 C 
HETATM   10  C10 UNL     1     -36.073  14.914  -3.441  1.00 20.00     0.007 C 
HETATM   11  N11 UNL     1     -35.003  14.141  -6.075  1.00 20.00    -0.305 NA
ENDROOT
TORSDOF 0
ENDMDL
MODEL 3
REMARK VINA RESULT:      -4.7      1.227      2.072
REMARK  0 active torsions:
REMARK  status: ('A' for Active; 'I' for Inactive)
ROOT
HETATM    1  C1  UNL     1     -34.734  13.502  -5.304  1.00 20.00     0.083 C 
HETATM    2  C2  UNL     1     -33.578  15.872  -2.859  1.00 20.00    -0.003 A 
HETATM    3  C3  UNL     1     -34.312  16.843  -2.164  1.00 20.00    -0.011 A 
HETATM    4  C4  UNL     1     -34.999  15.694  -2.428  1.00 20.00    -0.006 A 
HETATM    5  C5  UNL     1     -33.602  16.560  -4.037  1.00 20.00    -0.016 C 
HETATM    6  C6  UNL     1     -34.407  14.859  -5.842  1.00 20.00     0.052 C 
HETATM    7  C7  UNL     1     -33.731  17.887  -3.153  1.00 20.00     0.023 C 
HETATM    8  C8  UNL     1     -36.492  14.233  -3.902  1.00 20.00     0.153 C 
HETATM    9  C9  UNL     1     -35.815  15.574  -3.770  1.00 20.00     0.022 C 
HETATM   10  C10 UNL     1     -34.882  16.004  -4.951  1.00 20.00     0.007 C 
HETATM   11  N11 UNL     1     -35.644  13.202  -4.456  1.00 20.00    -0.305 NA
ENDROOT
TORSDOF 0
ENDMDL
MODEL 4
REMARK VINA RESULT:      -4.7      1.667      3.660
REMARK  0 active torsions:
REMARK  status: ('A' for Active; 'I' for Inactive)
ROOT
HETATM    1  C1  UNL     1     -33.518  13.719  -3.870  1.00 20.00     0.083 C 
HETATM    2  C2  UNL     1     -34.315  14.936  -7.159  1.00 20.00    -0.003 A 
HETATM    3  C3  UNL     1     -34.957  16.129  -7.521  1.00 20.00    -0.011 A 
HETATM    4  C4  UNL     1     -34.167  16.222  -6.411  1.00 20.00    -0.006 A 
HETATM    5  C5  UNL     1     -35.461  14.344  -6.712  1.00 20.00    -0.016 C 
HETATM    6  C6  UNL     1     -34.907  13.420  -4.337  1.00 20.00     0.052 C 
HETATM    7  C7  UNL     1     -36.240  15.287  -7.742  1.00 20.00     0.023 C 
HETATM    8  C8  UNL     1     -33.774  16.069  -3.890  1.00 20.00     0.153 C 
HETATM    9  C9  UNL     1     -34.793  15.938  -4.993  1.00 20.00     0.022 C 
HETATM   10  C10 UNL     1     -35.575  14.584  -5.065  1.00 20.00     0.007 C 
HETATM   11  N11 UNL     1     -32.999  14.870  -3.664  1.00 20.00    -0.305 NA
ENDROOT
TORSDOF 0
ENDMDL
MODEL 5
REMARK VINA RESULT:      -4.7      1.813      3.562
REMARK  0 active torsions:
REMARK  status: ('A' for Active; 'I' for Inactive)
ROOT
HETATM    1  C1  UNL     1     -33.736  17.492  -1.584  1.00 20.00     0.083 C 
HETATM    2  C2  UNL     1     -33.464  14.815  -3.970  1.00 20.00    -0.003 A 
HETATM    3  C3  UNL     1     -34.219  14.595  -5.131  1.00 20.00    -0.011 A 
HETATM    4  C4  UNL     1     -34.001  15.910  -4.836  1.00 20.00    -0.006 A 
HETATM    5  C5  UNL     1     -34.473  14.441  -3.130  1.00 20.00    -0.016 C 
HETATM    6  C6  UNL     1     -34.675  16.348  -1.363  1.00 20.00     0.052 C 
HETATM    7  C7  UNL     1     -35.010  13.529  -4.329  1.00 20.00     0.023 C 
HETATM    8  C8  UNL     1     -34.621  18.108  -3.688  1.00 20.00     0.153 C 
HETATM    9  C9  UNL     1     -35.031  16.676  -3.923  1.00 20.00     0.022 C 
HETATM   10  C10 UNL     1     -35.298  15.808  -2.649  1.00 20.00     0.007 C 
HETATM   11  N11 UNL     1     -33.694  18.278  -2.592  1.00 20.00    -0.305 NA
ENDROOT
TORSDOF 0
ENDMDL
MODEL 6
REMARK VINA RESULT:      -4.7     11.587     13.010
REMARK  0 active torsions:
REMARK  status: ('A' for Active; 'I' for Inactive)
ROOT
HETATM    1  C1  UNL     1     -34.841   4.211   5.341  1.00 20.00     0.083 C 
HETATM    2  C2  UNL     1     -32.254   5.904   3.504  1.00 20.00    -0.003 A 
HETATM    3  C3  UNL     1     -31.909   7.263   3.525  1.00 20.00    -0.011 A 
HETATM    4  C4  UNL     1     -32.347   6.769   4.720  1.00 20.00    -0.006 A 
HETATM    5  C5  UNL     1     -33.394   6.107   2.781  1.00 20.00    -0.016 C 
HETATM    6  C6  UNL     1     -35.288   4.862   4.071  1.00 20.00     0.052 C 
HETATM    7  C7  UNL     1     -32.674   7.404   2.183  1.00 20.00     0.023 C 
HETATM    8  C8  UNL     1     -34.188   6.218   6.406  1.00 20.00     0.153 C 
HETATM    9  C9  UNL     1     -33.885   6.822   5.059  1.00 20.00     0.022 C 
HETATM   10  C10 UNL     1     -34.676   6.242   3.839  1.00 20.00     0.007 C 
HETATM   11  N11 UNL     1     -34.358   4.783   6.379  1.00 20.00    -0.305 NA
ENDROOT
TORSDOF 0
ENDMDL
MODEL 7
REMARK VINA RESULT:      -4.7      1.351      2.377
REMARK  0 active torsions:
REMARK  status: ('A' for Active; 'I' for Inactive)
ROOT
HETATM    1  C1  UNL     1     -35.316  13.392  -4.464  1.00 20.00     0.083 C 
HETATM    2  C2  UNL     1     -34.410  16.705  -5.530  1.00 20.00    -0.003 A 
HETATM    3  C3  UNL     1     -33.487  17.590  -4.954  1.00 20.00    -0.011 A 
HETATM    4  C4  UNL     1     -33.148  16.271  -4.856  1.00 20.00    -0.006 A 
HETATM    5  C5  UNL     1     -35.342  16.889  -4.550  1.00 20.00    -0.016 C 
HETATM    6  C6  UNL     1     -36.047  14.501  -3.776  1.00 20.00     0.052 C 
HETATM    7  C7  UNL     1     -34.698  18.338  -4.338  1.00 20.00     0.023 C 
HETATM    8  C8  UNL     1     -33.175  14.006  -3.672  1.00 20.00     0.153 C 
HETATM    9  C9  UNL     1     -33.624  15.443  -3.603  1.00 20.00     0.022 C 
HETATM   10  C10 UNL     1     -35.158  15.687  -3.409  1.00 20.00     0.007 C 
HETATM   11  N11 UNL     1     -34.060  13.152  -4.432  1.00 20.00    -0.305 NA
ENDROOT
TORSDOF 0
ENDMDL
MODEL 8
REMARK VINA RESULT:      -4.6      1.695      2.933
REMARK  0 active torsions:
REMARK  status: ('A' for Active; 'I' for Inactive)
ROOT
HETATM    1  C1  UNL     1     -36.750  15.135  -7.073  1.00 20.00     0.083 C 
HETATM    2  C2  UNL     1     -35.301  14.035  -3.970  1.00 20.00    -0.003 A 
HETATM    3  C3  UNL     1     -34.316  14.659  -3.193  1.00 20.00    -0.011 A 
HETATM    4  C4  UNL     1     -35.159  15.517  -3.837  1.00 20.00    -0.006 A 
HETATM    5  C5  UNL     1     -34.422  13.635  -4.935  1.00 20.00    -0.016 C 
HETATM    6  C6  UNL     1     -35.460  14.390  -7.205  1.00 20.00     0.052 C 
HETATM    7  C7  UNL     1     -33.305  13.646  -3.790  1.00 20.00     0.023 C 
HETATM    8  C8  UNL     1     -35.843  16.942  -5.847  1.00 20.00     0.153 C 
HETATM    9  C9  UNL     1     -34.792  16.019  -5.285  1.00 20.00     0.022 C 
HETATM   10  C10 UNL     1     -34.419  14.772  -6.155  1.00 20.00     0.007 C 
HETATM   11  N11 UNL     1     -36.943  16.255  -6.485  1.00 20.00    -0.305 NA
ENDROOT
TORSDOF 0
ENDMDL
MODEL 9
REMARK VINA RESULT:      -4.5      1.187      1.295
REMARK  0 active torsions:
REMARK  status: ('A' for Active; 'I' for Inactive)
ROOT
HETATM    1  C1  UNL     1     -35.421  14.887  -5.166  1.00 20.00     0.083 C 
HETATM    2  C2  UNL     1     -35.247  17.320  -2.523  1.00 20.00    -0.003 A 
HETATM    3  C3  UNL     1     -34.117  17.950  -1.984  1.00 20.00    -0.011 A 
HETATM    4  C4  UNL     1     -34.036  17.684  -3.321  1.00 20.00    -0.006 A 
HETATM    5  C5  UNL     1     -34.984  16.123  -1.922  1.00 20.00    -0.016 C 
HETATM    6  C6  UNL     1     -35.135  14.328  -3.809  1.00 20.00     0.052 C 
HETATM    7  C7  UNL     1     -34.223  16.961  -0.793  1.00 20.00     0.023 C 
HETATM    8  C8  UNL     1     -33.445  16.179  -5.301  1.00 20.00     0.153 C 
HETATM    9  C9  UNL     1     -33.439  16.306  -3.798  1.00 20.00     0.022 C 
HETATM   10  C10 UNL     1     -34.145  15.162  -2.997  1.00 20.00     0.007 C 
HETATM   11  N11 UNL     1     -34.696  15.696  -5.841  1.00 20.00    -0.305 NA
ENDROOT
TORSDOF 0
ENDMDL
