MODEL 1
REMARK VINA RESULT:      -4.8      0.000      0.000
REMARK  2 active torsions:
REMARK  status: ('A' for Active; 'I' for Inactive)
REMARK    1  A    between atoms: C7_7  and  C9_9 
REMARK    2  A    between atoms: C8_8  and  C10_10 
ROOT
HETATM    1  C1  UNL     1     -32.530   9.927   1.422  1.00 20.00     0.012 C 
HETATM    2  C2  UNL     1     -32.329   8.826   1.854  1.00 20.00    -0.112 C 
HETATM    3  C6  UNL     1     -32.087   7.509   2.370  1.00 20.00     0.074 A 
HETATM    4  C9  UNL     1     -33.062   6.953   3.386  1.00 20.00     0.015 A 
HETATM    5  C10 UNL     1     -31.666   7.378   3.818  1.00 20.00     0.015 A 
ENDROOT
BRANCH   4   6
HETATM    6  C7  UNL     1     -33.144   5.488   3.837  1.00 20.00     0.014 C 
HETATM    7  C3  UNL     1     -34.072   5.296   5.021  1.00 20.00    -0.025 C 
HETATM    8  C4  UNL     1     -35.318   5.562   4.593  1.00 20.00    -0.025 C 
HETATM    9  C8  UNL     1     -35.217   5.929   3.126  1.00 20.00     0.014 C 
HETATM   10  C5  UNL     1     -34.097   4.933   2.755  1.00 20.00     0.018 C 
ENDBRANCH   4   6
TORSDOF 2
ENDMDL
MODEL 2
REMARK VINA RESULT:      -4.4     10.227     12.298
REMARK  2 active torsions:
REMARK  status: ('A' for Active; 'I' for Inactive)
REMARK    1  A    between atoms: C7_7  and  C9_9 
REMARK    2  A    between atoms: C8_8  and  C10_10 
ROOT
HETATM    1  C1  UNL     1     -34.739  16.586  -1.071  1.00 20.00     0.012 C 
HETATM    2  C2  UNL     1     -34.308  16.072  -2.066  1.00 20.00    -0.112 C 
HETATM    3  C6  UNL     1     -33.791  15.457  -3.255  1.00 20.00     0.074 A 
HETATM    4  C9  UNL     1     -34.751  15.197  -4.396  1.00 20.00     0.015 A 
HETATM    5  C10 UNL     1     -34.218  14.039  -3.566  1.00 20.00     0.015 A 
ENDROOT
BRANCH   4   6
HETATM    6  C7  UNL     1     -34.354  14.821  -5.831  1.00 20.00     0.014 C 
HETATM    7  C3  UNL     1     -35.552  14.467  -6.690  1.00 20.00    -0.025 C 
HETATM    8  C4  UNL     1     -36.270  15.592  -6.850  1.00 20.00    -0.025 C 
HETATM    9  C8  UNL     1     -35.548  16.692  -6.096  1.00 20.00     0.014 C 
HETATM   10  C5  UNL     1     -34.109  16.230  -6.414  1.00 20.00     0.018 C 
ENDBRANCH   4   6
TORSDOF 2
ENDMDL
MODEL 3
REMARK VINA RESULT:      -4.3     10.183     11.595
REMARK  2 active torsions:
REMARK  status: ('A' for Active; 'I' for Inactive)
REMARK    1  A    between atoms: C7_7  and  C9_9 
REMARK    2  A    between atoms: C8_8  and  C10_10 
ROOT
HETATM    1  C1  UNL     1     -32.898  18.454  -0.184  1.00 20.00     0.012 C 
HETATM    2  C2  UNL     1     -33.660  17.627  -0.606  1.00 20.00    -0.112 C 
HETATM    3  C6  UNL     1     -34.570  16.639  -1.110  1.00 20.00     0.074 A 
HETATM    4  C9  UNL     1     -34.580  16.376  -2.600  1.00 20.00     0.015 A 
HETATM    5  C10 UNL     1     -35.740  17.110  -1.945  1.00 20.00     0.015 A 
ENDROOT
BRANCH   4   6
HETATM    6  C7  UNL     1     -35.257  15.184  -3.293  1.00 20.00     0.014 C 
HETATM    7  C3  UNL     1     -35.397  15.386  -4.789  1.00 20.00    -0.025 C 
HETATM    8  C4  UNL     1     -34.156  15.384  -5.305  1.00 20.00    -0.025 C 
HETATM    9  C8  UNL     1     -33.193  15.180  -4.152  1.00 20.00     0.014 C 
HETATM   10  C5  UNL     1     -34.068  14.198  -3.342  1.00 20.00     0.018 C 
ENDBRANCH   4   6
TORSDOF 2
ENDMDL
MODEL 4
REMARK VINA RESULT:      -4.3     10.487     12.465
REMARK  2 active torsions:
REMARK  status: ('A' for Active; 'I' for Inactive)
REMARK    1  A    between atoms: C7_7  and  C9_9 
REMARK    2  A    between atoms: C8_8  and  C10_10 
ROOT
HETATM    1  C1  UNL     1     -36.359  14.758  -7.918  1.00 20.00     0.012 C 
HETATM    2  C2  UNL     1     -35.389  15.127  -7.315  1.00 20.00    -0.112 C 
HETATM    3  C6  UNL     1     -34.229  15.567  -6.594  1.00 20.00     0.074 A 
HETATM    4  C9  UNL     1     -34.417  16.051  -5.173  1.00 20.00     0.015 A 
HETATM    5  C10 UNL     1     -34.103  17.043  -6.283  1.00 20.00     0.015 A 
ENDROOT
BRANCH   4   6
HETATM    6  C7  UNL     1     -33.293  16.289  -4.154  1.00 20.00     0.014 C 
HETATM    7  C3  UNL     1     -33.811  16.823  -2.832  1.00 20.00    -0.025 C 
HETATM    8  C4  UNL     1     -34.540  15.844  -2.270  1.00 20.00    -0.025 C 
HETATM    9  C8  UNL     1     -34.506  14.661  -3.218  1.00 20.00     0.014 C 
HETATM   10  C5  UNL     1     -33.046  14.836  -3.691  1.00 20.00     0.018 C 
ENDBRANCH   4   6
TORSDOF 2
ENDMDL
MODEL 5
REMARK VINA RESULT:      -4.2     10.509     11.574
REMARK  2 active torsions:
REMARK  status: ('A' for Active; 'I' for Inactive)
REMARK    1  A    between atoms: C7_7  and  C9_9 
REMARK    2  A    between atoms: C8_8  and  C10_10 
ROOT
HETATM    1  C1  UNL     1     -35.505  17.472   1.717  1.00 20.00     0.012 C 
HETATM    2  C2  UNL     1     -35.115  17.694   0.604  1.00 20.00    -0.112 C 
HETATM    3  C6  UNL     1     -34.651  17.961  -0.727  1.00 20.00     0.074 A 
HETATM    4  C9  UNL     1     -34.055  16.815  -1.515  1.00 20.00     0.015 A 
HETATM    5  C10 UNL     1     -33.159  17.922  -0.981  1.00 20.00     0.015 A 
ENDROOT
BRANCH   4   6
HETATM    6  C7  UNL     1     -33.769  16.821  -3.024  1.00 20.00     0.014 C 
HETATM    7  C3  UNL     1     -33.219  15.496  -3.515  1.00 20.00    -0.025 C 
HETATM    8  C4  UNL     1     -34.202  14.588  -3.387  1.00 20.00    -0.025 C 
HETATM    9  C8  UNL     1     -35.404  15.311  -2.812  1.00 20.00     0.014 C 
HETATM   10  C5  UNL     1     -35.205  16.645  -3.565  1.00 20.00     0.018 C 
ENDBRANCH   4   6
TORSDOF 2
ENDMDL
MODEL 6
REMARK VINA RESULT:      -4.2     10.899     12.816
REMARK  2 active torsions:
REMARK  status: ('A' for Active; 'I' for Inactive)
REMARK    1  A    between atoms: C7_7  and  C9_9 
REMARK    2  A    between atoms: C8_8  and  C10_10 
ROOT
HETATM    1  C1  UNL     1     -34.731  17.036  -0.195  1.00 20.00     0.012 C 
HETATM    2  C2  UNL     1     -34.660  16.442  -1.236  1.00 20.00    -0.112 C 
HETATM    3  C6  UNL     1     -34.576  15.731  -2.479  1.00 20.00     0.074 A 
HETATM    4  C9  UNL     1     -34.987  16.456  -3.742  1.00 20.00     0.015 A 
HETATM    5  C10 UNL     1     -35.867  15.354  -3.172  1.00 20.00     0.015 A 
ENDROOT
BRANCH   4   6
HETATM    6  C7  UNL     1     -34.707  15.984  -5.176  1.00 20.00     0.014 C 
HETATM    7  C3  UNL     1     -35.279  16.924  -6.219  1.00 20.00    -0.025 C 
HETATM    8  C4  UNL     1     -34.594  18.077  -6.130  1.00 20.00    -0.025 C 
HETATM    9  C8  UNL     1     -33.567  17.901  -5.029  1.00 20.00     0.014 C 
HETATM   10  C5  UNL     1     -33.231  16.421  -5.313  1.00 20.00     0.018 C 
ENDBRANCH   4   6
TORSDOF 2
ENDMDL
MODEL 7
REMARK VINA RESULT:      -4.2     10.135     12.210
REMARK  2 active torsions:
REMARK  status: ('A' for Active; 'I' for Inactive)
REMARK    1  A    between atoms: C7_7  and  C9_9 
REMARK    2  A    between atoms: C8_8  and  C10_10 
ROOT
HETATM    1  C1  UNL     1     -37.455  15.168  -7.918  1.00 20.00     0.012 C 
HETATM    2  C2  UNL     1     -36.417  14.883  -7.386  1.00 20.00    -0.112 C 
HETATM    3  C6  UNL     1     -35.177  14.542  -6.751  1.00 20.00     0.074 A 
HETATM    4  C9  UNL     1     -34.816  15.256  -5.467  1.00 20.00     0.015 A 
HETATM    5  C10 UNL     1     -34.069  15.573  -6.754  1.00 20.00     0.015 A 
ENDROOT
BRANCH   4   6
HETATM    6  C7  UNL     1     -33.698  14.843  -4.499  1.00 20.00     0.014 C 
HETATM    7  C3  UNL     1     -33.498  15.848  -3.381  1.00 20.00    -0.025 C 
HETATM    8  C4  UNL     1     -34.602  15.814  -2.616  1.00 20.00    -0.025 C 
HETATM    9  C8  UNL     1     -35.535  14.786  -3.226  1.00 20.00     0.014 C 
HETATM   10  C5  UNL     1     -34.449  13.779  -3.668  1.00 20.00     0.018 C 
ENDBRANCH   4   6
TORSDOF 2
ENDMDL
MODEL 8
REMARK VINA RESULT:      -4.1      9.189     10.192
REMARK  2 active torsions:
REMARK  status: ('A' for Active; 'I' for Inactive)
REMARK    1  A    between atoms: C7_7  and  C9_9 
REMARK    2  A    between atoms: C8_8  and  C10_10 
ROOT
HETATM    1  C1  UNL     1     -43.301   8.139  -4.341  1.00 20.00     0.012 C 
HETATM    2  C2  UNL     1     -42.562   7.748  -3.480  1.00 20.00    -0.112 C 
HETATM    3  C6  UNL     1     -41.679   7.280  -2.451  1.00 20.00     0.074 A 
HETATM    4  C9  UNL     1     -42.248   6.372  -1.383  1.00 20.00     0.015 A 
HETATM    5  C10 UNL     1     -41.879   7.809  -1.047  1.00 20.00     0.015 A 
ENDROOT
BRANCH   4   6
HETATM    6  C7  UNL     1     -41.428   5.549  -0.379  1.00 20.00     0.014 C 
HETATM    7  C3  UNL     1     -42.303   4.767   0.581  1.00 20.00    -0.025 C 
HETATM    8  C4  UNL     1     -42.943   3.831  -0.141  1.00 20.00    -0.025 C 
HETATM    9  C8  UNL     1     -42.493   3.993  -1.579  1.00 20.00     0.014 C 
HETATM   10  C5  UNL     1     -41.023   4.362  -1.281  1.00 20.00     0.018 C 
ENDBRANCH   4   6
TORSDOF 2
ENDMDL
MODEL 9
REMARK VINA RESULT:      -4.1      1.247      2.707
REMARK  2 active torsions:
REMARK  status: ('A' for Active; 'I' for Inactive)
REMARK    1  A    between atoms: C7_7  and  C9_9 
REMARK    2  A    between atoms: C8_8  and  C10_10 
ROOT
HETATM    1  C1  UNL     1     -31.483   7.827   2.506  1.00 20.00     0.012 C 
HETATM    2  C2  UNL     1     -32.561   7.400   2.817  1.00 20.00    -0.112 C 
HETATM    3  C6  UNL     1     -33.849   6.889   3.187  1.00 20.00     0.074 A 
HETATM    4  C9  UNL     1     -33.906   5.785   4.220  1.00 20.00     0.015 A 
HETATM    5  C10 UNL     1     -34.207   5.482   2.760  1.00 20.00     0.015 A 
ENDROOT
BRANCH   4   6
HETATM    6  C7  UNL     1     -35.170   5.308   4.951  1.00 20.00     0.014 C 
HETATM    7  C3  UNL     1     -35.160   3.815   5.213  1.00 20.00    -0.025 C 
HETATM    8  C4  UNL     1     -34.178   3.575   6.098  1.00 20.00    -0.025 C 
HETATM    9  C8  UNL     1     -33.536   4.909   6.424  1.00 20.00     0.014 C 
HETATM   10  C5  UNL     1     -34.827   5.757   6.389  1.00 20.00     0.018 C 
ENDBRANCH   4   6
TORSDOF 2
ENDMDL
