MODEL 1
REMARK VINA RESULT:      -5.2      0.000      0.000
REMARK  4 active torsions:
REMARK  status: ('A' for Active; 'I' for Inactive)
REMARK    1  A    between atoms: C3_3  and  C5_5 
REMARK    2  A    between atoms: C5_5  and  N8_8 
REMARK    3  A    between atoms: C6_6  and  C7_7 
REMARK    4  A    between atoms: C6_6  and  N8_8 
ROOT
HETATM    1  N8  UNL     1     -32.386   7.838   2.971  1.00 20.00     0.089 N 
HETATM    2  H23 UNL     1     -33.184   8.464   3.124  1.00 20.00     0.316 HD
ENDROOT
BRANCH   1   3
HETATM    3  C5  UNL     1     -32.780   6.471   3.175  1.00 20.00     0.274 C 
BRANCH   3   4
HETATM    4  C3  UNL     1     -33.979   6.382   4.053  1.00 20.00     0.018 A 
HETATM    5  C1  UNL     1     -35.081   5.405   3.735  1.00 20.00     0.011 A 
HETATM    6  C2  UNL     1     -34.190   5.172   4.926  1.00 20.00    -0.013 A 
HETATM    7  C4  UNL     1     -34.728   5.330   6.306  1.00 20.00     0.010 C 
ENDBRANCH   3   4
ENDBRANCH   1   3
BRANCH   1   8
HETATM    8  C6  UNL     1     -31.884   8.058   1.614  1.00 20.00     0.340 C 
BRANCH   8   9
HETATM    9  C7  UNL     1     -32.231   9.452   1.137  1.00 20.00     0.381 C 
HETATM   10  F9  UNL     1     -33.133  10.018   1.978  1.00 20.00    -0.213 F 
HETATM   11  F10 UNL     1     -32.835   9.370  -0.076  1.00 20.00    -0.213 F 
ENDBRANCH   8   9
ENDBRANCH   1   8
TORSDOF 4
ENDMDL
MODEL 2
REMARK VINA RESULT:      -5.0      3.293      5.303
REMARK  4 active torsions:
REMARK  status: ('A' for Active; 'I' for Inactive)
REMARK    1  A    between atoms: C3_3  and  C5_5 
REMARK    2  A    between atoms: C5_5  and  N8_8 
REMARK    3  A    between atoms: C6_6  and  C7_7 
REMARK    4  A    between atoms: C6_6  and  N8_8 
ROOT
HETATM    1  N8  UNL     1     -34.923   5.700   3.804  1.00 20.00     0.089 N 
HETATM    2  H23 UNL     1     -35.117   6.553   4.340  1.00 20.00     0.316 HD
ENDROOT
BRANCH   1   3
HETATM    3  C5  UNL     1     -33.597   5.751   3.251  1.00 20.00     0.274 C 
BRANCH   3   4
HETATM    4  C3  UNL     1     -33.052   7.137   3.289  1.00 20.00     0.018 A 
HETATM    5  C1  UNL     1     -31.595   7.370   3.596  1.00 20.00     0.011 A 
HETATM    6  C2  UNL     1     -32.120   7.613   2.205  1.00 20.00    -0.013 A 
HETATM    7  C4  UNL     1     -32.233   9.002   1.679  1.00 20.00     0.010 C 
ENDBRANCH   3   4
ENDBRANCH   1   3
BRANCH   1   8
HETATM    8  C6  UNL     1     -35.093   4.550   4.693  1.00 20.00     0.340 C 
BRANCH   8   9
HETATM    9  C7  UNL     1     -34.916   4.964   6.138  1.00 20.00     0.381 C 
HETATM   10  F9  UNL     1     -34.541   6.266   6.205  1.00 20.00    -0.213 F 
HETATM   11  F10 UNL     1     -33.904   4.243   6.687  1.00 20.00    -0.213 F 
ENDBRANCH   8   9
ENDBRANCH   1   8
TORSDOF 4
ENDMDL
MODEL 3
REMARK VINA RESULT:      -4.6      1.825      2.566
REMARK  4 active torsions:
REMARK  status: ('A' for Active; 'I' for Inactive)
REMARK    1  A    between atoms: C3_3  and  C5_5 
REMARK    2  A    between atoms: C5_5  and  N8_8 
REMARK    3  A    between atoms: C6_6  and  C7_7 
REMARK    4  A    between atoms: C6_6  and  N8_8 
ROOT
HETATM    1  N8  UNL     1     -33.832   5.793   2.697  1.00 20.00     0.089 N 
HETATM    2  H23 UNL     1     -33.860   5.399   1.751  1.00 20.00     0.316 HD
ENDROOT
BRANCH   1   3
HETATM    3  C5  UNL     1     -34.433   4.882   3.633  1.00 20.00     0.274 C 
BRANCH   3   4
HETATM    4  C3  UNL     1     -34.864   5.589   4.871  1.00 20.00     0.018 A 
HETATM    5  C1  UNL     1     -35.092   4.816   6.144  1.00 20.00     0.011 A 
HETATM    6  C2  UNL     1     -33.909   5.741   6.027  1.00 20.00    -0.013 A 
HETATM    7  C4  UNL     1     -33.871   7.011   6.804  1.00 20.00     0.010 C 
ENDBRANCH   3   4
ENDBRANCH   1   3
BRANCH   1   8
HETATM    8  C6  UNL     1     -32.436   6.073   3.037  1.00 20.00     0.340 C 
BRANCH   8   9
HETATM    9  C7  UNL     1     -32.164   7.561   2.991  1.00 20.00     0.381 C 
HETATM   10  F9  UNL     1     -31.711   7.912   1.761  1.00 20.00    -0.213 F 
HETATM   11  F10 UNL     1     -31.171   7.860   3.867  1.00 20.00    -0.213 F 
ENDBRANCH   8   9
ENDBRANCH   1   8
TORSDOF 4
ENDMDL
MODEL 4
REMARK VINA RESULT:      -4.5      3.244      5.118
REMARK  4 active torsions:
REMARK  status: ('A' for Active; 'I' for Inactive)
REMARK    1  A    between atoms: C3_3  and  C5_5 
REMARK    2  A    between atoms: C5_5  and  N8_8 
REMARK    3  A    between atoms: C6_6  and  C7_7 
REMARK    4  A    between atoms: C6_6  and  N8_8 
ROOT
HETATM    1  N8  UNL     1     -33.948   5.297   3.933  1.00 20.00     0.089 N 
HETATM    2  H23 UNL     1     -34.770   4.837   3.528  1.00 20.00     0.316 HD
ENDROOT
BRANCH   1   3
HETATM    3  C5  UNL     1     -33.089   5.787   2.889  1.00 20.00     0.274 C 
BRANCH   3   4
HETATM    4  C3  UNL     1     -32.818   7.242   3.055  1.00 20.00     0.018 A 
HETATM    5  C1  UNL     1     -31.429   7.721   3.389  1.00 20.00     0.011 A 
HETATM    6  C2  UNL     1     -32.007   7.982   2.022  1.00 20.00    -0.013 A 
HETATM    7  C4  UNL     1     -32.389   9.365   1.623  1.00 20.00     0.010 C 
ENDBRANCH   3   4
ENDBRANCH   1   3
BRANCH   1   8
HETATM    8  C6  UNL     1     -34.408   6.378   4.805  1.00 20.00     0.340 C 
BRANCH   8   9
HETATM    9  C7  UNL     1     -34.123   6.050   6.255  1.00 20.00     0.381 C 
HETATM   10  F9  UNL     1     -35.186   5.412   6.805  1.00 20.00    -0.213 F 
HETATM   11  F10 UNL     1     -33.966   7.207   6.950  1.00 20.00    -0.213 F 
ENDBRANCH   8   9
ENDBRANCH   1   8
TORSDOF 4
ENDMDL
MODEL 5
REMARK VINA RESULT:      -4.3      2.846      5.109
REMARK  4 active torsions:
REMARK  status: ('A' for Active; 'I' for Inactive)
REMARK    1  A    between atoms: C3_3  and  C5_5 
REMARK    2  A    between atoms: C5_5  and  N8_8 
REMARK    3  A    between atoms: C6_6  and  C7_7 
REMARK    4  A    between atoms: C6_6  and  N8_8 
ROOT
HETATM    1  N8  UNL     1     -32.529   6.191   3.545  1.00 20.00     0.089 N 
HETATM    2  H23 UNL     1     -32.566   5.532   2.760  1.00 20.00     0.316 HD
ENDROOT
BRANCH   1   3
HETATM    3  C5  UNL     1     -31.841   7.391   3.155  1.00 20.00     0.274 C 
BRANCH   3   4
HETATM    4  C3  UNL     1     -32.610   8.141   2.123  1.00 20.00     0.018 A 
HETATM    5  C1  UNL     1     -32.503   9.641   2.040  1.00 20.00     0.011 A 
HETATM    6  C2  UNL     1     -31.893   8.782   0.963  1.00 20.00    -0.013 A 
HETATM    7  C4  UNL     1     -32.495   8.749  -0.399  1.00 20.00     0.010 C 
ENDBRANCH   3   4
ENDBRANCH   1   3
BRANCH   1   8
HETATM    8  C6  UNL     1     -33.900   6.470   3.975  1.00 20.00     0.340 C 
BRANCH   8   9
HETATM    9  C7  UNL     1     -34.788   5.267   3.738  1.00 20.00     0.381 C 
HETATM   10  F9  UNL     1     -36.042   5.672   3.417  1.00 20.00    -0.213 F 
HETATM   11  F10 UNL     1     -34.895   4.559   4.892  1.00 20.00    -0.213 F 
ENDBRANCH   8   9
ENDBRANCH   1   8
TORSDOF 4
ENDMDL
MODEL 6
REMARK VINA RESULT:      -4.2     10.343     10.849
REMARK  4 active torsions:
REMARK  status: ('A' for Active; 'I' for Inactive)
REMARK    1  A    between atoms: C3_3  and  C5_5 
REMARK    2  A    between atoms: C5_5  and  N8_8 
REMARK    3  A    between atoms: C6_6  and  C7_7 
REMARK    4  A    between atoms: C6_6  and  N8_8 
ROOT
HETATM    1  N8  UNL     1     -33.374  15.572  -4.857  1.00 20.00     0.089 N 
HETATM    2  H23 UNL     1     -33.597  16.558  -5.035  1.00 20.00     0.316 HD
ENDROOT
BRANCH   1   3
HETATM    3  C5  UNL     1     -33.243  15.339  -3.445  1.00 20.00     0.274 C 
BRANCH   3   4
HETATM    4  C3  UNL     1     -33.749  16.499  -2.659  1.00 20.00     0.018 A 
HETATM    5  C1  UNL     1     -35.181  16.944  -2.800  1.00 20.00     0.011 A 
HETATM    6  C2  UNL     1     -34.721  16.281  -1.529  1.00 20.00    -0.013 A 
HETATM    7  C4  UNL     1     -34.598  17.074  -0.273  1.00 20.00     0.010 C 
ENDBRANCH   3   4
ENDBRANCH   1   3
BRANCH   1   8
HETATM    8  C6  UNL     1     -34.432  14.749  -5.444  1.00 20.00     0.340 C 
BRANCH   8   9
HETATM    9  C7  UNL     1     -34.740  13.564  -4.554  1.00 20.00     0.381 C 
HETATM   10  F9  UNL     1     -34.702  12.418  -5.277  1.00 20.00    -0.213 F 
HETATM   11  F10 UNL     1     -36.009  13.680  -4.083  1.00 20.00    -0.213 F 
ENDBRANCH   8   9
ENDBRANCH   1   8
TORSDOF 4
ENDMDL
MODEL 7
REMARK VINA RESULT:      -4.1     10.011     10.528
REMARK  4 active torsions:
REMARK  status: ('A' for Active; 'I' for Inactive)
REMARK    1  A    between atoms: C3_3  and  C5_5 
REMARK    2  A    between atoms: C5_5  and  N8_8 
REMARK    3  A    between atoms: C6_6  and  C7_7 
REMARK    4  A    between atoms: C6_6  and  N8_8 
ROOT
HETATM    1  N8  UNL     1     -33.791  15.688  -3.019  1.00 20.00     0.089 N 
HETATM    2  H23 UNL     1     -33.125  16.450  -3.188  1.00 20.00     0.316 HD
ENDROOT
BRANCH   1   3
HETATM    3  C5  UNL     1     -34.902  16.164  -2.241  1.00 20.00     0.274 C 
BRANCH   3   4
HETATM    4  C3  UNL     1     -34.474  16.539  -0.865  1.00 20.00     0.018 A 
HETATM    5  C1  UNL     1     -33.681  17.799  -0.635  1.00 20.00     0.011 A 
HETATM    6  C2  UNL     1     -35.110  17.714  -0.169  1.00 20.00    -0.013 A 
HETATM    7  C4  UNL     1     -35.420  17.643   1.286  1.00 20.00     0.010 C 
ENDBRANCH   3   4
ENDBRANCH   1   3
BRANCH   1   8
HETATM    8  C6  UNL     1     -34.225  15.161  -4.314  1.00 20.00     0.340 C 
BRANCH   8   9
HETATM    9  C7  UNL     1     -33.963  13.672  -4.397  1.00 20.00     0.381 C 
HETATM   10  F9  UNL     1     -34.991  12.988  -3.836  1.00 20.00    -0.213 F 
HETATM   11  F10 UNL     1     -32.858  13.373  -3.666  1.00 20.00    -0.213 F 
ENDBRANCH   8   9
ENDBRANCH   1   8
TORSDOF 4
ENDMDL
MODEL 8
REMARK VINA RESULT:      -4.1     10.608     11.087
REMARK  4 active torsions:
REMARK  status: ('A' for Active; 'I' for Inactive)
REMARK    1  A    between atoms: C3_3  and  C5_5 
REMARK    2  A    between atoms: C5_5  and  N8_8 
REMARK    3  A    between atoms: C6_6  and  C7_7 
REMARK    4  A    between atoms: C6_6  and  N8_8 
ROOT
HETATM    1  N8  UNL     1     -35.543  13.553  -4.031  1.00 20.00     0.089 N 
HETATM    2  H23 UNL     1     -35.089  13.044  -3.263  1.00 20.00     0.316 HD
ENDROOT
BRANCH   1   3
HETATM    3  C5  UNL     1     -35.733  14.931  -3.669  1.00 20.00     0.274 C 
BRANCH   3   4
HETATM    4  C3  UNL     1     -34.755  15.354  -2.629  1.00 20.00     0.018 A 
HETATM    5  C1  UNL     1     -33.764  16.451  -2.921  1.00 20.00     0.011 A 
HETATM    6  C2  UNL     1     -34.897  16.697  -1.959  1.00 20.00    -0.013 A 
HETATM    7  C4  UNL     1     -34.624  16.838  -0.502  1.00 20.00     0.010 C 
ENDBRANCH   3   4
ENDBRANCH   1   3
BRANCH   1   8
HETATM    8  C6  UNL     1     -34.710  13.419  -5.227  1.00 20.00     0.340 C 
BRANCH   8   9
HETATM    9  C7  UNL     1     -35.084  14.464  -6.256  1.00 20.00     0.381 C 
HETATM   10  F9  UNL     1     -35.368  13.868  -7.440  1.00 20.00    -0.213 F 
HETATM   11  F10 UNL     1     -34.015  15.272  -6.478  1.00 20.00    -0.213 F 
ENDBRANCH   8   9
ENDBRANCH   1   8
TORSDOF 4
ENDMDL
MODEL 9
REMARK VINA RESULT:      -4.0     10.565     11.588
REMARK  4 active torsions:
REMARK  status: ('A' for Active; 'I' for Inactive)
REMARK    1  A    between atoms: C3_3  and  C5_5 
REMARK    2  A    between atoms: C5_5  and  N8_8 
REMARK    3  A    between atoms: C6_6  and  C7_7 
REMARK    4  A    between atoms: C6_6  and  N8_8 
ROOT
HETATM    1  N8  UNL     1     -33.367  15.539  -5.670  1.00 20.00     0.089 N 
HETATM    2  H23 UNL     1     -32.437  15.495  -6.100  1.00 20.00     0.316 HD
ENDROOT
BRANCH   1   3
HETATM    3  C5  UNL     1     -33.441  16.650  -4.761  1.00 20.00     0.274 C 
BRANCH   3   4
HETATM    4  C3  UNL     1     -34.409  16.382  -3.661  1.00 20.00     0.018 A 
HETATM    5  C1  UNL     1     -34.476  15.018  -3.026  1.00 20.00     0.011 A 
HETATM    6  C2  UNL     1     -33.916  16.182  -2.252  1.00 20.00    -0.013 A 
HETATM    7  C4  UNL     1     -34.676  16.753  -1.105  1.00 20.00     0.010 C 
ENDBRANCH   3   4
ENDBRANCH   1   3
BRANCH   1   8
HETATM    8  C6  UNL     1     -34.363  15.648  -6.737  1.00 20.00     0.340 C 
BRANCH   8   9
HETATM    9  C7  UNL     1     -35.312  14.469  -6.702  1.00 20.00     0.381 C 
HETATM   10  F9  UNL     1     -36.480  14.831  -6.114  1.00 20.00    -0.213 F 
HETATM   11  F10 UNL     1     -34.778  13.491  -5.926  1.00 20.00    -0.213 F 
ENDBRANCH   8   9
ENDBRANCH   1   8
TORSDOF 4
ENDMDL
