MODEL 1
REMARK VINA RESULT:      -4.3      0.000      0.000
REMARK  3 active torsions:
REMARK  status: ('A' for Active; 'I' for Inactive)
REMARK       I    between atoms: C1_1  and  N10_10 
REMARK    1  A    between atoms: C7_7  and  C8_8 
REMARK    2  A    between atoms: C7_7  and  N10_10 
REMARK    3  A    between atoms: C8_8  and  C9_9 
ROOT
HETATM    1  C7  UNL     1     -35.523  16.593  -3.022  1.00 20.00     0.127 C 
ENDROOT
BRANCH   1   2
HETATM    2  C8  UNL     1     -35.380  15.094  -3.363  1.00 20.00     0.007 C 
HETATM    3  C3  UNL     1     -36.719  14.568  -3.915  1.00 20.00     0.012 C 
BRANCH   2   4
HETATM    4  C9  UNL     1     -34.155  14.784  -4.305  1.00 20.00    -0.047 C 
HETATM    5  C4  UNL     1     -33.242  16.026  -4.420  1.00 20.00     0.015 C 
HETATM    6  C5  UNL     1     -34.596  14.377  -5.723  1.00 20.00     0.015 C 
HETATM    7  C6  UNL     1     -33.293  13.644  -3.720  1.00 20.00     0.015 C 
ENDBRANCH   2   4
ENDBRANCH   1   2
BRANCH   1   8
HETATM    8  N10 UNL     1     -35.688  16.821  -1.610  1.00 20.00    -0.361 N 
HETATM    9  C1  UNL     1     -34.643  17.151  -0.765  1.00 20.00     0.213 C 
HETATM   10  C2  UNL     1     -35.044  17.343   0.661  1.00 20.00     0.117 C 
HETATM   11  O11 UNL     1     -33.468  17.292  -1.085  1.00 20.00    -0.274 OA
HETATM   12  H30 UNL     1     -36.622  16.734  -1.212  1.00 20.00     0.162 HD
ENDBRANCH   1   8
TORSDOF 3
ENDMDL
MODEL 2
REMARK VINA RESULT:      -4.2      1.593      2.343
REMARK  3 active torsions:
REMARK  status: ('A' for Active; 'I' for Inactive)
REMARK       I    between atoms: C1_1  and  N10_10 
REMARK    1  A    between atoms: C7_7  and  C8_8 
REMARK    2  A    between atoms: C7_7  and  N10_10 
REMARK    3  A    between atoms: C8_8  and  C9_9 
ROOT
HETATM    1  C7  UNL     1     -33.198  15.098  -3.924  1.00 20.00     0.127 C 
ENDROOT
BRANCH   1   2
HETATM    2  C8  UNL     1     -34.120  14.356  -4.915  1.00 20.00     0.007 C 
HETATM    3  C3  UNL     1     -35.083  13.447  -4.129  1.00 20.00     0.012 C 
BRANCH   2   4
HETATM    4  C9  UNL     1     -34.857  15.320  -5.920  1.00 20.00    -0.047 C 
HETATM    5  C4  UNL     1     -34.049  16.626  -6.098  1.00 20.00     0.015 C 
HETATM    6  C5  UNL     1     -36.274  15.690  -5.444  1.00 20.00     0.015 C 
HETATM    7  C6  UNL     1     -34.971  14.668  -7.316  1.00 20.00     0.015 C 
ENDBRANCH   2   4
ENDBRANCH   1   2
BRANCH   1   8
HETATM    8  N10 UNL     1     -33.852  15.381  -2.672  1.00 20.00    -0.361 N 
HETATM    9  C1  UNL     1     -34.012  16.661  -2.170  1.00 20.00     0.213 C 
HETATM   10  C2  UNL     1     -34.720  16.719  -0.856  1.00 20.00     0.117 C 
HETATM   11  O11 UNL     1     -33.634  17.700  -2.699  1.00 20.00    -0.274 OA
HETATM   12  H30 UNL     1     -34.213  14.599  -2.129  1.00 20.00     0.162 HD
ENDBRANCH   1   8
TORSDOF 3
ENDMDL
MODEL 3
REMARK VINA RESULT:      -4.2      1.580      2.394
REMARK  3 active torsions:
REMARK  status: ('A' for Active; 'I' for Inactive)
REMARK       I    between atoms: C1_1  and  N10_10 
REMARK    1  A    between atoms: C7_7  and  C8_8 
REMARK    2  A    between atoms: C7_7  and  N10_10 
REMARK    3  A    between atoms: C8_8  and  C9_9 
ROOT
HETATM    1  C7  UNL     1     -33.187  15.158  -3.920  1.00 20.00     0.127 C 
ENDROOT
BRANCH   1   2
HETATM    2  C8  UNL     1     -34.094  14.400  -4.913  1.00 20.00     0.007 C 
HETATM    3  C3  UNL     1     -35.075  13.510  -4.127  1.00 20.00     0.012 C 
BRANCH   2   4
HETATM    4  C9  UNL     1     -34.809  15.347  -5.950  1.00 20.00    -0.047 C 
HETATM    5  C4  UNL     1     -36.245  15.667  -5.480  1.00 20.00     0.015 C 
HETATM    6  C5  UNL     1     -34.888  14.722  -7.355  1.00 20.00     0.015 C 
HETATM    7  C6  UNL     1     -34.061  16.694  -6.062  1.00 20.00     0.015 C 
ENDBRANCH   2   4
ENDBRANCH   1   2
BRANCH   1   8
HETATM    8  N10 UNL     1     -33.842  15.414  -2.663  1.00 20.00    -0.361 N 
HETATM    9  C1  UNL     1     -34.003  16.684  -2.134  1.00 20.00     0.213 C 
HETATM   10  C2  UNL     1     -34.713  16.714  -0.820  1.00 20.00     0.117 C 
HETATM   11  O11 UNL     1     -33.625  17.734  -2.641  1.00 20.00    -0.274 OA
HETATM   12  H30 UNL     1     -34.205  14.622  -2.137  1.00 20.00     0.162 HD
ENDBRANCH   1   8
TORSDOF 3
ENDMDL
MODEL 4
REMARK VINA RESULT:      -4.2      0.984      1.975
REMARK  3 active torsions:
REMARK  status: ('A' for Active; 'I' for Inactive)
REMARK       I    between atoms: C1_1  and  N10_10 
REMARK    1  A    between atoms: C7_7  and  C8_8 
REMARK    2  A    between atoms: C7_7  and  N10_10 
REMARK    3  A    between atoms: C8_8  and  C9_9 
ROOT
HETATM    1  C7  UNL     1     -33.577  16.006  -2.756  1.00 20.00     0.127 C 
ENDROOT
BRANCH   1   2
HETATM    2  C8  UNL     1     -34.339  16.054  -4.097  1.00 20.00     0.007 C 
HETATM    3  C3  UNL     1     -33.522  16.870  -5.117  1.00 20.00     0.012 C 
BRANCH   2   4
HETATM    4  C9  UNL     1     -34.752  14.629  -4.629  1.00 20.00    -0.047 C 
HETATM    5  C4  UNL     1     -33.804  13.551  -4.059  1.00 20.00     0.015 C 
HETATM    6  C5  UNL     1     -34.712  14.545  -6.166  1.00 20.00     0.015 C 
HETATM    7  C6  UNL     1     -36.179  14.267  -4.162  1.00 20.00     0.015 C 
ENDBRANCH   2   4
ENDBRANCH   1   2
BRANCH   1   8
HETATM    8  N10 UNL     1     -34.424  16.312  -1.632  1.00 20.00    -0.361 N 
HETATM    9  C1  UNL     1     -34.106  17.263  -0.676  1.00 20.00     0.213 C 
HETATM   10  C2  UNL     1     -35.131  17.416   0.400  1.00 20.00     0.117 C 
HETATM   11  O11 UNL     1     -33.096  17.955  -0.651  1.00 20.00    -0.274 OA
HETATM   12  H30 UNL     1     -35.301  15.803  -1.534  1.00 20.00     0.162 HD
ENDBRANCH   1   8
TORSDOF 3
ENDMDL
MODEL 5
REMARK VINA RESULT:      -4.1      2.798      4.850
REMARK  3 active torsions:
REMARK  status: ('A' for Active; 'I' for Inactive)
REMARK       I    between atoms: C1_1  and  N10_10 
REMARK    1  A    between atoms: C7_7  and  C8_8 
REMARK    2  A    between atoms: C7_7  and  N10_10 
REMARK    3  A    between atoms: C8_8  and  C9_9 
ROOT
HETATM    1  C7  UNL     1     -35.321  13.755  -4.278  1.00 20.00     0.127 C 
ENDROOT
BRANCH   1   2
HETATM    2  C8  UNL     1     -34.412  14.452  -3.243  1.00 20.00     0.007 C 
HETATM    3  C3  UNL     1     -32.944  14.338  -3.698  1.00 20.00     0.012 C 
BRANCH   2   4
HETATM    4  C9  UNL     1     -34.851  15.931  -2.926  1.00 20.00    -0.047 C 
HETATM    5  C4  UNL     1     -34.145  16.915  -3.886  1.00 20.00     0.015 C 
HETATM    6  C5  UNL     1     -34.516  16.343  -1.480  1.00 20.00     0.015 C 
HETATM    7  C6  UNL     1     -36.371  16.106  -3.139  1.00 20.00     0.015 C 
ENDBRANCH   2   4
ENDBRANCH   1   2
BRANCH   1   8
HETATM    8  N10 UNL     1     -34.876  13.966  -5.631  1.00 20.00    -0.361 N 
HETATM    9  C1  UNL     1     -35.622  14.642  -6.581  1.00 20.00     0.213 C 
HETATM   10  C2  UNL     1     -34.964  14.743  -7.918  1.00 20.00     0.117 C 
HETATM   11  O11 UNL     1     -36.728  15.141  -6.413  1.00 20.00    -0.274 OA
HETATM   12  H30 UNL     1     -33.966  13.597  -5.903  1.00 20.00     0.162 HD
ENDBRANCH   1   8
TORSDOF 3
ENDMDL
MODEL 6
REMARK VINA RESULT:      -4.1      2.352      4.717
REMARK  3 active torsions:
REMARK  status: ('A' for Active; 'I' for Inactive)
REMARK       I    between atoms: C1_1  and  N10_10 
REMARK    1  A    between atoms: C7_7  and  C8_8 
REMARK    2  A    between atoms: C7_7  and  N10_10 
REMARK    3  A    between atoms: C8_8  and  C9_9 
ROOT
HETATM    1  C7  UNL     1     -35.699  15.242  -3.006  1.00 20.00     0.127 C 
ENDROOT
BRANCH   1   2
HETATM    2  C8  UNL     1     -34.480  15.852  -2.281  1.00 20.00     0.007 C 
HETATM    3  C3  UNL     1     -33.292  15.926  -3.260  1.00 20.00     0.012 C 
BRANCH   2   4
HETATM    4  C9  UNL     1     -34.797  17.229  -1.583  1.00 20.00    -0.047 C 
HETATM    5  C4  UNL     1     -34.785  17.064  -0.047  1.00 20.00     0.015 C 
HETATM    6  C5  UNL     1     -36.169  17.793  -1.998  1.00 20.00     0.015 C 
HETATM    7  C6  UNL     1     -33.717  18.277  -1.932  1.00 20.00     0.015 C 
ENDBRANCH   2   4
ENDBRANCH   1   2
BRANCH   1   8
HETATM    8  N10 UNL     1     -35.474  15.081  -4.419  1.00 20.00    -0.361 N 
HETATM    9  C1  UNL     1     -35.191  13.861  -5.011  1.00 20.00     0.213 C 
HETATM   10  C2  UNL     1     -34.995  13.928  -6.490  1.00 20.00     0.117 C 
HETATM   11  O11 UNL     1     -35.095  12.782  -4.437  1.00 20.00    -0.274 OA
HETATM   12  H30 UNL     1     -35.524  15.906  -5.013  1.00 20.00     0.162 HD
ENDBRANCH   1   8
TORSDOF 3
ENDMDL
MODEL 7
REMARK VINA RESULT:      -4.0      2.663      3.691
REMARK  3 active torsions:
REMARK  status: ('A' for Active; 'I' for Inactive)
REMARK       I    between atoms: C1_1  and  N10_10 
REMARK    1  A    between atoms: C7_7  and  C8_8 
REMARK    2  A    between atoms: C7_7  and  N10_10 
REMARK    3  A    between atoms: C8_8  and  C9_9 
ROOT
HETATM    1  C7  UNL     1     -35.947  15.407  -4.944  1.00 20.00     0.127 C 
ENDROOT
BRANCH   1   2
HETATM    2  C8  UNL     1     -34.992  14.717  -3.946  1.00 20.00     0.007 C 
HETATM    3  C3  UNL     1     -34.693  13.287  -4.436  1.00 20.00     0.012 C 
BRANCH   2   4
HETATM    4  C9  UNL     1     -33.693  15.556  -3.647  1.00 20.00    -0.047 C 
HETATM    5  C4  UNL     1     -32.466  14.622  -3.544  1.00 20.00     0.015 C 
HETATM    6  C5  UNL     1     -33.802  16.356  -2.336  1.00 20.00     0.015 C 
HETATM    7  C6  UNL     1     -33.408  16.548  -4.797  1.00 20.00     0.015 C 
ENDBRANCH   2   4
ENDBRANCH   1   2
BRANCH   1   8
HETATM    8  N10 UNL     1     -37.053  16.055  -4.287  1.00 20.00    -0.361 N 
HETATM    9  C1  UNL     1     -38.145  15.369  -3.781  1.00 20.00     0.213 C 
HETATM   10  C2  UNL     1     -39.173  16.242  -3.140  1.00 20.00     0.117 C 
HETATM   11  O11 UNL     1     -38.320  14.157  -3.817  1.00 20.00    -0.274 OA
HETATM   12  H30 UNL     1     -37.032  17.068  -4.192  1.00 20.00     0.162 HD
ENDBRANCH   1   8
TORSDOF 3
ENDMDL
MODEL 8
REMARK VINA RESULT:      -4.0      1.582      2.308
REMARK  3 active torsions:
REMARK  status: ('A' for Active; 'I' for Inactive)
REMARK       I    between atoms: C1_1  and  N10_10 
REMARK    1  A    between atoms: C7_7  and  C8_8 
REMARK    2  A    between atoms: C7_7  and  N10_10 
REMARK    3  A    between atoms: C8_8  and  C9_9 
ROOT
HETATM    1  C7  UNL     1     -33.936  17.038  -4.037  1.00 20.00     0.127 C 
ENDROOT
BRANCH   1   2
HETATM    2  C8  UNL     1     -33.471  15.733  -4.719  1.00 20.00     0.007 C 
HETATM    3  C3  UNL     1     -32.762  14.842  -3.681  1.00 20.00     0.012 C 
BRANCH   2   4
HETATM    4  C9  UNL     1     -34.626  14.989  -5.491  1.00 20.00    -0.047 C 
HETATM    5  C4  UNL     1     -34.355  15.015  -7.012  1.00 20.00     0.015 C 
HETATM    6  C5  UNL     1     -36.005  15.626  -5.235  1.00 20.00     0.015 C 
HETATM    7  C6  UNL     1     -34.693  13.504  -5.070  1.00 20.00     0.015 C 
ENDBRANCH   2   4
ENDBRANCH   1   2
BRANCH   1   8
HETATM    8  N10 UNL     1     -33.875  16.958  -2.600  1.00 20.00    -0.361 N 
HETATM    9  C1  UNL     1     -34.984  17.097  -1.783  1.00 20.00     0.213 C 
HETATM   10  C2  UNL     1     -34.689  16.977  -0.324  1.00 20.00     0.117 C 
HETATM   11  O11 UNL     1     -36.136  17.300  -2.151  1.00 20.00    -0.274 OA
HETATM   12  H30 UNL     1     -32.971  16.792  -2.163  1.00 20.00     0.162 HD
ENDBRANCH   1   8
TORSDOF 3
ENDMDL
MODEL 9
REMARK VINA RESULT:      -4.0     12.603     14.273
REMARK  3 active torsions:
REMARK  status: ('A' for Active; 'I' for Inactive)
REMARK       I    between atoms: C1_1  and  N10_10 
REMARK    1  A    between atoms: C7_7  and  C8_8 
REMARK    2  A    between atoms: C7_7  and  N10_10 
REMARK    3  A    between atoms: C8_8  and  C9_9 
ROOT
HETATM    1  C7  UNL     1     -41.240   4.039  -1.964  1.00 20.00     0.127 C 
ENDROOT
BRANCH   1   2
HETATM    2  C8  UNL     1     -41.948   5.399  -2.141  1.00 20.00     0.007 C 
HETATM    3  C3  UNL     1     -43.367   5.165  -2.695  1.00 20.00     0.012 C 
BRANCH   2   4
HETATM    4  C9  UNL     1     -41.928   6.285  -0.838  1.00 20.00    -0.047 C 
HETATM    5  C4  UNL     1     -43.111   5.909   0.082  1.00 20.00     0.015 C 
HETATM    6  C5  UNL     1     -42.020   7.790  -1.153  1.00 20.00     0.015 C 
HETATM    7  C6  UNL     1     -40.634   6.038  -0.032  1.00 20.00     0.015 C 
ENDBRANCH   2   4
ENDBRANCH   1   2
BRANCH   1   8
HETATM    8  N10 UNL     1     -42.107   2.926  -2.256  1.00 20.00    -0.361 N 
HETATM    9  C1  UNL     1     -41.838   1.990  -3.240  1.00 20.00     0.213 C 
HETATM   10  C2  UNL     1     -42.873   0.922  -3.369  1.00 20.00     0.117 C 
HETATM   11  O11 UNL     1     -40.858   1.973  -3.976  1.00 20.00    -0.274 OA
HETATM   12  H30 UNL     1     -42.962   2.824  -1.713  1.00 20.00     0.162 HD
ENDBRANCH   1   8
TORSDOF 3
ENDMDL
