MODEL 1
REMARK VINA RESULT:      -4.3      0.000      0.000
REMARK  2 active torsions:
REMARK  status: ('A' for Active; 'I' for Inactive)
REMARK    1  A    between atoms: C5_5  and  C7_7 
REMARK    2  A    between atoms: C6_6  and  C7_7 
ROOT
HETATM    1  C1  UNL     1     -34.637   4.245   4.615  1.00 20.00     0.033 C 
HETATM    2  C2  UNL     1     -35.246   4.318   6.001  1.00 20.00     0.168 C 
HETATM    3  C3  UNL     1     -34.051   6.282   5.618  1.00 20.00     0.172 C 
HETATM    4  C5  UNL     1     -34.471   5.709   4.276  1.00 20.00     0.014 C 
HETATM    5  O8  UNL     1     -34.725   5.504   6.619  1.00 20.00    -0.391 OA
ENDROOT
BRANCH   4   6
HETATM    6  C7  UNL     1     -33.479   5.980   3.160  1.00 20.00     0.041 C 
BRANCH   6   7
HETATM    7  C6  UNL     1     -32.885   7.351   3.256  1.00 20.00     0.145 A 
HETATM    8  C4  UNL     1     -31.971   7.879   2.185  1.00 20.00     0.200 A 
HETATM    9  O9  UNL     1     -31.464   7.373   3.430  1.00 20.00    -0.381 OA
ENDBRANCH   6   7
ENDBRANCH   4   6
TORSDOF 2
ENDMDL
MODEL 2
REMARK VINA RESULT:      -3.9     11.422     12.098
REMARK  2 active torsions:
REMARK  status: ('A' for Active; 'I' for Inactive)
REMARK    1  A    between atoms: C5_5  and  C7_7 
REMARK    2  A    between atoms: C6_6  and  C7_7 
ROOT
HETATM    1  C1  UNL     1     -35.534  14.899  -4.024  1.00 20.00     0.033 C 
HETATM    2  C2  UNL     1     -35.734  13.465  -4.473  1.00 20.00     0.168 C 
HETATM    3  C3  UNL     1     -33.510  13.729  -3.829  1.00 20.00     0.172 C 
HETATM    4  C5  UNL     1     -34.345  14.766  -3.098  1.00 20.00     0.014 C 
HETATM    5  O8  UNL     1     -34.438  12.849  -4.483  1.00 20.00    -0.391 OA
ENDROOT
BRANCH   4   6
HETATM    6  C7  UNL     1     -33.611  16.068  -2.839  1.00 20.00     0.041 C 
BRANCH   6   7
HETATM    7  C6  UNL     1     -34.391  16.986  -1.949  1.00 20.00     0.145 A 
HETATM    8  C4  UNL     1     -33.758  17.621  -0.742  1.00 20.00     0.200 A 
HETATM    9  O9  UNL     1     -34.624  16.480  -0.631  1.00 20.00    -0.381 OA
ENDBRANCH   6   7
ENDBRANCH   4   6
TORSDOF 2
ENDMDL
MODEL 3
REMARK VINA RESULT:      -3.9     11.683     13.230
REMARK  2 active torsions:
REMARK  status: ('A' for Active; 'I' for Inactive)
REMARK    1  A    between atoms: C5_5  and  C7_7 
REMARK    2  A    between atoms: C6_6  and  C7_7 
ROOT
HETATM    1  C1  UNL     1     -33.434  16.421  -5.197  1.00 20.00     0.033 C 
HETATM    2  C2  UNL     1     -33.503  17.885  -4.813  1.00 20.00     0.168 C 
HETATM    3  C3  UNL     1     -33.832  16.607  -2.893  1.00 20.00     0.172 C 
HETATM    4  C5  UNL     1     -33.036  15.780  -3.886  1.00 20.00     0.014 C 
HETATM    5  O8  UNL     1     -33.903  17.935  -3.436  1.00 20.00    -0.391 OA
ENDROOT
BRANCH   4   6
HETATM    6  C7  UNL     1     -33.322  14.292  -3.810  1.00 20.00     0.041 C 
BRANCH   6   7
HETATM    7  C6  UNL     1     -34.425  13.883  -4.736  1.00 20.00     0.145 A 
HETATM    8  C4  UNL     1     -35.845  13.769  -4.254  1.00 20.00     0.200 A 
HETATM    9  O9  UNL     1     -35.012  12.612  -4.438  1.00 20.00    -0.381 OA
ENDBRANCH   6   7
ENDBRANCH   4   6
TORSDOF 2
ENDMDL
MODEL 4
REMARK VINA RESULT:      -3.8     11.498     12.558
REMARK  2 active torsions:
REMARK  status: ('A' for Active; 'I' for Inactive)
REMARK    1  A    between atoms: C5_5  and  C7_7 
REMARK    2  A    between atoms: C6_6  and  C7_7 
ROOT
HETATM    1  C1  UNL     1     -34.120  17.356  -3.192  1.00 20.00     0.033 C 
HETATM    2  C2  UNL     1     -33.609  18.318  -2.138  1.00 20.00     0.168 C 
HETATM    3  C3  UNL     1     -34.621  16.518  -1.059  1.00 20.00     0.172 C 
HETATM    4  C5  UNL     1     -34.150  16.052  -2.426  1.00 20.00     0.014 C 
HETATM    5  O8  UNL     1     -34.082  17.836  -0.872  1.00 20.00    -0.391 OA
ENDROOT
BRANCH   4   6
HETATM    6  C7  UNL     1     -35.036  14.988  -3.046  1.00 20.00     0.041 C 
BRANCH   6   7
HETATM    7  C6  UNL     1     -34.242  13.962  -3.795  1.00 20.00     0.145 A 
HETATM    8  C4  UNL     1     -34.557  13.628  -5.227  1.00 20.00     0.200 A 
HETATM    9  O9  UNL     1     -34.974  12.782  -4.143  1.00 20.00    -0.381 OA
ENDBRANCH   6   7
ENDBRANCH   4   6
TORSDOF 2
ENDMDL
MODEL 5
REMARK VINA RESULT:      -3.8      1.581      2.189
REMARK  2 active torsions:
REMARK  status: ('A' for Active; 'I' for Inactive)
REMARK    1  A    between atoms: C5_5  and  C7_7 
REMARK    2  A    between atoms: C6_6  and  C7_7 
ROOT
HETATM    1  C1  UNL     1     -33.664   6.471   5.067  1.00 20.00     0.033 C 
HETATM    2  C2  UNL     1     -34.699   5.365   5.024  1.00 20.00     0.168 C 
HETATM    3  C3  UNL     1     -33.894   5.703   2.864  1.00 20.00     0.172 C 
HETATM    4  C5  UNL     1     -32.829   6.157   3.846  1.00 20.00     0.014 C 
HETATM    5  O8  UNL     1     -34.910   5.049   3.641  1.00 20.00    -0.391 OA
ENDROOT
BRANCH   4   6
HETATM    6  C7  UNL     1     -31.995   7.322   3.347  1.00 20.00     0.041 C 
BRANCH   6   7
HETATM    7  C6  UNL     1     -32.555   7.917   2.092  1.00 20.00     0.145 A 
HETATM    8  C4  UNL     1     -31.668   8.621   1.102  1.00 20.00     0.200 A 
HETATM    9  O9  UNL     1     -32.490   9.345   2.031  1.00 20.00    -0.381 OA
ENDBRANCH   6   7
ENDBRANCH   4   6
TORSDOF 2
ENDMDL
MODEL 6
REMARK VINA RESULT:      -3.6     11.638     12.757
REMARK  2 active torsions:
REMARK  status: ('A' for Active; 'I' for Inactive)
REMARK    1  A    between atoms: C5_5  and  C7_7 
REMARK    2  A    between atoms: C6_6  and  C7_7 
ROOT
HETATM    1  C1  UNL     1     -34.319  14.029  -3.493  1.00 20.00     0.033 C 
HETATM    2  C2  UNL     1     -32.846  14.297  -3.724  1.00 20.00     0.168 C 
HETATM    3  C3  UNL     1     -33.986  16.327  -3.827  1.00 20.00     0.172 C 
HETATM    4  C5  UNL     1     -34.796  15.367  -2.973  1.00 20.00     0.014 C 
HETATM    5  O8  UNL     1     -32.727  15.682  -4.077  1.00 20.00    -0.391 OA
ENDROOT
BRANCH   4   6
HETATM    6  C7  UNL     1     -36.295  15.576  -3.075  1.00 20.00     0.041 C 
BRANCH   6   7
HETATM    7  C6  UNL     1     -36.924  14.653  -4.073  1.00 20.00     0.145 A 
HETATM    8  C4  UNL     1     -38.135  15.070  -4.861  1.00 20.00     0.200 A 
HETATM    9  O9  UNL     1     -38.237  14.203  -3.721  1.00 20.00    -0.381 OA
ENDBRANCH   6   7
ENDBRANCH   4   6
TORSDOF 2
ENDMDL
MODEL 7
REMARK VINA RESULT:      -3.5     11.426     12.722
REMARK  2 active torsions:
REMARK  status: ('A' for Active; 'I' for Inactive)
REMARK    1  A    between atoms: C5_5  and  C7_7 
REMARK    2  A    between atoms: C6_6  and  C7_7 
ROOT
HETATM    1  C1  UNL     1     -34.105  15.015  -3.302  1.00 20.00     0.033 C 
HETATM    2  C2  UNL     1     -33.142  13.893  -3.636  1.00 20.00     0.168 C 
HETATM    3  C3  UNL     1     -35.132  13.523  -4.792  1.00 20.00     0.172 C 
HETATM    4  C5  UNL     1     -35.012  15.011  -4.512  1.00 20.00     0.014 C 
HETATM    5  O8  UNL     1     -33.875  12.938  -4.417  1.00 20.00    -0.391 OA
ENDROOT
BRANCH   4   6
HETATM    6  C7  UNL     1     -36.346  15.699  -4.291  1.00 20.00     0.041 C 
BRANCH   6   7
HETATM    7  C6  UNL     1     -37.501  14.814  -4.644  1.00 20.00     0.145 A 
HETATM    8  C4  UNL     1     -38.918  15.237  -4.368  1.00 20.00     0.200 A 
HETATM    9  O9  UNL     1     -38.227  14.306  -3.520  1.00 20.00    -0.381 OA
ENDBRANCH   6   7
ENDBRANCH   4   6
TORSDOF 2
ENDMDL
MODEL 8
REMARK VINA RESULT:      -3.4     12.444     13.012
REMARK  2 active torsions:
REMARK  status: ('A' for Active; 'I' for Inactive)
REMARK    1  A    between atoms: C5_5  and  C7_7 
REMARK    2  A    between atoms: C6_6  and  C7_7 
ROOT
HETATM    1  C1  UNL     1     -34.047  17.215  -0.750  1.00 20.00     0.033 C 
HETATM    2  C2  UNL     1     -35.249  17.914  -0.148  1.00 20.00     0.168 C 
HETATM    3  C3  UNL     1     -35.833  17.144  -2.269  1.00 20.00     0.172 C 
HETATM    4  C5  UNL     1     -34.701  16.279  -1.742  1.00 20.00     0.014 C 
HETATM    5  O8  UNL     1     -36.249  17.977  -1.175  1.00 20.00    -0.391 OA
ENDROOT
BRANCH   4   6
HETATM    6  C7  UNL     1     -33.769  15.769  -2.824  1.00 20.00     0.041 C 
BRANCH   6   7
HETATM    7  C6  UNL     1     -33.823  16.616  -4.058  1.00 20.00     0.145 A 
HETATM    8  C4  UNL     1     -34.054  16.003  -5.412  1.00 20.00     0.200 A 
HETATM    9  O9  UNL     1     -32.745  16.401  -4.975  1.00 20.00    -0.381 OA
ENDBRANCH   6   7
ENDBRANCH   4   6
TORSDOF 2
ENDMDL
MODEL 9
REMARK VINA RESULT:      -3.4     12.100     13.409
REMARK  2 active torsions:
REMARK  status: ('A' for Active; 'I' for Inactive)
REMARK    1  A    between atoms: C5_5  and  C7_7 
REMARK    2  A    between atoms: C6_6  and  C7_7 
ROOT
HETATM    1  C1  UNL     1     -34.847  15.945  -5.492  1.00 20.00     0.033 C 
HETATM    2  C2  UNL     1     -33.467  16.536  -5.698  1.00 20.00     0.168 C 
HETATM    3  C3  UNL     1     -33.398  15.142  -3.832  1.00 20.00     0.172 C 
HETATM    4  C5  UNL     1     -34.527  14.676  -4.735  1.00 20.00     0.014 C 
HETATM    5  O8  UNL     1     -32.673  16.138  -4.570  1.00 20.00    -0.391 OA
ENDROOT
BRANCH   4   6
HETATM    6  C7  UNL     1     -35.705  14.086  -3.984  1.00 20.00     0.041 C 
BRANCH   6   7
HETATM    7  C6  UNL     1     -37.004  14.703  -4.401  1.00 20.00     0.145 A 
HETATM    8  C4  UNL     1     -37.851  15.470  -3.423  1.00 20.00     0.200 A 
HETATM    9  O9  UNL     1     -38.162  14.118  -3.796  1.00 20.00    -0.381 OA
ENDBRANCH   6   7
ENDBRANCH   4   6
TORSDOF 2
ENDMDL
