MODEL 1
REMARK VINA RESULT:      -4.2      0.000      0.000
REMARK  1 active torsions:
REMARK  status: ('A' for Active; 'I' for Inactive)
REMARK    1  A    between atoms: C4_4  and  C8_8 
ROOT
HETATM    1  C1  UNL     1     -34.753  13.795  -4.589  1.00 20.00     0.137 C 
HETATM    2  C2  UNL     1     -34.956  14.587  -3.322  1.00 20.00     0.095 C 
HETATM    3  C3  UNL     1     -34.446  14.617  -5.814  1.00 20.00     0.152 C 
HETATM    4  C4  UNL     1     -34.163  15.877  -3.482  1.00 20.00     0.062 C 
HETATM    5  O9  UNL     1     -34.878  12.574  -4.633  1.00 20.00    -0.297 OA
HETATM    6  S10 UNL     1     -34.375  16.327  -5.228  1.00 20.00    -0.156 SA
ENDROOT
BRANCH   4   7
HETATM    7  C8  UNL     1     -34.650  16.983  -2.562  1.00 20.00    -0.038 C 
HETATM    8  C5  UNL     1     -33.754  18.219  -2.729  1.00 20.00     0.015 C 
HETATM    9  C6  UNL     1     -34.589  16.501  -1.105  1.00 20.00     0.015 C 
HETATM   10  C7  UNL     1     -36.098  17.347  -2.920  1.00 20.00     0.015 C 
ENDBRANCH   4   7
TORSDOF 1
ENDMDL
MODEL 2
REMARK VINA RESULT:      -4.1      1.386      1.942
REMARK  1 active torsions:
REMARK  status: ('A' for Active; 'I' for Inactive)
REMARK    1  A    between atoms: C4_4  and  C8_8 
ROOT
HETATM    1  C1  UNL     1     -34.084  13.793  -3.871  1.00 20.00     0.137 C 
HETATM    2  C2  UNL     1     -33.733  15.033  -3.088  1.00 20.00     0.095 C 
HETATM    3  C3  UNL     1     -35.545  13.643  -4.208  1.00 20.00     0.152 C 
HETATM    4  C4  UNL     1     -34.790  16.077  -3.427  1.00 20.00     0.062 C 
HETATM    5  O9  UNL     1     -33.251  12.942  -4.170  1.00 20.00    -0.297 OA
HETATM    6  S10 UNL     1     -36.335  15.133  -3.554  1.00 20.00    -0.156 SA
ENDROOT
BRANCH   4   7
HETATM    7  C8  UNL     1     -34.892  17.169  -2.377  1.00 20.00    -0.038 C 
HETATM    8  C5  UNL     1     -34.619  16.572  -0.989  1.00 20.00     0.015 C 
HETATM    9  C6  UNL     1     -36.303  17.775  -2.403  1.00 20.00     0.015 C 
HETATM   10  C7  UNL     1     -33.859  18.265  -2.676  1.00 20.00     0.015 C 
ENDBRANCH   4   7
TORSDOF 1
ENDMDL
MODEL 3
REMARK VINA RESULT:      -4.1      2.083      2.557
REMARK  1 active torsions:
REMARK  status: ('A' for Active; 'I' for Inactive)
REMARK    1  A    between atoms: C4_4  and  C8_8 
ROOT
HETATM    1  C1  UNL     1     -37.369  14.753  -4.182  1.00 20.00     0.137 C 
HETATM    2  C2  UNL     1     -36.146  14.989  -3.332  1.00 20.00     0.095 C 
HETATM    3  C3  UNL     1     -37.265  15.243  -5.602  1.00 20.00     0.152 C 
HETATM    4  C4  UNL     1     -34.958  15.040  -4.284  1.00 20.00     0.062 C 
HETATM    5  O9  UNL     1     -38.394  14.244  -3.737  1.00 20.00    -0.297 OA
HETATM    6  S10 UNL     1     -35.588  15.903  -5.751  1.00 20.00    -0.156 SA
ENDROOT
BRANCH   4   7
HETATM    7  C8  UNL     1     -33.760  15.761  -3.689  1.00 20.00    -0.038 C 
HETATM    8  C5  UNL     1     -33.408  16.974  -4.562  1.00 20.00     0.015 C 
HETATM    9  C6  UNL     1     -32.560  14.804  -3.636  1.00 20.00     0.015 C 
HETATM   10  C7  UNL     1     -34.101  16.234  -2.269  1.00 20.00     0.015 C 
ENDBRANCH   4   7
TORSDOF 1
ENDMDL
MODEL 4
REMARK VINA RESULT:      -4.1      2.101      2.627
REMARK  1 active torsions:
REMARK  status: ('A' for Active; 'I' for Inactive)
REMARK    1  A    between atoms: C4_4  and  C8_8 
ROOT
HETATM    1  C1  UNL     1     -37.377  14.764  -4.173  1.00 20.00     0.137 C 
HETATM    2  C2  UNL     1     -36.132  14.982  -3.350  1.00 20.00     0.095 C 
HETATM    3  C3  UNL     1     -37.302  15.268  -5.590  1.00 20.00     0.152 C 
HETATM    4  C4  UNL     1     -34.966  15.034  -4.329  1.00 20.00     0.062 C 
HETATM    5  O9  UNL     1     -38.395  14.258  -3.709  1.00 20.00    -0.297 OA
HETATM    6  S10 UNL     1     -35.623  15.917  -5.772  1.00 20.00    -0.156 SA
ENDROOT
BRANCH   4   7
HETATM    7  C8  UNL     1     -33.750  15.739  -3.754  1.00 20.00    -0.038 C 
HETATM    8  C5  UNL     1     -32.580  14.748  -3.663  1.00 20.00     0.015 C 
HETATM    9  C6  UNL     1     -34.080  16.270  -2.351  1.00 20.00     0.015 C 
HETATM   10  C7  UNL     1     -33.358  16.911  -4.666  1.00 20.00     0.015 C 
ENDBRANCH   4   7
TORSDOF 1
ENDMDL
MODEL 5
REMARK VINA RESULT:      -4.1      2.127      2.860
REMARK  1 active torsions:
REMARK  status: ('A' for Active; 'I' for Inactive)
REMARK    1  A    between atoms: C4_4  and  C8_8 
ROOT
HETATM    1  C1  UNL     1     -37.425  14.766  -4.167  1.00 20.00     0.137 C 
HETATM    2  C2  UNL     1     -36.166  14.948  -3.358  1.00 20.00     0.095 C 
HETATM    3  C3  UNL     1     -37.369  15.316  -5.568  1.00 20.00     0.152 C 
HETATM    4  C4  UNL     1     -35.015  15.024  -4.353  1.00 20.00     0.062 C 
HETATM    5  O9  UNL     1     -38.440  14.253  -3.704  1.00 20.00    -0.297 OA
HETATM    6  S10 UNL     1     -35.689  15.959  -5.755  1.00 20.00    -0.156 SA
ENDROOT
BRANCH   4   7
HETATM    7  C8  UNL     1     -33.785  15.700  -3.776  1.00 20.00    -0.038 C 
HETATM    8  C5  UNL     1     -34.117  16.270  -2.389  1.00 20.00     0.015 C 
HETATM    9  C6  UNL     1     -33.344  16.842  -4.704  1.00 20.00     0.015 C 
HETATM   10  C7  UNL     1     -32.648  14.676  -3.649  1.00 20.00     0.015 C 
ENDBRANCH   4   7
TORSDOF 1
ENDMDL
MODEL 6
REMARK VINA RESULT:      -4.1      2.211      3.146
REMARK  1 active torsions:
REMARK  status: ('A' for Active; 'I' for Inactive)
REMARK    1  A    between atoms: C4_4  and  C8_8 
ROOT
HETATM    1  C1  UNL     1     -37.727  14.944  -3.781  1.00 20.00     0.137 C 
HETATM    2  C2  UNL     1     -36.283  14.514  -3.848  1.00 20.00     0.095 C 
HETATM    3  C3  UNL     1     -37.946  16.398  -3.455  1.00 20.00     0.152 C 
HETATM    4  C4  UNL     1     -35.477  15.750  -4.222  1.00 20.00     0.062 C 
HETATM    5  O9  UNL     1     -38.659  14.158  -3.930  1.00 20.00    -0.297 OA
HETATM    6  S10 UNL     1     -36.286  17.107  -3.330  1.00 20.00    -0.156 SA
ENDROOT
BRANCH   4   7
HETATM    7  C8  UNL     1     -34.012  15.632  -3.841  1.00 20.00    -0.038 C 
HETATM    8  C5  UNL     1     -33.617  14.149  -3.784  1.00 20.00     0.015 C 
HETATM    9  C6  UNL     1     -33.787  16.274  -2.464  1.00 20.00     0.015 C 
HETATM   10  C7  UNL     1     -33.150  16.352  -4.888  1.00 20.00     0.015 C 
ENDBRANCH   4   7
TORSDOF 1
ENDMDL
MODEL 7
REMARK VINA RESULT:      -3.9      2.209      3.806
REMARK  1 active torsions:
REMARK  status: ('A' for Active; 'I' for Inactive)
REMARK    1  A    between atoms: C4_4  and  C8_8 
ROOT
HETATM    1  C1  UNL     1     -33.771  14.063  -4.153  1.00 20.00     0.137 C 
HETATM    2  C2  UNL     1     -34.645  14.115  -5.381  1.00 20.00     0.095 C 
HETATM    3  C3  UNL     1     -33.025  15.335  -3.845  1.00 20.00     0.152 C 
HETATM    4  C4  UNL     1     -35.042  15.573  -5.572  1.00 20.00     0.062 C 
HETATM    5  O9  UNL     1     -33.635  13.044  -3.481  1.00 20.00    -0.297 OA
HETATM    6  S10 UNL     1     -33.558  16.511  -5.111  1.00 20.00    -0.156 SA
ENDROOT
BRANCH   4   7
HETATM    7  C8  UNL     1     -35.473  15.882  -6.994  1.00 20.00    -0.038 C 
HETATM    8  C5  UNL     1     -35.323  14.622  -7.859  1.00 20.00     0.015 C 
HETATM    9  C6  UNL     1     -34.592  17.002  -7.567  1.00 20.00     0.015 C 
HETATM   10  C7  UNL     1     -36.941  16.333  -6.998  1.00 20.00     0.015 C 
ENDBRANCH   4   7
TORSDOF 1
ENDMDL
MODEL 8
REMARK VINA RESULT:      -3.9      2.185      3.037
REMARK  1 active torsions:
REMARK  status: ('A' for Active; 'I' for Inactive)
REMARK    1  A    between atoms: C4_4  and  C8_8 
ROOT
HETATM    1  C1  UNL     1     -34.472  13.659  -4.794  1.00 20.00     0.137 C 
HETATM    2  C2  UNL     1     -34.974  14.676  -5.788  1.00 20.00     0.095 C 
HETATM    3  C3  UNL     1     -33.459  14.176  -3.807  1.00 20.00     0.152 C 
HETATM    4  C4  UNL     1     -34.838  16.040  -5.122  1.00 20.00     0.062 C 
HETATM    5  O9  UNL     1     -34.823  12.483  -4.818  1.00 20.00    -0.297 OA
HETATM    6  S10 UNL     1     -33.285  15.936  -4.189  1.00 20.00    -0.156 SA
ENDROOT
BRANCH   4   7
HETATM    7  C8  UNL     1     -34.808  17.180  -6.124  1.00 20.00    -0.038 C 
HETATM    8  C5  UNL     1     -33.639  18.120  -5.794  1.00 20.00     0.015 C 
HETATM    9  C6  UNL     1     -36.128  17.962  -6.052  1.00 20.00     0.015 C 
HETATM   10  C7  UNL     1     -34.625  16.614  -7.540  1.00 20.00     0.015 C 
ENDBRANCH   4   7
TORSDOF 1
ENDMDL
MODEL 9
REMARK VINA RESULT:      -3.8     12.084     13.226
REMARK  1 active torsions:
REMARK  status: ('A' for Active; 'I' for Inactive)
REMARK    1  A    between atoms: C4_4  and  C8_8 
ROOT
HETATM    1  C1  UNL     1     -41.911   3.178  -2.802  1.00 20.00     0.137 C 
HETATM    2  C2  UNL     1     -41.372   4.004  -1.661  1.00 20.00     0.095 C 
HETATM    3  C3  UNL     1     -43.116   3.757  -3.496  1.00 20.00     0.152 C 
HETATM    4  C4  UNL     1     -41.757   5.450  -1.950  1.00 20.00     0.062 C 
HETATM    5  O9  UNL     1     -41.436   2.089  -3.112  1.00 20.00    -0.297 OA
HETATM    6  S10 UNL     1     -43.417   5.341  -2.676  1.00 20.00    -0.156 SA
ENDROOT
BRANCH   4   7
HETATM    7  C8  UNL     1     -41.753   6.317  -0.704  1.00 20.00    -0.038 C 
HETATM    8  C5  UNL     1     -42.897   5.884   0.225  1.00 20.00     0.015 C 
HETATM    9  C6  UNL     1     -41.948   7.788  -1.101  1.00 20.00     0.015 C 
HETATM   10  C7  UNL     1     -40.412   6.158   0.027  1.00 20.00     0.015 C 
ENDBRANCH   4   7
TORSDOF 1
ENDMDL
