MODEL 1
REMARK VINA RESULT:      -5.3      0.000      0.000
REMARK  1 active torsions:
REMARK  status: ('A' for Active; 'I' for Inactive)
REMARK    1  A    between atoms: C2_2  and  C6_6 
ROOT
HETATM    1  C1  UNL     1     -34.470   5.484   3.681  1.00 20.00     0.011 C 
HETATM    2  C2  UNL     1     -33.462   6.212   4.192  1.00 20.00     0.026 C 
HETATM    3  C3  UNL     1     -35.465   4.775   4.550  1.00 20.00     0.195 C 
HETATM    4  C4  UNL     1     -33.323   6.370   5.683  1.00 20.00     0.069 C 
HETATM    5  C5  UNL     1     -34.598   5.953   6.413  1.00 20.00     0.172 C 
HETATM    6  O7  UNL     1     -35.045   4.692   5.917  1.00 20.00    -0.387 OA
ENDROOT
BRANCH   2   7
HETATM    7  C6  UNL     1     -32.440   6.893   3.337  1.00 20.00     0.413 C 
HETATM    8  F8  UNL     1     -31.813   6.007   2.536  1.00 20.00    -0.166 F 
HETATM    9  F9  UNL     1     -33.010   7.828   2.551  1.00 20.00    -0.166 F 
HETATM   10  F10 UNL     1     -31.502   7.503   4.091  1.00 20.00    -0.166 F 
ENDBRANCH   2   7
TORSDOF 1
ENDMDL
MODEL 2
REMARK VINA RESULT:      -5.3      0.009      1.192
REMARK  1 active torsions:
REMARK  status: ('A' for Active; 'I' for Inactive)
REMARK    1  A    between atoms: C2_2  and  C6_6 
ROOT
HETATM    1  C1  UNL     1     -34.468   5.489   3.684  1.00 20.00     0.011 C 
HETATM    2  C2  UNL     1     -33.460   6.217   4.191  1.00 20.00     0.026 C 
HETATM    3  C3  UNL     1     -35.460   4.780   4.556  1.00 20.00     0.195 C 
HETATM    4  C4  UNL     1     -33.316   6.377   5.682  1.00 20.00     0.069 C 
HETATM    5  C5  UNL     1     -34.589   5.960   6.415  1.00 20.00     0.172 C 
HETATM    6  O7  UNL     1     -35.037   4.699   5.922  1.00 20.00    -0.387 OA
ENDROOT
BRANCH   2   7
HETATM    7  C6  UNL     1     -32.439   6.898   3.333  1.00 20.00     0.413 C 
HETATM    8  F8  UNL     1     -31.499   7.504   4.088  1.00 20.00    -0.166 F 
HETATM    9  F9  UNL     1     -31.816   6.015   2.527  1.00 20.00    -0.166 F 
HETATM   10  F10 UNL     1     -33.009   7.838   2.551  1.00 20.00    -0.166 F 
ENDBRANCH   2   7
TORSDOF 1
ENDMDL
MODEL 3
REMARK VINA RESULT:      -5.2      0.316      1.559
REMARK  1 active torsions:
REMARK  status: ('A' for Active; 'I' for Inactive)
REMARK    1  A    between atoms: C2_2  and  C6_6 
ROOT
HETATM    1  C1  UNL     1     -33.422   6.408   5.534  1.00 20.00     0.011 C 
HETATM    2  C2  UNL     1     -33.417   6.242   4.201  1.00 20.00     0.026 C 
HETATM    3  C3  UNL     1     -34.423   5.728   6.420  1.00 20.00     0.195 C 
HETATM    4  C4  UNL     1     -34.412   5.320   3.548  1.00 20.00     0.069 C 
HETATM    5  C5  UNL     1     -35.083   4.405   4.571  1.00 20.00     0.172 C 
HETATM    6  O7  UNL     1     -35.522   5.174   5.689  1.00 20.00    -0.387 OA
ENDROOT
BRANCH   2   7
HETATM    7  C6  UNL     1     -32.448   6.944   3.301  1.00 20.00     0.413 C 
HETATM    8  F8  UNL     1     -31.867   6.077   2.446  1.00 20.00    -0.166 F 
HETATM    9  F9  UNL     1     -33.066   7.893   2.569  1.00 20.00    -0.166 F 
HETATM   10  F10 UNL     1     -31.469   7.543   4.010  1.00 20.00    -0.166 F 
ENDBRANCH   2   7
TORSDOF 1
ENDMDL
MODEL 4
REMARK VINA RESULT:      -4.7      3.049      3.954
REMARK  1 active torsions:
REMARK  status: ('A' for Active; 'I' for Inactive)
REMARK    1  A    between atoms: C2_2  and  C6_6 
ROOT
HETATM    1  C1  UNL     1     -33.159   6.523   4.628  1.00 20.00     0.011 C 
HETATM    2  C2  UNL     1     -34.114   5.644   4.973  1.00 20.00     0.026 C 
HETATM    3  C3  UNL     1     -32.732   6.723   3.205  1.00 20.00     0.195 C 
HETATM    4  C4  UNL     1     -34.826   4.844   3.914  1.00 20.00     0.069 C 
HETATM    5  C5  UNL     1     -34.591   5.426   2.521  1.00 20.00     0.172 C 
HETATM    6  O7  UNL     1     -33.201   5.685   2.336  1.00 20.00    -0.387 OA
ENDROOT
BRANCH   2   7
HETATM    7  C6  UNL     1     -34.523   5.406   6.394  1.00 20.00     0.413 C 
HETATM    8  F8  UNL     1     -34.567   6.564   7.083  1.00 20.00    -0.166 F 
HETATM    9  F9  UNL     1     -35.745   4.840   6.459  1.00 20.00    -0.166 F 
HETATM   10  F10 UNL     1     -33.654   4.586   7.020  1.00 20.00    -0.166 F 
ENDBRANCH   2   7
TORSDOF 1
ENDMDL
MODEL 5
REMARK VINA RESULT:      -4.5     11.408     12.016
REMARK  1 active torsions:
REMARK  status: ('A' for Active; 'I' for Inactive)
REMARK    1  A    between atoms: C2_2  and  C6_6 
ROOT
HETATM    1  C1  UNL     1     -33.606  14.616  -3.287  1.00 20.00     0.011 C 
HETATM    2  C2  UNL     1     -34.660  15.322  -2.846  1.00 20.00     0.026 C 
HETATM    3  C3  UNL     1     -33.760  13.427  -4.186  1.00 20.00     0.195 C 
HETATM    4  C4  UNL     1     -36.054  14.954  -3.280  1.00 20.00     0.069 C 
HETATM    5  C5  UNL     1     -36.035  14.012  -4.482  1.00 20.00     0.172 C 
HETATM    6  O7  UNL     1     -35.110  12.952  -4.248  1.00 20.00    -0.387 OA
ENDROOT
BRANCH   2   7
HETATM    7  C6  UNL     1     -34.523  16.489  -1.917  1.00 20.00     0.413 C 
HETATM    8  F8  UNL     1     -34.767  16.122  -0.642  1.00 20.00    -0.166 F 
HETATM    9  F9  UNL     1     -33.279  17.005  -1.967  1.00 20.00    -0.166 F 
HETATM   10  F10 UNL     1     -35.391  17.471  -2.237  1.00 20.00    -0.166 F 
ENDBRANCH   2   7
TORSDOF 1
ENDMDL
MODEL 6
REMARK VINA RESULT:      -4.5      3.146      3.778
REMARK  1 active torsions:
REMARK  status: ('A' for Active; 'I' for Inactive)
REMARK    1  A    between atoms: C2_2  and  C6_6 
ROOT
HETATM    1  C1  UNL     1     -34.675   5.028   3.858  1.00 20.00     0.011 C 
HETATM    2  C2  UNL     1     -34.141   5.548   4.976  1.00 20.00     0.026 C 
HETATM    3  C3  UNL     1     -34.237   5.454   2.489  1.00 20.00     0.195 C 
HETATM    4  C4  UNL     1     -33.037   6.568   4.883  1.00 20.00     0.069 C 
HETATM    5  C5  UNL     1     -32.423   6.604   3.485  1.00 20.00     0.172 C 
HETATM    6  O7  UNL     1     -33.459   6.656   2.507  1.00 20.00    -0.387 OA
ENDROOT
BRANCH   2   7
HETATM    7  C6  UNL     1     -34.596   5.160   6.348  1.00 20.00     0.413 C 
HETATM    8  F8  UNL     1     -34.864   6.252   7.095  1.00 20.00    -0.166 F 
HETATM    9  F9  UNL     1     -35.716   4.412   6.294  1.00 20.00    -0.166 F 
HETATM   10  F10 UNL     1     -33.651   4.443   6.990  1.00 20.00    -0.166 F 
ENDBRANCH   2   7
TORSDOF 1
ENDMDL
MODEL 7
REMARK VINA RESULT:      -4.4      3.057      3.996
REMARK  1 active torsions:
REMARK  status: ('A' for Active; 'I' for Inactive)
REMARK    1  A    between atoms: C2_2  and  C6_6 
ROOT
HETATM    1  C1  UNL     1     -33.564   6.575   5.351  1.00 20.00     0.011 C 
HETATM    2  C2  UNL     1     -34.100   5.741   4.444  1.00 20.00     0.026 C 
HETATM    3  C3  UNL     1     -32.399   7.462   5.030  1.00 20.00     0.195 C 
HETATM    4  C4  UNL     1     -33.558   5.699   3.040  1.00 20.00     0.069 C 
HETATM    5  C5  UNL     1     -32.673   6.908   2.745  1.00 20.00     0.172 C 
HETATM    6  O7  UNL     1     -31.744   7.096   3.811  1.00 20.00    -0.387 OA
ENDROOT
BRANCH   2   7
HETATM    7  C6  UNL     1     -35.239   4.822   4.762  1.00 20.00     0.413 C 
HETATM    8  F8  UNL     1     -36.354   5.188   4.097  1.00 20.00    -0.166 F 
HETATM    9  F9  UNL     1     -34.949   3.552   4.413  1.00 20.00    -0.166 F 
HETATM   10  F10 UNL     1     -35.521   4.833   6.081  1.00 20.00    -0.166 F 
ENDBRANCH   2   7
TORSDOF 1
ENDMDL
MODEL 8
REMARK VINA RESULT:      -4.4     11.623     12.162
REMARK  1 active torsions:
REMARK  status: ('A' for Active; 'I' for Inactive)
REMARK    1  A    between atoms: C2_2  and  C6_6 
ROOT
HETATM    1  C1  UNL     1     -35.866  15.224  -3.119  1.00 20.00     0.011 C 
HETATM    2  C2  UNL     1     -34.655  15.624  -2.696  1.00 20.00     0.026 C 
HETATM    3  C3  UNL     1     -36.037  14.206  -4.207  1.00 20.00     0.195 C 
HETATM    4  C4  UNL     1     -33.409  15.022  -3.289  1.00 20.00     0.069 C 
HETATM    5  C5  UNL     1     -33.719  13.744  -4.066  1.00 20.00     0.172 C 
HETATM    6  O7  UNL     1     -34.828  13.967  -4.935  1.00 20.00    -0.387 OA
ENDROOT
BRANCH   2   7
HETATM    7  C6  UNL     1     -34.470  16.667  -1.638  1.00 20.00     0.413 C 
HETATM    8  F8  UNL     1     -35.217  17.759  -1.901  1.00 20.00    -0.166 F 
HETATM    9  F9  UNL     1     -34.834  16.200  -0.427  1.00 20.00    -0.166 F 
HETATM   10  F10 UNL     1     -33.181  17.058  -1.560  1.00 20.00    -0.166 F 
ENDBRANCH   2   7
TORSDOF 1
ENDMDL
MODEL 9
REMARK VINA RESULT:      -4.3     11.637     12.524
REMARK  1 active torsions:
REMARK  status: ('A' for Active; 'I' for Inactive)
REMARK    1  A    between atoms: C2_2  and  C6_6 
ROOT
HETATM    1  C1  UNL     1     -34.636  15.599  -2.416  1.00 20.00     0.011 C 
HETATM    2  C2  UNL     1     -34.001  15.280  -3.556  1.00 20.00     0.026 C 
HETATM    3  C3  UNL     1     -34.646  16.996  -1.870  1.00 20.00     0.195 C 
HETATM    4  C4  UNL     1     -33.298  16.345  -4.355  1.00 20.00     0.069 C 
HETATM    5  C5  UNL     1     -33.721  17.745  -3.917  1.00 20.00     0.172 C 
HETATM    6  O7  UNL     1     -33.672  17.840  -2.495  1.00 20.00    -0.387 OA
ENDROOT
BRANCH   2   7
HETATM    7  C6  UNL     1     -33.951  13.883  -4.092  1.00 20.00     0.413 C 
HETATM    8  F8  UNL     1     -34.954  13.135  -3.585  1.00 20.00    -0.166 F 
HETATM    9  F9  UNL     1     -34.069  13.874  -5.435  1.00 20.00    -0.166 F 
HETATM   10  F10 UNL     1     -32.787  13.281  -3.775  1.00 20.00    -0.166 F 
ENDBRANCH   2   7
TORSDOF 1
ENDMDL
