MODEL 1
REMARK VINA RESULT:      -4.6      0.000      0.000
REMARK  1 active torsions:
REMARK  status: ('A' for Active; 'I' for Inactive)
REMARK    1  A    between atoms: C2_2  and  C4_4 
ROOT
HETATM    1  C1  UNL     1     -34.527   5.809   6.023  1.00 20.00     0.092 A 
HETATM    2  C2  UNL     1     -33.668   5.494   4.819  1.00 20.00     0.092 A 
HETATM    3  C3  UNL     1     -34.996   4.849   4.989  1.00 20.00     0.250 A 
HETATM    4  F5  UNL     1     -35.090   3.506   5.278  1.00 20.00    -0.206 F 
HETATM    5  F6  UNL     1     -36.056   5.169   4.171  1.00 20.00    -0.206 F 
ENDROOT
BRANCH   2   6
HETATM    6  C4  UNL     1     -33.459   6.518   3.759  1.00 20.00     0.232 C 
HETATM    7  F7  UNL     1     -32.329   6.223   3.051  1.00 20.00    -0.255 F 
ENDBRANCH   2   6
TORSDOF 1
ENDMDL
MODEL 2
REMARK VINA RESULT:      -4.6      1.795      2.573
REMARK  1 active torsions:
REMARK  status: ('A' for Active; 'I' for Inactive)
REMARK    1  A    between atoms: C2_2  and  C4_4 
ROOT
HETATM    1  C1  UNL     1     -33.619   5.753   3.762  1.00 20.00     0.092 A 
HETATM    2  C2  UNL     1     -34.387   6.384   4.902  1.00 20.00     0.092 A 
HETATM    3  C3  UNL     1     -35.012   5.328   4.063  1.00 20.00     0.250 A 
HETATM    4  F5  UNL     1     -36.036   5.639   3.197  1.00 20.00    -0.206 F 
HETATM    5  F6  UNL     1     -35.263   4.072   4.565  1.00 20.00    -0.206 F 
ENDROOT
BRANCH   2   6
HETATM    6  C4  UNL     1     -34.005   6.096   6.312  1.00 20.00     0.232 C 
HETATM    7  F7  UNL     1     -33.909   7.267   7.010  1.00 20.00    -0.255 F 
ENDBRANCH   2   6
TORSDOF 1
ENDMDL
MODEL 3
REMARK VINA RESULT:      -4.5      1.434      1.845
REMARK  1 active torsions:
REMARK  status: ('A' for Active; 'I' for Inactive)
REMARK    1  A    between atoms: C2_2  and  C4_4 
ROOT
HETATM    1  C1  UNL     1     -35.387   5.155   4.296  1.00 20.00     0.092 A 
HETATM    2  C2  UNL     1     -34.241   6.140   4.362  1.00 20.00     0.092 A 
HETATM    3  C3  UNL     1     -34.533   5.240   5.510  1.00 20.00     0.250 A 
HETATM    4  F5  UNL     1     -35.042   5.748   6.684  1.00 20.00    -0.206 F 
HETATM    5  F6  UNL     1     -33.687   4.207   5.840  1.00 20.00    -0.206 F 
ENDROOT
BRANCH   2   6
HETATM    6  C4  UNL     1     -33.023   5.930   3.533  1.00 20.00     0.232 C 
HETATM    7  F7  UNL     1     -32.051   6.811   3.913  1.00 20.00    -0.255 F 
ENDBRANCH   2   6
TORSDOF 1
ENDMDL
MODEL 4
REMARK VINA RESULT:      -4.5      1.839      2.836
REMARK  1 active torsions:
REMARK  status: ('A' for Active; 'I' for Inactive)
REMARK    1  A    between atoms: C2_2  and  C4_4 
ROOT
HETATM    1  C1  UNL     1     -34.044   4.680   6.289  1.00 20.00     0.092 A 
HETATM    2  C2  UNL     1     -35.135   5.280   5.431  1.00 20.00     0.092 A 
HETATM    3  C3  UNL     1     -34.027   6.127   5.946  1.00 20.00     0.250 A 
HETATM    4  F5  UNL     1     -34.263   7.074   6.916  1.00 20.00    -0.206 F 
HETATM    5  F6  UNL     1     -33.063   6.631   5.104  1.00 20.00    -0.206 F 
ENDROOT
BRANCH   2   6
HETATM    6  C4  UNL     1     -35.217   4.948   3.982  1.00 20.00     0.232 C 
HETATM    7  F7  UNL     1     -36.154   5.741   3.382  1.00 20.00    -0.255 F 
ENDBRANCH   2   6
TORSDOF 1
ENDMDL
MODEL 5
REMARK VINA RESULT:      -4.5      1.620      3.036
REMARK  1 active torsions:
REMARK  status: ('A' for Active; 'I' for Inactive)
REMARK    1  A    between atoms: C2_2  and  C4_4 
ROOT
HETATM    1  C1  UNL     1     -35.583   5.576   3.737  1.00 20.00     0.092 A 
HETATM    2  C2  UNL     1     -34.837   4.529   4.534  1.00 20.00     0.092 A 
HETATM    3  C3  UNL     1     -34.143   5.756   4.060  1.00 20.00     0.250 A 
HETATM    4  F5  UNL     1     -33.192   5.682   3.067  1.00 20.00    -0.206 F 
HETATM    5  F6  UNL     1     -33.744   6.735   4.940  1.00 20.00    -0.206 F 
ENDROOT
BRANCH   2   6
HETATM    6  C4  UNL     1     -35.128   4.342   5.981  1.00 20.00     0.232 C 
HETATM    7  F7  UNL     1     -33.966   4.406   6.696  1.00 20.00    -0.255 F 
ENDBRANCH   2   6
TORSDOF 1
ENDMDL
MODEL 6
REMARK VINA RESULT:      -4.4      1.270      3.000
REMARK  1 active torsions:
REMARK  status: ('A' for Active; 'I' for Inactive)
REMARK    1  A    between atoms: C2_2  and  C4_4 
ROOT
HETATM    1  C1  UNL     1     -33.847   6.471   6.175  1.00 20.00     0.092 A 
HETATM    2  C2  UNL     1     -34.876   5.518   5.610  1.00 20.00     0.092 A 
HETATM    3  C3  UNL     1     -33.925   6.223   4.711  1.00 20.00     0.250 A 
HETATM    4  F5  UNL     1     -34.368   7.212   3.861  1.00 20.00    -0.206 F 
HETATM    5  F6  UNL     1     -32.917   5.546   4.065  1.00 20.00    -0.206 F 
ENDROOT
BRANCH   2   6
HETATM    6  C4  UNL     1     -34.748   4.053   5.840  1.00 20.00     0.232 C 
HETATM    7  F7  UNL     1     -35.102   3.377   4.707  1.00 20.00    -0.255 F 
ENDBRANCH   2   6
TORSDOF 1
ENDMDL
MODEL 7
REMARK VINA RESULT:      -3.9      1.392      3.565
REMARK  1 active torsions:
REMARK  status: ('A' for Active; 'I' for Inactive)
REMARK    1  A    between atoms: C2_2  and  C4_4 
ROOT
HETATM    1  C1  UNL     1     -33.066   6.684   4.789  1.00 20.00     0.092 A 
HETATM    2  C2  UNL     1     -34.140   6.471   3.746  1.00 20.00     0.092 A 
HETATM    3  C3  UNL     1     -32.721   6.655   3.343  1.00 20.00     0.250 A 
HETATM    4  F5  UNL     1     -32.321   7.804   2.700  1.00 20.00    -0.206 F 
HETATM    5  F6  UNL     1     -31.986   5.615   2.823  1.00 20.00    -0.206 F 
ENDROOT
BRANCH   2   6
HETATM    6  C4  UNL     1     -34.795   5.141   3.607  1.00 20.00     0.232 C 
HETATM    7  F7  UNL     1     -35.957   5.124   4.326  1.00 20.00    -0.255 F 
ENDBRANCH   2   6
TORSDOF 1
ENDMDL
MODEL 8
REMARK VINA RESULT:      -3.6      3.001      3.840
REMARK  1 active torsions:
REMARK  status: ('A' for Active; 'I' for Inactive)
REMARK    1  A    between atoms: C2_2  and  C4_4 
ROOT
HETATM    1  C1  UNL     1     -31.449   7.693   3.635  1.00 20.00     0.092 A 
HETATM    2  C2  UNL     1     -31.855   7.902   2.193  1.00 20.00     0.092 A 
HETATM    3  C3  UNL     1     -32.552   6.895   3.036  1.00 20.00     0.250 A 
HETATM    4  F5  UNL     1     -32.387   5.549   2.799  1.00 20.00    -0.206 F 
HETATM    5  F6  UNL     1     -33.851   7.084   3.447  1.00 20.00    -0.206 F 
ENDROOT
BRANCH   2   6
HETATM    6  C4  UNL     1     -32.551   9.152   1.784  1.00 20.00     0.232 C 
HETATM    7  F7  UNL     1     -32.543   9.258   0.422  1.00 20.00    -0.255 F 
ENDBRANCH   2   6
TORSDOF 1
ENDMDL
MODEL 9
REMARK VINA RESULT:      -3.5      8.406      8.926
REMARK  1 active torsions:
REMARK  status: ('A' for Active; 'I' for Inactive)
REMARK    1  A    between atoms: C2_2  and  C4_4 
ROOT
HETATM    1  C1  UNL     1     -41.735   4.976   0.129  1.00 20.00     0.092 A 
HETATM    2  C2  UNL     1     -40.857   6.073  -0.432  1.00 20.00     0.092 A 
HETATM    3  C3  UNL     1     -41.021   4.788  -1.162  1.00 20.00     0.250 A 
HETATM    4  F5  UNL     1     -39.974   3.899  -1.255  1.00 20.00    -0.206 F 
HETATM    5  F6  UNL     1     -41.723   4.722  -2.343  1.00 20.00    -0.206 F 
ENDROOT
BRANCH   2   6
HETATM    6  C4  UNL     1     -41.468   7.322  -0.963  1.00 20.00     0.232 C 
HETATM    7  F7  UNL     1     -40.689   8.393  -0.625  1.00 20.00    -0.255 F 
ENDBRANCH   2   6
TORSDOF 1
ENDMDL
