MODEL 1
REMARK VINA RESULT:      -4.3      0.000      0.000
REMARK  0 active torsions:
REMARK  status: ('A' for Active; 'I' for Inactive)
ROOT
HETATM    1  C1  UNL     1     -34.370  13.560  -4.792  1.00 20.00     0.221 C 
HETATM    2  C2  UNL     1     -34.369  15.457  -2.999  1.00 20.00     0.020 C 
HETATM    3  C3  UNL     1     -32.440  14.798  -3.543  1.00 20.00     0.020 C 
HETATM    4  C4  UNL     1     -33.765  15.896  -5.479  1.00 20.00     0.127 C 
HETATM    5  C5  UNL     1     -33.812  14.058  -3.418  1.00 20.00     0.078 C 
HETATM    6  C6  UNL     1     -33.319  15.994  -4.017  1.00 20.00     0.005 C 
HETATM    7  N7  UNL     1     -34.298  14.562  -5.752  1.00 20.00    -0.360 N 
HETATM    8  O8  UNL     1     -34.819  12.438  -5.024  1.00 20.00    -0.273 OA
HETATM    9  H17 UNL     1     -34.633  14.359  -6.689  1.00 20.00     0.162 HD
ENDROOT
TORSDOF 0
ENDMDL
MODEL 2
REMARK VINA RESULT:      -4.2      1.201      1.787
REMARK  0 active torsions:
REMARK  status: ('A' for Active; 'I' for Inactive)
ROOT
HETATM    1  C1  UNL     1     -34.605  13.678  -4.014  1.00 20.00     0.221 C 
HETATM    2  C2  UNL     1     -34.841  16.258  -4.331  1.00 20.00     0.020 C 
HETATM    3  C3  UNL     1     -34.771  15.651  -2.313  1.00 20.00     0.020 C 
HETATM    4  C4  UNL     1     -32.605  15.147  -3.642  1.00 20.00     0.127 C 
HETATM    5  C5  UNL     1     -35.362  14.982  -3.596  1.00 20.00     0.078 C 
HETATM    6  C6  UNL     1     -33.681  16.179  -3.294  1.00 20.00     0.005 C 
HETATM    7  N7  UNL     1     -33.229  13.874  -4.003  1.00 20.00    -0.360 N 
HETATM    8  O8  UNL     1     -35.129  12.606  -4.319  1.00 20.00    -0.273 OA
HETATM    9  H17 UNL     1     -32.628  13.097  -4.259  1.00 20.00     0.162 HD
ENDROOT
TORSDOF 0
ENDMDL
MODEL 3
REMARK VINA RESULT:      -4.1     12.013     12.927
REMARK  0 active torsions:
REMARK  status: ('A' for Active; 'I' for Inactive)
ROOT
HETATM    1  C1  UNL     1     -33.293   6.167   3.880  1.00 20.00     0.221 C 
HETATM    2  C2  UNL     1     -35.816   5.533   4.102  1.00 20.00     0.020 C 
HETATM    3  C3  UNL     1     -34.496   3.960   4.587  1.00 20.00     0.020 C 
HETATM    4  C4  UNL     1     -34.321   6.009   6.164  1.00 20.00     0.127 C 
HETATM    5  C5  UNL     1     -34.412   5.125   3.547  1.00 20.00     0.078 C 
HETATM    6  C6  UNL     1     -35.246   5.015   5.457  1.00 20.00     0.005 C 
HETATM    7  N7  UNL     1     -33.340   6.540   5.218  1.00 20.00    -0.360 N 
HETATM    8  O8  UNL     1     -32.466   6.615   3.085  1.00 20.00    -0.273 OA
HETATM    9  H17 UNL     1     -32.660   7.215   5.555  1.00 20.00     0.162 HD
ENDROOT
TORSDOF 0
ENDMDL
MODEL 4
REMARK VINA RESULT:      -4.0      1.930      2.692
REMARK  0 active torsions:
REMARK  status: ('A' for Active; 'I' for Inactive)
ROOT
HETATM    1  C1  UNL     1     -33.513  15.946  -4.966  1.00 20.00     0.221 C 
HETATM    2  C2  UNL     1     -33.310  13.686  -3.676  1.00 20.00     0.020 C 
HETATM    3  C3  UNL     1     -35.141  14.686  -3.360  1.00 20.00     0.020 C 
HETATM    4  C4  UNL     1     -34.756  13.938  -5.811  1.00 20.00     0.127 C 
HETATM    5  C5  UNL     1     -33.684  15.202  -3.600  1.00 20.00     0.078 C 
HETATM    6  C6  UNL     1     -34.717  13.543  -4.332  1.00 20.00     0.005 C 
HETATM    7  N7  UNL     1     -34.087  15.224  -6.004  1.00 20.00    -0.360 N 
HETATM    8  O8  UNL     1     -32.950  17.029  -5.131  1.00 20.00    -0.273 OA
HETATM    9  H17 UNL     1     -34.039  15.606  -6.943  1.00 20.00     0.162 HD
ENDROOT
TORSDOF 0
ENDMDL
MODEL 5
REMARK VINA RESULT:      -4.0     12.707     13.464
REMARK  0 active torsions:
REMARK  status: ('A' for Active; 'I' for Inactive)
ROOT
HETATM    1  C1  UNL     1     -34.084   6.351   6.044  1.00 20.00     0.221 C 
HETATM    2  C2  UNL     1     -35.585   5.900   3.956  1.00 20.00     0.020 C 
HETATM    3  C3  UNL     1     -33.592   5.249   3.729  1.00 20.00     0.020 C 
HETATM    4  C4  UNL     1     -34.896   4.019   5.599  1.00 20.00     0.127 C 
HETATM    5  C5  UNL     1     -34.226   6.459   4.489  1.00 20.00     0.078 C 
HETATM    6  C6  UNL     1     -34.900   4.514   4.150  1.00 20.00     0.005 C 
HETATM    7  N7  UNL     1     -34.446   5.087   6.492  1.00 20.00    -0.360 N 
HETATM    8  O8  UNL     1     -33.705   7.248   6.797  1.00 20.00    -0.273 OA
HETATM    9  H17 UNL     1     -34.396   4.894   7.487  1.00 20.00     0.162 HD
ENDROOT
TORSDOF 0
ENDMDL
MODEL 6
REMARK VINA RESULT:      -4.0      1.631      2.211
REMARK  0 active torsions:
REMARK  status: ('A' for Active; 'I' for Inactive)
ROOT
HETATM    1  C1  UNL     1     -33.705  13.656  -3.693  1.00 20.00     0.221 C 
HETATM    2  C2  UNL     1     -34.818  15.680  -2.477  1.00 20.00     0.020 C 
HETATM    3  C3  UNL     1     -34.472  16.007  -4.532  1.00 20.00     0.020 C 
HETATM    4  C4  UNL     1     -36.151  14.097  -4.035  1.00 20.00     0.127 C 
HETATM    5  C5  UNL     1     -33.688  15.201  -3.444  1.00 20.00     0.078 C 
HETATM    6  C6  UNL     1     -35.727  15.538  -3.735  1.00 20.00     0.005 C 
HETATM    7  N7  UNL     1     -34.989  13.211  -3.980  1.00 20.00    -0.360 N 
HETATM    8  O8  UNL     1     -32.728  12.908  -3.646  1.00 20.00    -0.273 OA
HETATM    9  H17 UNL     1     -35.128  12.221  -4.160  1.00 20.00     0.162 HD
ENDROOT
TORSDOF 0
ENDMDL
MODEL 7
REMARK VINA RESULT:      -4.0      1.245      1.415
REMARK  0 active torsions:
REMARK  status: ('A' for Active; 'I' for Inactive)
ROOT
HETATM    1  C1  UNL     1     -34.633  14.476  -5.855  1.00 20.00     0.221 C 
HETATM    2  C2  UNL     1     -34.985  14.937  -3.310  1.00 20.00     0.020 C 
HETATM    3  C3  UNL     1     -33.324  13.707  -3.732  1.00 20.00     0.020 C 
HETATM    4  C4  UNL     1     -33.128  16.108  -4.686  1.00 20.00     0.127 C 
HETATM    5  C5  UNL     1     -34.720  13.866  -4.417  1.00 20.00     0.078 C 
HETATM    6  C6  UNL     1     -33.464  15.238  -3.472  1.00 20.00     0.005 C 
HETATM    7  N7  UNL     1     -33.810  15.595  -5.874  1.00 20.00    -0.360 N 
HETATM    8  O8  UNL     1     -35.207  14.045  -6.856  1.00 20.00    -0.273 OA
HETATM    9  H17 UNL     1     -33.675  16.080  -6.756  1.00 20.00     0.162 HD
ENDROOT
TORSDOF 0
ENDMDL
MODEL 8
REMARK VINA RESULT:      -4.0      2.101      2.642
REMARK  0 active torsions:
REMARK  status: ('A' for Active; 'I' for Inactive)
ROOT
HETATM    1  C1  UNL     1     -36.520  14.524  -3.735  1.00 20.00     0.221 C 
HETATM    2  C2  UNL     1     -34.093  13.567  -3.649  1.00 20.00     0.020 C 
HETATM    3  C3  UNL     1     -34.366  15.068  -5.106  1.00 20.00     0.020 C 
HETATM    4  C4  UNL     1     -34.702  15.887  -2.671  1.00 20.00     0.127 C 
HETATM    5  C5  UNL     1     -35.311  13.954  -4.549  1.00 20.00     0.078 C 
HETATM    6  C6  UNL     1     -33.821  15.101  -3.646  1.00 20.00     0.005 C 
HETATM    7  N7  UNL     1     -36.100  15.485  -2.824  1.00 20.00    -0.360 N 
HETATM    8  O8  UNL     1     -37.697  14.186  -3.862  1.00 20.00    -0.273 OA
HETATM    9  H17 UNL     1     -36.797  15.930  -2.234  1.00 20.00     0.162 HD
ENDROOT
TORSDOF 0
ENDMDL
MODEL 9
REMARK VINA RESULT:      -4.0      1.481      2.666
REMARK  0 active torsions:
REMARK  status: ('A' for Active; 'I' for Inactive)
ROOT
HETATM    1  C1  UNL     1     -34.566  13.757  -5.065  1.00 20.00     0.221 C 
HETATM    2  C2  UNL     1     -34.387  15.058  -7.321  1.00 20.00     0.020 C 
HETATM    3  C3  UNL     1     -35.830  15.842  -5.998  1.00 20.00     0.020 C 
HETATM    4  C4  UNL     1     -33.401  15.978  -5.110  1.00 20.00     0.127 C 
HETATM    5  C5  UNL     1     -35.334  14.385  -6.275  1.00 20.00     0.078 C 
HETATM    6  C6  UNL     1     -34.347  16.224  -6.288  1.00 20.00     0.005 C 
HETATM    7  N7  UNL     1     -33.622  14.641  -4.559  1.00 20.00    -0.360 N 
HETATM    8  O8  UNL     1     -34.750  12.632  -4.601  1.00 20.00    -0.273 OA
HETATM    9  H17 UNL     1     -33.057  14.345  -3.769  1.00 20.00     0.162 HD
ENDROOT
TORSDOF 0
ENDMDL
