MODEL 1
REMARK VINA RESULT:      -4.8      0.000      0.000
REMARK  1 active torsions:
REMARK  status: ('A' for Active; 'I' for Inactive)
REMARK    1  A    between atoms: C2_2  and  C6_6 
ROOT
HETATM    1  C1  UNL     1     -33.762  13.711  -4.029  1.00 20.00     0.139 C 
HETATM    2  C4  UNL     1     -34.797  13.397  -5.118  1.00 20.00     0.081 C 
HETATM    3  C5  UNL     1     -35.365  14.817  -4.913  1.00 20.00     0.028 C 
HETATM    4  C6  UNL     1     -34.205  15.195  -3.935  1.00 20.00     0.035 C 
HETATM    5  C8  UNL     1     -33.190  16.184  -4.489  1.00 20.00     0.027 C 
HETATM    6  O9  UNL     1     -32.915  13.044  -3.471  1.00 20.00    -0.297 OA
ENDROOT
BRANCH   4   7
HETATM    7  C2  UNL     1     -34.653  15.521  -2.559  1.00 20.00    -0.014 C 
HETATM    8  C3  UNL     1     -34.169  16.544  -1.840  1.00 20.00    -0.034 C 
HETATM    9  C7  UNL     1     -34.622  16.871  -0.455  1.00 20.00     0.036 C 
ENDBRANCH   4   7
TORSDOF 1
ENDMDL
MODEL 2
REMARK VINA RESULT:      -4.8      1.184      1.305
REMARK  1 active torsions:
REMARK  status: ('A' for Active; 'I' for Inactive)
REMARK    1  A    between atoms: C2_2  and  C6_6 
ROOT
HETATM    1  C1  UNL     1     -34.632  13.771  -4.662  1.00 20.00     0.139 C 
HETATM    2  C4  UNL     1     -34.664  14.456  -6.035  1.00 20.00     0.081 C 
HETATM    3  C5  UNL     1     -34.062  15.709  -5.365  1.00 20.00     0.028 C 
HETATM    4  C6  UNL     1     -33.867  14.954  -4.011  1.00 20.00     0.035 C 
HETATM    5  C8  UNL     1     -32.423  14.636  -3.649  1.00 20.00     0.027 C 
HETATM    6  O9  UNL     1     -35.043  12.703  -4.257  1.00 20.00    -0.297 OA
ENDROOT
BRANCH   4   7
HETATM    7  C2  UNL     1     -34.644  15.521  -2.882  1.00 20.00    -0.014 C 
HETATM    8  C3  UNL     1     -34.104  16.253  -1.897  1.00 20.00    -0.034 C 
HETATM    9  C7  UNL     1     -34.888  16.825  -0.762  1.00 20.00     0.036 C 
ENDBRANCH   4   7
TORSDOF 1
ENDMDL
MODEL 3
REMARK VINA RESULT:      -4.3      1.973      2.379
REMARK  1 active torsions:
REMARK  status: ('A' for Active; 'I' for Inactive)
REMARK    1  A    between atoms: C2_2  and  C6_6 
ROOT
HETATM    1  C1  UNL     1     -36.708  14.679  -4.310  1.00 20.00     0.139 C 
HETATM    2  C4  UNL     1     -36.442  15.273  -5.700  1.00 20.00     0.081 C 
HETATM    3  C5  UNL     1     -35.116  15.836  -5.146  1.00 20.00     0.028 C 
HETATM    4  C6  UNL     1     -35.304  15.084  -3.789  1.00 20.00     0.035 C 
HETATM    5  C8  UNL     1     -34.362  13.911  -3.564  1.00 20.00     0.027 C 
HETATM    6  O9  UNL     1     -37.659  14.102  -3.822  1.00 20.00    -0.297 OA
ENDROOT
BRANCH   4   7
HETATM    7  C2  UNL     1     -35.422  15.978  -2.611  1.00 20.00    -0.014 C 
HETATM    8  C3  UNL     1     -34.480  16.093  -1.664  1.00 20.00    -0.034 C 
HETATM    9  C7  UNL     1     -34.599  16.994  -0.480  1.00 20.00     0.036 C 
ENDBRANCH   4   7
TORSDOF 1
ENDMDL
MODEL 4
REMARK VINA RESULT:      -4.3     11.728     12.576
REMARK  1 active torsions:
REMARK  status: ('A' for Active; 'I' for Inactive)
REMARK    1  A    between atoms: C2_2  and  C6_6 
ROOT
HETATM    1  C1  UNL     1     -35.334   5.174   4.490  1.00 20.00     0.139 C 
HETATM    2  C4  UNL     1     -35.259   3.825   5.217  1.00 20.00     0.081 C 
HETATM    3  C5  UNL     1     -33.846   4.221   5.694  1.00 20.00     0.028 C 
HETATM    4  C6  UNL     1     -33.994   5.660   5.103  1.00 20.00     0.035 C 
HETATM    5  C8  UNL     1     -34.148   6.770   6.133  1.00 20.00     0.027 C 
HETATM    6  O9  UNL     1     -36.147   5.666   3.733  1.00 20.00    -0.297 OA
ENDROOT
BRANCH   4   7
HETATM    7  C2  UNL     1     -33.017   5.982   4.034  1.00 20.00    -0.014 C 
HETATM    8  C3  UNL     1     -32.853   7.208   3.518  1.00 20.00    -0.034 C 
HETATM    9  C7  UNL     1     -31.868   7.531   2.443  1.00 20.00     0.036 C 
ENDBRANCH   4   7
TORSDOF 1
ENDMDL
MODEL 5
REMARK VINA RESULT:      -4.2     10.363     11.195
REMARK  1 active torsions:
REMARK  status: ('A' for Active; 'I' for Inactive)
REMARK    1  A    between atoms: C2_2  and  C6_6 
ROOT
HETATM    1  C1  UNL     1     -33.888   6.173   4.797  1.00 20.00     0.139 C 
HETATM    2  C4  UNL     1     -34.993   5.199   4.366  1.00 20.00     0.081 C 
HETATM    3  C5  UNL     1     -34.505   5.375   2.912  1.00 20.00     0.028 C 
HETATM    4  C6  UNL     1     -33.276   6.224   3.372  1.00 20.00     0.035 C 
HETATM    5  C8  UNL     1     -31.928   5.529   3.250  1.00 20.00     0.027 C 
HETATM    6  O9  UNL     1     -33.605   6.691   5.859  1.00 20.00    -0.297 OA
ENDROOT
BRANCH   4   7
HETATM    7  C2  UNL     1     -33.271   7.614   2.855  1.00 20.00    -0.014 C 
HETATM    8  C3  UNL     1     -32.293   8.121   2.091  1.00 20.00    -0.034 C 
HETATM    9  C7  UNL     1     -32.288   9.520   1.570  1.00 20.00     0.036 C 
ENDBRANCH   4   7
TORSDOF 1
ENDMDL
MODEL 6
REMARK VINA RESULT:      -4.1      1.764      2.232
REMARK  1 active torsions:
REMARK  status: ('A' for Active; 'I' for Inactive)
REMARK    1  A    between atoms: C2_2  and  C6_6 
ROOT
HETATM    1  C1  UNL     1     -34.791  15.342  -5.019  1.00 20.00     0.139 C 
HETATM    2  C4  UNL     1     -34.470  13.878  -5.350  1.00 20.00     0.081 C 
HETATM    3  C5  UNL     1     -34.791  13.532  -3.880  1.00 20.00     0.028 C 
HETATM    4  C6  UNL     1     -35.284  14.986  -3.592  1.00 20.00     0.035 C 
HETATM    5  C8  UNL     1     -36.787  15.133  -3.399  1.00 20.00     0.027 C 
HETATM    6  O9  UNL     1     -34.699  16.375  -5.650  1.00 20.00    -0.297 OA
ENDROOT
BRANCH   4   7
HETATM    7  C2  UNL     1     -34.488  15.706  -2.569  1.00 20.00    -0.014 C 
HETATM    8  C3  UNL     1     -35.026  16.451  -1.592  1.00 20.00    -0.034 C 
HETATM    9  C7  UNL     1     -34.222  17.174  -0.562  1.00 20.00     0.036 C 
ENDBRANCH   4   7
TORSDOF 1
ENDMDL
MODEL 7
REMARK VINA RESULT:      -3.9      1.677      3.341
REMARK  1 active torsions:
REMARK  status: ('A' for Active; 'I' for Inactive)
REMARK    1  A    between atoms: C2_2  and  C6_6 
ROOT
HETATM    1  C1  UNL     1     -34.395  13.595  -4.113  1.00 20.00     0.139 C 
HETATM    2  C4  UNL     1     -32.975  13.761  -3.554  1.00 20.00     0.081 C 
HETATM    3  C5  UNL     1     -33.163  15.288  -3.676  1.00 20.00     0.028 C 
HETATM    4  C6  UNL     1     -34.665  15.122  -4.075  1.00 20.00     0.035 C 
HETATM    5  C8  UNL     1     -35.668  15.551  -3.013  1.00 20.00     0.027 C 
HETATM    6  O9  UNL     1     -35.050  12.627  -4.443  1.00 20.00    -0.297 OA
ENDROOT
BRANCH   4   7
HETATM    7  C2  UNL     1     -34.992  15.629  -5.431  1.00 20.00    -0.014 C 
HETATM    8  C3  UNL     1     -35.997  16.479  -5.687  1.00 20.00    -0.034 C 
HETATM    9  C7  UNL     1     -36.324  16.989  -7.052  1.00 20.00     0.036 C 
ENDBRANCH   4   7
TORSDOF 1
ENDMDL
MODEL 8
REMARK VINA RESULT:      -3.8      1.743      4.007
REMARK  1 active torsions:
REMARK  status: ('A' for Active; 'I' for Inactive)
REMARK    1  A    between atoms: C2_2  and  C6_6 
ROOT
HETATM    1  C1  UNL     1     -33.507  15.810  -4.056  1.00 20.00     0.139 C 
HETATM    2  C4  UNL     1     -34.056  16.167  -2.668  1.00 20.00     0.081 C 
HETATM    3  C5  UNL     1     -35.229  15.202  -2.943  1.00 20.00     0.028 C 
HETATM    4  C6  UNL     1     -34.578  14.709  -4.275  1.00 20.00     0.035 C 
HETATM    5  C8  UNL     1     -34.027  13.290  -4.240  1.00 20.00     0.027 C 
HETATM    6  O9  UNL     1     -32.577  16.230  -4.715  1.00 20.00    -0.297 OA
ENDROOT
BRANCH   4   7
HETATM    7  C2  UNL     1     -35.383  14.996  -5.487  1.00 20.00    -0.014 C 
HETATM    8  C3  UNL     1     -35.193  14.394  -6.670  1.00 20.00    -0.034 C 
HETATM    9  C7  UNL     1     -36.005  14.684  -7.889  1.00 20.00     0.036 C 
ENDBRANCH   4   7
TORSDOF 1
ENDMDL
MODEL 9
REMARK VINA RESULT:      -3.7      2.261      3.216
REMARK  1 active torsions:
REMARK  status: ('A' for Active; 'I' for Inactive)
REMARK    1  A    between atoms: C2_2  and  C6_6 
ROOT
HETATM    1  C1  UNL     1     -33.554  15.736  -4.134  1.00 20.00     0.139 C 
HETATM    2  C4  UNL     1     -32.512  14.729  -3.628  1.00 20.00     0.081 C 
HETATM    3  C5  UNL     1     -33.559  13.617  -3.846  1.00 20.00     0.028 C 
HETATM    4  C6  UNL     1     -34.553  14.614  -4.524  1.00 20.00     0.035 C 
HETATM    5  C8  UNL     1     -34.728  14.432  -6.025  1.00 20.00     0.027 C 
HETATM    6  O9  UNL     1     -33.571  16.948  -4.207  1.00 20.00    -0.297 OA
ENDROOT
BRANCH   4   7
HETATM    7  C2  UNL     1     -35.836  14.781  -3.798  1.00 20.00    -0.014 C 
HETATM    8  C3  UNL     1     -37.036  14.784  -4.396  1.00 20.00    -0.034 C 
HETATM    9  C7  UNL     1     -38.326  14.951  -3.664  1.00 20.00     0.036 C 
ENDBRANCH   4   7
TORSDOF 1
ENDMDL
