MODEL 1
REMARK VINA RESULT:      -5.2      0.000      0.000
REMARK  0 active torsions:
REMARK  status: ('A' for Active; 'I' for Inactive)
ROOT
HETATM    1  C1  UNL     1     -34.574  13.710  -4.437  1.00 20.00     0.102 C 
HETATM    2  C2  UNL     1     -34.543  15.297  -2.579  1.00 20.00     0.050 A 
HETATM    3  C3  UNL     1     -33.821  17.577  -2.927  1.00 20.00     0.069 A 
HETATM    4  C4  UNL     1     -34.318  15.021  -3.928  1.00 20.00     0.087 A 
HETATM    5  C5  UNL     1     -33.597  17.300  -4.275  1.00 20.00     0.158 A 
HETATM    6  C6  UNL     1     -33.845  16.022  -4.776  1.00 20.00     0.175 A 
HETATM    7  C7  UNL     1     -34.294  16.576  -2.079  1.00 20.00     0.038 A 
HETATM    8  N8  UNL     1     -34.782  12.645  -4.850  1.00 20.00    -0.191 NA
HETATM    9  F9  UNL     1     -33.143  18.262  -5.090  1.00 20.00    -0.203 F 
HETATM   10  F10 UNL     1     -33.625  15.771  -6.075  1.00 20.00    -0.201 F 
HETATM   11 CL11 UNL     1     -34.570  16.917  -0.415  1.00 20.00    -0.084 Cl
ENDROOT
TORSDOF 0
ENDMDL
MODEL 2
REMARK VINA RESULT:      -5.0      2.580      3.037
REMARK  0 active torsions:
REMARK  status: ('A' for Active; 'I' for Inactive)
ROOT
HETATM    1  C1  UNL     1     -37.349  14.662  -3.771  1.00 20.00     0.102 C 
HETATM    2  C2  UNL     1     -35.589  16.263  -3.213  1.00 20.00     0.050 A 
HETATM    3  C3  UNL     1     -33.268  15.590  -3.236  1.00 20.00     0.069 A 
HETATM    4  C4  UNL     1     -35.966  14.973  -3.590  1.00 20.00     0.087 A 
HETATM    5  C5  UNL     1     -33.646  14.302  -3.613  1.00 20.00     0.158 A 
HETATM    6  C6  UNL     1     -34.994  13.993  -3.790  1.00 20.00     0.175 A 
HETATM    7  C7  UNL     1     -34.240  16.571  -3.035  1.00 20.00     0.038 A 
HETATM    8  N8  UNL     1     -38.473  14.409  -3.917  1.00 20.00    -0.191 NA
HETATM    9  F9  UNL     1     -32.712  13.360  -3.806  1.00 20.00    -0.203 F 
HETATM   10  F10 UNL     1     -35.342  12.750  -4.154  1.00 20.00    -0.201 F 
HETATM   11 CL11 UNL     1     -33.774  18.160  -2.569  1.00 20.00    -0.084 Cl
ENDROOT
TORSDOF 0
ENDMDL
MODEL 3
REMARK VINA RESULT:      -4.9     12.228     13.056
REMARK  0 active torsions:
REMARK  status: ('A' for Active; 'I' for Inactive)
ROOT
HETATM    1  C1  UNL     1     -42.736   7.878  -3.123  1.00 20.00     0.102 C 
HETATM    2  C2  UNL     1     -42.347   5.484  -2.823  1.00 20.00     0.050 A 
HETATM    3  C3  UNL     1     -41.032   4.679  -0.962  1.00 20.00     0.069 A 
HETATM    4  C4  UNL     1     -42.158   6.796  -2.389  1.00 20.00     0.087 A 
HETATM    5  C5  UNL     1     -40.844   5.991  -0.529  1.00 20.00     0.158 A 
HETATM    6  C6  UNL     1     -41.406   7.049  -1.242  1.00 20.00     0.175 A 
HETATM    7  C7  UNL     1     -41.784   4.425  -2.109  1.00 20.00     0.038 A 
HETATM    8  N8  UNL     1     -43.205   8.756  -3.719  1.00 20.00    -0.191 NA
HETATM    9  F9  UNL     1     -40.122   6.234   0.573  1.00 20.00    -0.203 F 
HETATM   10  F10 UNL     1     -41.216   8.306  -0.813  1.00 20.00    -0.201 F 
HETATM   11 CL11 UNL     1     -42.018   2.806  -2.644  1.00 20.00    -0.084 Cl
ENDROOT
TORSDOF 0
ENDMDL
MODEL 4
REMARK VINA RESULT:      -4.8      3.133      4.020
REMARK  0 active torsions:
REMARK  status: ('A' for Active; 'I' for Inactive)
ROOT
HETATM    1  C1  UNL     1     -34.006  16.648  -1.899  1.00 20.00     0.102 C 
HETATM    2  C2  UNL     1     -36.020  15.680  -2.889  1.00 20.00     0.050 A 
HETATM    3  C3  UNL     1     -35.863  13.774  -4.367  1.00 20.00     0.069 A 
HETATM    4  C4  UNL     1     -34.633  15.673  -2.736  1.00 20.00     0.087 A 
HETATM    5  C5  UNL     1     -34.477  13.768  -4.213  1.00 20.00     0.158 A 
HETATM    6  C6  UNL     1     -33.862  14.718  -3.397  1.00 20.00     0.175 A 
HETATM    7  C7  UNL     1     -36.635  14.730  -3.706  1.00 20.00     0.038 A 
HETATM    8  N8  UNL     1     -33.498  17.439  -1.219  1.00 20.00    -0.191 NA
HETATM    9  F9  UNL     1     -33.738  12.850  -4.848  1.00 20.00    -0.203 F 
HETATM   10  F10 UNL     1     -32.528  14.699  -3.258  1.00 20.00    -0.201 F 
HETATM   11 CL11 UNL     1     -38.345  14.738  -3.896  1.00 20.00    -0.084 Cl
ENDROOT
TORSDOF 0
ENDMDL
MODEL 5
REMARK VINA RESULT:      -4.7      2.764      3.550
REMARK  0 active torsions:
REMARK  status: ('A' for Active; 'I' for Inactive)
ROOT
HETATM    1  C1  UNL     1     -34.540  16.700  -1.122  1.00 20.00     0.102 C 
HETATM    2  C2  UNL     1     -34.519  15.070  -2.942  1.00 20.00     0.050 A 
HETATM    3  C3  UNL     1     -33.784  15.712  -5.154  1.00 20.00     0.069 A 
HETATM    4  C4  UNL     1     -34.283  16.368  -2.488  1.00 20.00     0.087 A 
HETATM    5  C5  UNL     1     -33.548  17.009  -4.698  1.00 20.00     0.158 A 
HETATM    6  C6  UNL     1     -33.798  17.337  -3.366  1.00 20.00     0.175 A 
HETATM    7  C7  UNL     1     -34.270  14.742  -4.276  1.00 20.00     0.038 A 
HETATM    8  N8  UNL     1     -34.748  16.969  -0.012  1.00 20.00    -0.191 NA
HETATM    9  F9  UNL     1     -33.082  17.939  -5.541  1.00 20.00    -0.203 F 
HETATM   10  F10 UNL     1     -33.566  18.588  -2.943  1.00 20.00    -0.201 F 
HETATM   11 CL11 UNL     1     -34.561  13.142  -4.837  1.00 20.00    -0.084 Cl
ENDROOT
TORSDOF 0
ENDMDL
MODEL 6
REMARK VINA RESULT:      -4.6      2.445      3.353
REMARK  0 active torsions:
REMARK  status: ('A' for Active; 'I' for Inactive)
ROOT
HETATM    1  C1  UNL     1     -34.311  17.325  -6.418  1.00 20.00     0.102 C 
HETATM    2  C2  UNL     1     -34.441  16.724  -4.052  1.00 20.00     0.050 A 
HETATM    3  C3  UNL     1     -34.457  14.403  -3.377  1.00 20.00     0.069 A 
HETATM    4  C4  UNL     1     -34.361  16.333  -5.389  1.00 20.00     0.087 A 
HETATM    5  C5  UNL     1     -34.376  14.014  -4.714  1.00 20.00     0.158 A 
HETATM    6  C6  UNL     1     -34.328  14.979  -5.720  1.00 20.00     0.175 A 
HETATM    7  C7  UNL     1     -34.490  15.758  -3.046  1.00 20.00     0.038 A 
HETATM    8  N8  UNL     1     -34.271  18.131  -7.252  1.00 20.00    -0.191 NA
HETATM    9  F9  UNL     1     -34.344  12.713  -5.031  1.00 20.00    -0.203 F 
HETATM   10  F10 UNL     1     -34.249  14.589  -7.001  1.00 20.00    -0.201 F 
HETATM   11 CL11 UNL     1     -34.590  16.239  -1.397  1.00 20.00    -0.084 Cl
ENDROOT
TORSDOF 0
ENDMDL
MODEL 7
REMARK VINA RESULT:      -4.5      2.749      3.204
REMARK  0 active torsions:
REMARK  status: ('A' for Active; 'I' for Inactive)
ROOT
HETATM    1  C1  UNL     1     -34.558  13.664  -4.721  1.00 20.00     0.102 C 
HETATM    2  C2  UNL     1     -34.467  15.629  -6.172  1.00 20.00     0.050 A 
HETATM    3  C3  UNL     1     -33.827  17.782  -5.281  1.00 20.00     0.069 A 
HETATM    4  C4  UNL     1     -34.310  15.059  -4.908  1.00 20.00     0.087 A 
HETATM    5  C5  UNL     1     -33.670  17.212  -4.018  1.00 20.00     0.158 A 
HETATM    6  C6  UNL     1     -33.911  15.851  -3.832  1.00 20.00     0.175 A 
HETATM    7  C7  UNL     1     -34.226  16.990  -6.359  1.00 20.00     0.038 A 
HETATM    8  N8  UNL     1     -34.760  12.531  -4.570  1.00 20.00    -0.191 NA
HETATM    9  F9  UNL     1     -33.287  17.972  -2.984  1.00 20.00    -0.203 F 
HETATM   10  F10 UNL     1     -33.755  15.317  -2.611  1.00 20.00    -0.201 F 
HETATM   11 CL11 UNL     1     -34.420  17.693  -7.917  1.00 20.00    -0.084 Cl
ENDROOT
TORSDOF 0
ENDMDL
MODEL 8
REMARK VINA RESULT:      -4.5      3.588      4.609
REMARK  0 active torsions:
REMARK  status: ('A' for Active; 'I' for Inactive)
ROOT
HETATM    1  C1  UNL     1     -33.625  17.887  -4.614  1.00 20.00     0.102 C 
HETATM    2  C2  UNL     1     -34.485  16.146  -6.097  1.00 20.00     0.050 A 
HETATM    3  C3  UNL     1     -34.662  13.861  -5.331  1.00 20.00     0.069 A 
HETATM    4  C4  UNL     1     -33.975  16.523  -4.854  1.00 20.00     0.087 A 
HETATM    5  C5  UNL     1     -34.152  14.238  -4.089  1.00 20.00     0.158 A 
HETATM    6  C6  UNL     1     -33.809  15.569  -3.851  1.00 20.00     0.175 A 
HETATM    7  C7  UNL     1     -34.828  14.815  -6.336  1.00 20.00     0.038 A 
HETATM    8  N8  UNL     1     -33.341  18.996  -4.419  1.00 20.00    -0.191 NA
HETATM    9  F9  UNL     1     -33.993  13.322  -3.125  1.00 20.00    -0.203 F 
HETATM   10  F10 UNL     1     -33.321  15.916  -2.651  1.00 20.00    -0.201 F 
HETATM   11 CL11 UNL     1     -35.456  14.350  -7.869  1.00 20.00    -0.084 Cl
ENDROOT
TORSDOF 0
ENDMDL
MODEL 9
REMARK VINA RESULT:      -4.5     12.060     12.979
REMARK  0 active torsions:
REMARK  status: ('A' for Active; 'I' for Inactive)
ROOT
HETATM    1  C1  UNL     1     -32.459   7.312   2.594  1.00 20.00     0.102 C 
HETATM    2  C2  UNL     1     -33.068   7.309   4.961  1.00 20.00     0.050 A 
HETATM    3  C3  UNL     1     -34.531   5.602   5.847  1.00 20.00     0.069 A 
HETATM    4  C4  UNL     1     -33.162   6.731   3.694  1.00 20.00     0.087 A 
HETATM    5  C5  UNL     1     -34.624   5.024   4.581  1.00 20.00     0.158 A 
HETATM    6  C6  UNL     1     -33.940   5.589   3.505  1.00 20.00     0.175 A 
HETATM    7  C7  UNL     1     -33.753   6.745   6.037  1.00 20.00     0.038 A 
HETATM    8  N8  UNL     1     -31.888   7.785   1.701  1.00 20.00    -0.191 NA
HETATM    9  F9  UNL     1     -35.371   3.927   4.400  1.00 20.00    -0.203 F 
HETATM   10  F10 UNL     1     -34.038   5.022   2.294  1.00 20.00    -0.201 F 
HETATM   11 CL11 UNL     1     -33.639   7.458   7.599  1.00 20.00    -0.084 Cl
ENDROOT
TORSDOF 0
ENDMDL
