MODEL 1
REMARK VINA RESULT:      -5.6      0.000      0.000
REMARK  1 active torsions:
REMARK  status: ('A' for Active; 'I' for Inactive)
REMARK    1  A    between atoms: C7_7  and  C8_8 
ROOT
HETATM    1  C4  UNL     1     -33.667   6.138   5.832  1.00 20.00     0.038 C 
HETATM    2  C5  UNL     1     -34.929   5.593   6.492  1.00 20.00     0.270 C 
HETATM    3  C6  UNL     1     -34.846   3.973   4.641  1.00 20.00     0.307 C 
HETATM    4  C8  UNL     1     -33.855   6.293   4.316  1.00 20.00     0.027 C 
HETATM    5  C9  UNL     1     -34.768   5.203   3.742  1.00 20.00     0.202 C 
HETATM    6  N10 UNL     1     -35.331   4.280   5.989  1.00 20.00     0.086 N 
HETATM    7  F11 UNL     1     -36.028   5.719   3.625  1.00 20.00    -0.247 F 
HETATM    8  H27 UNL     1     -34.979   3.557   6.637  1.00 20.00     0.315 HD
ENDROOT
BRANCH   4   9
HETATM    9  C7  UNL     1     -32.489   6.265   3.627  1.00 20.00    -0.008 C 
HETATM   10  C2  UNL     1     -31.640   7.556   3.747  1.00 20.00     0.005 C 
HETATM   11  C1  UNL     1     -32.199   7.986   2.377  1.00 20.00     0.001 C 
HETATM   12  C3  UNL     1     -32.494   6.500   2.097  1.00 20.00     0.005 C 
ENDBRANCH   4   9
TORSDOF 1
ENDMDL
MODEL 2
REMARK VINA RESULT:      -4.6     11.651     12.547
REMARK  1 active torsions:
REMARK  status: ('A' for Active; 'I' for Inactive)
REMARK    1  A    between atoms: C7_7  and  C8_8 
ROOT
HETATM    1  C4  UNL     1     -35.524  15.190  -2.881  1.00 20.00     0.038 C 
HETATM    2  C5  UNL     1     -35.754  14.176  -3.996  1.00 20.00     0.270 C 
HETATM    3  C6  UNL     1     -33.331  13.812  -3.768  1.00 20.00     0.307 C 
HETATM    4  C8  UNL     1     -34.313  16.085  -3.183  1.00 20.00     0.027 C 
HETATM    5  C9  UNL     1     -33.220  15.323  -3.943  1.00 20.00     0.202 C 
HETATM    6  N10 UNL     1     -34.620  13.278  -4.213  1.00 20.00     0.086 N 
HETATM    7  F11 UNL     1     -33.351  15.604  -5.275  1.00 20.00    -0.247 F 
HETATM    8  H27 UNL     1     -34.800  12.394  -3.711  1.00 20.00     0.315 HD
ENDROOT
BRANCH   4   9
HETATM    9  C7  UNL     1     -33.759  16.653  -1.875  1.00 20.00    -0.008 C 
HETATM   10  C2  UNL     1     -34.752  16.716  -0.687  1.00 20.00     0.005 C 
HETATM   11  C1  UNL     1     -35.037  18.180  -1.073  1.00 20.00     0.001 C 
HETATM   12  C3  UNL     1     -33.672  18.196  -1.787  1.00 20.00     0.005 C 
ENDBRANCH   4   9
TORSDOF 1
ENDMDL
MODEL 3
REMARK VINA RESULT:      -4.6     11.668     12.811
REMARK  1 active torsions:
REMARK  status: ('A' for Active; 'I' for Inactive)
REMARK    1  A    between atoms: C7_7  and  C8_8 
ROOT
HETATM    1  C4  UNL     1     -34.670  16.049  -5.208  1.00 20.00     0.038 C 
HETATM    2  C5  UNL     1     -34.383  14.864  -6.124  1.00 20.00     0.270 C 
HETATM    3  C6  UNL     1     -35.215  13.558  -4.211  1.00 20.00     0.307 C 
HETATM    4  C8  UNL     1     -34.108  15.812  -3.799  1.00 20.00     0.027 C 
HETATM    5  C9  UNL     1     -34.180  14.332  -3.400  1.00 20.00     0.202 C 
HETATM    6  N10 UNL     1     -34.965  13.607  -5.653  1.00 20.00     0.086 N 
HETATM    7  F11 UNL     1     -32.957  13.768  -3.632  1.00 20.00    -0.247 F 
HETATM    8  H27 UNL     1     -35.859  13.453  -6.146  1.00 20.00     0.315 HD
ENDROOT
BRANCH   4   9
HETATM    9  C7  UNL     1     -34.874  16.674  -2.793  1.00 20.00    -0.008 C 
HETATM   10  C2  UNL     1     -34.253  18.057  -2.473  1.00 20.00     0.005 C 
HETATM   11  C1  UNL     1     -33.584  17.413  -1.244  1.00 20.00     0.001 C 
HETATM   12  C3  UNL     1     -34.669  16.320  -1.300  1.00 20.00     0.005 C 
ENDBRANCH   4   9
TORSDOF 1
ENDMDL
MODEL 4
REMARK VINA RESULT:      -4.6     11.931     13.062
REMARK  1 active torsions:
REMARK  status: ('A' for Active; 'I' for Inactive)
REMARK    1  A    between atoms: C7_7  and  C8_8 
ROOT
HETATM    1  C4  UNL     1     -34.227  14.173  -3.443  1.00 20.00     0.038 C 
HETATM    2  C5  UNL     1     -34.641  13.608  -4.797  1.00 20.00     0.270 C 
HETATM    3  C6  UNL     1     -34.009  15.848  -5.597  1.00 20.00     0.307 C 
HETATM    4  C8  UNL     1     -34.838  15.562  -3.209  1.00 20.00     0.027 C 
HETATM    5  C9  UNL     1     -34.955  16.358  -4.515  1.00 20.00     0.202 C 
HETATM    6  N10 UNL     1     -34.226  14.438  -5.928  1.00 20.00     0.086 N 
HETATM    7  F11 UNL     1     -36.234  16.230  -4.979  1.00 20.00    -0.247 F 
HETATM    8  H27 UNL     1     -33.350  14.053  -6.314  1.00 20.00     0.315 HD
ENDROOT
BRANCH   4   9
HETATM    9  C7  UNL     1     -33.990  16.327  -2.191  1.00 20.00    -0.008 C 
HETATM   10  C2  UNL     1     -34.640  16.562  -0.804  1.00 20.00     0.005 C 
HETATM   11  C1  UNL     1     -35.087  17.947  -1.308  1.00 20.00     0.001 C 
HETATM   12  C3  UNL     1     -33.958  17.867  -2.353  1.00 20.00     0.005 C 
ENDBRANCH   4   9
TORSDOF 1
ENDMDL
MODEL 5
REMARK VINA RESULT:      -4.4     11.625     12.814
REMARK  1 active torsions:
REMARK  status: ('A' for Active; 'I' for Inactive)
REMARK    1  A    between atoms: C7_7  and  C8_8 
ROOT
HETATM    1  C4  UNL     1     -35.939  16.395  -3.580  1.00 20.00     0.038 C 
HETATM    2  C5  UNL     1     -36.607  17.398  -2.646  1.00 20.00     0.270 C 
HETATM    3  C6  UNL     1     -34.284  17.987  -2.090  1.00 20.00     0.307 C 
HETATM    4  C8  UNL     1     -34.823  15.623  -2.861  1.00 20.00     0.027 C 
HETATM    5  C9  UNL     1     -34.108  16.496  -1.821  1.00 20.00     0.202 C 
HETATM    6  N10 UNL     1     -35.688  18.402  -2.113  1.00 20.00     0.086 N 
HETATM    7  F11 UNL     1     -34.645  16.223  -0.594  1.00 20.00    -0.247 F 
HETATM    8  H27 UNL     1     -35.768  19.258  -2.684  1.00 20.00     0.315 HD
ENDROOT
BRANCH   4   9
HETATM    9  C7  UNL     1     -33.824  15.093  -3.892  1.00 20.00    -0.008 C 
HETATM   10  C2  UNL     1     -34.413  14.708  -5.272  1.00 20.00     0.005 C 
HETATM   11  C1  UNL     1     -34.499  13.254  -4.771  1.00 20.00     0.001 C 
HETATM   12  C3  UNL     1     -33.412  13.608  -3.737  1.00 20.00     0.005 C 
ENDBRANCH   4   9
TORSDOF 1
ENDMDL
MODEL 6
REMARK VINA RESULT:      -4.4     11.727     12.567
REMARK  1 active torsions:
REMARK  status: ('A' for Active; 'I' for Inactive)
REMARK    1  A    between atoms: C7_7  and  C8_8 
ROOT
HETATM    1  C4  UNL     1     -33.471  14.947  -3.119  1.00 20.00     0.038 C 
HETATM    2  C5  UNL     1     -33.598  13.761  -4.068  1.00 20.00     0.270 C 
HETATM    3  C6  UNL     1     -35.131  15.262  -5.274  1.00 20.00     0.307 C 
HETATM    4  C8  UNL     1     -34.849  15.521  -2.759  1.00 20.00     0.027 C 
HETATM    5  C9  UNL     1     -35.835  15.409  -3.929  1.00 20.00     0.202 C 
HETATM    6  N10 UNL     1     -34.252  14.092  -5.334  1.00 20.00     0.086 N 
HETATM    7  F11 UNL     1     -36.605  14.298  -3.733  1.00 20.00    -0.247 F 
HETATM    8  H27 UNL     1     -33.524  14.264  -6.045  1.00 20.00     0.315 HD
ENDROOT
BRANCH   4   9
HETATM    9  C7  UNL     1     -34.697  16.981  -2.326  1.00 20.00    -0.008 C 
HETATM   10  C2  UNL     1     -33.645  17.255  -1.221  1.00 20.00     0.005 C 
HETATM   11  C1  UNL     1     -34.788  17.184  -0.190  1.00 20.00     0.001 C 
HETATM   12  C3  UNL     1     -35.764  17.512  -1.337  1.00 20.00     0.005 C 
ENDBRANCH   4   9
TORSDOF 1
ENDMDL
MODEL 7
REMARK VINA RESULT:      -4.2     11.861     13.450
REMARK  1 active torsions:
REMARK  status: ('A' for Active; 'I' for Inactive)
REMARK    1  A    between atoms: C7_7  and  C8_8 
ROOT
HETATM    1  C4  UNL     1     -34.730  14.160  -3.493  1.00 20.00     0.038 C 
HETATM    2  C5  UNL     1     -33.263  13.865  -3.787  1.00 20.00     0.270 C 
HETATM    3  C6  UNL     1     -33.270  16.176  -4.634  1.00 20.00     0.307 C 
HETATM    4  C8  UNL     1     -35.418  14.815  -4.700  1.00 20.00     0.027 C 
HETATM    5  C9  UNL     1     -34.458  15.724  -5.477  1.00 20.00     0.202 C 
HETATM    6  N10 UNL     1     -32.481  15.058  -4.113  1.00 20.00     0.086 N 
HETATM    7  F11 UNL     1     -33.974  15.021  -6.544  1.00 20.00    -0.247 F 
HETATM    8  H27 UNL     1     -31.989  15.372  -3.261  1.00 20.00     0.315 HD
ENDROOT
BRANCH   4   9
HETATM    9  C7  UNL     1     -36.638  15.606  -4.224  1.00 20.00    -0.008 C 
HETATM   10  C2  UNL     1     -37.957  14.805  -4.086  1.00 20.00     0.005 C 
HETATM   11  C1  UNL     1     -38.334  15.287  -5.500  1.00 20.00     0.001 C 
HETATM   12  C3  UNL     1     -37.356  16.460  -5.298  1.00 20.00     0.005 C 
ENDBRANCH   4   9
TORSDOF 1
ENDMDL
MODEL 8
REMARK VINA RESULT:      -4.2     12.118     13.124
REMARK  1 active torsions:
REMARK  status: ('A' for Active; 'I' for Inactive)
REMARK    1  A    between atoms: C7_7  and  C8_8 
ROOT
HETATM    1  C4  UNL     1     -34.742  16.572  -0.591  1.00 20.00     0.038 C 
HETATM    2  C5  UNL     1     -34.698  17.636   0.500  1.00 20.00     0.270 C 
HETATM    3  C6  UNL     1     -34.967  19.178  -1.398  1.00 20.00     0.307 C 
HETATM    4  C8  UNL     1     -33.817  16.938  -1.761  1.00 20.00     0.027 C 
HETATM    5  C9  UNL     1     -33.761  18.454  -1.988  1.00 20.00     0.202 C 
HETATM    6  N10 UNL     1     -35.117  18.961   0.042  1.00 20.00     0.086 N 
HETATM    7  F11 UNL     1     -32.639  18.936  -1.374  1.00 20.00    -0.247 F 
HETATM    8  H27 UNL     1     -36.108  19.098   0.293  1.00 20.00     0.315 HD
ENDROOT
BRANCH   4   9
HETATM    9  C7  UNL     1     -34.293  16.224  -3.028  1.00 20.00    -0.008 C 
HETATM   10  C2  UNL     1     -34.110  14.686  -3.051  1.00 20.00     0.005 C 
HETATM   11  C1  UNL     1     -32.786  14.907  -3.806  1.00 20.00     0.001 C 
HETATM   12  C3  UNL     1     -33.332  16.281  -4.241  1.00 20.00     0.005 C 
ENDBRANCH   4   9
TORSDOF 1
ENDMDL
MODEL 9
REMARK VINA RESULT:      -4.2     11.784     13.693
REMARK  1 active torsions:
REMARK  status: ('A' for Active; 'I' for Inactive)
REMARK    1  A    between atoms: C7_7  and  C8_8 
ROOT
HETATM    1  C4  UNL     1     -34.905  14.328  -5.847  1.00 20.00     0.038 C 
HETATM    2  C5  UNL     1     -34.443  13.118  -5.042  1.00 20.00     0.270 C 
HETATM    3  C6  UNL     1     -34.595  14.685  -3.151  1.00 20.00     0.307 C 
HETATM    4  C8  UNL     1     -34.100  15.582  -5.479  1.00 20.00     0.027 C 
HETATM    5  C9  UNL     1     -33.704  15.589  -3.997  1.00 20.00     0.202 C 
HETATM    6  N10 UNL     1     -34.583  13.290  -3.596  1.00 20.00     0.086 N 
HETATM    7  F11 UNL     1     -32.421  15.129  -3.896  1.00 20.00    -0.247 F 
HETATM    8  H27 UNL     1     -35.462  12.841  -3.296  1.00 20.00     0.315 HD
ENDROOT
BRANCH   4   9
HETATM    9  C7  UNL     1     -34.916  16.830  -5.820  1.00 20.00    -0.008 C 
HETATM   10  C2  UNL     1     -34.475  17.604  -7.089  1.00 20.00     0.005 C 
HETATM   11  C1  UNL     1     -33.650  18.529  -6.173  1.00 20.00     0.001 C 
HETATM   12  C3  UNL     1     -34.574  18.108  -5.014  1.00 20.00     0.005 C 
ENDBRANCH   4   9
TORSDOF 1
ENDMDL
