MODEL 1
REMARK VINA RESULT:      -4.8      0.000      0.000
REMARK  1 active torsions:
REMARK  status: ('A' for Active; 'I' for Inactive)
REMARK    1  A    between atoms: C5_5  and  C6_6 
ROOT
HETATM    1  C1  UNL     1     -34.850   5.375   6.730  1.00 20.00     0.078 C 
HETATM    2  C2  UNL     1     -35.179   4.336   5.957  1.00 20.00    -0.018 C 
HETATM    3  C3  UNL     1     -33.958   6.433   6.223  1.00 20.00     0.283 C 
HETATM    4  C4  UNL     1     -34.736   4.243   4.536  1.00 20.00     0.061 C 
HETATM    5  C5  UNL     1     -34.514   5.650   3.996  1.00 20.00     0.149 C 
HETATM    6  O7  UNL     1     -33.475   7.266   6.983  1.00 20.00    -0.260 OA
HETATM    7  O8  UNL     1     -33.674   6.410   4.892  1.00 20.00    -0.311 OA
ENDROOT
BRANCH   5   8
HETATM    8  C6  UNL     1     -33.838   5.623   2.633  1.00 20.00     0.147 C 
HETATM    9 CL9  UNL     1     -32.311   6.523   2.686  1.00 20.00    -0.128 Cl
ENDBRANCH   5   8
TORSDOF 1
ENDMDL
MODEL 2
REMARK VINA RESULT:      -4.7      1.504      2.003
REMARK  1 active torsions:
REMARK  status: ('A' for Active; 'I' for Inactive)
REMARK    1  A    between atoms: C5_5  and  C6_6 
ROOT
HETATM    1  C1  UNL     1     -35.258   5.173   4.657  1.00 20.00     0.078 C 
HETATM    2  C2  UNL     1     -34.922   5.022   3.372  1.00 20.00    -0.018 C 
HETATM    3  C3  UNL     1     -34.343   5.851   5.594  1.00 20.00     0.283 C 
HETATM    4  C4  UNL     1     -33.666   5.599   2.815  1.00 20.00     0.061 C 
HETATM    5  C5  UNL     1     -33.271   6.814   3.644  1.00 20.00     0.149 C 
HETATM    6  O7  UNL     1     -34.534   5.801   6.805  1.00 20.00    -0.260 OA
HETATM    7  O8  UNL     1     -33.272   6.489   5.051  1.00 20.00    -0.311 OA
ENDROOT
BRANCH   5   8
HETATM    8  C6  UNL     1     -31.880   7.310   3.279  1.00 20.00     0.147 C 
HETATM    9 CL9  UNL     1     -31.938   8.254   1.778  1.00 20.00    -0.128 Cl
ENDBRANCH   5   8
TORSDOF 1
ENDMDL
MODEL 3
REMARK VINA RESULT:      -4.4      1.670      2.424
REMARK  1 active torsions:
REMARK  status: ('A' for Active; 'I' for Inactive)
REMARK    1  A    between atoms: C5_5  and  C6_6 
ROOT
HETATM    1  C1  UNL     1     -34.605   5.238   6.384  1.00 20.00     0.078 C 
HETATM    2  C2  UNL     1     -34.027   6.443   6.405  1.00 20.00    -0.018 C 
HETATM    3  C3  UNL     1     -34.841   4.544   5.105  1.00 20.00     0.283 C 
HETATM    4  C4  UNL     1     -33.522   7.094   5.163  1.00 20.00     0.061 C 
HETATM    5  C5  UNL     1     -33.165   6.014   4.150  1.00 20.00     0.149 C 
HETATM    6  O7  UNL     1     -35.561   3.552   5.052  1.00 20.00    -0.260 OA
HETATM    7  O8  UNL     1     -34.257   5.080   4.000  1.00 20.00    -0.311 OA
ENDROOT
BRANCH   5   8
HETATM    8  C6  UNL     1     -32.867   6.609   2.782  1.00 20.00     0.147 C 
HETATM    9 CL9  UNL     1     -31.714   7.948   2.933  1.00 20.00    -0.128 Cl
ENDBRANCH   5   8
TORSDOF 1
ENDMDL
MODEL 4
REMARK VINA RESULT:      -4.4     12.472     12.885
REMARK  1 active torsions:
REMARK  status: ('A' for Active; 'I' for Inactive)
REMARK    1  A    between atoms: C5_5  and  C6_6 
ROOT
HETATM    1  C1  UNL     1     -35.365  13.502  -4.489  1.00 20.00     0.078 C 
HETATM    2  C2  UNL     1     -34.047  13.624  -4.300  1.00 20.00    -0.018 C 
HETATM    3  C3  UNL     1     -36.306  14.406  -3.803  1.00 20.00     0.283 C 
HETATM    4  C4  UNL     1     -33.471  14.717  -3.467  1.00 20.00     0.061 C 
HETATM    5  C5  UNL     1     -34.426  15.904  -3.480  1.00 20.00     0.149 C 
HETATM    6  O7  UNL     1     -37.509  14.169  -3.792  1.00 20.00    -0.260 OA
HETATM    7  O8  UNL     1     -35.768  15.477  -3.160  1.00 20.00    -0.311 OA
ENDROOT
BRANCH   5   8
HETATM    8  C6  UNL     1     -34.016  16.961  -2.466  1.00 20.00     0.147 C 
HETATM    9 CL9  UNL     1     -34.569  16.503  -0.844  1.00 20.00    -0.128 Cl
ENDBRANCH   5   8
TORSDOF 1
ENDMDL
MODEL 5
REMARK VINA RESULT:      -4.3     12.619     13.634
REMARK  1 active torsions:
REMARK  status: ('A' for Active; 'I' for Inactive)
REMARK    1  A    between atoms: C5_5  and  C6_6 
ROOT
HETATM    1  C1  UNL     1     -34.639  14.454  -6.039  1.00 20.00     0.078 C 
HETATM    2  C2  UNL     1     -34.107  15.671  -6.183  1.00 20.00    -0.018 C 
HETATM    3  C3  UNL     1     -34.636  13.787  -4.724  1.00 20.00     0.283 C 
HETATM    4  C4  UNL     1     -33.571  16.437  -5.022  1.00 20.00     0.061 C 
HETATM    5  C5  UNL     1     -34.291  15.984  -3.758  1.00 20.00     0.149 C 
HETATM    6  O7  UNL     1     -34.916  12.597  -4.623  1.00 20.00    -0.260 OA
HETATM    7  O8  UNL     1     -34.274  14.544  -3.654  1.00 20.00    -0.311 OA
ENDROOT
BRANCH   5   8
HETATM    8  C6  UNL     1     -33.635  16.552  -2.508  1.00 20.00     0.147 C 
HETATM    9 CL9  UNL     1     -34.708  16.360  -1.109  1.00 20.00    -0.128 Cl
ENDBRANCH   5   8
TORSDOF 1
ENDMDL
MODEL 6
REMARK VINA RESULT:      -4.2      1.999      3.342
REMARK  1 active torsions:
REMARK  status: ('A' for Active; 'I' for Inactive)
REMARK    1  A    between atoms: C5_5  and  C6_6 
ROOT
HETATM    1  C1  UNL     1     -33.608   5.659   2.405  1.00 20.00     0.078 C 
HETATM    2  C2  UNL     1     -34.732   5.079   2.838  1.00 20.00    -0.018 C 
HETATM    3  C3  UNL     1     -32.835   6.549   3.291  1.00 20.00     0.283 C 
HETATM    4  C4  UNL     1     -35.204   5.234   4.244  1.00 20.00     0.061 C 
HETATM    5  C5  UNL     1     -34.003   5.502   5.141  1.00 20.00     0.149 C 
HETATM    6  O7  UNL     1     -31.936   7.253   2.844  1.00 20.00    -0.260 OA
HETATM    7  O8  UNL     1     -33.197   6.572   4.603  1.00 20.00    -0.311 OA
ENDROOT
BRANCH   5   8
HETATM    8  C6  UNL     1     -34.433   5.901   6.545  1.00 20.00     0.147 C 
HETATM    9 CL9  UNL     1     -33.652   7.422   7.018  1.00 20.00    -0.128 Cl
ENDBRANCH   5   8
TORSDOF 1
ENDMDL
MODEL 7
REMARK VINA RESULT:      -4.1     12.661     13.987
REMARK  1 active torsions:
REMARK  status: ('A' for Active; 'I' for Inactive)
REMARK    1  A    between atoms: C5_5  and  C6_6 
ROOT
HETATM    1  C1  UNL     1     -33.319  13.882  -3.732  1.00 20.00     0.078 C 
HETATM    2  C2  UNL     1     -32.791  15.108  -3.664  1.00 20.00    -0.018 C 
HETATM    3  C3  UNL     1     -34.483  13.615  -4.595  1.00 20.00     0.283 C 
HETATM    4  C4  UNL     1     -33.293  16.227  -4.511  1.00 20.00     0.061 C 
HETATM    5  C5  UNL     1     -33.902  15.649  -5.782  1.00 20.00     0.149 C 
HETATM    6  O7  UNL     1     -35.108  12.564  -4.501  1.00 20.00    -0.260 OA
HETATM    7  O8  UNL     1     -34.843  14.601  -5.461  1.00 20.00    -0.311 OA
ENDROOT
BRANCH   5   8
HETATM    8  C6  UNL     1     -34.641  16.713  -6.581  1.00 20.00     0.147 C 
HETATM    9 CL9  UNL     1     -33.849  18.288  -6.385  1.00 20.00    -0.128 Cl
ENDBRANCH   5   8
TORSDOF 1
ENDMDL
MODEL 8
REMARK VINA RESULT:      -4.1     12.029     12.636
REMARK  1 active torsions:
REMARK  status: ('A' for Active; 'I' for Inactive)
REMARK    1  A    between atoms: C5_5  and  C6_6 
ROOT
HETATM    1  C1  UNL     1     -35.314  13.451  -4.199  1.00 20.00     0.078 C 
HETATM    2  C2  UNL     1     -36.281  14.373  -4.145  1.00 20.00    -0.018 C 
HETATM    3  C3  UNL     1     -33.964  13.753  -3.691  1.00 20.00     0.283 C 
HETATM    4  C4  UNL     1     -36.067  15.699  -3.499  1.00 20.00     0.061 C 
HETATM    5  C5  UNL     1     -34.984  15.561  -2.437  1.00 20.00     0.149 C 
HETATM    6  O7  UNL     1     -33.020  13.007  -3.933  1.00 20.00    -0.260 OA
HETATM    7  O8  UNL     1     -33.818  14.907  -2.984  1.00 20.00    -0.311 OA
ENDROOT
BRANCH   5   8
HETATM    8  C6  UNL     1     -34.550  16.919  -1.903  1.00 20.00     0.147 C 
HETATM    9 CL9  UNL     1     -34.770  16.986  -0.145  1.00 20.00    -0.128 Cl
ENDBRANCH   5   8
TORSDOF 1
ENDMDL
MODEL 9
REMARK VINA RESULT:      -4.0     12.430     13.009
REMARK  1 active torsions:
REMARK  status: ('A' for Active; 'I' for Inactive)
REMARK    1  A    between atoms: C5_5  and  C6_6 
ROOT
HETATM    1  C1  UNL     1     -33.802  14.247  -3.679  1.00 20.00     0.078 C 
HETATM    2  C2  UNL     1     -33.953  15.316  -2.892  1.00 20.00    -0.018 C 
HETATM    3  C3  UNL     1     -34.978  13.553  -4.234  1.00 20.00     0.283 C 
HETATM    4  C4  UNL     1     -35.295  15.902  -2.611  1.00 20.00     0.061 C 
HETATM    5  C5  UNL     1     -36.225  15.582  -3.774  1.00 20.00     0.149 C 
HETATM    6  O7  UNL     1     -34.866  12.455  -4.768  1.00 20.00    -0.260 OA
HETATM    7  O8  UNL     1     -36.181  14.172  -4.086  1.00 20.00    -0.311 OA
ENDROOT
BRANCH   5   8
HETATM    8  C6  UNL     1     -37.667  15.944  -3.451  1.00 20.00     0.147 C 
HETATM    9 CL9  UNL     1     -38.758  14.646  -3.971  1.00 20.00    -0.128 Cl
ENDBRANCH   5   8
TORSDOF 1
ENDMDL
