MODEL 1
REMARK VINA RESULT:      -5.6      0.000      0.000
REMARK  5 active torsions:
REMARK  status: ('A' for Active; 'I' for Inactive)
REMARK    1  A    between atoms: C3_3  and  C7_7 
REMARK    2  A    between atoms: C4_4  and  C8_8 
REMARK    3  A    between atoms: C7_7  and  C9_9 
REMARK    4  A    between atoms: C8_8  and  C10_10 
REMARK    5  A    between atoms: C9_9  and  C10_10 
ROOT
HETATM    1  C9  UNL     1     -32.598   5.581   3.217  1.00 20.00     0.004 C 
ENDROOT
BRANCH   1   2
HETATM    2  C7  UNL     1     -32.350   7.060   3.518  1.00 20.00     0.026 C 
BRANCH   2   3
HETATM    3  C3  UNL     1     -31.984   7.814   2.274  1.00 20.00    -0.031 C 
HETATM    4  C1  UNL     1     -32.549   8.976   1.912  1.00 20.00    -0.035 C 
HETATM    5  C5  UNL     1     -32.190   9.724   0.672  1.00 20.00     0.035 C 
ENDBRANCH   2   3
ENDBRANCH   1   2
BRANCH   1   6
HETATM    6  C10 UNL     1     -34.002   5.357   2.649  1.00 20.00     0.004 C 
BRANCH   6   7
HETATM    7  C8  UNL     1     -35.077   5.647   3.698  1.00 20.00     0.026 C 
BRANCH   7   8
HETATM    8  C4  UNL     1     -35.120   4.574   4.747  1.00 20.00    -0.031 C 
HETATM    9  C2  UNL     1     -34.767   4.768   6.026  1.00 20.00    -0.035 C 
HETATM   10  C6  UNL     1     -34.287   6.074   6.568  1.00 20.00     0.035 C 
ENDBRANCH   7   8
ENDBRANCH   6   7
ENDBRANCH   1   6
TORSDOF 5
ENDMDL
MODEL 2
REMARK VINA RESULT:      -5.2      0.865      1.142
REMARK  5 active torsions:
REMARK  status: ('A' for Active; 'I' for Inactive)
REMARK    1  A    between atoms: C3_3  and  C7_7 
REMARK    2  A    between atoms: C4_4  and  C8_8 
REMARK    3  A    between atoms: C7_7  and  C9_9 
REMARK    4  A    between atoms: C8_8  and  C10_10 
REMARK    5  A    between atoms: C9_9  and  C10_10 
ROOT
HETATM    1  C9  UNL     1     -32.144   6.039   3.458  1.00 20.00     0.004 C 
ENDROOT
BRANCH   1   2
HETATM    2  C7  UNL     1     -31.573   7.448   3.280  1.00 20.00     0.026 C 
BRANCH   2   3
HETATM    3  C3  UNL     1     -32.317   8.206   2.220  1.00 20.00    -0.031 C 
HETATM    4  C1  UNL     1     -31.766   8.612   1.066  1.00 20.00    -0.035 C 
HETATM    5  C5  UNL     1     -32.504   9.370   0.015  1.00 20.00     0.035 C 
ENDBRANCH   2   3
ENDBRANCH   1   2
BRANCH   1   6
HETATM    6  C10 UNL     1     -33.501   5.898   2.763  1.00 20.00     0.004 C 
BRANCH   6   7
HETATM    7  C8  UNL     1     -34.626   5.692   3.779  1.00 20.00     0.026 C 
BRANCH   7   8
HETATM    8  C4  UNL     1     -34.231   6.192   5.139  1.00 20.00    -0.031 C 
HETATM    9  C2  UNL     1     -34.465   5.523   6.275  1.00 20.00    -0.035 C 
HETATM   10  C6  UNL     1     -35.147   4.196   6.334  1.00 20.00     0.035 C 
ENDBRANCH   7   8
ENDBRANCH   6   7
ENDBRANCH   1   6
TORSDOF 5
ENDMDL
MODEL 3
REMARK VINA RESULT:      -5.1      0.888      4.441
REMARK  5 active torsions:
REMARK  status: ('A' for Active; 'I' for Inactive)
REMARK    1  A    between atoms: C3_3  and  C7_7 
REMARK    2  A    between atoms: C4_4  and  C8_8 
REMARK    3  A    between atoms: C7_7  and  C9_9 
REMARK    4  A    between atoms: C8_8  and  C10_10 
REMARK    5  A    between atoms: C9_9  and  C10_10 
ROOT
HETATM    1  C9  UNL     1     -34.853   4.163   4.451  1.00 20.00     0.004 C 
ENDROOT
BRANCH   1   2
HETATM    2  C7  UNL     1     -35.251   4.398   5.910  1.00 20.00     0.026 C 
BRANCH   2   3
HETATM    3  C3  UNL     1     -34.275   5.304   6.601  1.00 20.00    -0.031 C 
HETATM    4  C1  UNL     1     -34.180   6.621   6.361  1.00 20.00    -0.035 C 
HETATM    5  C5  UNL     1     -33.206   7.521   7.044  1.00 20.00     0.035 C 
ENDBRANCH   2   3
ENDBRANCH   1   2
BRANCH   1   6
HETATM    6  C10 UNL     1     -35.130   5.399   3.593  1.00 20.00     0.004 C 
BRANCH   6   7
HETATM    7  C8  UNL     1     -33.956   5.700   2.659  1.00 20.00     0.026 C 
BRANCH   7   8
HETATM    8  C4  UNL     1     -32.698   5.971   3.433  1.00 20.00    -0.031 C 
HETATM    9  C2  UNL     1     -31.914   7.039   3.230  1.00 20.00    -0.035 C 
HETATM   10  C6  UNL     1     -32.191   8.093   2.210  1.00 20.00     0.035 C 
ENDBRANCH   7   8
ENDBRANCH   6   7
ENDBRANCH   1   6
TORSDOF 5
ENDMDL
MODEL 4
REMARK VINA RESULT:      -4.6      0.958      5.320
REMARK  5 active torsions:
REMARK  status: ('A' for Active; 'I' for Inactive)
REMARK    1  A    between atoms: C3_3  and  C7_7 
REMARK    2  A    between atoms: C4_4  and  C8_8 
REMARK    3  A    between atoms: C7_7  and  C9_9 
REMARK    4  A    between atoms: C8_8  and  C10_10 
REMARK    5  A    between atoms: C9_9  and  C10_10 
ROOT
HETATM    1  C9  UNL     1     -33.189   5.766   2.586  1.00 20.00     0.004 C 
ENDROOT
BRANCH   1   2
HETATM    2  C7  UNL     1     -34.631   5.388   2.931  1.00 20.00     0.026 C 
BRANCH   2   3
HETATM    3  C3  UNL     1     -34.853   5.389   4.415  1.00 20.00    -0.031 C 
HETATM    4  C1  UNL     1     -34.942   4.275   5.157  1.00 20.00    -0.035 C 
HETATM    5  C5  UNL     1     -35.168   4.275   6.632  1.00 20.00     0.035 C 
ENDBRANCH   2   3
ENDBRANCH   1   2
BRANCH   1   6
HETATM    6  C10 UNL     1     -32.513   6.500   3.747  1.00 20.00     0.004 C 
BRANCH   6   7
HETATM    7  C8  UNL     1     -31.766   7.742   3.258  1.00 20.00     0.026 C 
BRANCH   7   8
HETATM    8  C4  UNL     1     -31.821   7.859   1.762  1.00 20.00    -0.031 C 
HETATM    9  C2  UNL     1     -32.168   8.979   1.114  1.00 20.00    -0.035 C 
HETATM   10  C6  UNL     1     -32.543  10.253   1.797  1.00 20.00     0.035 C 
ENDBRANCH   7   8
ENDBRANCH   6   7
ENDBRANCH   1   6
TORSDOF 5
ENDMDL
MODEL 5
REMARK VINA RESULT:      -4.3     10.591     11.963
REMARK  5 active torsions:
REMARK  status: ('A' for Active; 'I' for Inactive)
REMARK    1  A    between atoms: C3_3  and  C7_7 
REMARK    2  A    between atoms: C4_4  and  C8_8 
REMARK    3  A    between atoms: C7_7  and  C9_9 
REMARK    4  A    between atoms: C8_8  and  C10_10 
REMARK    5  A    between atoms: C9_9  and  C10_10 
ROOT
HETATM    1  C9  UNL     1     -34.244  13.938  -3.530  1.00 20.00     0.004 C 
ENDROOT
BRANCH   1   2
HETATM    2  C7  UNL     1     -34.420  13.293  -4.906  1.00 20.00     0.026 C 
BRANCH   2   3
HETATM    3  C3  UNL     1     -35.098  14.229  -5.862  1.00 20.00    -0.031 C 
HETATM    4  C1  UNL     1     -34.493  14.778  -6.927  1.00 20.00    -0.035 C 
HETATM    5  C5  UNL     1     -35.166  15.713  -7.875  1.00 20.00     0.035 C 
ENDBRANCH   2   3
ENDBRANCH   1   2
BRANCH   1   6
HETATM    6  C10 UNL     1     -33.181  15.039  -3.563  1.00 20.00     0.004 C 
BRANCH   6   7
HETATM    7  C8  UNL     1     -33.726  16.353  -3.001  1.00 20.00     0.026 C 
BRANCH   7   8
HETATM    8  C4  UNL     1     -34.660  16.109  -1.851  1.00 20.00    -0.031 C 
HETATM    9  C2  UNL     1     -34.609  16.782  -0.693  1.00 20.00    -0.035 C 
HETATM   10  C6  UNL     1     -33.616  17.858  -0.400  1.00 20.00     0.035 C 
ENDBRANCH   7   8
ENDBRANCH   6   7
ENDBRANCH   1   6
TORSDOF 5
ENDMDL
MODEL 6
REMARK VINA RESULT:      -4.2     10.984     12.496
REMARK  5 active torsions:
REMARK  status: ('A' for Active; 'I' for Inactive)
REMARK    1  A    between atoms: C3_3  and  C7_7 
REMARK    2  A    between atoms: C4_4  and  C8_8 
REMARK    3  A    between atoms: C7_7  and  C9_9 
REMARK    4  A    between atoms: C8_8  and  C10_10 
REMARK    5  A    between atoms: C9_9  and  C10_10 
ROOT
HETATM    1  C9  UNL     1     -34.337  16.715  -6.013  1.00 20.00     0.004 C 
ENDROOT
BRANCH   1   2
HETATM    2  C7  UNL     1     -33.327  16.824  -4.869  1.00 20.00     0.026 C 
BRANCH   2   3
HETATM    3  C3  UNL     1     -34.015  17.067  -3.558  1.00 20.00    -0.031 C 
HETATM    4  C1  UNL     1     -33.823  16.315  -2.464  1.00 20.00    -0.035 C 
HETATM    5  C5  UNL     1     -34.511  16.553  -1.161  1.00 20.00     0.035 C 
ENDBRANCH   2   3
ENDBRANCH   1   2
BRANCH   1   6
HETATM    6  C10 UNL     1     -34.099  15.453  -6.846  1.00 20.00     0.004 C 
BRANCH   6   7
HETATM    7  C8  UNL     1     -35.170  14.396  -6.570  1.00 20.00     0.026 C 
BRANCH   7   8
HETATM    8  C4  UNL     1     -34.827  13.575  -5.361  1.00 20.00    -0.031 C 
HETATM    9  C2  UNL     1     -35.517  13.614  -4.213  1.00 20.00    -0.035 C 
HETATM   10  C6  UNL     1     -36.714  14.480  -3.991  1.00 20.00     0.035 C 
ENDBRANCH   7   8
ENDBRANCH   6   7
ENDBRANCH   1   6
TORSDOF 5
ENDMDL
MODEL 7
REMARK VINA RESULT:      -4.2     10.470     12.131
REMARK  5 active torsions:
REMARK  status: ('A' for Active; 'I' for Inactive)
REMARK    1  A    between atoms: C3_3  and  C7_7 
REMARK    2  A    between atoms: C4_4  and  C8_8 
REMARK    3  A    between atoms: C7_7  and  C9_9 
REMARK    4  A    between atoms: C8_8  and  C10_10 
REMARK    5  A    between atoms: C9_9  and  C10_10 
ROOT
HETATM    1  C9  UNL     1     -32.987  14.730  -3.790  1.00 20.00     0.004 C 
ENDROOT
BRANCH   1   2
HETATM    2  C7  UNL     1     -33.375  16.177  -3.479  1.00 20.00     0.026 C 
BRANCH   2   3
HETATM    3  C3  UNL     1     -34.246  16.257  -2.260  1.00 20.00    -0.031 C 
HETATM    4  C1  UNL     1     -33.989  17.051  -1.210  1.00 20.00    -0.035 C 
HETATM    5  C5  UNL     1     -34.851  17.127   0.005  1.00 20.00     0.035 C 
ENDBRANCH   2   3
ENDBRANCH   1   2
BRANCH   1   6
HETATM    6  C10 UNL     1     -34.154  13.773  -3.529  1.00 20.00     0.004 C 
BRANCH   6   7
HETATM    7  C8  UNL     1     -34.779  13.292  -4.840  1.00 20.00     0.026 C 
BRANCH   7   8
HETATM    8  C4  UNL     1     -35.814  14.258  -5.339  1.00 20.00    -0.031 C 
HETATM    9  C2  UNL     1     -35.657  15.019  -6.430  1.00 20.00    -0.035 C 
HETATM   10  C6  UNL     1     -34.435  15.003  -7.288  1.00 20.00     0.035 C 
ENDBRANCH   7   8
ENDBRANCH   6   7
ENDBRANCH   1   6
TORSDOF 5
ENDMDL
MODEL 8
REMARK VINA RESULT:      -4.2      1.519      2.637
REMARK  5 active torsions:
REMARK  status: ('A' for Active; 'I' for Inactive)
REMARK    1  A    between atoms: C3_3  and  C7_7 
REMARK    2  A    between atoms: C4_4  and  C8_8 
REMARK    3  A    between atoms: C7_7  and  C9_9 
REMARK    4  A    between atoms: C8_8  and  C10_10 
REMARK    5  A    between atoms: C9_9  and  C10_10 
ROOT
HETATM    1  C9  UNL     1     -35.415   5.043   3.923  1.00 20.00     0.004 C 
ENDROOT
BRANCH   1   2
HETATM    2  C7  UNL     1     -34.412   5.302   2.797  1.00 20.00     0.026 C 
BRANCH   2   3
HETATM    3  C3  UNL     1     -33.554   6.496   3.098  1.00 20.00    -0.031 C 
HETATM    4  C1  UNL     1     -32.213   6.476   3.076  1.00 20.00    -0.035 C 
HETATM    5  C5  UNL     1     -31.359   7.661   3.380  1.00 20.00     0.035 C 
ENDBRANCH   2   3
ENDBRANCH   1   2
BRANCH   1   6
HETATM    6  C10 UNL     1     -34.951   3.900   4.829  1.00 20.00     0.004 C 
BRANCH   6   7
HETATM    7  C8  UNL     1     -34.163   4.429   6.029  1.00 20.00     0.026 C 
BRANCH   7   8
HETATM    8  C4  UNL     1     -34.915   5.518   6.737  1.00 20.00    -0.031 C 
HETATM    9  C2  UNL     1     -34.416   6.741   6.963  1.00 20.00    -0.035 C 
HETATM   10  C6  UNL     1     -33.052   7.175   6.539  1.00 20.00     0.035 C 
ENDBRANCH   7   8
ENDBRANCH   6   7
ENDBRANCH   1   6
TORSDOF 5
ENDMDL
MODEL 9
REMARK VINA RESULT:      -4.2     10.713     12.023
REMARK  5 active torsions:
REMARK  status: ('A' for Active; 'I' for Inactive)
REMARK    1  A    between atoms: C3_3  and  C7_7 
REMARK    2  A    between atoms: C4_4  and  C8_8 
REMARK    3  A    between atoms: C7_7  and  C9_9 
REMARK    4  A    between atoms: C8_8  and  C10_10 
REMARK    5  A    between atoms: C9_9  and  C10_10 
ROOT
HETATM    1  C9  UNL     1     -34.573  15.894  -1.920  1.00 20.00     0.004 C 
ENDROOT
BRANCH   1   2
HETATM    2  C7  UNL     1     -34.727  17.057  -0.936  1.00 20.00     0.026 C 
BRANCH   2   3
HETATM    3  C3  UNL     1     -33.445  17.822  -0.793  1.00 20.00    -0.031 C 
HETATM    4  C1  UNL     1     -33.098  18.497   0.313  1.00 20.00    -0.035 C 
HETATM    5  C5  UNL     1     -31.825  19.263   0.454  1.00 20.00     0.035 C 
ENDBRANCH   2   3
ENDBRANCH   1   2
BRANCH   1   6
HETATM    6  C10 UNL     1     -33.787  16.319  -3.163  1.00 20.00     0.004 C 
BRANCH   6   7
HETATM    7  C8  UNL     1     -33.048  15.132  -3.784  1.00 20.00     0.026 C 
BRANCH   7   8
HETATM    8  C4  UNL     1     -33.901  13.896  -3.781  1.00 20.00    -0.031 C 
HETATM    9  C2  UNL     1     -34.675  13.523  -4.809  1.00 20.00    -0.035 C 
HETATM   10  C6  UNL     1     -34.788  14.288  -6.087  1.00 20.00     0.035 C 
ENDBRANCH   7   8
ENDBRANCH   6   7
ENDBRANCH   1   6
TORSDOF 5
ENDMDL
