MODEL 1
REMARK VINA RESULT:      -4.8      0.000      0.000
REMARK  0 active torsions:
REMARK  status: ('A' for Active; 'I' for Inactive)
ROOT
HETATM    1  C1  UNL     1     -32.772   6.883   4.073  1.00 20.00     0.088 C 
HETATM    2  C2  UNL     1     -35.105   4.951   6.322  1.00 20.00     0.001 C 
HETATM    3  C3  UNL     1     -33.984   6.024   6.322  1.00 20.00     0.010 C 
HETATM    4  C4  UNL     1     -35.349   4.568   4.840  1.00 20.00     0.007 C 
HETATM    5  C5  UNL     1     -33.893   5.483   2.759  1.00 20.00     0.153 C 
HETATM    6  C6  UNL     1     -33.943   6.434   4.876  1.00 20.00     0.031 C 
HETATM    7  C7  UNL     1     -34.091   5.087   4.197  1.00 20.00     0.014 C 
HETATM    8  N8  UNL     1     -32.733   6.428   2.852  1.00 20.00    -0.305 NA
ENDROOT
TORSDOF 0
ENDMDL
MODEL 2
REMARK VINA RESULT:      -4.6      1.715      3.437
REMARK  0 active torsions:
REMARK  status: ('A' for Active; 'I' for Inactive)
ROOT
HETATM    1  C1  UNL     1     -35.315   4.382   4.832  1.00 20.00     0.088 C 
HETATM    2  C2  UNL     1     -32.879   6.512   2.891  1.00 20.00     0.001 C 
HETATM    3  C3  UNL     1     -33.881   5.334   2.758  1.00 20.00     0.010 C 
HETATM    4  C4  UNL     1     -32.940   6.977   4.369  1.00 20.00     0.007 C 
HETATM    5  C5  UNL     1     -34.374   5.759   6.304  1.00 20.00     0.153 C 
HETATM    6  C6  UNL     1     -34.684   5.461   4.023  1.00 20.00     0.031 C 
HETATM    7  C7  UNL     1     -33.590   5.786   5.020  1.00 20.00     0.014 C 
HETATM    8  N8  UNL     1     -35.226   4.537   6.124  1.00 20.00    -0.305 NA
ENDROOT
TORSDOF 0
ENDMDL
MODEL 3
REMARK VINA RESULT:      -4.5      0.217      1.841
REMARK  0 active torsions:
REMARK  status: ('A' for Active; 'I' for Inactive)
ROOT
HETATM    1  C1  UNL     1     -33.682   5.702   2.837  1.00 20.00     0.088 C 
HETATM    2  C2  UNL     1     -35.180   4.942   6.215  1.00 20.00     0.001 C 
HETATM    3  C3  UNL     1     -35.273   4.590   4.706  1.00 20.00     0.010 C 
HETATM    4  C4  UNL     1     -34.025   5.967   6.358  1.00 20.00     0.007 C 
HETATM    5  C5  UNL     1     -32.658   7.037   4.291  1.00 20.00     0.153 C 
HETATM    6  C6  UNL     1     -33.971   5.126   4.179  1.00 20.00     0.031 C 
HETATM    7  C7  UNL     1     -33.878   6.435   4.935  1.00 20.00     0.014 C 
HETATM    8  N8  UNL     1     -32.893   6.740   2.840  1.00 20.00    -0.305 NA
ENDROOT
TORSDOF 0
ENDMDL
MODEL 4
REMARK VINA RESULT:      -4.3      1.715      2.958
REMARK  0 active torsions:
REMARK  status: ('A' for Active; 'I' for Inactive)
ROOT
HETATM    1  C1  UNL     1     -34.335   5.762   6.285  1.00 20.00     0.088 C 
HETATM    2  C2  UNL     1     -32.938   6.584   2.878  1.00 20.00     0.001 C 
HETATM    3  C3  UNL     1     -32.916   7.017   4.369  1.00 20.00     0.010 C 
HETATM    4  C4  UNL     1     -33.864   5.343   2.794  1.00 20.00     0.007 C 
HETATM    5  C5  UNL     1     -35.292   4.351   4.858  1.00 20.00     0.153 C 
HETATM    6  C6  UNL     1     -33.500   5.813   5.054  1.00 20.00     0.031 C 
HETATM    7  C7  UNL     1     -34.616   5.456   4.093  1.00 20.00     0.014 C 
HETATM    8  N8  UNL     1     -35.317   4.906   6.251  1.00 20.00    -0.305 NA
ENDROOT
TORSDOF 0
ENDMDL
MODEL 5
REMARK VINA RESULT:      -4.0     12.097     13.496
REMARK  0 active torsions:
REMARK  status: ('A' for Active; 'I' for Inactive)
ROOT
HETATM    1  C1  UNL     1     -34.926  13.564  -5.595  1.00 20.00     0.088 C 
HETATM    2  C2  UNL     1     -33.412  17.005  -5.276  1.00 20.00     0.001 C 
HETATM    3  C3  UNL     1     -34.035  16.010  -6.291  1.00 20.00     0.010 C 
HETATM    4  C4  UNL     1     -33.466  16.312  -3.890  1.00 20.00     0.007 C 
HETATM    5  C5  UNL     1     -34.292  13.776  -3.474  1.00 20.00     0.153 C 
HETATM    6  C6  UNL     1     -34.717  15.023  -5.385  1.00 20.00     0.031 C 
HETATM    7  C7  UNL     1     -33.676  14.877  -4.294  1.00 20.00     0.014 C 
HETATM    8  N8  UNL     1     -34.764  12.825  -4.533  1.00 20.00    -0.305 NA
ENDROOT
TORSDOF 0
ENDMDL
MODEL 6
REMARK VINA RESULT:      -4.0     12.002     13.315
REMARK  0 active torsions:
REMARK  status: ('A' for Active; 'I' for Inactive)
ROOT
HETATM    1  C1  UNL     1     -34.272  13.648  -3.541  1.00 20.00     0.088 C 
HETATM    2  C2  UNL     1     -33.423  17.005  -5.040  1.00 20.00     0.001 C 
HETATM    3  C3  UNL     1     -33.416  16.197  -3.714  1.00 20.00     0.010 C 
HETATM    4  C4  UNL     1     -33.961  16.049  -6.135  1.00 20.00     0.007 C 
HETATM    5  C5  UNL     1     -34.890  13.556  -5.675  1.00 20.00     0.153 C 
HETATM    6  C6  UNL     1     -33.579  14.786  -4.206  1.00 20.00     0.031 C 
HETATM    7  C7  UNL     1     -34.615  14.986  -5.294  1.00 20.00     0.014 C 
HETATM    8  N8  UNL     1     -34.969  12.886  -4.336  1.00 20.00    -0.305 NA
ENDROOT
TORSDOF 0
ENDMDL
MODEL 7
REMARK VINA RESULT:      -3.8     11.635     12.537
REMARK  0 active torsions:
REMARK  status: ('A' for Active; 'I' for Inactive)
ROOT
HETATM    1  C1  UNL     1     -35.604  13.612  -4.373  1.00 20.00     0.088 C 
HETATM    2  C2  UNL     1     -34.983  16.972  -2.773  1.00 20.00     0.001 C 
HETATM    3  C3  UNL     1     -36.064  16.114  -3.484  1.00 20.00     0.010 C 
HETATM    4  C4  UNL     1     -33.711  16.091  -2.683  1.00 20.00     0.007 C 
HETATM    5  C5  UNL     1     -33.461  13.639  -3.782  1.00 20.00     0.153 C 
HETATM    6  C6  UNL     1     -35.471  14.735  -3.404  1.00 20.00     0.031 C 
HETATM    7  C7  UNL     1     -34.018  15.035  -3.710  1.00 20.00     0.014 C 
HETATM    8  N8  UNL     1     -34.516  12.922  -4.570  1.00 20.00    -0.305 NA
ENDROOT
TORSDOF 0
ENDMDL
MODEL 8
REMARK VINA RESULT:      -3.8     11.681     12.463
REMARK  0 active torsions:
REMARK  status: ('A' for Active; 'I' for Inactive)
ROOT
HETATM    1  C1  UNL     1     -33.751  13.748  -3.797  1.00 20.00     0.088 C 
HETATM    2  C2  UNL     1     -35.019  17.033  -2.442  1.00 20.00     0.001 C 
HETATM    3  C3  UNL     1     -33.766  16.120  -2.519  1.00 20.00     0.010 C 
HETATM    4  C4  UNL     1     -36.136  16.315  -3.243  1.00 20.00     0.007 C 
HETATM    5  C5  UNL     1     -35.907  13.854  -4.328  1.00 20.00     0.153 C 
HETATM    6  C6  UNL     1     -34.132  15.178  -3.631  1.00 20.00     0.031 C 
HETATM    7  C7  UNL     1     -35.590  14.915  -3.309  1.00 20.00     0.014 C 
HETATM    8  N8  UNL     1     -34.696  12.974  -4.251  1.00 20.00    -0.305 NA
ENDROOT
TORSDOF 0
ENDMDL
MODEL 9
REMARK VINA RESULT:      -3.6     11.929     12.713
REMARK  0 active torsions:
REMARK  status: ('A' for Active; 'I' for Inactive)
ROOT
HETATM    1  C1  UNL     1     -37.141  14.717  -3.963  1.00 20.00     0.088 C 
HETATM    2  C2  UNL     1     -33.485  13.794  -3.818  1.00 20.00     0.001 C 
HETATM    3  C3  UNL     1     -34.888  13.260  -4.215  1.00 20.00     0.010 C 
HETATM    4  C4  UNL     1     -33.692  15.249  -3.325  1.00 20.00     0.007 C 
HETATM    5  C5  UNL     1     -36.094  16.446  -3.038  1.00 20.00     0.153 C 
HETATM    6  C6  UNL     1     -35.698  14.524  -4.278  1.00 20.00     0.031 C 
HETATM    7  C7  UNL     1     -35.173  15.256  -3.059  1.00 20.00     0.014 C 
HETATM    8  N8  UNL     1     -37.425  15.817  -3.324  1.00 20.00    -0.305 NA
ENDROOT
TORSDOF 0
ENDMDL
