MODEL 1
REMARK VINA RESULT:      -5.6      0.000      0.000
REMARK  2 active torsions:
REMARK  status: ('A' for Active; 'I' for Inactive)
REMARK    1  A    between atoms: C1_1  and  C3_3 
REMARK    2  A    between atoms: C2_2  and  C4_4 
ROOT
HETATM    1  C4  UNL     1     -34.366  15.076  -2.884  1.00 20.00     0.097 C 
HETATM    2  C5  UNL     1     -35.337  15.221  -4.088  1.00 20.00     0.074 C 
HETATM    3  C6  UNL     1     -33.264  14.708  -3.914  1.00 20.00     0.315 C 
HETATM    4  C7  UNL     1     -34.407  14.248  -4.863  1.00 20.00     0.312 C 
HETATM    5  C8  UNL     1     -36.762  14.754  -3.864  1.00 20.00     0.017 C 
HETATM    6  F10 UNL     1     -32.515  15.733  -4.384  1.00 20.00    -0.199 F 
HETATM    7  F11 UNL     1     -32.404  13.740  -3.529  1.00 20.00    -0.199 F 
HETATM    8  F12 UNL     1     -34.228  14.528  -6.171  1.00 20.00    -0.199 F 
HETATM    9  F13 UNL     1     -34.724  12.935  -4.781  1.00 20.00    -0.199 F 
ENDROOT
BRANCH   1  10
HETATM   10  C2  UNL     1     -34.126  16.304  -2.106  1.00 20.00    -0.012 C 
HETATM   11  C1  UNL     1     -34.661  16.528  -0.900  1.00 20.00     0.038 C 
BRANCH  11  12
HETATM   12  C3  UNL     1     -34.358  17.793  -0.201  1.00 20.00     0.258 C 
HETATM   13  O9  UNL     1     -33.215  18.226  -0.112  1.00 20.00    -0.302 OA
ENDBRANCH  11  12
ENDBRANCH   1  10
TORSDOF 2
ENDMDL
MODEL 2
REMARK VINA RESULT:      -5.3     11.721     12.577
REMARK  2 active torsions:
REMARK  status: ('A' for Active; 'I' for Inactive)
REMARK    1  A    between atoms: C1_1  and  C3_3 
REMARK    2  A    between atoms: C2_2  and  C4_4 
ROOT
HETATM    1  C4  UNL     1     -33.481   5.967   4.399  1.00 20.00     0.097 C 
HETATM    2  C5  UNL     1     -34.061   6.540   5.721  1.00 20.00     0.074 C 
HETATM    3  C6  UNL     1     -34.683   4.984   4.385  1.00 20.00     0.315 C 
HETATM    4  C7  UNL     1     -34.755   5.167   5.928  1.00 20.00     0.312 C 
HETATM    5  C8  UNL     1     -33.054   6.951   6.777  1.00 20.00     0.017 C 
HETATM    6  F10 UNL     1     -35.785   5.393   3.714  1.00 20.00    -0.199 F 
HETATM    7  F11 UNL     1     -34.409   3.731   3.961  1.00 20.00    -0.199 F 
HETATM    8  F12 UNL     1     -35.999   5.212   6.452  1.00 20.00    -0.199 F 
HETATM    9  F13 UNL     1     -34.059   4.253   6.644  1.00 20.00    -0.199 F 
ENDROOT
BRANCH   1  10
HETATM   10  C2  UNL     1     -33.416   6.909   3.268  1.00 20.00    -0.012 C 
HETATM   11  C1  UNL     1     -32.274   7.444   2.820  1.00 20.00     0.038 C 
BRANCH  11  12
HETATM   12  C3  UNL     1     -32.315   8.380   1.679  1.00 20.00     0.258 C 
HETATM   13  O9  UNL     1     -32.529   9.577   1.832  1.00 20.00    -0.302 OA
ENDBRANCH  11  12
ENDBRANCH   1  10
TORSDOF 2
ENDMDL
MODEL 3
REMARK VINA RESULT:      -5.3      2.560      4.134
REMARK  2 active torsions:
REMARK  status: ('A' for Active; 'I' for Inactive)
REMARK    1  A    between atoms: C1_1  and  C3_3 
REMARK    2  A    between atoms: C2_2  and  C4_4 
ROOT
HETATM    1  C4  UNL     1     -35.402  15.163  -4.252  1.00 20.00     0.097 C 
HETATM    2  C5  UNL     1     -34.547  14.924  -2.978  1.00 20.00     0.074 C 
HETATM    3  C6  UNL     1     -34.423  14.215  -4.997  1.00 20.00     0.315 C 
HETATM    4  C7  UNL     1     -33.362  14.590  -3.924  1.00 20.00     0.312 C 
HETATM    5  C8  UNL     1     -34.358  16.114  -2.058  1.00 20.00     0.017 C 
HETATM    6  F10 UNL     1     -34.762  12.905  -5.026  1.00 20.00    -0.199 F 
HETATM    7  F11 UNL     1     -34.119  14.569  -6.264  1.00 20.00    -0.199 F 
HETATM    8  F12 UNL     1     -32.558  13.582  -3.522  1.00 20.00    -0.199 F 
HETATM    9  F13 UNL     1     -32.557  15.627  -4.255  1.00 20.00    -0.199 F 
ENDROOT
BRANCH   1  10
HETATM   10  C2  UNL     1     -36.801  14.704  -4.178  1.00 20.00    -0.012 C 
HETATM   11  C1  UNL     1     -37.812  15.483  -3.776  1.00 20.00     0.038 C 
BRANCH  11  12
HETATM   12  C3  UNL     1     -39.178  14.927  -3.736  1.00 20.00     0.258 C 
HETATM   13  O9  UNL     1     -39.543  14.051  -4.511  1.00 20.00    -0.302 OA
ENDBRANCH  11  12
ENDBRANCH   1  10
TORSDOF 2
ENDMDL
MODEL 4
REMARK VINA RESULT:      -5.2     11.014     11.789
REMARK  2 active torsions:
REMARK  status: ('A' for Active; 'I' for Inactive)
REMARK    1  A    between atoms: C1_1  and  C3_3 
REMARK    2  A    between atoms: C2_2  and  C4_4 
ROOT
HETATM    1  C4  UNL     1     -33.241   6.229   3.878  1.00 20.00     0.097 C 
HETATM    2  C5  UNL     1     -34.344   6.396   4.959  1.00 20.00     0.074 C 
HETATM    3  C6  UNL     1     -34.248   5.346   3.093  1.00 20.00     0.315 C 
HETATM    4  C7  UNL     1     -34.940   5.054   4.455  1.00 20.00     0.312 C 
HETATM    5  C8  UNL     1     -33.877   6.426   6.401  1.00 20.00     0.017 C 
HETATM    6  F10 UNL     1     -35.026   5.984   2.188  1.00 20.00    -0.199 F 
HETATM    7  F11 UNL     1     -33.720   4.272   2.467  1.00 20.00    -0.199 F 
HETATM    8  F12 UNL     1     -36.288   4.988   4.422  1.00 20.00    -0.199 F 
HETATM    9  F13 UNL     1     -34.507   3.939   5.088  1.00 20.00    -0.199 F 
ENDROOT
BRANCH   1  10
HETATM   10  C2  UNL     1     -32.816   7.467   3.201  1.00 20.00    -0.012 C 
HETATM   11  C1  UNL     1     -32.134   7.480   2.049  1.00 20.00     0.038 C 
BRANCH  11  12
HETATM   12  C3  UNL     1     -31.754   8.775   1.452  1.00 20.00     0.258 C 
HETATM   13  O9  UNL     1     -32.500   9.747   1.485  1.00 20.00    -0.302 OA
ENDBRANCH  11  12
ENDBRANCH   1  10
TORSDOF 2
ENDMDL
MODEL 5
REMARK VINA RESULT:      -5.0      1.451      2.640
REMARK  2 active torsions:
REMARK  status: ('A' for Active; 'I' for Inactive)
REMARK    1  A    between atoms: C1_1  and  C3_3 
REMARK    2  A    between atoms: C2_2  and  C4_4 
ROOT
HETATM    1  C4  UNL     1     -34.845  15.987  -3.528  1.00 20.00     0.097 C 
HETATM    2  C5  UNL     1     -34.079  14.651  -3.324  1.00 20.00     0.074 C 
HETATM    3  C6  UNL     1     -36.030  15.138  -4.063  1.00 20.00     0.315 C 
HETATM    4  C7  UNL     1     -34.986  14.045  -4.428  1.00 20.00     0.312 C 
HETATM    5  C8  UNL     1     -32.591  14.676  -3.615  1.00 20.00     0.017 C 
HETATM    6  F10 UNL     1     -36.955  14.757  -3.151  1.00 20.00    -0.199 F 
HETATM    7  F11 UNL     1     -36.705  15.669  -5.106  1.00 20.00    -0.199 F 
HETATM    8  F12 UNL     1     -35.382  12.770  -4.226  1.00 20.00    -0.199 F 
HETATM    9  F13 UNL     1     -34.507  14.113  -5.692  1.00 20.00    -0.199 F 
ENDROOT
BRANCH   1  10
HETATM   10  C2  UNL     1     -35.117  16.761  -2.304  1.00 20.00    -0.012 C 
HETATM   11  C1  UNL     1     -34.597  16.457  -1.109  1.00 20.00     0.038 C 
BRANCH  11  12
HETATM   12  C3  UNL     1     -34.933  17.296   0.058  1.00 20.00     0.258 C 
HETATM   13  O9  UNL     1     -34.075  17.905   0.686  1.00 20.00    -0.302 OA
ENDBRANCH  11  12
ENDBRANCH   1  10
TORSDOF 2
ENDMDL
MODEL 6
REMARK VINA RESULT:      -5.0     12.166     13.582
REMARK  2 active torsions:
REMARK  status: ('A' for Active; 'I' for Inactive)
REMARK    1  A    between atoms: C1_1  and  C3_3 
REMARK    2  A    between atoms: C2_2  and  C4_4 
ROOT
HETATM    1  C4  UNL     1     -41.331   5.480  -1.636  1.00 20.00     0.097 C 
HETATM    2  C5  UNL     1     -42.609   6.302  -1.960  1.00 20.00     0.074 C 
HETATM    3  C6  UNL     1     -41.509   5.926  -0.159  1.00 20.00     0.315 C 
HETATM    4  C7  UNL     1     -42.292   7.155  -0.702  1.00 20.00     0.312 C 
HETATM    5  C8  UNL     1     -42.621   7.036  -3.286  1.00 20.00     0.017 C 
HETATM    6  F10 UNL     1     -42.230   5.100   0.634  1.00 20.00    -0.199 F 
HETATM    7  F11 UNL     1     -40.369   6.211   0.507  1.00 20.00    -0.199 F 
HETATM    8  F12 UNL     1     -43.360   7.536   0.031  1.00 20.00    -0.199 F 
HETATM    9  F13 UNL     1     -41.543   8.263  -0.911  1.00 20.00    -0.199 F 
ENDROOT
BRANCH   1  10
HETATM   10  C2  UNL     1     -41.425   4.030  -1.880  1.00 20.00    -0.012 C 
HETATM   11  C1  UNL     1     -42.125   3.496  -2.887  1.00 20.00     0.038 C 
BRANCH  11  12
HETATM   12  C3  UNL     1     -42.157   2.029  -3.044  1.00 20.00     0.258 C 
HETATM   13  O9  UNL     1     -41.376   1.440  -3.784  1.00 20.00    -0.302 OA
ENDBRANCH  11  12
ENDBRANCH   1  10
TORSDOF 2
ENDMDL
MODEL 7
REMARK VINA RESULT:      -4.9      1.140      1.182
REMARK  2 active torsions:
REMARK  status: ('A' for Active; 'I' for Inactive)
REMARK    1  A    between atoms: C1_1  and  C3_3 
REMARK    2  A    between atoms: C2_2  and  C4_4 
ROOT
HETATM    1  C4  UNL     1     -34.890  15.015  -3.349  1.00 20.00     0.097 C 
HETATM    2  C5  UNL     1     -35.211  15.979  -4.523  1.00 20.00     0.074 C 
HETATM    3  C6  UNL     1     -33.620  14.597  -4.138  1.00 20.00     0.315 C 
HETATM    4  C7  UNL     1     -34.365  15.044  -5.428  1.00 20.00     0.312 C 
HETATM    5  C8  UNL     1     -36.674  16.128  -4.892  1.00 20.00     0.017 C 
HETATM    6  F10 UNL     1     -32.489  15.290  -3.868  1.00 20.00    -0.199 F 
HETATM    7  F11 UNL     1     -33.299  13.286  -4.077  1.00 20.00    -0.199 F 
HETATM    8  F12 UNL     1     -33.603  15.660  -6.357  1.00 20.00    -0.199 F 
HETATM    9  F13 UNL     1     -35.044  14.061  -6.065  1.00 20.00    -0.199 F 
ENDROOT
BRANCH   1  10
HETATM   10  C2  UNL     1     -34.646  15.656  -2.044  1.00 20.00    -0.012 C 
HETATM   11  C1  UNL     1     -34.434  16.969  -1.896  1.00 20.00     0.038 C 
BRANCH  11  12
HETATM   12  C3  UNL     1     -34.198  17.513  -0.545  1.00 20.00     0.258 C 
HETATM   13  O9  UNL     1     -34.892  17.191   0.413  1.00 20.00    -0.302 OA
ENDBRANCH  11  12
ENDBRANCH   1  10
TORSDOF 2
ENDMDL
MODEL 8
REMARK VINA RESULT:      -4.8      3.482      4.961
REMARK  2 active torsions:
REMARK  status: ('A' for Active; 'I' for Inactive)
REMARK    1  A    between atoms: C1_1  and  C3_3 
REMARK    2  A    between atoms: C2_2  and  C4_4 
ROOT
HETATM    1  C4  UNL     1     -34.327  14.699  -5.886  1.00 20.00     0.097 C 
HETATM    2  C5  UNL     1     -34.467  15.882  -4.890  1.00 20.00     0.074 C 
HETATM    3  C6  UNL     1     -34.421  13.752  -4.659  1.00 20.00     0.315 C 
HETATM    4  C7  UNL     1     -33.897  14.937  -3.798  1.00 20.00     0.312 C 
HETATM    5  C8  UNL     1     -33.652  17.123  -5.198  1.00 20.00     0.017 C 
HETATM    6  F10 UNL     1     -35.660  13.318  -4.330  1.00 20.00    -0.199 F 
HETATM    7  F11 UNL     1     -33.622  12.664  -4.698  1.00 20.00    -0.199 F 
HETATM    8  F12 UNL     1     -34.450  15.057  -2.572  1.00 20.00    -0.199 F 
HETATM    9  F13 UNL     1     -32.554  14.969  -3.629  1.00 20.00    -0.199 F 
ENDROOT
BRANCH   1  10
HETATM   10  C2  UNL     1     -35.410  14.566  -6.877  1.00 20.00    -0.012 C 
HETATM   11  C1  UNL     1     -36.504  15.337  -6.881  1.00 20.00     0.038 C 
BRANCH  11  12
HETATM   12  C3  UNL     1     -37.532  15.123  -7.917  1.00 20.00     0.258 C 
HETATM   13  O9  UNL     1     -38.606  14.589  -7.664  1.00 20.00    -0.302 OA
ENDBRANCH  11  12
ENDBRANCH   1  10
TORSDOF 2
ENDMDL
MODEL 9
REMARK VINA RESULT:      -4.8     11.053     12.288
REMARK  2 active torsions:
REMARK  status: ('A' for Active; 'I' for Inactive)
REMARK    1  A    between atoms: C1_1  and  C3_3 
REMARK    2  A    between atoms: C2_2  and  C4_4 
ROOT
HETATM    1  C4  UNL     1     -42.417   6.478  -2.038  1.00 20.00     0.097 C 
HETATM    2  C5  UNL     1     -41.286   5.508  -1.601  1.00 20.00     0.074 C 
HETATM    3  C6  UNL     1     -42.112   7.294  -0.753  1.00 20.00     0.315 C 
HETATM    4  C7  UNL     1     -41.541   5.982  -0.145  1.00 20.00     0.312 C 
HETATM    5  C8  UNL     1     -41.515   4.035  -1.879  1.00 20.00     0.017 C 
HETATM    6  F10 UNL     1     -41.214   8.298  -0.878  1.00 20.00    -0.199 F 
HETATM    7  F11 UNL     1     -43.188   7.808  -0.118  1.00 20.00    -0.199 F 
HETATM    8  F12 UNL     1     -40.441   6.126   0.625  1.00 20.00    -0.199 F 
HETATM    9  F13 UNL     1     -42.427   5.250   0.570  1.00 20.00    -0.199 F 
ENDROOT
BRANCH   1  10
HETATM   10  C2  UNL     1     -42.194   7.188  -3.311  1.00 20.00    -0.012 C 
HETATM   11  C1  UNL     1     -43.003   8.151  -3.768  1.00 20.00     0.038 C 
BRANCH  11  12
HETATM   12  C3  UNL     1     -42.693   8.800  -5.057  1.00 20.00     0.258 C 
HETATM   13  O9  UNL     1     -41.543   9.066  -5.388  1.00 20.00    -0.302 OA
ENDBRANCH  11  12
ENDBRANCH   1  10
TORSDOF 2
ENDMDL
