MODEL 1
REMARK VINA RESULT:      -5.1      0.000      0.000
REMARK  1 active torsions:
REMARK  status: ('A' for Active; 'I' for Inactive)
REMARK    1  A    between atoms: N9_9  and  O10_10 
ROOT
HETATM    1  C1  UNL     1     -34.061  14.442  -4.119  1.00 20.00     0.044 C 
HETATM    2  C2  UNL     1     -33.110  15.515  -3.624  1.00 20.00     0.058 C 
HETATM    3  C3  UNL     1     -33.335  16.643  -4.659  1.00 20.00     0.011 C 
HETATM    4  C4  UNL     1     -35.181  15.174  -7.654  1.00 20.00     0.001 C 
HETATM    5  C5  UNL     1     -35.176  14.101  -6.536  1.00 20.00     0.011 C 
HETATM    6  C6  UNL     1     -34.493  16.431  -7.067  1.00 20.00     0.005 C 
HETATM    7  C7  UNL     1     -34.831  14.906  -5.311  1.00 20.00     0.040 C 
HETATM    8  C8  UNL     1     -33.772  15.855  -5.876  1.00 20.00    -0.004 C 
HETATM    9  N9  UNL     1     -34.197  13.296  -3.548  1.00 20.00    -0.145 NA
ENDROOT
BRANCH   9  10
HETATM   10  O10 UNL     1     -35.148  12.558  -4.258  1.00 20.00    -0.266 OA
HETATM   11  H23 UNL     1     -35.977  12.978  -3.973  1.00 20.00     0.247 HD
ENDBRANCH   9  10
TORSDOF 1
ENDMDL
MODEL 2
REMARK VINA RESULT:      -4.9     12.325     13.771
REMARK  1 active torsions:
REMARK  status: ('A' for Active; 'I' for Inactive)
REMARK    1  A    between atoms: N9_9  and  O10_10 
ROOT
HETATM    1  C1  UNL     1     -34.155   6.004   6.099  1.00 20.00     0.044 C 
HETATM    2  C2  UNL     1     -35.280   4.987   6.104  1.00 20.00     0.058 C 
HETATM    3  C3  UNL     1     -35.120   4.327   4.715  1.00 20.00     0.011 C 
HETATM    4  C4  UNL     1     -32.845   6.531   2.594  1.00 20.00     0.001 C 
HETATM    5  C5  UNL     1     -32.802   7.075   4.044  1.00 20.00     0.011 C 
HETATM    6  C6  UNL     1     -33.742   5.270   2.617  1.00 20.00     0.005 C 
HETATM    7  C7  UNL     1     -33.355   5.924   4.841  1.00 20.00     0.040 C 
HETATM    8  C8  UNL     1     -34.479   5.446   3.920  1.00 20.00    -0.004 C 
HETATM    9  N9  UNL     1     -33.916   6.804   7.080  1.00 20.00    -0.145 NA
ENDROOT
BRANCH   9  10
HETATM   10  O10 UNL     1     -32.819   7.601   6.745  1.00 20.00    -0.266 OA
HETATM   11  H23 UNL     1     -32.428   7.099   6.009  1.00 20.00     0.247 HD
ENDBRANCH   9  10
TORSDOF 1
ENDMDL
MODEL 3
REMARK VINA RESULT:      -4.9      1.038      2.728
REMARK  1 active torsions:
REMARK  status: ('A' for Active; 'I' for Inactive)
REMARK    1  A    between atoms: N9_9  and  O10_10 
ROOT
HETATM    1  C1  UNL     1     -34.521  14.033  -5.295  1.00 20.00     0.044 C 
HETATM    2  C2  UNL     1     -34.794  14.392  -6.744  1.00 20.00     0.058 C 
HETATM    3  C3  UNL     1     -34.236  15.831  -6.828  1.00 20.00     0.011 C 
HETATM    4  C4  UNL     1     -33.725  17.129  -3.279  1.00 20.00     0.001 C 
HETATM    5  C5  UNL     1     -34.054  15.618  -3.181  1.00 20.00     0.011 C 
HETATM    6  C6  UNL     1     -33.670  17.476  -4.787  1.00 20.00     0.005 C 
HETATM    7  C7  UNL     1     -33.809  15.138  -4.587  1.00 20.00     0.040 C 
HETATM    8  C8  UNL     1     -34.390  16.300  -5.396  1.00 20.00    -0.004 C 
HETATM    9  N9  UNL     1     -34.840  12.901  -4.772  1.00 20.00    -0.145 NA
ENDROOT
BRANCH   9  10
HETATM   10  O10 UNL     1     -34.447  12.906  -3.431  1.00 20.00    -0.266 OA
HETATM   11  H23 UNL     1     -35.299  13.020  -2.976  1.00 20.00     0.247 HD
ENDBRANCH   9  10
TORSDOF 1
ENDMDL
MODEL 4
REMARK VINA RESULT:      -4.8      2.259      2.639
REMARK  1 active torsions:
REMARK  status: ('A' for Active; 'I' for Inactive)
REMARK    1  A    between atoms: N9_9  and  O10_10 
ROOT
HETATM    1  C1  UNL     1     -34.189  14.306  -3.744  1.00 20.00     0.044 C 
HETATM    2  C2  UNL     1     -33.014  15.259  -3.630  1.00 20.00     0.058 C 
HETATM    3  C3  UNL     1     -33.688  16.529  -3.061  1.00 20.00     0.011 C 
HETATM    4  C4  UNL     1     -37.461  16.178  -3.481  1.00 20.00     0.001 C 
HETATM    5  C5  UNL     1     -36.823  14.810  -3.833  1.00 20.00     0.011 C 
HETATM    6  C6  UNL     1     -36.306  17.107  -3.034  1.00 20.00     0.005 C 
HETATM    7  C7  UNL     1     -35.446  14.929  -3.235  1.00 20.00     0.040 C 
HETATM    8  C8  UNL     1     -35.103  16.379  -3.578  1.00 20.00    -0.004 C 
HETATM    9  N9  UNL     1     -34.086  13.103  -4.195  1.00 20.00    -0.145 NA
ENDROOT
BRANCH   9  10
HETATM   10  O10 UNL     1     -35.350  12.509  -4.163  1.00 20.00    -0.266 OA
HETATM   11  H23 UNL     1     -35.124  11.572  -4.040  1.00 20.00     0.247 HD
ENDBRANCH   9  10
TORSDOF 1
ENDMDL
MODEL 5
REMARK VINA RESULT:      -4.7     12.134     13.533
REMARK  1 active torsions:
REMARK  status: ('A' for Active; 'I' for Inactive)
REMARK    1  A    between atoms: N9_9  and  O10_10 
ROOT
HETATM    1  C1  UNL     1     -32.584   6.743   3.609  1.00 20.00     0.044 C 
HETATM    2  C2  UNL     1     -32.918   5.945   2.363  1.00 20.00     0.058 C 
HETATM    3  C3  UNL     1     -34.250   5.270   2.763  1.00 20.00     0.011 C 
HETATM    4  C4  UNL     1     -34.663   5.575   6.541  1.00 20.00     0.001 C 
HETATM    5  C5  UNL     1     -33.456   6.456   6.131  1.00 20.00     0.011 C 
HETATM    6  C6  UNL     1     -35.249   4.987   5.235  1.00 20.00     0.005 C 
HETATM    7  C7  UNL     1     -33.650   6.605   4.645  1.00 20.00     0.040 C 
HETATM    8  C8  UNL     1     -34.111   5.195   4.270  1.00 20.00    -0.004 C 
HETATM    9  N9  UNL     1     -31.526   7.468   3.726  1.00 20.00    -0.145 NA
ENDROOT
BRANCH   9  10
HETATM   10  O10 UNL     1     -31.532   8.060   4.991  1.00 20.00    -0.266 OA
HETATM   11  H23 UNL     1     -32.078   8.849   4.837  1.00 20.00     0.247 HD
ENDBRANCH   9  10
TORSDOF 1
ENDMDL
MODEL 6
REMARK VINA RESULT:      -4.6      2.634      3.696
REMARK  1 active torsions:
REMARK  status: ('A' for Active; 'I' for Inactive)
REMARK    1  A    between atoms: N9_9  and  O10_10 
ROOT
HETATM    1  C1  UNL     1     -36.126  14.235  -3.802  1.00 20.00     0.044 C 
HETATM    2  C2  UNL     1     -35.149  13.388  -4.595  1.00 20.00     0.058 C 
HETATM    3  C3  UNL     1     -33.787  13.916  -4.092  1.00 20.00     0.011 C 
HETATM    4  C4  UNL     1     -34.376  17.211  -2.266  1.00 20.00     0.001 C 
HETATM    5  C5  UNL     1     -35.762  16.582  -2.553  1.00 20.00     0.011 C 
HETATM    6  C6  UNL     1     -33.315  16.206  -2.779  1.00 20.00     0.005 C 
HETATM    7  C7  UNL     1     -35.414  15.150  -2.862  1.00 20.00     0.040 C 
HETATM    8  C8  UNL     1     -34.140  15.333  -3.689  1.00 20.00    -0.004 C 
HETATM    9  N9  UNL     1     -37.406  14.136  -3.914  1.00 20.00    -0.145 NA
ENDROOT
BRANCH   9  10
HETATM   10  O10 UNL     1     -37.998  15.055  -3.045  1.00 20.00    -0.266 OA
HETATM   11  H23 UNL     1     -38.661  14.503  -2.596  1.00 20.00     0.247 HD
ENDBRANCH   9  10
TORSDOF 1
ENDMDL
MODEL 7
REMARK VINA RESULT:      -4.6     12.499     13.622
REMARK  1 active torsions:
REMARK  status: ('A' for Active; 'I' for Inactive)
REMARK    1  A    between atoms: N9_9  and  O10_10 
ROOT
HETATM    1  C1  UNL     1     -34.642   5.245   5.677  1.00 20.00     0.044 C 
HETATM    2  C2  UNL     1     -34.157   6.162   6.784  1.00 20.00     0.058 C 
HETATM    3  C3  UNL     1     -33.452   7.282   5.986  1.00 20.00     0.011 C 
HETATM    4  C4  UNL     1     -32.908   6.053   2.417  1.00 20.00     0.001 C 
HETATM    5  C5  UNL     1     -33.820   5.024   3.131  1.00 20.00     0.011 C 
HETATM    6  C6  UNL     1     -32.649   7.197   3.429  1.00 20.00     0.005 C 
HETATM    7  C7  UNL     1     -34.307   5.795   4.330  1.00 20.00     0.040 C 
HETATM    8  C8  UNL     1     -33.034   6.543   4.731  1.00 20.00    -0.004 C 
HETATM    9  N9  UNL     1     -35.288   4.152   5.891  1.00 20.00    -0.145 NA
ENDROOT
BRANCH   9  10
HETATM   10  O10 UNL     1     -35.578   3.559   4.660  1.00 20.00    -0.266 OA
HETATM   11  H23 UNL     1     -35.686   4.338   4.087  1.00 20.00     0.247 HD
ENDBRANCH   9  10
TORSDOF 1
ENDMDL
MODEL 8
REMARK VINA RESULT:      -4.4      2.276      3.580
REMARK  1 active torsions:
REMARK  status: ('A' for Active; 'I' for Inactive)
REMARK    1  A    between atoms: N9_9  and  O10_10 
ROOT
HETATM    1  C1  UNL     1     -35.563  14.108  -4.077  1.00 20.00     0.044 C 
HETATM    2  C2  UNL     1     -37.051  14.395  -4.142  1.00 20.00     0.058 C 
HETATM    3  C3  UNL     1     -37.103  15.895  -3.769  1.00 20.00     0.011 C 
HETATM    4  C4  UNL     1     -33.746  16.871  -2.249  1.00 20.00     0.001 C 
HETATM    5  C5  UNL     1     -33.597  15.443  -2.831  1.00 20.00     0.011 C 
HETATM    6  C6  UNL     1     -35.181  17.343  -2.588  1.00 20.00     0.005 C 
HETATM    7  C7  UNL     1     -34.785  15.339  -3.750  1.00 20.00     0.040 C 
HETATM    8  C8  UNL     1     -35.860  16.038  -2.916  1.00 20.00    -0.004 C 
HETATM    9  N9  UNL     1     -35.053  12.948  -4.311  1.00 20.00    -0.145 NA
ENDROOT
BRANCH   9  10
HETATM   10  O10 UNL     1     -33.666  13.037  -4.165  1.00 20.00    -0.266 OA
HETATM   11  H23 UNL     1     -33.567  13.912  -3.753  1.00 20.00     0.247 HD
ENDBRANCH   9  10
TORSDOF 1
ENDMDL
MODEL 9
REMARK VINA RESULT:      -4.4      2.698      3.215
REMARK  1 active torsions:
REMARK  status: ('A' for Active; 'I' for Inactive)
REMARK    1  A    between atoms: N9_9  and  O10_10 
ROOT
HETATM    1  C1  UNL     1     -36.431  15.692  -3.235  1.00 20.00     0.044 C 
HETATM    2  C2  UNL     1     -36.036  17.010  -2.598  1.00 20.00     0.058 C 
HETATM    3  C3  UNL     1     -34.516  17.057  -2.875  1.00 20.00     0.011 C 
HETATM    4  C4  UNL     1     -33.380  13.571  -3.921  1.00 20.00     0.001 C 
HETATM    5  C5  UNL     1     -34.928  13.564  -3.879  1.00 20.00     0.011 C 
HETATM    6  C6  UNL     1     -32.931  15.015  -3.588  1.00 20.00     0.005 C 
HETATM    7  C7  UNL     1     -35.262  15.032  -3.889  1.00 20.00     0.040 C 
HETATM    8  C8  UNL     1     -34.178  15.583  -2.960  1.00 20.00    -0.004 C 
HETATM    9  N9  UNL     1     -37.635  15.234  -3.232  1.00 20.00    -0.145 NA
ENDROOT
BRANCH   9  10
HETATM   10  O10 UNL     1     -37.644  14.007  -3.901  1.00 20.00    -0.266 OA
HETATM   11  H23 UNL     1     -38.323  13.518  -3.406  1.00 20.00     0.247 HD
ENDBRANCH   9  10
TORSDOF 1
ENDMDL
