MODEL 1
REMARK VINA RESULT:      -3.7      0.000      0.000
REMARK  1 active torsions:
REMARK  status: ('A' for Active; 'I' for Inactive)
REMARK    1  A    between atoms: C2_2  and  O6_6 
ROOT
HETATM    1  C1  UNL     1     -33.522   4.839   5.441  1.00 20.00     0.106 A 
HETATM    2  C2  UNL     1     -34.360   5.782   4.619  1.00 20.00     0.111 A 
HETATM    3  C3  UNL     1     -34.354   5.892   6.123  1.00 20.00     0.212 A 
HETATM    4  C4  UNL     1     -35.568   5.273   3.907  1.00 20.00     0.051 C 
HETATM    5  F7  UNL     1     -35.488   5.428   6.782  1.00 20.00    -0.222 F 
HETATM    6 CL8  UNL     1     -33.531   7.231   6.903  1.00 20.00    -0.079 Cl
ENDROOT
BRANCH   2   7
HETATM    7  O6  UNL     1     -33.632   6.777   3.875  1.00 20.00    -0.381 OA
HETATM    8  C5  UNL     1     -32.598   6.182   3.115  1.00 20.00     0.202 C 
ENDBRANCH   2   7
TORSDOF 1
ENDMDL
MODEL 2
REMARK VINA RESULT:      -3.7      2.541      3.239
REMARK  1 active torsions:
REMARK  status: ('A' for Active; 'I' for Inactive)
REMARK    1  A    between atoms: C2_2  and  O6_6 
ROOT
HETATM    1  C1  UNL     1     -35.259   6.188   3.309  1.00 20.00     0.106 A 
HETATM    2  C2  UNL     1     -34.499   5.461   4.386  1.00 20.00     0.111 A 
HETATM    3  C3  UNL     1     -33.879   5.657   3.025  1.00 20.00     0.212 A 
HETATM    4  C4  UNL     1     -34.941   4.104   4.821  1.00 20.00     0.051 C 
HETATM    5  F7  UNL     1     -33.823   4.537   2.202  1.00 20.00    -0.222 F 
HETATM    6 CL8  UNL     1     -32.570   6.807   2.813  1.00 20.00    -0.079 Cl
ENDROOT
BRANCH   2   7
HETATM    7  O6  UNL     1     -34.009   6.279   5.464  1.00 20.00    -0.381 OA
HETATM    8  C5  UNL     1     -34.482   5.805   6.711  1.00 20.00     0.202 C 
ENDBRANCH   2   7
TORSDOF 1
ENDMDL
MODEL 3
REMARK VINA RESULT:      -3.5     12.274     12.869
REMARK  1 active torsions:
REMARK  status: ('A' for Active; 'I' for Inactive)
REMARK    1  A    between atoms: C2_2  and  O6_6 
ROOT
HETATM    1  C1  UNL     1     -34.274  15.851  -4.646  1.00 20.00     0.106 A 
HETATM    2  C2  UNL     1     -34.877  14.743  -3.824  1.00 20.00     0.111 A 
HETATM    3  C3  UNL     1     -33.641  15.457  -3.337  1.00 20.00     0.212 A 
HETATM    4  C4  UNL     1     -34.789  13.332  -4.302  1.00 20.00     0.051 C 
HETATM    5  F7  UNL     1     -32.442  14.758  -3.436  1.00 20.00    -0.222 F 
HETATM    6 CL8  UNL     1     -33.746  16.576  -1.990  1.00 20.00    -0.079 Cl
ENDROOT
BRANCH   2   7
HETATM    7  O6  UNL     1     -36.124  15.054  -3.177  1.00 20.00    -0.381 OA
HETATM    8  C5  UNL     1     -37.221  14.656  -3.978  1.00 20.00     0.202 C 
ENDBRANCH   2   7
TORSDOF 1
ENDMDL
MODEL 4
REMARK VINA RESULT:      -3.5     12.396     13.217
REMARK  1 active torsions:
REMARK  status: ('A' for Active; 'I' for Inactive)
REMARK    1  A    between atoms: C2_2  and  O6_6 
ROOT
HETATM    1  C1  UNL     1     -33.584  13.913  -3.762  1.00 20.00     0.106 A 
HETATM    2  C2  UNL     1     -33.954  15.071  -4.650  1.00 20.00     0.111 A 
HETATM    3  C3  UNL     1     -34.775  14.769  -3.421  1.00 20.00     0.212 A 
HETATM    4  C4  UNL     1     -34.514  14.815  -6.009  1.00 20.00     0.051 C 
HETATM    5  F7  UNL     1     -36.018  14.181  -3.635  1.00 20.00    -0.222 F 
HETATM    6 CL8  UNL     1     -34.676  15.817  -2.018  1.00 20.00    -0.079 Cl
ENDROOT
BRANCH   2   7
HETATM    7  O6  UNL     1     -33.070  16.206  -4.597  1.00 20.00    -0.381 OA
HETATM    8  C5  UNL     1     -33.511  17.229  -5.470  1.00 20.00     0.202 C 
ENDBRANCH   2   7
TORSDOF 1
ENDMDL
MODEL 5
REMARK VINA RESULT:      -3.5     10.308     10.808
REMARK  1 active torsions:
REMARK  status: ('A' for Active; 'I' for Inactive)
REMARK    1  A    between atoms: C2_2  and  O6_6 
ROOT
HETATM    1  C1  UNL     1     -42.515   4.654  -0.870  1.00 20.00     0.106 A 
HETATM    2  C2  UNL     1     -41.932   5.608  -1.878  1.00 20.00     0.111 A 
HETATM    3  C3  UNL     1     -41.321   4.242  -1.690  1.00 20.00     0.212 A 
HETATM    4  C4  UNL     1     -41.205   6.826  -1.414  1.00 20.00     0.051 C 
HETATM    5  F7  UNL     1     -40.110   4.193  -1.006  1.00 20.00    -0.222 F 
HETATM    6 CL8  UNL     1     -41.537   3.006  -2.916  1.00 20.00    -0.079 Cl
ENDROOT
BRANCH   2   7
HETATM    7  O6  UNL     1     -42.722   5.826  -3.061  1.00 20.00    -0.381 OA
HETATM    8  C5  UNL     1     -42.692   7.188  -3.443  1.00 20.00     0.202 C 
ENDBRANCH   2   7
TORSDOF 1
ENDMDL
MODEL 6
REMARK VINA RESULT:      -3.5      2.869      3.544
REMARK  1 active torsions:
REMARK  status: ('A' for Active; 'I' for Inactive)
REMARK    1  A    between atoms: C2_2  and  O6_6 
ROOT
HETATM    1  C1  UNL     1     -32.123   5.810   3.284  1.00 20.00     0.106 A 
HETATM    2  C2  UNL     1     -33.245   6.525   3.988  1.00 20.00     0.111 A 
HETATM    3  C3  UNL     1     -32.116   7.314   3.372  1.00 20.00     0.212 A 
HETATM    4  C4  UNL     1     -33.371   6.429   5.472  1.00 20.00     0.051 C 
HETATM    5  F7  UNL     1     -31.189   7.860   4.253  1.00 20.00    -0.222 F 
HETATM    6 CL8  UNL     1     -32.388   8.237   1.905  1.00 20.00    -0.079 Cl
ENDROOT
BRANCH   2   7
HETATM    7  O6  UNL     1     -34.511   6.528   3.303  1.00 20.00    -0.381 OA
HETATM    8  C5  UNL     1     -35.312   5.439   3.720  1.00 20.00     0.202 C 
ENDBRANCH   2   7
TORSDOF 1
ENDMDL
MODEL 7
REMARK VINA RESULT:      -3.4     12.779     13.231
REMARK  1 active torsions:
REMARK  status: ('A' for Active; 'I' for Inactive)
REMARK    1  A    between atoms: C2_2  and  O6_6 
ROOT
HETATM    1  C1  UNL     1     -32.805  14.743  -3.635  1.00 20.00     0.106 A 
HETATM    2  C2  UNL     1     -33.931  15.719  -3.419  1.00 20.00     0.111 A 
HETATM    3  C3  UNL     1     -34.051  14.650  -4.476  1.00 20.00     0.212 A 
HETATM    4  C4  UNL     1     -33.760  17.148  -3.812  1.00 20.00     0.051 C 
HETATM    5  F7  UNL     1     -33.918  15.067  -5.796  1.00 20.00    -0.222 F 
HETATM    6 CL8  UNL     1     -35.126  13.286  -4.227  1.00 20.00    -0.079 Cl
ENDROOT
BRANCH   2   7
HETATM    7  O6  UNL     1     -34.685  15.543  -2.205  1.00 20.00    -0.381 OA
HETATM    8  C5  UNL     1     -34.437  16.602  -1.300  1.00 20.00     0.202 C 
ENDBRANCH   2   7
TORSDOF 1
ENDMDL
MODEL 8
REMARK VINA RESULT:      -3.4     12.575     13.141
REMARK  1 active torsions:
REMARK  status: ('A' for Active; 'I' for Inactive)
REMARK    1  A    between atoms: C2_2  and  O6_6 
ROOT
HETATM    1  C1  UNL     1     -32.739  14.786  -3.665  1.00 20.00     0.106 A 
HETATM    2  C2  UNL     1     -34.080  14.673  -4.339  1.00 20.00     0.111 A 
HETATM    3  C3  UNL     1     -33.853  15.725  -3.282  1.00 20.00     0.212 A 
HETATM    4  C4  UNL     1     -34.957  13.500  -4.056  1.00 20.00     0.051 C 
HETATM    5  F7  UNL     1     -34.436  15.491  -2.041  1.00 20.00    -0.222 F 
HETATM    6 CL8  UNL     1     -33.715  17.413  -3.738  1.00 20.00    -0.079 Cl
ENDROOT
BRANCH   2   7
HETATM    7  O6  UNL     1     -34.127  15.107  -5.711  1.00 20.00    -0.381 OA
HETATM    8  C5  UNL     1     -35.065  14.347  -6.449  1.00 20.00     0.202 C 
ENDBRANCH   2   7
TORSDOF 1
ENDMDL
MODEL 9
REMARK VINA RESULT:      -3.4     12.841     13.326
REMARK  1 active torsions:
REMARK  status: ('A' for Active; 'I' for Inactive)
REMARK    1  A    between atoms: C2_2  and  O6_6 
ROOT
HETATM    1  C1  UNL     1     -33.765  13.816  -3.867  1.00 20.00     0.106 A 
HETATM    2  C2  UNL     1     -34.936  14.741  -3.668  1.00 20.00     0.111 A 
HETATM    3  C3  UNL     1     -33.963  14.986  -4.794  1.00 20.00     0.212 A 
HETATM    4  C4  UNL     1     -34.967  15.657  -2.490  1.00 20.00     0.051 C 
HETATM    5  F7  UNL     1     -33.073  16.042  -4.626  1.00 20.00    -0.222 F 
HETATM    6 CL8  UNL     1     -34.439  14.665  -6.452  1.00 20.00    -0.079 Cl
ENDROOT
BRANCH   2   7
HETATM    7  O6  UNL     1     -36.225  14.199  -4.008  1.00 20.00    -0.381 OA
HETATM    8  C5  UNL     1     -37.262  15.074  -3.606  1.00 20.00     0.202 C 
ENDBRANCH   2   7
TORSDOF 1
ENDMDL
