MODEL 1
REMARK VINA RESULT:      -4.5      0.000      0.000
REMARK  2 active torsions:
REMARK  status: ('A' for Active; 'I' for Inactive)
REMARK    1  A    between atoms: C2_2  and  C6_6 
REMARK    2  A    between atoms: C3_3  and  C6_6 
ROOT
HETATM    1  C1  UNL     1     -32.723   6.918   3.187  1.00 20.00    -0.110 C 
HETATM    2  C2  UNL     1     -33.527   6.185   3.696  1.00 20.00    -0.092 C 
HETATM    3  C4  UNL     1     -31.744   7.809   2.568  1.00 20.00     0.112 C 
ENDROOT
BRANCH   2   4
HETATM    4  C6  UNL     1     -34.517   5.286   4.318  1.00 20.00     0.162 C 
HETATM    5  C5  UNL     1     -35.896   5.517   3.711  1.00 20.00     0.035 C 
BRANCH   4   6
HETATM    6  C3  UNL     1     -34.490   5.472   5.847  1.00 20.00     0.188 C 
HETATM    7  O7  UNL     1     -35.009   4.519   6.499  1.00 20.00    -0.647 OA
HETATM    8  O8  UNL     1     -33.961   6.535   6.275  1.00 20.00    -0.647 OA
ENDBRANCH   4   6
ENDBRANCH   2   4
TORSDOF 2
ENDMDL
MODEL 2
REMARK VINA RESULT:      -4.5      0.023      1.142
REMARK  2 active torsions:
REMARK  status: ('A' for Active; 'I' for Inactive)
REMARK    1  A    between atoms: C2_2  and  C6_6 
REMARK    2  A    between atoms: C3_3  and  C6_6 
ROOT
HETATM    1  C1  UNL     1     -32.726   6.915   3.186  1.00 20.00    -0.110 C 
HETATM    2  C2  UNL     1     -33.534   6.181   3.688  1.00 20.00    -0.092 C 
HETATM    3  C4  UNL     1     -31.745   7.808   2.574  1.00 20.00     0.112 C 
ENDROOT
BRANCH   2   4
HETATM    4  C6  UNL     1     -34.524   5.281   4.307  1.00 20.00     0.162 C 
HETATM    5  C5  UNL     1     -35.906   5.524   3.710  1.00 20.00     0.035 C 
BRANCH   4   6
HETATM    6  C3  UNL     1     -34.487   5.452   5.838  1.00 20.00     0.188 C 
HETATM    7  O7  UNL     1     -33.957   6.532   6.230  1.00 20.00    -0.647 OA
HETATM    8  O8  UNL     1     -34.981   4.513   6.521  1.00 20.00    -0.647 OA
ENDBRANCH   4   6
ENDBRANCH   2   4
TORSDOF 2
ENDMDL
MODEL 3
REMARK VINA RESULT:      -4.4     11.414     12.151
REMARK  2 active torsions:
REMARK  status: ('A' for Active; 'I' for Inactive)
REMARK    1  A    between atoms: C2_2  and  C6_6 
REMARK    2  A    between atoms: C3_3  and  C6_6 
ROOT
HETATM    1  C1  UNL     1     -34.570  16.150  -1.849  1.00 20.00    -0.110 C 
HETATM    2  C2  UNL     1     -34.497  15.617  -2.923  1.00 20.00    -0.092 C 
HETATM    3  C4  UNL     1     -34.657  16.798  -0.542  1.00 20.00     0.112 C 
ENDROOT
BRANCH   2   4
HETATM    4  C6  UNL     1     -34.408  14.966  -4.243  1.00 20.00     0.162 C 
HETATM    5  C5  UNL     1     -35.656  15.266  -5.066  1.00 20.00     0.035 C 
BRANCH   4   6
HETATM    6  C3  UNL     1     -34.155  13.458  -4.056  1.00 20.00     0.188 C 
HETATM    7  O7  UNL     1     -32.997  13.171  -3.630  1.00 20.00    -0.647 OA
HETATM    8  O8  UNL     1     -35.112  12.687  -4.342  1.00 20.00    -0.647 OA
ENDBRANCH   4   6
ENDBRANCH   2   4
TORSDOF 2
ENDMDL
MODEL 4
REMARK VINA RESULT:      -4.2      1.434      1.966
REMARK  2 active torsions:
REMARK  status: ('A' for Active; 'I' for Inactive)
REMARK    1  A    between atoms: C2_2  and  C6_6 
REMARK    2  A    between atoms: C3_3  and  C6_6 
ROOT
HETATM    1  C1  UNL     1     -32.958   6.736   3.407  1.00 20.00    -0.110 C 
HETATM    2  C2  UNL     1     -33.684   6.374   4.294  1.00 20.00    -0.092 C 
HETATM    3  C4  UNL     1     -32.076   7.174   2.328  1.00 20.00     0.112 C 
ENDROOT
BRANCH   2   4
HETATM    4  C6  UNL     1     -34.576   5.934   5.382  1.00 20.00     0.162 C 
HETATM    5  C5  UNL     1     -34.124   6.531   6.710  1.00 20.00     0.035 C 
BRANCH   4   6
HETATM    6  C3  UNL     1     -34.642   4.395   5.402  1.00 20.00     0.188 C 
HETATM    7  O7  UNL     1     -34.021   3.857   6.364  1.00 20.00    -0.647 OA
HETATM    8  O8  UNL     1     -35.298   3.849   4.472  1.00 20.00    -0.647 OA
ENDBRANCH   4   6
ENDBRANCH   2   4
TORSDOF 2
ENDMDL
MODEL 5
REMARK VINA RESULT:      -4.1      0.953      1.029
REMARK  2 active torsions:
REMARK  status: ('A' for Active; 'I' for Inactive)
REMARK    1  A    between atoms: C2_2  and  C6_6 
REMARK    2  A    between atoms: C3_3  and  C6_6 
ROOT
HETATM    1  C1  UNL     1     -32.659   7.493   2.537  1.00 20.00    -0.110 C 
HETATM    2  C2  UNL     1     -33.186   6.713   3.284  1.00 20.00    -0.092 C 
HETATM    3  C4  UNL     1     -32.018   8.442   1.630  1.00 20.00     0.112 C 
ENDROOT
BRANCH   2   4
HETATM    4  C6  UNL     1     -33.833   5.754   4.198  1.00 20.00     0.162 C 
HETATM    5  C5  UNL     1     -35.235   5.416   3.703  1.00 20.00     0.035 C 
BRANCH   4   6
HETATM    6  C3  UNL     1     -33.817   6.319   5.631  1.00 20.00     0.188 C 
HETATM    7  O7  UNL     1     -34.691   5.821   6.400  1.00 20.00    -0.647 OA
HETATM    8  O8  UNL     1     -32.948   7.200   5.878  1.00 20.00    -0.647 OA
ENDBRANCH   4   6
ENDBRANCH   2   4
TORSDOF 2
ENDMDL
MODEL 6
REMARK VINA RESULT:      -4.0     12.266     13.074
REMARK  2 active torsions:
REMARK  status: ('A' for Active; 'I' for Inactive)
REMARK    1  A    between atoms: C2_2  and  C6_6 
REMARK    2  A    between atoms: C3_3  and  C6_6 
ROOT
HETATM    1  C1  UNL     1     -34.576  16.204  -1.677  1.00 20.00    -0.110 C 
HETATM    2  C2  UNL     1     -34.474  15.595  -2.707  1.00 20.00    -0.092 C 
HETATM    3  C4  UNL     1     -34.700  16.946  -0.424  1.00 20.00     0.112 C 
ENDROOT
BRANCH   2   4
HETATM    4  C6  UNL     1     -34.351  14.845  -3.971  1.00 20.00     0.162 C 
HETATM    5  C5  UNL     1     -33.475  13.613  -3.772  1.00 20.00     0.035 C 
BRANCH   4   6
HETATM    6  C3  UNL     1     -33.832  15.783  -5.077  1.00 20.00     0.188 C 
HETATM    7  O7  UNL     1     -34.461  15.698  -6.173  1.00 20.00    -0.647 OA
HETATM    8  O8  UNL     1     -32.855  16.522  -4.775  1.00 20.00    -0.647 OA
ENDBRANCH   4   6
ENDBRANCH   2   4
TORSDOF 2
ENDMDL
MODEL 7
REMARK VINA RESULT:      -3.8     11.954     12.518
REMARK  2 active torsions:
REMARK  status: ('A' for Active; 'I' for Inactive)
REMARK    1  A    between atoms: C2_2  and  C6_6 
REMARK    2  A    between atoms: C3_3  and  C6_6 
ROOT
HETATM    1  C1  UNL     1     -34.448  16.183  -1.922  1.00 20.00    -0.110 C 
HETATM    2  C2  UNL     1     -34.813  15.331  -2.685  1.00 20.00    -0.092 C 
HETATM    3  C4  UNL     1     -34.003  17.219  -0.992  1.00 20.00     0.112 C 
ENDROOT
BRANCH   2   4
HETATM    4  C6  UNL     1     -35.260  14.286  -3.626  1.00 20.00     0.162 C 
HETATM    5  C5  UNL     1     -34.169  13.994  -4.650  1.00 20.00     0.035 C 
BRANCH   4   6
HETATM    6  C3  UNL     1     -36.595  14.710  -4.268  1.00 20.00     0.188 C 
HETATM    7  O7  UNL     1     -37.616  14.156  -3.765  1.00 20.00    -0.647 OA
HETATM    8  O8  UNL     1     -36.525  15.550  -5.208  1.00 20.00    -0.647 OA
ENDBRANCH   4   6
ENDBRANCH   2   4
TORSDOF 2
ENDMDL
MODEL 8
REMARK VINA RESULT:      -3.8     11.454     12.897
REMARK  2 active torsions:
REMARK  status: ('A' for Active; 'I' for Inactive)
REMARK    1  A    between atoms: C2_2  and  C6_6 
REMARK    2  A    between atoms: C3_3  and  C6_6 
ROOT
HETATM    1  C1  UNL     1     -34.664  16.232  -6.107  1.00 20.00    -0.110 C 
HETATM    2  C2  UNL     1     -34.759  15.628  -5.073  1.00 20.00    -0.092 C 
HETATM    3  C4  UNL     1     -34.546  16.966  -7.365  1.00 20.00     0.112 C 
ENDROOT
BRANCH   2   4
HETATM    4  C6  UNL     1     -34.880  14.885  -3.804  1.00 20.00     0.162 C 
HETATM    5  C5  UNL     1     -34.223  15.665  -2.671  1.00 20.00     0.035 C 
BRANCH   4   6
HETATM    6  C3  UNL     1     -34.301  13.469  -3.981  1.00 20.00     0.188 C 
HETATM    7  O7  UNL     1     -35.131  12.614  -4.407  1.00 20.00    -0.647 OA
HETATM    8  O8  UNL     1     -33.082  13.319  -3.686  1.00 20.00    -0.647 OA
ENDBRANCH   4   6
ENDBRANCH   2   4
TORSDOF 2
ENDMDL
MODEL 9
REMARK VINA RESULT:      -3.7     11.578     12.707
REMARK  2 active torsions:
REMARK  status: ('A' for Active; 'I' for Inactive)
REMARK    1  A    between atoms: C2_2  and  C6_6 
REMARK    2  A    between atoms: C3_3  and  C6_6 
ROOT
HETATM    1  C1  UNL     1     -37.303  14.864  -4.094  1.00 20.00    -0.110 C 
HETATM    2  C2  UNL     1     -36.126  14.839  -4.334  1.00 20.00    -0.092 C 
HETATM    3  C4  UNL     1     -38.735  14.895  -3.803  1.00 20.00     0.112 C 
ENDROOT
BRANCH   2   4
HETATM    4  C6  UNL     1     -34.681  14.806  -4.628  1.00 20.00     0.162 C 
HETATM    5  C5  UNL     1     -34.419  15.292  -6.049  1.00 20.00     0.035 C 
BRANCH   4   6
HETATM    6  C3  UNL     1     -34.136  13.389  -4.362  1.00 20.00     0.188 C 
HETATM    7  O7  UNL     1     -34.834  12.458  -4.861  1.00 20.00    -0.647 OA
HETATM    8  O8  UNL     1     -33.072  13.314  -3.688  1.00 20.00    -0.647 OA
ENDBRANCH   4   6
ENDBRANCH   2   4
TORSDOF 2
ENDMDL
