MODEL 1
REMARK VINA RESULT:      -4.4      0.000      0.000
REMARK  0 active torsions:
REMARK  status: ('A' for Active; 'I' for Inactive)
ROOT
HETATM    1  C1  UNL     1     -34.825  13.766  -4.646  1.00 20.00     0.135 C 
HETATM    2  C2  UNL     1     -34.316  14.326  -3.335  1.00 20.00     0.110 C 
HETATM    3  C3  UNL     1     -34.730  16.122  -5.351  1.00 20.00     0.179 C 
HETATM    4  C4  UNL     1     -35.420  14.782  -5.612  1.00 20.00     0.075 C 
HETATM    5  C5  UNL     1     -35.096  15.600  -3.018  1.00 20.00     0.124 C 
HETATM    6  C6  UNL     1     -35.240  14.345  -7.060  1.00 20.00     0.020 C 
HETATM    7  C7  UNL     1     -34.664  16.195  -1.686  1.00 20.00     0.040 C 
HETATM    8  O8  UNL     1     -34.753  12.565  -4.899  1.00 20.00    -0.297 OA
HETATM    9  O9  UNL     1     -34.920  16.609  -4.020  1.00 20.00    -0.385 OA
ENDROOT
TORSDOF 0
ENDMDL
MODEL 2
REMARK VINA RESULT:      -4.1     12.017     13.381
REMARK  0 active torsions:
REMARK  status: ('A' for Active; 'I' for Inactive)
ROOT
HETATM    1  C1  UNL     1     -34.766   4.758   4.477  1.00 20.00     0.135 C 
HETATM    2  C2  UNL     1     -34.262   5.716   3.419  1.00 20.00     0.110 C 
HETATM    3  C3  UNL     1     -34.003   6.520   6.018  1.00 20.00     0.179 C 
HETATM    4  C4  UNL     1     -34.273   5.019   5.894  1.00 20.00     0.075 C 
HETATM    5  C5  UNL     1     -32.913   6.270   3.873  1.00 20.00     0.124 C 
HETATM    6  C6  UNL     1     -35.288   4.557   6.931  1.00 20.00     0.020 C 
HETATM    7  C7  UNL     1     -32.325   7.212   2.832  1.00 20.00     0.040 C 
HETATM    8  O8  UNL     1     -35.526   3.835   4.194  1.00 20.00    -0.297 OA
HETATM    9  O9  UNL     1     -33.010   6.995   5.106  1.00 20.00    -0.385 OA
ENDROOT
TORSDOF 0
ENDMDL
MODEL 3
REMARK VINA RESULT:      -4.0      1.251      3.310
REMARK  0 active torsions:
REMARK  status: ('A' for Active; 'I' for Inactive)
ROOT
HETATM    1  C1  UNL     1     -34.339  14.152  -4.174  1.00 20.00     0.135 C 
HETATM    2  C2  UNL     1     -34.918  13.855  -5.541  1.00 20.00     0.110 C 
HETATM    3  C3  UNL     1     -35.220  16.409  -4.617  1.00 20.00     0.179 C 
HETATM    4  C4  UNL     1     -34.158  15.627  -3.840  1.00 20.00     0.075 C 
HETATM    5  C5  UNL     1     -34.564  15.009  -6.477  1.00 20.00     0.124 C 
HETATM    6  C6  UNL     1     -34.278  15.878  -2.343  1.00 20.00     0.020 C 
HETATM    7  C7  UNL     1     -35.080  14.755  -7.886  1.00 20.00     0.040 C 
HETATM    8  O8  UNL     1     -34.042  13.250  -3.396  1.00 20.00    -0.297 OA
HETATM    9  O9  UNL     1     -35.113  16.256  -6.034  1.00 20.00    -0.385 OA
ENDROOT
TORSDOF 0
ENDMDL
MODEL 4
REMARK VINA RESULT:      -4.0      1.928      2.305
REMARK  0 active torsions:
REMARK  status: ('A' for Active; 'I' for Inactive)
ROOT
HETATM    1  C1  UNL     1     -33.349  14.994  -3.337  1.00 20.00     0.135 C 
HETATM    2  C2  UNL     1     -33.582  16.308  -2.621  1.00 20.00     0.110 C 
HETATM    3  C3  UNL     1     -35.785  15.091  -3.685  1.00 20.00     0.179 C 
HETATM    4  C4  UNL     1     -34.589  14.142  -3.573  1.00 20.00     0.075 C 
HETATM    5  C5  UNL     1     -34.824  16.167  -1.744  1.00 20.00     0.124 C 
HETATM    6  C6  UNL     1     -34.448  13.287  -4.825  1.00 20.00     0.020 C 
HETATM    7  C7  UNL     1     -35.093  17.443  -0.960  1.00 20.00     0.040 C 
HETATM    8  O8  UNL     1     -32.226  14.653  -3.698  1.00 20.00    -0.297 OA
HETATM    9  O9  UNL     1     -36.000  15.875  -2.509  1.00 20.00    -0.385 OA
ENDROOT
TORSDOF 0
ENDMDL
MODEL 5
REMARK VINA RESULT:      -3.9      1.771      2.359
REMARK  0 active torsions:
REMARK  status: ('A' for Active; 'I' for Inactive)
ROOT
HETATM    1  C1  UNL     1     -33.590  16.243  -4.436  1.00 20.00     0.135 C 
HETATM    2  C2  UNL     1     -33.882  16.999  -3.158  1.00 20.00     0.110 C 
HETATM    3  C3  UNL     1     -35.733  15.143  -3.929  1.00 20.00     0.179 C 
HETATM    4  C4  UNL     1     -34.394  14.967  -4.649  1.00 20.00     0.075 C 
HETATM    5  C5  UNL     1     -34.387  16.005  -2.114  1.00 20.00     0.124 C 
HETATM    6  C6  UNL     1     -34.601  14.679  -6.129  1.00 20.00     0.020 C 
HETATM    7  C7  UNL     1     -34.660  16.692  -0.784  1.00 20.00     0.040 C 
HETATM    8  O8  UNL     1     -32.755  16.648  -5.242  1.00 20.00    -0.297 OA
HETATM    9  O9  UNL     1     -35.597  15.356  -2.522  1.00 20.00    -0.385 OA
ENDROOT
TORSDOF 0
ENDMDL
MODEL 6
REMARK VINA RESULT:      -3.8      1.690      3.543
REMARK  0 active torsions:
REMARK  status: ('A' for Active; 'I' for Inactive)
ROOT
HETATM    1  C1  UNL     1     -35.828  15.261  -3.666  1.00 20.00     0.135 C 
HETATM    2  C2  UNL     1     -35.830  15.319  -5.179  1.00 20.00     0.110 C 
HETATM    3  C3  UNL     1     -33.744  16.548  -3.913  1.00 20.00     0.179 C 
HETATM    4  C4  UNL     1     -34.500  15.586  -2.994  1.00 20.00     0.075 C 
HETATM    5  C5  UNL     1     -34.414  15.034  -5.676  1.00 20.00     0.124 C 
HETATM    6  C6  UNL     1     -34.709  16.195  -1.614  1.00 20.00     0.020 C 
HETATM    7  C7  UNL     1     -34.353  15.035  -7.196  1.00 20.00     0.040 C 
HETATM    8  O8  UNL     1     -36.841  14.969  -3.036  1.00 20.00    -0.297 OA
HETATM    9  O9  UNL     1     -33.468  16.001  -5.204  1.00 20.00    -0.385 OA
ENDROOT
TORSDOF 0
ENDMDL
MODEL 7
REMARK VINA RESULT:      -3.8      1.541      2.510
REMARK  0 active torsions:
REMARK  status: ('A' for Active; 'I' for Inactive)
ROOT
HETATM    1  C1  UNL     1     -35.203  13.762  -4.183  1.00 20.00     0.135 C 
HETATM    2  C2  UNL     1     -36.574  14.355  -3.937  1.00 20.00     0.110 C 
HETATM    3  C3  UNL     1     -34.465  15.621  -2.748  1.00 20.00     0.179 C 
HETATM    4  C4  UNL     1     -34.023  14.671  -3.862  1.00 20.00     0.075 C 
HETATM    5  C5  UNL     1     -36.476  15.873  -4.068  1.00 20.00     0.124 C 
HETATM    6  C6  UNL     1     -32.799  13.867  -3.445  1.00 20.00     0.020 C 
HETATM    7  C7  UNL     1     -37.833  16.533  -3.874  1.00 20.00     0.040 C 
HETATM    8  O8  UNL     1     -35.068  12.620  -4.614  1.00 20.00    -0.297 OA
HETATM    9  O9  UNL     1     -35.576  16.445  -3.111  1.00 20.00    -0.385 OA
ENDROOT
TORSDOF 0
ENDMDL
MODEL 8
REMARK VINA RESULT:      -3.8      1.371      4.091
REMARK  0 active torsions:
REMARK  status: ('A' for Active; 'I' for Inactive)
ROOT
HETATM    1  C1  UNL     1     -33.910  17.087  -3.721  1.00 20.00     0.135 C 
HETATM    2  C2  UNL     1     -33.517  16.575  -5.090  1.00 20.00     0.110 C 
HETATM    3  C3  UNL     1     -34.448  14.719  -3.314  1.00 20.00     0.179 C 
HETATM    4  C4  UNL     1     -34.779  16.151  -2.890  1.00 20.00     0.075 C 
HETATM    5  C5  UNL     1     -34.587  15.594  -5.565  1.00 20.00     0.124 C 
HETATM    6  C6  UNL     1     -34.543  16.350  -1.399  1.00 20.00     0.020 C 
HETATM    7  C7  UNL     1     -34.276  15.071  -6.960  1.00 20.00     0.040 C 
HETATM    8  O8  UNL     1     -33.541  18.188  -3.320  1.00 20.00    -0.297 OA
HETATM    9  O9  UNL     1     -34.710  14.461  -4.696  1.00 20.00    -0.385 OA
ENDROOT
TORSDOF 0
ENDMDL
MODEL 9
REMARK VINA RESULT:      -3.7      2.060      2.781
REMARK  0 active torsions:
REMARK  status: ('A' for Active; 'I' for Inactive)
ROOT
HETATM    1  C1  UNL     1     -36.896  14.655  -3.852  1.00 20.00     0.135 C 
HETATM    2  C2  UNL     1     -35.665  13.817  -4.127  1.00 20.00     0.110 C 
HETATM    3  C3  UNL     1     -35.390  16.520  -4.412  1.00 20.00     0.179 C 
HETATM    4  C4  UNL     1     -36.646  16.140  -3.626  1.00 20.00     0.075 C 
HETATM    5  C5  UNL     1     -34.463  14.494  -3.473  1.00 20.00     0.124 C 
HETATM    6  C6  UNL     1     -37.841  16.978  -4.063  1.00 20.00     0.020 C 
HETATM    7  C7  UNL     1     -33.194  13.679  -3.674  1.00 20.00     0.040 C 
HETATM    8  O8  UNL     1     -38.017  14.153  -3.818  1.00 20.00    -0.297 OA
HETATM    9  O9  UNL     1     -34.223  15.805  -3.999  1.00 20.00    -0.385 OA
ENDROOT
TORSDOF 0
ENDMDL
