MODEL 1
REMARK VINA RESULT:      -4.9      0.000      0.000
REMARK  2 active torsions:
REMARK  status: ('A' for Active; 'I' for Inactive)
REMARK    1  A    between atoms: C4_4  and  C8_8 
REMARK    2  A    between atoms: C5_5  and  C9_9 
ROOT
HETATM    1  C1  UNL     1     -34.670  13.819  -4.940  1.00 20.00     0.139 C 
HETATM    2  C6  UNL     1     -35.146  14.201  -6.322  1.00 20.00     0.080 C 
HETATM    3  C7  UNL     1     -34.921  15.710  -6.342  1.00 20.00     0.017 C 
HETATM    4  C8  UNL     1     -33.703  15.913  -5.435  1.00 20.00     0.027 C 
HETATM    5  C9  UNL     1     -33.965  14.972  -4.230  1.00 20.00     0.041 C 
HETATM    6  C10 UNL     1     -32.671  14.514  -3.562  1.00 20.00     0.028 C 
HETATM    7  O11 UNL     1     -34.843  12.706  -4.458  1.00 20.00    -0.297 OA
ENDROOT
BRANCH   5   8
HETATM    8  C5  UNL     1     -34.938  15.487  -3.207  1.00 20.00    -0.019 C 
HETATM    9  C3  UNL     1     -34.581  15.986  -2.020  1.00 20.00     0.008 C 
ENDBRANCH   5   8
BRANCH   4  10
HETATM   10  C4  UNL     1     -33.447  17.347  -5.102  1.00 20.00    -0.031 C 
HETATM   11  C2  UNL     1     -33.685  18.363  -5.938  1.00 20.00     0.007 C 
ENDBRANCH   4  10
TORSDOF 2
ENDMDL
MODEL 2
REMARK VINA RESULT:      -4.8      1.308      3.175
REMARK  2 active torsions:
REMARK  status: ('A' for Active; 'I' for Inactive)
REMARK    1  A    between atoms: C4_4  and  C8_8 
REMARK    2  A    between atoms: C5_5  and  C9_9 
ROOT
HETATM    1  C1  UNL     1     -34.916  14.420  -5.596  1.00 20.00     0.139 C 
HETATM    2  C6  UNL     1     -34.464  13.213  -4.809  1.00 20.00     0.080 C 
HETATM    3  C7  UNL     1     -33.833  13.844  -3.572  1.00 20.00     0.017 C 
HETATM    4  C8  UNL     1     -34.636  15.133  -3.365  1.00 20.00     0.027 C 
HETATM    5  C9  UNL     1     -34.798  15.714  -4.794  1.00 20.00     0.041 C 
HETATM    6  C10 UNL     1     -36.049  16.576  -4.930  1.00 20.00     0.028 C 
HETATM    7  O11 UNL     1     -35.325  14.351  -6.750  1.00 20.00    -0.297 OA
ENDROOT
BRANCH   5   8
HETATM    8  C5  UNL     1     -33.595  16.432  -5.340  1.00 20.00    -0.019 C 
HETATM    9  C3  UNL     1     -33.585  17.726  -5.675  1.00 20.00     0.008 C 
ENDBRANCH   5   8
BRANCH   4  10
HETATM   10  C4  UNL     1     -34.032  16.048  -2.351  1.00 20.00    -0.031 C 
HETATM   11  C2  UNL     1     -34.657  16.449  -1.238  1.00 20.00     0.007 C 
ENDBRANCH   4  10
TORSDOF 2
ENDMDL
MODEL 3
REMARK VINA RESULT:      -4.7      1.206      2.853
REMARK  2 active torsions:
REMARK  status: ('A' for Active; 'I' for Inactive)
REMARK    1  A    between atoms: C4_4  and  C8_8 
REMARK    2  A    between atoms: C5_5  and  C9_9 
ROOT
HETATM    1  C1  UNL     1     -34.463  13.663  -4.444  1.00 20.00     0.139 C 
HETATM    2  C6  UNL     1     -33.222  13.801  -3.594  1.00 20.00     0.080 C 
HETATM    3  C7  UNL     1     -32.681  15.162  -4.021  1.00 20.00     0.017 C 
HETATM    4  C8  UNL     1     -33.936  15.962  -4.382  1.00 20.00     0.027 C 
HETATM    5  C9  UNL     1     -34.813  14.957  -5.175  1.00 20.00     0.041 C 
HETATM    6  C10 UNL     1     -36.301  15.278  -5.070  1.00 20.00     0.028 C 
HETATM    7  O11 UNL     1     -35.102  12.621  -4.528  1.00 20.00    -0.297 OA
ENDROOT
BRANCH   5   8
HETATM    8  C5  UNL     1     -34.415  14.744  -6.609  1.00 20.00    -0.019 C 
HETATM    9  C3  UNL     1     -35.286  14.599  -7.613  1.00 20.00     0.008 C 
ENDBRANCH   5   8
BRANCH   4  10
HETATM   10  C4  UNL     1     -33.637  17.254  -5.069  1.00 20.00    -0.031 C 
HETATM   11  C2  UNL     1     -33.696  18.449  -4.474  1.00 20.00     0.007 C 
ENDBRANCH   4  10
TORSDOF 2
ENDMDL
MODEL 4
REMARK VINA RESULT:      -4.6      1.580      3.060
REMARK  2 active torsions:
REMARK  status: ('A' for Active; 'I' for Inactive)
REMARK    1  A    between atoms: C4_4  and  C8_8 
REMARK    2  A    between atoms: C5_5  and  C9_9 
ROOT
HETATM    1  C1  UNL     1     -34.191  15.379  -5.438  1.00 20.00     0.139 C 
HETATM    2  C6  UNL     1     -33.289  16.573  -5.232  1.00 20.00     0.080 C 
HETATM    3  C7  UNL     1     -33.663  17.029  -3.825  1.00 20.00     0.017 C 
HETATM    4  C8  UNL     1     -34.056  15.732  -3.109  1.00 20.00     0.027 C 
HETATM    5  C9  UNL     1     -34.906  14.963  -4.154  1.00 20.00     0.041 C 
HETATM    6  C10 UNL     1     -34.853  13.453  -3.945  1.00 20.00     0.028 C 
HETATM    7  O11 UNL     1     -34.324  14.822  -6.521  1.00 20.00    -0.297 OA
ENDROOT
BRANCH   5   8
HETATM    8  C5  UNL     1     -36.327  15.431  -4.302  1.00 20.00    -0.019 C 
HETATM    9  C3  UNL     1     -37.394  14.689  -3.989  1.00 20.00     0.008 C 
ENDBRANCH   5   8
BRANCH   4  10
HETATM   10  C4  UNL     1     -34.701  15.962  -1.782  1.00 20.00    -0.031 C 
HETATM   11  C2  UNL     1     -34.340  16.928  -0.931  1.00 20.00     0.007 C 
ENDBRANCH   4  10
TORSDOF 2
ENDMDL
MODEL 5
REMARK VINA RESULT:      -4.6      1.770      2.978
REMARK  2 active torsions:
REMARK  status: ('A' for Active; 'I' for Inactive)
REMARK    1  A    between atoms: C4_4  and  C8_8 
REMARK    2  A    between atoms: C5_5  and  C9_9 
ROOT
HETATM    1  C1  UNL     1     -33.376  14.638  -3.793  1.00 20.00     0.139 C 
HETATM    2  C6  UNL     1     -33.989  13.369  -4.336  1.00 20.00     0.080 C 
HETATM    3  C7  UNL     1     -35.483  13.667  -4.257  1.00 20.00     0.017 C 
HETATM    4  C8  UNL     1     -35.569  15.182  -4.468  1.00 20.00     0.027 C 
HETATM    5  C9  UNL     1     -34.405  15.752  -3.616  1.00 20.00     0.041 C 
HETATM    6  C10 UNL     1     -33.891  17.084  -4.155  1.00 20.00     0.028 C 
HETATM    7  O11 UNL     1     -32.184  14.743  -3.526  1.00 20.00    -0.297 OA
ENDROOT
BRANCH   5   8
HETATM    8  C5  UNL     1     -34.669  15.841  -2.139  1.00 20.00    -0.019 C 
HETATM    9  C3  UNL     1     -34.177  16.801  -1.348  1.00 20.00     0.008 C 
ENDBRANCH   5   8
BRANCH   4  10
HETATM   10  C4  UNL     1     -36.925  15.742  -4.183  1.00 20.00    -0.031 C 
HETATM   11  C2  UNL     1     -37.953  15.019  -3.728  1.00 20.00     0.007 C 
ENDBRANCH   4  10
TORSDOF 2
ENDMDL
MODEL 6
REMARK VINA RESULT:      -4.4      1.832      3.766
REMARK  2 active torsions:
REMARK  status: ('A' for Active; 'I' for Inactive)
REMARK    1  A    between atoms: C4_4  and  C8_8 
REMARK    2  A    between atoms: C5_5  and  C9_9 
ROOT
HETATM    1  C1  UNL     1     -33.596  15.124  -3.519  1.00 20.00     0.139 C 
HETATM    2  C6  UNL     1     -34.071  16.040  -2.415  1.00 20.00     0.080 C 
HETATM    3  C7  UNL     1     -35.500  16.359  -2.846  1.00 20.00     0.017 C 
HETATM    4  C8  UNL     1     -35.954  15.095  -3.583  1.00 20.00     0.027 C 
HETATM    5  C9  UNL     1     -34.729  14.700  -4.450  1.00 20.00     0.041 C 
HETATM    6  C10 UNL     1     -34.686  13.202  -4.741  1.00 20.00     0.028 C 
HETATM    7  O11 UNL     1     -32.427  14.775  -3.640  1.00 20.00    -0.297 OA
ENDROOT
BRANCH   5   8
HETATM    8  C5  UNL     1     -34.548  15.493  -5.713  1.00 20.00    -0.019 C 
HETATM    9  C3  UNL     1     -34.490  14.952  -6.934  1.00 20.00     0.008 C 
ENDBRANCH   5   8
BRANCH   4  10
HETATM   10  C4  UNL     1     -37.245  15.270  -4.315  1.00 20.00    -0.031 C 
HETATM   11  C2  UNL     1     -38.408  14.748  -3.914  1.00 20.00     0.007 C 
ENDBRANCH   4  10
TORSDOF 2
ENDMDL
MODEL 7
REMARK VINA RESULT:      -4.4      1.517      1.604
REMARK  2 active torsions:
REMARK  status: ('A' for Active; 'I' for Inactive)
REMARK    1  A    between atoms: C4_4  and  C8_8 
REMARK    2  A    between atoms: C5_5  and  C9_9 
ROOT
HETATM    1  C1  UNL     1     -36.627  14.753  -4.400  1.00 20.00     0.139 C 
HETATM    2  C6  UNL     1     -37.035  15.387  -5.709  1.00 20.00     0.080 C 
HETATM    3  C7  UNL     1     -35.896  16.368  -5.968  1.00 20.00     0.017 C 
HETATM    4  C8  UNL     1     -34.675  15.691  -5.335  1.00 20.00     0.027 C 
HETATM    5  C9  UNL     1     -35.206  15.131  -3.989  1.00 20.00     0.041 C 
HETATM    6  C10 UNL     1     -34.415  13.915  -3.516  1.00 20.00     0.028 C 
HETATM    7  O11 UNL     1     -37.368  14.022  -3.752  1.00 20.00    -0.297 OA
ENDROOT
BRANCH   5   8
HETATM    8  C5  UNL     1     -35.348  16.137  -2.882  1.00 20.00    -0.019 C 
HETATM    9  C3  UNL     1     -34.619  16.124  -1.761  1.00 20.00     0.008 C 
ENDBRANCH   5   8
BRANCH   4  10
HETATM   10  C4  UNL     1     -33.483  16.587  -5.247  1.00 20.00    -0.031 C 
HETATM   11  C2  UNL     1     -33.510  17.897  -5.510  1.00 20.00     0.007 C 
ENDBRANCH   4  10
TORSDOF 2
ENDMDL
MODEL 8
REMARK VINA RESULT:      -4.3      2.338      3.789
REMARK  2 active torsions:
REMARK  status: ('A' for Active; 'I' for Inactive)
REMARK    1  A    between atoms: C4_4  and  C8_8 
REMARK    2  A    between atoms: C5_5  and  C9_9 
ROOT
HETATM    1  C1  UNL     1     -34.406  17.940  -3.768  1.00 20.00     0.139 C 
HETATM    2  C6  UNL     1     -33.471  17.709  -4.932  1.00 20.00     0.080 C 
HETATM    3  C7  UNL     1     -33.180  16.215  -4.829  1.00 20.00     0.017 C 
HETATM    4  C8  UNL     1     -34.467  15.629  -4.238  1.00 20.00     0.027 C 
HETATM    5  C9  UNL     1     -34.867  16.633  -3.126  1.00 20.00     0.041 C 
HETATM    6  C10 UNL     1     -36.370  16.636  -2.862  1.00 20.00     0.028 C 
HETATM    7  O11 UNL     1     -34.743  19.057  -3.393  1.00 20.00    -0.297 OA
ENDROOT
BRANCH   5   8
HETATM    8  C5  UNL     1     -34.101  16.512  -1.839  1.00 20.00    -0.019 C 
HETATM    9  C3  UNL     1     -34.622  16.757  -0.632  1.00 20.00     0.008 C 
ENDBRANCH   5   8
BRANCH   4  10
HETATM   10  C4  UNL     1     -34.326  14.204  -3.813  1.00 20.00    -0.031 C 
HETATM   11  C2  UNL     1     -35.091  13.207  -4.271  1.00 20.00     0.007 C 
ENDBRANCH   4  10
TORSDOF 2
ENDMDL
MODEL 9
REMARK VINA RESULT:      -4.2      2.471      4.330
REMARK  2 active torsions:
REMARK  status: ('A' for Active; 'I' for Inactive)
REMARK    1  A    between atoms: C4_4  and  C8_8 
REMARK    2  A    between atoms: C5_5  and  C9_9 
ROOT
HETATM    1  C1  UNL     1     -33.784  17.977  -2.945  1.00 20.00     0.139 C 
HETATM    2  C6  UNL     1     -33.840  17.521  -1.506  1.00 20.00     0.080 C 
HETATM    3  C7  UNL     1     -34.580  16.191  -1.613  1.00 20.00     0.017 C 
HETATM    4  C8  UNL     1     -34.175  15.652  -2.988  1.00 20.00     0.027 C 
HETATM    5  C9  UNL     1     -34.240  16.892  -3.917  1.00 20.00     0.041 C 
HETATM    6  C10 UNL     1     -33.295  16.772  -5.110  1.00 20.00     0.028 C 
HETATM    7  O11 UNL     1     -33.415  19.098  -3.276  1.00 20.00    -0.297 OA
ENDROOT
BRANCH   5   8
HETATM    8  C5  UNL     1     -35.617  17.291  -4.368  1.00 20.00    -0.019 C 
HETATM    9  C3  UNL     1     -36.025  17.262  -5.641  1.00 20.00     0.008 C 
ENDBRANCH   5   8
BRANCH   4  10
HETATM   10  C4  UNL     1     -34.978  14.468  -3.419  1.00 20.00    -0.031 C 
HETATM   11  C2  UNL     1     -34.494  13.462  -4.154  1.00 20.00     0.007 C 
ENDBRANCH   4  10
TORSDOF 2
ENDMDL
