MODEL 1
REMARK VINA RESULT:      -5.9      0.000      0.000
REMARK  0 active torsions:
REMARK  status: ('A' for Active; 'I' for Inactive)
ROOT
HETATM    1  C1  UNL     1     -32.596   7.085   2.992  1.00 20.00     0.064 C 
HETATM    2  C2  UNL     1     -35.159   4.663   4.429  1.00 20.00     0.012 C 
HETATM    3  C3  UNL     1     -35.006   4.863   5.745  1.00 20.00     0.090 C 
HETATM    4  C4  UNL     1     -34.355   5.392   3.392  1.00 20.00     0.049 C 
HETATM    5  C5  UNL     1     -34.040   5.854   6.319  1.00 20.00     0.071 C 
HETATM    6  C6  UNL     1     -33.509   6.844   5.278  1.00 20.00     0.026 C 
HETATM    7  C7  UNL     1     -33.137   6.129   3.974  1.00 20.00     0.096 C 
HETATM    8  N8  UNL     1     -32.171   7.838   2.219  1.00 20.00    -0.197 NA
HETATM    9  F9  UNL     1     -35.779   4.153   6.597  1.00 20.00    -0.211 F 
ENDROOT
TORSDOF 0
ENDMDL
MODEL 2
REMARK VINA RESULT:      -5.5      0.387      1.718
REMARK  0 active torsions:
REMARK  status: ('A' for Active; 'I' for Inactive)
ROOT
HETATM    1  C1  UNL     1     -32.858   7.182   3.126  1.00 20.00     0.064 C 
HETATM    2  C2  UNL     1     -34.262   5.764   6.368  1.00 20.00     0.012 C 
HETATM    3  C3  UNL     1     -35.096   4.821   5.908  1.00 20.00     0.090 C 
HETATM    4  C4  UNL     1     -33.443   6.642   5.468  1.00 20.00     0.049 C 
HETATM    5  C5  UNL     1     -35.275   4.523   4.451  1.00 20.00     0.071 C 
HETATM    6  C6  UNL     1     -34.182   5.141   3.575  1.00 20.00     0.026 C 
HETATM    7  C7  UNL     1     -33.886   6.586   3.996  1.00 20.00     0.096 C 
HETATM    8  N8  UNL     1     -32.048   7.651   2.440  1.00 20.00    -0.197 NA
HETATM    9  F9  UNL     1     -35.790   4.085   6.804  1.00 20.00    -0.211 F 
ENDROOT
TORSDOF 0
ENDMDL
MODEL 3
REMARK VINA RESULT:      -4.8     12.073     12.539
REMARK  0 active torsions:
REMARK  status: ('A' for Active; 'I' for Inactive)
ROOT
HETATM    1  C1  UNL     1     -37.397  14.593  -3.908  1.00 20.00     0.064 C 
HETATM    2  C2  UNL     1     -33.740  13.554  -4.105  1.00 20.00     0.012 C 
HETATM    3  C3  UNL     1     -33.132  14.610  -3.547  1.00 20.00     0.090 C 
HETATM    4  C4  UNL     1     -35.227  13.463  -4.278  1.00 20.00     0.049 C 
HETATM    5  C5  UNL     1     -33.873  15.795  -3.011  1.00 20.00     0.071 C 
HETATM    6  C6  UNL     1     -35.374  15.538  -2.844  1.00 20.00     0.026 C 
HETATM    7  C7  UNL     1     -35.948  14.805  -4.063  1.00 20.00     0.096 C 
HETATM    8  N8  UNL     1     -38.538  14.426  -3.786  1.00 20.00    -0.197 NA
HETATM    9  F9  UNL     1     -31.784  14.593  -3.440  1.00 20.00    -0.211 F 
ENDROOT
TORSDOF 0
ENDMDL
MODEL 4
REMARK VINA RESULT:      -4.3      9.594     10.493
REMARK  0 active torsions:
REMARK  status: ('A' for Active; 'I' for Inactive)
ROOT
HETATM    1  C1  UNL     1     -42.160   3.098  -2.564  1.00 20.00     0.064 C 
HETATM    2  C2  UNL     1     -42.004   6.885  -2.207  1.00 20.00     0.012 C 
HETATM    3  C3  UNL     1     -41.252   7.019  -1.105  1.00 20.00     0.090 C 
HETATM    4  C4  UNL     1     -42.377   5.552  -2.787  1.00 20.00     0.049 C 
HETATM    5  C5  UNL     1     -40.680   5.855  -0.355  1.00 20.00     0.071 C 
HETATM    6  C6  UNL     1     -40.741   4.545  -1.147  1.00 20.00     0.026 C 
HETATM    7  C7  UNL     1     -42.101   4.376  -1.835  1.00 20.00     0.096 C 
HETATM    8  N8  UNL     1     -42.207   2.091  -3.138  1.00 20.00    -0.197 NA
HETATM    9  F9  UNL     1     -40.975   8.266  -0.664  1.00 20.00    -0.211 F 
ENDROOT
TORSDOF 0
ENDMDL
MODEL 5
REMARK VINA RESULT:      -4.2     12.503     13.669
REMARK  0 active torsions:
REMARK  status: ('A' for Active; 'I' for Inactive)
ROOT
HETATM    1  C1  UNL     1     -34.405  13.679  -4.343  1.00 20.00     0.064 C 
HETATM    2  C2  UNL     1     -34.122  16.957  -2.429  1.00 20.00     0.012 C 
HETATM    3  C3  UNL     1     -33.701  17.792  -3.389  1.00 20.00     0.090 C 
HETATM    4  C4  UNL     1     -34.389  15.500  -2.669  1.00 20.00     0.049 C 
HETATM    5  C5  UNL     1     -33.482  17.366  -4.809  1.00 20.00     0.071 C 
HETATM    6  C6  UNL     1     -34.106  16.005  -5.129  1.00 20.00     0.026 C 
HETATM    7  C7  UNL     1     -33.830  14.993  -4.010  1.00 20.00     0.096 C 
HETATM    8  N8  UNL     1     -34.858  12.644  -4.606  1.00 20.00    -0.197 NA
HETATM    9  F9  UNL     1     -33.488  19.087  -3.067  1.00 20.00    -0.211 F 
ENDROOT
TORSDOF 0
ENDMDL
MODEL 6
REMARK VINA RESULT:      -4.2     12.578     13.456
REMARK  0 active torsions:
REMARK  status: ('A' for Active; 'I' for Inactive)
ROOT
HETATM    1  C1  UNL     1     -34.428  16.265  -1.601  1.00 20.00     0.064 C 
HETATM    2  C2  UNL     1     -33.690  16.312  -5.335  1.00 20.00     0.012 C 
HETATM    3  C3  UNL     1     -34.140  15.107  -5.712  1.00 20.00     0.090 C 
HETATM    4  C4  UNL     1     -33.745  16.800  -3.917  1.00 20.00     0.049 C 
HETATM    5  C5  UNL     1     -34.772  14.134  -4.764  1.00 20.00     0.071 C 
HETATM    6  C6  UNL     1     -35.166  14.769  -3.428  1.00 20.00     0.026 C 
HETATM    7  C7  UNL     1     -34.054  15.686  -2.902  1.00 20.00     0.096 C 
HETATM    8  N8  UNL     1     -34.723  16.721  -0.576  1.00 20.00    -0.197 NA
HETATM    9  F9  UNL     1     -34.043  14.762  -7.015  1.00 20.00    -0.211 F 
ENDROOT
TORSDOF 0
ENDMDL
MODEL 7
REMARK VINA RESULT:      -4.1     12.013     12.882
REMARK  0 active torsions:
REMARK  status: ('A' for Active; 'I' for Inactive)
ROOT
HETATM    1  C1  UNL     1     -37.436  14.594  -3.947  1.00 20.00     0.064 C 
HETATM    2  C2  UNL     1     -33.909  16.019  -3.808  1.00 20.00     0.012 C 
HETATM    3  C3  UNL     1     -33.170  14.901  -3.779  1.00 20.00     0.090 C 
HETATM    4  C4  UNL     1     -35.408  16.008  -3.861  1.00 20.00     0.049 C 
HETATM    5  C5  UNL     1     -33.760  13.525  -3.828  1.00 20.00     0.071 C 
HETATM    6  C6  UNL     1     -35.230  13.519  -4.259  1.00 20.00     0.026 C 
HETATM    7  C7  UNL     1     -36.018  14.630  -3.553  1.00 20.00     0.096 C 
HETATM    8  N8  UNL     1     -38.553  14.565  -4.259  1.00 20.00    -0.197 NA
HETATM    9  F9  UNL     1     -31.825  15.021  -3.730  1.00 20.00    -0.211 F 
ENDROOT
TORSDOF 0
ENDMDL
MODEL 8
REMARK VINA RESULT:      -4.0     12.664     13.747
REMARK  0 active torsions:
REMARK  status: ('A' for Active; 'I' for Inactive)
ROOT
HETATM    1  C1  UNL     1     -34.755  13.774  -4.527  1.00 20.00     0.064 C 
HETATM    2  C2  UNL     1     -33.574  17.377  -4.870  1.00 20.00     0.012 C 
HETATM    3  C3  UNL     1     -33.685  17.816  -3.609  1.00 20.00     0.090 C 
HETATM    4  C4  UNL     1     -33.931  15.980  -5.286  1.00 20.00     0.049 C 
HETATM    5  C5  UNL     1     -34.146  16.951  -2.476  1.00 20.00     0.071 C 
HETATM    6  C6  UNL     1     -34.144  15.459  -2.822  1.00 20.00     0.026 C 
HETATM    7  C7  UNL     1     -34.731  15.214  -4.218  1.00 20.00     0.096 C 
HETATM    8  N8  UNL     1     -34.774  12.640  -4.770  1.00 20.00    -0.197 NA
HETATM    9  F9  UNL     1     -33.338  19.094  -3.340  1.00 20.00    -0.211 F 
ENDROOT
TORSDOF 0
ENDMDL
MODEL 9
REMARK VINA RESULT:      -4.0     12.260     12.648
REMARK  0 active torsions:
REMARK  status: ('A' for Active; 'I' for Inactive)
ROOT
HETATM    1  C1  UNL     1     -35.242  17.201  -1.708  1.00 20.00     0.064 C 
HETATM    2  C2  UNL     1     -33.393  14.589  -3.770  1.00 20.00     0.012 C 
HETATM    3  C3  UNL     1     -34.406  13.830  -4.210  1.00 20.00     0.090 C 
HETATM    4  C4  UNL     1     -33.590  15.786  -2.886  1.00 20.00     0.049 C 
HETATM    5  C5  UNL     1     -35.843  14.112  -3.890  1.00 20.00     0.071 C 
HETATM    6  C6  UNL     1     -36.065  15.516  -3.321  1.00 20.00     0.026 C 
HETATM    7  C7  UNL     1     -34.999  15.863  -2.273  1.00 20.00     0.096 C 
HETATM    8  N8  UNL     1     -35.433  18.255  -1.262  1.00 20.00    -0.197 NA
HETATM    9  F9  UNL     1     -34.121  12.773  -5.001  1.00 20.00    -0.211 F 
ENDROOT
TORSDOF 0
ENDMDL
