MODEL 1
REMARK VINA RESULT:      -4.1      0.000      0.000
REMARK  2 active torsions:
REMARK  status: ('A' for Active; 'I' for Inactive)
REMARK    1  A    between atoms: C1_1  and  C7_7 
REMARK    2  A    between atoms: C4_4  and  C7_7 
ROOT
HETATM    1  C2  UNL     1     -33.607  18.046  -4.906  1.00 20.00     0.197 C 
HETATM    2  C3  UNL     1     -34.944  17.831  -4.250  1.00 20.00     0.197 C 
HETATM    3  C4  UNL     1     -33.911  15.831  -4.526  1.00 20.00     0.169 C 
HETATM    4  C5  UNL     1     -32.844  15.165  -3.668  1.00 20.00     0.080 C 
HETATM    5  O9  UNL     1     -33.286  16.757  -5.429  1.00 20.00    -0.353 OA
HETATM    6  O10 UNL     1     -34.819  16.536  -3.663  1.00 20.00    -0.353 OA
ENDROOT
BRANCH   3   7
HETATM    7  C7  UNL     1     -34.687  14.804  -5.341  1.00 20.00     0.105 C 
HETATM    8  C6  UNL     1     -34.403  14.958  -6.830  1.00 20.00     0.023 C 
BRANCH   7   9
HETATM    9  C1  UNL     1     -34.342  13.413  -4.844  1.00 20.00     0.240 C 
HETATM   10  O8  UNL     1     -35.145  12.632  -4.344  1.00 20.00    -0.306 OA
ENDBRANCH   7   9
ENDBRANCH   3   7
TORSDOF 2
ENDMDL
MODEL 2
REMARK VINA RESULT:      -4.0      0.919      2.074
REMARK  2 active torsions:
REMARK  status: ('A' for Active; 'I' for Inactive)
REMARK    1  A    between atoms: C1_1  and  C7_7 
REMARK    2  A    between atoms: C4_4  and  C7_7 
ROOT
HETATM    1  C2  UNL     1     -34.944  17.951  -5.059  1.00 20.00     0.197 C 
HETATM    2  C3  UNL     1     -33.491  17.948  -4.666  1.00 20.00     0.197 C 
HETATM    3  C4  UNL     1     -34.115  15.850  -5.259  1.00 20.00     0.169 C 
HETATM    4  C5  UNL     1     -34.239  15.230  -6.645  1.00 20.00     0.080 C 
HETATM    5  O9  UNL     1     -35.317  16.577  -4.955  1.00 20.00    -0.353 OA
HETATM    6  O10 UNL     1     -32.993  16.747  -5.256  1.00 20.00    -0.353 OA
ENDROOT
BRANCH   3   7
HETATM    7  C7  UNL     1     -33.909  14.782  -4.192  1.00 20.00     0.105 C 
HETATM    8  C6  UNL     1     -34.717  15.095  -2.939  1.00 20.00     0.023 C 
BRANCH   7   9
HETATM    9  C1  UNL     1     -34.272  13.427  -4.769  1.00 20.00     0.240 C 
HETATM   10  O8  UNL     1     -35.084  12.652  -4.275  1.00 20.00    -0.306 OA
ENDBRANCH   7   9
ENDBRANCH   3   7
TORSDOF 2
ENDMDL
MODEL 3
REMARK VINA RESULT:      -4.0      1.175      1.244
REMARK  2 active torsions:
REMARK  status: ('A' for Active; 'I' for Inactive)
REMARK    1  A    between atoms: C1_1  and  C7_7 
REMARK    2  A    between atoms: C4_4  and  C7_7 
ROOT
HETATM    1  C2  UNL     1     -33.979  17.613  -2.898  1.00 20.00     0.197 C 
HETATM    2  C3  UNL     1     -35.045  16.730  -2.308  1.00 20.00     0.197 C 
HETATM    3  C4  UNL     1     -33.820  15.537  -3.798  1.00 20.00     0.169 C 
HETATM    4  C5  UNL     1     -32.473  14.850  -3.615  1.00 20.00     0.080 C 
HETATM    5  O9  UNL     1     -33.607  16.927  -4.094  1.00 20.00    -0.353 OA
HETATM    6  O10 UNL     1     -34.568  15.412  -2.577  1.00 20.00    -0.353 OA
ENDROOT
BRANCH   3   7
HETATM    7  C7  UNL     1     -34.610  14.912  -4.940  1.00 20.00     0.105 C 
HETATM    8  C6  UNL     1     -34.210  15.516  -6.280  1.00 20.00     0.023 C 
BRANCH   7   9
HETATM    9  C1  UNL     1     -34.408  13.409  -4.918  1.00 20.00     0.240 C 
HETATM   10  O8  UNL     1     -35.135  12.615  -4.329  1.00 20.00    -0.306 OA
ENDBRANCH   7   9
ENDBRANCH   3   7
TORSDOF 2
ENDMDL
MODEL 4
REMARK VINA RESULT:      -4.0      1.524      1.769
REMARK  2 active torsions:
REMARK  status: ('A' for Active; 'I' for Inactive)
REMARK    1  A    between atoms: C1_1  and  C7_7 
REMARK    2  A    between atoms: C4_4  and  C7_7 
ROOT
HETATM    1  C2  UNL     1     -33.361  16.970  -5.166  1.00 20.00     0.197 C 
HETATM    2  C3  UNL     1     -34.842  17.159  -5.356  1.00 20.00     0.197 C 
HETATM    3  C4  UNL     1     -34.475  15.930  -3.486  1.00 20.00     0.169 C 
HETATM    4  C5  UNL     1     -34.110  16.389  -2.080  1.00 20.00     0.080 C 
HETATM    5  O9  UNL     1     -33.283  15.849  -4.284  1.00 20.00    -0.353 OA
HETATM    6  O10 UNL     1     -35.378  16.888  -4.061  1.00 20.00    -0.353 OA
ENDROOT
BRANCH   3   7
HETATM    7  C7  UNL     1     -35.140  14.560  -3.465  1.00 20.00     0.105 C 
HETATM    8  C6  UNL     1     -36.624  14.664  -3.797  1.00 20.00     0.023 C 
BRANCH   7   9
HETATM    9  C1  UNL     1     -34.413  13.640  -4.427  1.00 20.00     0.240 C 
HETATM   10  O8  UNL     1     -34.824  12.542  -4.788  1.00 20.00    -0.306 OA
ENDBRANCH   7   9
ENDBRANCH   3   7
TORSDOF 2
ENDMDL
MODEL 5
REMARK VINA RESULT:      -3.9      2.093      2.755
REMARK  2 active torsions:
REMARK  status: ('A' for Active; 'I' for Inactive)
REMARK    1  A    between atoms: C1_1  and  C7_7 
REMARK    2  A    between atoms: C4_4  and  C7_7 
ROOT
HETATM    1  C2  UNL     1     -34.018  15.862  -6.041  1.00 20.00     0.197 C 
HETATM    2  C3  UNL     1     -33.454  16.835  -5.041  1.00 20.00     0.197 C 
HETATM    3  C4  UNL     1     -34.086  14.937  -3.971  1.00 20.00     0.169 C 
HETATM    4  C5  UNL     1     -33.344  13.615  -3.824  1.00 20.00     0.080 C 
HETATM    5  O9  UNL     1     -34.773  14.959  -5.233  1.00 20.00    -0.353 OA
HETATM    6  O10 UNL     1     -33.128  16.008  -3.924  1.00 20.00    -0.353 OA
ENDROOT
BRANCH   3   7
HETATM    7  C7  UNL     1     -35.107  15.126  -2.857  1.00 20.00     0.105 C 
HETATM    8  C6  UNL     1     -34.673  16.222  -1.893  1.00 20.00     0.023 C 
BRANCH   7   9
HETATM    9  C1  UNL     1     -36.462  15.423  -3.472  1.00 20.00     0.240 C 
HETATM   10  O8  UNL     1     -37.443  14.691  -3.386  1.00 20.00    -0.306 OA
ENDBRANCH   7   9
ENDBRANCH   3   7
TORSDOF 2
ENDMDL
MODEL 6
REMARK VINA RESULT:      -3.8      1.942      2.620
REMARK  2 active torsions:
REMARK  status: ('A' for Active; 'I' for Inactive)
REMARK    1  A    between atoms: C1_1  and  C7_7 
REMARK    2  A    between atoms: C4_4  and  C7_7 
ROOT
HETATM    1  C2  UNL     1     -37.185  16.852  -4.085  1.00 20.00     0.197 C 
HETATM    2  C3  UNL     1     -37.556  15.394  -4.039  1.00 20.00     0.197 C 
HETATM    3  C4  UNL     1     -35.418  15.649  -3.325  1.00 20.00     0.169 C 
HETATM    4  C5  UNL     1     -34.897  16.055  -1.953  1.00 20.00     0.080 C 
HETATM    5  O9  UNL     1     -35.757  16.829  -4.072  1.00 20.00    -0.353 OA
HETATM    6  O10 UNL     1     -36.590  14.836  -3.149  1.00 20.00    -0.353 OA
ENDROOT
BRANCH   3   7
HETATM    7  C7  UNL     1     -34.372  14.863  -4.105  1.00 20.00     0.105 C 
HETATM    8  C6  UNL     1     -32.962  15.251  -3.677  1.00 20.00     0.023 C 
BRANCH   7   9
HETATM    9  C1  UNL     1     -34.627  13.379  -3.921  1.00 20.00     0.240 C 
HETATM   10  O8  UNL     1     -34.837  12.589  -4.835  1.00 20.00    -0.306 OA
ENDBRANCH   7   9
ENDBRANCH   3   7
TORSDOF 2
ENDMDL
MODEL 7
REMARK VINA RESULT:      -3.8      1.639      2.143
REMARK  2 active torsions:
REMARK  status: ('A' for Active; 'I' for Inactive)
REMARK    1  A    between atoms: C1_1  and  C7_7 
REMARK    2  A    between atoms: C4_4  and  C7_7 
ROOT
HETATM    1  C2  UNL     1     -34.927  18.071  -2.796  1.00 20.00     0.197 C 
HETATM    2  C3  UNL     1     -34.356  17.322  -1.622  1.00 20.00     0.197 C 
HETATM    3  C4  UNL     1     -34.283  16.001  -3.463  1.00 20.00     0.169 C 
HETATM    4  C5  UNL     1     -33.263  15.969  -4.593  1.00 20.00     0.080 C 
HETATM    5  O9  UNL     1     -35.248  17.034  -3.723  1.00 20.00    -0.353 OA
HETATM    6  O10 UNL     1     -33.596  16.280  -2.233  1.00 20.00    -0.353 OA
ENDROOT
BRANCH   3   7
HETATM    7  C7  UNL     1     -35.016  14.671  -3.341  1.00 20.00     0.105 C 
HETATM    8  C6  UNL     1     -36.485  14.817  -3.716  1.00 20.00     0.023 C 
BRANCH   7   9
HETATM    9  C1  UNL     1     -34.316  13.638  -4.204  1.00 20.00     0.240 C 
HETATM   10  O8  UNL     1     -34.842  12.617  -4.634  1.00 20.00    -0.306 OA
ENDBRANCH   7   9
ENDBRANCH   3   7
TORSDOF 2
ENDMDL
MODEL 8
REMARK VINA RESULT:      -3.8      1.516      2.599
REMARK  2 active torsions:
REMARK  status: ('A' for Active; 'I' for Inactive)
REMARK    1  A    between atoms: C1_1  and  C7_7 
REMARK    2  A    between atoms: C4_4  and  C7_7 
ROOT
HETATM    1  C2  UNL     1     -35.305  14.944  -7.409  1.00 20.00     0.197 C 
HETATM    2  C3  UNL     1     -36.399  15.174  -6.402  1.00 20.00     0.197 C 
HETATM    3  C4  UNL     1     -34.394  15.652  -5.457  1.00 20.00     0.169 C 
HETATM    4  C5  UNL     1     -33.556  16.921  -5.552  1.00 20.00     0.080 C 
HETATM    5  O9  UNL     1     -34.134  14.824  -6.602  1.00 20.00    -0.353 OA
HETATM    6  O10 UNL     1     -35.783  16.022  -5.433  1.00 20.00    -0.353 OA
ENDROOT
BRANCH   3   7
HETATM    7  C7  UNL     1     -34.062  14.862  -4.198  1.00 20.00     0.105 C 
HETATM    8  C6  UNL     1     -35.007  15.220  -3.059  1.00 20.00     0.023 C 
BRANCH   7   9
HETATM    9  C1  UNL     1     -34.103  13.379  -4.518  1.00 20.00     0.240 C 
HETATM   10  O8  UNL     1     -35.066  12.648  -4.313  1.00 20.00    -0.306 OA
ENDBRANCH   7   9
ENDBRANCH   3   7
TORSDOF 2
ENDMDL
MODEL 9
REMARK VINA RESULT:      -3.8      1.924      3.488
REMARK  2 active torsions:
REMARK  status: ('A' for Active; 'I' for Inactive)
REMARK    1  A    between atoms: C1_1  and  C7_7 
REMARK    2  A    between atoms: C4_4  and  C7_7 
ROOT
HETATM    1  C2  UNL     1     -37.888  14.782  -3.861  1.00 20.00     0.197 C 
HETATM    2  C3  UNL     1     -37.377  16.193  -3.750  1.00 20.00     0.197 C 
HETATM    3  C4  UNL     1     -35.702  14.841  -4.462  1.00 20.00     0.169 C 
HETATM    4  C5  UNL     1     -35.398  14.330  -5.865  1.00 20.00     0.080 C 
HETATM    5  O9  UNL     1     -36.694  13.998  -3.854  1.00 20.00    -0.353 OA
HETATM    6  O10 UNL     1     -36.203  16.184  -4.561  1.00 20.00    -0.353 OA
ENDROOT
BRANCH   3   7
HETATM    7  C7  UNL     1     -34.455  14.832  -3.587  1.00 20.00     0.105 C 
HETATM    8  C6  UNL     1     -33.608  13.593  -3.851  1.00 20.00     0.023 C 
BRANCH   7   9
HETATM    9  C1  UNL     1     -33.672  16.109  -3.826  1.00 20.00     0.240 C 
HETATM   10  O8  UNL     1     -32.755  16.224  -4.634  1.00 20.00    -0.306 OA
ENDBRANCH   7   9
ENDBRANCH   3   7
TORSDOF 2
ENDMDL
