MODEL 1
REMARK VINA RESULT:      -3.2      0.000      0.000
REMARK  1 active torsions:
REMARK  status: ('A' for Active; 'I' for Inactive)
REMARK    1  A    between atoms: C5_5  and  P6_6 
ROOT
HETATM    1  C1  UNL     1     -32.759  15.036  -3.711  1.00 20.00     0.021 C 
HETATM    2  C2  UNL     1     -34.828  15.643  -2.422  1.00 20.00     0.021 C 
HETATM    3  C3  UNL     1     -34.829  13.627  -3.920  1.00 20.00     0.021 C 
HETATM    4  C5  UNL     1     -34.294  15.054  -3.735  1.00 20.00    -0.015 C 
ENDROOT
BRANCH   4   5
HETATM    5  P6  UNL     1     -34.871  16.132  -5.168  1.00 20.00    -0.013 P 
HETATM    6  C4  UNL     1     -33.456  17.289  -5.207  1.00 20.00     0.062 C 
HETATM    7 CL7  UNL     1     -34.377  14.857  -6.752  1.00 20.00    -0.096 Cl
ENDBRANCH   4   5
TORSDOF 1
ENDMDL
MODEL 2
REMARK VINA RESULT:      -3.1      0.040      1.647
REMARK  1 active torsions:
REMARK  status: ('A' for Active; 'I' for Inactive)
REMARK    1  A    between atoms: C5_5  and  P6_6 
ROOT
HETATM    1  C1  UNL     1     -34.822  13.668  -3.895  1.00 20.00     0.021 C 
HETATM    2  C2  UNL     1     -32.751  15.077  -3.701  1.00 20.00     0.021 C 
HETATM    3  C3  UNL     1     -34.810  15.687  -2.400  1.00 20.00     0.021 C 
HETATM    4  C5  UNL     1     -34.285  15.096  -3.715  1.00 20.00    -0.015 C 
ENDROOT
BRANCH   4   5
HETATM    5  P6  UNL     1     -34.871  16.155  -5.159  1.00 20.00    -0.013 P 
HETATM    6  C4  UNL     1     -33.461  17.317  -5.215  1.00 20.00     0.062 C 
HETATM    7 CL7  UNL     1     -34.378  14.864  -6.730  1.00 20.00    -0.096 Cl
ENDBRANCH   4   5
TORSDOF 1
ENDMDL
MODEL 3
REMARK VINA RESULT:      -3.1      2.444      3.018
REMARK  1 active torsions:
REMARK  status: ('A' for Active; 'I' for Inactive)
REMARK    1  A    between atoms: C5_5  and  P6_6 
ROOT
HETATM    1  C1  UNL     1     -34.202  15.207  -5.892  1.00 20.00     0.021 C 
HETATM    2  C2  UNL     1     -32.912  15.068  -3.740  1.00 20.00     0.021 C 
HETATM    3  C3  UNL     1     -34.832  13.503  -4.157  1.00 20.00     0.021 C 
HETATM    4  C5  UNL     1     -34.297  14.923  -4.386  1.00 20.00    -0.015 C 
ENDROOT
BRANCH   4   5
HETATM    5  P6  UNL     1     -35.471  16.171  -3.602  1.00 20.00    -0.013 P 
HETATM    6  C4  UNL     1     -36.947  15.099  -3.485  1.00 20.00     0.062 C 
HETATM    7 CL7  UNL     1     -34.768  16.086  -1.633  1.00 20.00    -0.096 Cl
ENDBRANCH   4   5
TORSDOF 1
ENDMDL
MODEL 4
REMARK VINA RESULT:      -3.1      2.445      3.304
REMARK  1 active torsions:
REMARK  status: ('A' for Active; 'I' for Inactive)
REMARK    1  A    between atoms: C5_5  and  P6_6 
ROOT
HETATM    1  C1  UNL     1     -34.892  13.499  -4.173  1.00 20.00     0.021 C 
HETATM    2  C2  UNL     1     -34.222  15.197  -5.900  1.00 20.00     0.021 C 
HETATM    3  C3  UNL     1     -32.935  15.017  -3.750  1.00 20.00     0.021 C 
HETATM    4  C5  UNL     1     -34.323  14.909  -4.396  1.00 20.00    -0.015 C 
ENDROOT
BRANCH   4   5
HETATM    5  P6  UNL     1     -35.483  16.167  -3.608  1.00 20.00    -0.013 P 
HETATM    6  C4  UNL     1     -36.968  15.108  -3.484  1.00 20.00     0.062 C 
HETATM    7 CL7  UNL     1     -34.772  16.076  -1.642  1.00 20.00    -0.096 Cl
ENDBRANCH   4   5
TORSDOF 1
ENDMDL
MODEL 5
REMARK VINA RESULT:      -3.1      0.205      1.694
REMARK  1 active torsions:
REMARK  status: ('A' for Active; 'I' for Inactive)
REMARK    1  A    between atoms: C5_5  and  P6_6 
ROOT
HETATM    1  C1  UNL     1     -35.096  15.525  -2.597  1.00 20.00     0.021 C 
HETATM    2  C2  UNL     1     -34.895  13.572  -4.165  1.00 20.00     0.021 C 
HETATM    3  C3  UNL     1     -32.897  15.022  -3.702  1.00 20.00     0.021 C 
HETATM    4  C5  UNL     1     -34.422  15.003  -3.874  1.00 20.00    -0.015 C 
ENDROOT
BRANCH   4   5
HETATM    5  P6  UNL     1     -34.905  16.113  -5.317  1.00 20.00    -0.013 P 
HETATM    6  C4  UNL     1     -33.455  17.226  -5.284  1.00 20.00     0.062 C 
HETATM    7 CL7  UNL     1     -34.383  14.839  -6.894  1.00 20.00    -0.096 Cl
ENDBRANCH   4   5
TORSDOF 1
ENDMDL
MODEL 6
REMARK VINA RESULT:      -3.1      1.255      2.236
REMARK  1 active torsions:
REMARK  status: ('A' for Active; 'I' for Inactive)
REMARK    1  A    between atoms: C5_5  and  P6_6 
ROOT
HETATM    1  C1  UNL     1     -33.427  16.265  -4.925  1.00 20.00     0.021 C 
HETATM    2  C2  UNL     1     -34.457  15.657  -2.716  1.00 20.00     0.021 C 
HETATM    3  C3  UNL     1     -32.366  14.498  -3.488  1.00 20.00     0.021 C 
HETATM    4  C5  UNL     1     -33.696  15.121  -3.936  1.00 20.00    -0.015 C 
ENDROOT
BRANCH   4   5
HETATM    5  P6  UNL     1     -34.748  13.811  -4.787  1.00 20.00    -0.013 P 
HETATM    6  C4  UNL     1     -36.384  14.363  -4.186  1.00 20.00     0.062 C 
HETATM    7 CL7  UNL     1     -34.754  14.607  -6.723  1.00 20.00    -0.096 Cl
ENDBRANCH   4   5
TORSDOF 1
ENDMDL
MODEL 7
REMARK VINA RESULT:      -3.1      2.418      2.876
REMARK  1 active torsions:
REMARK  status: ('A' for Active; 'I' for Inactive)
REMARK    1  A    between atoms: C5_5  and  P6_6 
ROOT
HETATM    1  C1  UNL     1     -36.084  15.290  -4.669  1.00 20.00     0.021 C 
HETATM    2  C2  UNL     1     -34.408  14.995  -6.518  1.00 20.00     0.021 C 
HETATM    3  C3  UNL     1     -34.695  13.200  -4.786  1.00 20.00     0.021 C 
HETATM    4  C5  UNL     1     -34.709  14.713  -5.040  1.00 20.00    -0.015 C 
ENDROOT
BRANCH   4   5
HETATM    5  P6  UNL     1     -33.392  15.541  -3.978  1.00 20.00    -0.013 P 
HETATM    6  C4  UNL     1     -33.475  17.211  -4.719  1.00 20.00     0.062 C 
HETATM    7 CL7  UNL     1     -34.515  15.830  -2.236  1.00 20.00    -0.096 Cl
ENDBRANCH   4   5
TORSDOF 1
ENDMDL
MODEL 8
REMARK VINA RESULT:      -3.1      2.510      2.739
REMARK  1 active torsions:
REMARK  status: ('A' for Active; 'I' for Inactive)
REMARK    1  A    between atoms: C5_5  and  P6_6 
ROOT
HETATM    1  C1  UNL     1     -34.450  14.769  -5.875  1.00 20.00     0.021 C 
HETATM    2  C2  UNL     1     -33.540  13.624  -3.831  1.00 20.00     0.021 C 
HETATM    3  C3  UNL     1     -35.924  14.414  -3.871  1.00 20.00     0.021 C 
HETATM    4  C5  UNL     1     -34.493  14.714  -4.341  1.00 20.00    -0.015 C 
ENDROOT
BRANCH   4   5
HETATM    5  P6  UNL     1     -33.942  16.379  -3.654  1.00 20.00    -0.013 P 
HETATM    6  C4  UNL     1     -35.297  17.400  -4.334  1.00 20.00     0.062 C 
HETATM    7 CL7  UNL     1     -34.586  16.143  -1.676  1.00 20.00    -0.096 Cl
ENDBRANCH   4   5
TORSDOF 1
ENDMDL
MODEL 9
REMARK VINA RESULT:      -3.1      2.425      2.687
REMARK  1 active torsions:
REMARK  status: ('A' for Active; 'I' for Inactive)
REMARK    1  A    between atoms: C5_5  and  P6_6 
ROOT
HETATM    1  C1  UNL     1     -34.916  13.262  -4.332  1.00 20.00     0.021 C 
HETATM    2  C2  UNL     1     -36.159  15.434  -4.550  1.00 20.00     0.021 C 
HETATM    3  C3  UNL     1     -34.516  14.744  -6.320  1.00 20.00     0.021 C 
HETATM    4  C5  UNL     1     -34.829  14.716  -4.818  1.00 20.00    -0.015 C 
ENDROOT
BRANCH   4   5
HETATM    5  P6  UNL     1     -33.458  15.596  -3.874  1.00 20.00    -0.013 P 
HETATM    6  C4  UNL     1     -33.605  17.234  -4.671  1.00 20.00     0.062 C 
HETATM    7 CL7  UNL     1     -34.472  15.943  -2.076  1.00 20.00    -0.096 Cl
ENDBRANCH   4   5
TORSDOF 1
ENDMDL
