MODEL 1
REMARK VINA RESULT:      -5.7      0.000      0.000
REMARK  0 active torsions:
REMARK  status: ('A' for Active; 'I' for Inactive)
ROOT
HETATM    1  C1  UNL     1     -32.342   5.508   2.717  1.00 20.00    -0.024 C 
HETATM    2  C2  UNL     1     -31.942   6.780   2.948  1.00 20.00    -0.024 C 
HETATM    3  C3  UNL     1     -34.808   4.607   5.351  1.00 20.00     0.272 C 
HETATM    4  C4  UNL     1     -34.080   6.533   6.354  1.00 20.00     0.272 C 
HETATM    5  C5  UNL     1     -33.794   5.834   2.972  1.00 20.00     0.031 C 
HETATM    6  C6  UNL     1     -33.234   7.146   3.666  1.00 20.00     0.031 C 
HETATM    7  C7  UNL     1     -34.516   5.632   4.275  1.00 20.00     0.108 C 
HETATM    8  C8  UNL     1     -33.374   6.420   5.006  1.00 20.00     0.108 C 
HETATM    9  O9  UNL     1     -35.112   3.427   5.261  1.00 20.00    -0.264 OA
HETATM   10  O10 UNL     1     -34.085   7.447   7.166  1.00 20.00    -0.264 OA
HETATM   11  O11 UNL     1     -34.725   5.304   6.563  1.00 20.00    -0.244 OA
ENDROOT
TORSDOF 0
ENDMDL
MODEL 2
REMARK VINA RESULT:      -5.1     11.690     12.605
REMARK  0 active torsions:
REMARK  status: ('A' for Active; 'I' for Inactive)
ROOT
HETATM    1  C1  UNL     1     -33.746  16.682  -1.692  1.00 20.00    -0.024 C 
HETATM    2  C2  UNL     1     -34.963  17.273  -1.733  1.00 20.00    -0.024 C 
HETATM    3  C3  UNL     1     -33.888  13.664  -3.860  1.00 20.00     0.272 C 
HETATM    4  C4  UNL     1     -36.145  14.046  -3.835  1.00 20.00     0.272 C 
HETATM    5  C5  UNL     1     -33.726  16.440  -3.183  1.00 20.00     0.031 C 
HETATM    6  C6  UNL     1     -35.289  16.701  -3.105  1.00 20.00     0.031 C 
HETATM    7  C7  UNL     1     -34.124  15.160  -3.861  1.00 20.00     0.108 C 
HETATM    8  C8  UNL     1     -35.477  15.183  -3.067  1.00 20.00     0.108 C 
HETATM    9  O9  UNL     1     -32.850  13.025  -3.764  1.00 20.00    -0.264 OA
HETATM   10  O10 UNL     1     -37.312  13.902  -4.170  1.00 20.00    -0.264 OA
HETATM   11  O11 UNL     1     -35.148  13.085  -4.060  1.00 20.00    -0.244 OA
ENDROOT
TORSDOF 0
ENDMDL
MODEL 3
REMARK VINA RESULT:      -5.0     12.552     13.576
REMARK  0 active torsions:
REMARK  status: ('A' for Active; 'I' for Inactive)
ROOT
HETATM    1  C1  UNL     1     -34.731  16.116  -2.125  1.00 20.00    -0.024 C 
HETATM    2  C2  UNL     1     -34.393  17.317  -2.649  1.00 20.00    -0.024 C 
HETATM    3  C3  UNL     1     -34.621  13.616  -4.875  1.00 20.00     0.272 C 
HETATM    4  C4  UNL     1     -34.475  15.460  -6.224  1.00 20.00     0.272 C 
HETATM    5  C5  UNL     1     -33.630  15.394  -2.864  1.00 20.00     0.031 C 
HETATM    6  C6  UNL     1     -33.580  16.692  -3.775  1.00 20.00     0.031 C 
HETATM    7  C7  UNL     1     -33.790  14.666  -4.168  1.00 20.00     0.108 C 
HETATM    8  C8  UNL     1     -34.463  15.945  -4.777  1.00 20.00     0.108 C 
HETATM    9  O9  UNL     1     -35.035  12.535  -4.482  1.00 20.00    -0.264 OA
HETATM   10  O10 UNL     1     -34.300  16.081  -7.263  1.00 20.00    -0.264 OA
HETATM   11  O11 UNL     1     -34.803  14.097  -6.178  1.00 20.00    -0.244 OA
ENDROOT
TORSDOF 0
ENDMDL
MODEL 4
REMARK VINA RESULT:      -4.9     12.454     13.568
REMARK  0 active torsions:
REMARK  status: ('A' for Active; 'I' for Inactive)
ROOT
HETATM    1  C1  UNL     1     -33.978  17.300  -2.514  1.00 20.00    -0.024 C 
HETATM    2  C2  UNL     1     -34.390  16.436  -1.557  1.00 20.00    -0.024 C 
HETATM    3  C3  UNL     1     -34.414  15.627  -5.806  1.00 20.00     0.272 C 
HETATM    4  C4  UNL     1     -34.745  13.749  -4.539  1.00 20.00     0.272 C 
HETATM    5  C5  UNL     1     -35.158  16.998  -3.407  1.00 20.00     0.031 C 
HETATM    6  C6  UNL     1     -35.333  15.705  -2.503  1.00 20.00     0.031 C 
HETATM    7  C7  UNL     1     -35.158  16.019  -4.547  1.00 20.00     0.108 C 
HETATM    8  C8  UNL     1     -34.578  14.927  -3.583  1.00 20.00     0.108 C 
HETATM    9  O9  UNL     1     -33.944  16.318  -6.698  1.00 20.00    -0.264 OA
HETATM   10  O10 UNL     1     -35.054  12.588  -4.311  1.00 20.00    -0.264 OA
HETATM   11  O11 UNL     1     -34.402  14.226  -5.813  1.00 20.00    -0.244 OA
ENDROOT
TORSDOF 0
ENDMDL
MODEL 5
REMARK VINA RESULT:      -4.9     12.665     13.820
REMARK  0 active torsions:
REMARK  status: ('A' for Active; 'I' for Inactive)
ROOT
HETATM    1  C1  UNL     1     -34.752  17.487  -6.223  1.00 20.00    -0.024 C 
HETATM    2  C2  UNL     1     -34.947  16.627  -7.251  1.00 20.00    -0.024 C 
HETATM    3  C3  UNL     1     -33.932  15.472  -3.208  1.00 20.00     0.272 C 
HETATM    4  C4  UNL     1     -34.621  13.706  -4.493  1.00 20.00     0.272 C 
HETATM    5  C5  UNL     1     -33.527  16.751  -5.736  1.00 20.00     0.031 C 
HETATM    6  C6  UNL     1     -34.058  15.555  -6.634  1.00 20.00     0.031 C 
HETATM    7  C7  UNL     1     -33.508  15.723  -4.640  1.00 20.00     0.108 C 
HETATM    8  C8  UNL     1     -34.670  14.959  -5.364  1.00 20.00     0.108 C 
HETATM    9  O9  UNL     1     -33.865  16.192  -2.223  1.00 20.00    -0.264 OA
HETATM   10  O10 UNL     1     -34.788  12.533  -4.792  1.00 20.00    -0.264 OA
HETATM   11  O11 UNL     1     -34.396  14.151  -3.181  1.00 20.00    -0.244 OA
ENDROOT
TORSDOF 0
ENDMDL
MODEL 6
REMARK VINA RESULT:      -4.9     11.735     12.732
REMARK  0 active torsions:
REMARK  status: ('A' for Active; 'I' for Inactive)
ROOT
HETATM    1  C1  UNL     1     -35.037  17.609  -3.712  1.00 20.00    -0.024 C 
HETATM    2  C2  UNL     1     -33.709  17.630  -3.451  1.00 20.00    -0.024 C 
HETATM    3  C3  UNL     1     -36.113  14.051  -3.798  1.00 20.00     0.272 C 
HETATM    4  C4  UNL     1     -33.864  13.620  -3.819  1.00 20.00     0.272 C 
HETATM    5  C5  UNL     1     -35.306  16.553  -2.667  1.00 20.00     0.031 C 
HETATM    6  C6  UNL     1     -33.743  16.288  -2.731  1.00 20.00     0.031 C 
HETATM    7  C7  UNL     1     -35.416  15.078  -2.930  1.00 20.00     0.108 C 
HETATM    8  C8  UNL     1     -34.043  15.130  -3.685  1.00 20.00     0.108 C 
HETATM    9  O9  UNL     1     -37.280  13.970  -4.150  1.00 20.00    -0.264 OA
HETATM   10  O10 UNL     1     -32.850  12.940  -3.756  1.00 20.00    -0.264 OA
HETATM   11  O11 UNL     1     -35.133  13.099  -4.111  1.00 20.00    -0.244 OA
ENDROOT
TORSDOF 0
ENDMDL
MODEL 7
REMARK VINA RESULT:      -4.8     12.623     13.922
REMARK  0 active torsions:
REMARK  status: ('A' for Active; 'I' for Inactive)
ROOT
HETATM    1  C1  UNL     1     -34.396  18.262  -1.062  1.00 20.00    -0.024 C 
HETATM    2  C2  UNL     1     -34.452  17.104  -0.362  1.00 20.00    -0.024 C 
HETATM    3  C3  UNL     1     -33.524  17.412  -4.576  1.00 20.00     0.272 C 
HETATM    4  C4  UNL     1     -33.055  15.346  -3.707  1.00 20.00     0.272 C 
HETATM    5  C5  UNL     1     -35.149  17.682  -2.235  1.00 20.00     0.031 C 
HETATM    6  C6  UNL     1     -34.784  16.276  -1.596  1.00 20.00     0.031 C 
HETATM    7  C7  UNL     1     -34.522  17.113  -3.476  1.00 20.00     0.108 C 
HETATM    8  C8  UNL     1     -33.612  16.206  -2.576  1.00 20.00     0.108 C 
HETATM    9  O9  UNL     1     -33.342  18.432  -5.225  1.00 20.00    -0.264 OA
HETATM   10  O10 UNL     1     -32.783  14.155  -3.729  1.00 20.00    -0.264 OA
HETATM   11  O11 UNL     1     -32.827  16.216  -4.785  1.00 20.00    -0.244 OA
ENDROOT
TORSDOF 0
ENDMDL
MODEL 8
REMARK VINA RESULT:      -4.8     12.316     13.370
REMARK  0 active torsions:
REMARK  status: ('A' for Active; 'I' for Inactive)
ROOT
HETATM    1  C1  UNL     1     -35.304  17.926  -0.595  1.00 20.00    -0.024 C 
HETATM    2  C2  UNL     1     -34.101  18.528  -0.754  1.00 20.00    -0.024 C 
HETATM    3  C3  UNL     1     -35.632  15.345  -3.252  1.00 20.00     0.272 C 
HETATM    4  C4  UNL     1     -33.793  16.376  -4.147  1.00 20.00     0.272 C 
HETATM    5  C5  UNL     1     -34.731  16.546  -0.815  1.00 20.00     0.031 C 
HETATM    6  C6  UNL     1     -33.488  17.312  -1.436  1.00 20.00     0.031 C 
HETATM    7  C7  UNL     1     -34.735  15.801  -2.120  1.00 20.00     0.108 C 
HETATM    8  C8  UNL     1     -34.101  17.055  -2.815  1.00 20.00     0.108 C 
HETATM    9  O9  UNL     1     -36.751  14.854  -3.228  1.00 20.00    -0.264 OA
HETATM   10  O10 UNL     1     -32.843  16.519  -4.903  1.00 20.00    -0.264 OA
HETATM   11  O11 UNL     1     -34.887  15.540  -4.422  1.00 20.00    -0.244 OA
ENDROOT
TORSDOF 0
ENDMDL
MODEL 9
REMARK VINA RESULT:      -4.8     11.968     13.184
REMARK  0 active torsions:
REMARK  status: ('A' for Active; 'I' for Inactive)
ROOT
HETATM    1  C1  UNL     1     -34.900  14.174  -5.288  1.00 20.00    -0.024 C 
HETATM    2  C2  UNL     1     -35.206  13.340  -4.267  1.00 20.00    -0.024 C 
HETATM    3  C3  UNL     1     -33.668  17.356  -3.812  1.00 20.00     0.272 C 
HETATM    4  C4  UNL     1     -34.479  16.485  -1.856  1.00 20.00     0.272 C 
HETATM    5  C5  UNL     1     -33.609  14.618  -4.644  1.00 20.00     0.031 C 
HETATM    6  C6  UNL     1     -34.226  14.010  -3.314  1.00 20.00     0.031 C 
HETATM    7  C7  UNL     1     -33.433  15.860  -3.816  1.00 20.00     0.108 C 
HETATM    8  C8  UNL     1     -34.662  15.429  -2.942  1.00 20.00     0.108 C 
HETATM    9  O9  UNL     1     -33.491  18.189  -4.688  1.00 20.00    -0.264 OA
HETATM   10  O10 UNL     1     -34.660  16.411  -0.649  1.00 20.00    -0.264 OA
HETATM   11  O11 UNL     1     -34.100  17.664  -2.515  1.00 20.00    -0.244 OA
ENDROOT
TORSDOF 0
ENDMDL
