MODEL 1
REMARK VINA RESULT:      -4.9      0.000      0.000
REMARK  1 active torsions:
REMARK  status: ('A' for Active; 'I' for Inactive)
REMARK    1  A    between atoms: C5_5  and  C10_10 
ROOT
HETATM    1  C1  UNL     1     -33.476  14.824  -3.394  1.00 20.00     0.027 A 
HETATM    2  C2  UNL     1     -35.864  15.053  -3.555  1.00 20.00     0.027 A 
HETATM    3  C3  UNL     1     -33.616  13.549  -3.919  1.00 20.00     0.116 A 
HETATM    4  C4  UNL     1     -35.897  13.769  -4.075  1.00 20.00     0.116 A 
HETATM    5  C5  UNL     1     -34.626  15.582  -3.210  1.00 20.00    -0.051 A 
HETATM    6  N11 UNL     1     -34.802  13.001  -4.267  1.00 20.00    -0.273 NA
ENDROOT
BRANCH   5   7
HETATM    7  C10 UNL     1     -34.525  17.067  -2.604  1.00 20.00     0.026 C 
HETATM    8  C8  UNL     1     -35.733  17.628  -1.788  1.00 20.00     0.043 C 
HETATM    9  C6  UNL     1     -34.861  17.400  -0.580  1.00 20.00    -0.088 C 
HETATM   10  C7  UNL     1     -35.123  17.312   0.725  1.00 20.00     0.014 C 
HETATM   11  C9  UNL     1     -33.586  17.312  -1.379  1.00 20.00     0.043 C 
ENDBRANCH   5   7
TORSDOF 1
ENDMDL
MODEL 2
REMARK VINA RESULT:      -4.8     10.630     11.628
REMARK  1 active torsions:
REMARK  status: ('A' for Active; 'I' for Inactive)
REMARK    1  A    between atoms: C5_5  and  C10_10 
ROOT
HETATM    1  C1  UNL     1     -33.334   6.271   5.522  1.00 20.00     0.027 A 
HETATM    2  C2  UNL     1     -34.296   5.355   3.517  1.00 20.00     0.027 A 
HETATM    3  C3  UNL     1     -34.430   5.774   6.210  1.00 20.00     0.116 A 
HETATM    4  C4  UNL     1     -35.348   4.899   4.295  1.00 20.00     0.116 A 
HETATM    5  C5  UNL     1     -33.275   6.054   4.150  1.00 20.00    -0.051 A 
HETATM    6  N11 UNL     1     -35.441   5.090   5.630  1.00 20.00    -0.273 NA
ENDROOT
BRANCH   5   7
HETATM    7  C10 UNL     1     -32.029   6.606   3.299  1.00 20.00     0.026 C 
HETATM    8  C8  UNL     1     -32.246   6.957   1.792  1.00 20.00     0.043 C 
HETATM    9  C6  UNL     1     -32.185   8.392   2.248  1.00 20.00    -0.088 C 
HETATM   10  C7  UNL     1     -32.567   9.540   1.686  1.00 20.00     0.014 C 
HETATM   11  C9  UNL     1     -31.529   8.063   3.564  1.00 20.00     0.043 C 
ENDBRANCH   5   7
TORSDOF 1
ENDMDL
MODEL 3
REMARK VINA RESULT:      -4.7      0.790      1.780
REMARK  1 active torsions:
REMARK  status: ('A' for Active; 'I' for Inactive)
REMARK    1  A    between atoms: C5_5  and  C10_10 
ROOT
HETATM    1  C1  UNL     1     -35.650  14.981  -3.375  1.00 20.00     0.027 A 
HETATM    2  C2  UNL     1     -33.332  14.350  -3.492  1.00 20.00     0.027 A 
HETATM    3  C3  UNL     1     -35.938  13.857  -4.132  1.00 20.00     0.116 A 
HETATM    4  C4  UNL     1     -33.725  13.255  -4.244  1.00 20.00     0.116 A 
HETATM    5  C5  UNL     1     -34.319  15.225  -3.054  1.00 20.00    -0.051 A 
HETATM    6  N11 UNL     1     -35.007  12.984  -4.576  1.00 20.00    -0.273 NA
ENDROOT
BRANCH   5   7
HETATM    7  C10 UNL     1     -33.924  16.513  -2.178  1.00 20.00     0.026 C 
HETATM    8  C8  UNL     1     -34.488  17.908  -2.599  1.00 20.00     0.043 C 
HETATM    9  C6  UNL     1     -35.404  17.755  -1.412  1.00 20.00    -0.088 C 
HETATM   10  C7  UNL     1     -36.541  18.357  -1.058  1.00 20.00     0.014 C 
HETATM   11  C9  UNL     1     -34.567  16.682  -0.764  1.00 20.00     0.043 C 
ENDBRANCH   5   7
TORSDOF 1
ENDMDL
MODEL 4
REMARK VINA RESULT:      -4.5      2.299      4.659
REMARK  1 active torsions:
REMARK  status: ('A' for Active; 'I' for Inactive)
REMARK    1  A    between atoms: C5_5  and  C10_10 
ROOT
HETATM    1  C1  UNL     1     -33.872  17.126  -3.295  1.00 20.00     0.027 A 
HETATM    2  C2  UNL     1     -34.591  16.448  -1.103  1.00 20.00     0.027 A 
HETATM    3  C3  UNL     1     -33.653  18.390  -2.773  1.00 20.00     0.116 A 
HETATM    4  C4  UNL     1     -34.339  17.743  -0.679  1.00 20.00     0.116 A 
HETATM    5  C5  UNL     1     -34.352  16.142  -2.438  1.00 20.00    -0.051 A 
HETATM    6  N11 UNL     1     -33.874  18.725  -1.482  1.00 20.00    -0.273 NA
ENDROOT
BRANCH   5   7
HETATM    7  C10 UNL     1     -34.625  14.657  -2.986  1.00 20.00     0.026 C 
HETATM    8  C8  UNL     1     -35.834  14.424  -3.948  1.00 20.00     0.043 C 
HETATM    9  C6  UNL     1     -34.790  14.306  -5.028  1.00 20.00    -0.088 C 
HETATM   10  C7  UNL     1     -34.848  14.381  -6.359  1.00 20.00     0.014 C 
HETATM   11  C9  UNL     1     -33.658  14.067  -4.063  1.00 20.00     0.043 C 
ENDBRANCH   5   7
TORSDOF 1
ENDMDL
MODEL 5
REMARK VINA RESULT:      -4.4      2.349      4.687
REMARK  1 active torsions:
REMARK  status: ('A' for Active; 'I' for Inactive)
REMARK    1  A    between atoms: C5_5  and  C10_10 
ROOT
HETATM    1  C1  UNL     1     -34.469  16.323  -1.417  1.00 20.00     0.027 A 
HETATM    2  C2  UNL     1     -33.706  18.363  -2.436  1.00 20.00     0.027 A 
HETATM    3  C3  UNL     1     -34.859  17.078  -0.323  1.00 20.00     0.116 A 
HETATM    4  C4  UNL     1     -34.131  19.027  -1.297  1.00 20.00     0.116 A 
HETATM    5  C5  UNL     1     -33.881  16.985  -2.489  1.00 20.00    -0.051 A 
HETATM    6  N11 UNL     1     -34.706  18.418  -0.236  1.00 20.00    -0.273 NA
ENDROOT
BRANCH   5   7
HETATM    7  C10 UNL     1     -33.409  16.161  -3.785  1.00 20.00     0.026 C 
HETATM    8  C8  UNL     1     -33.005  14.661  -3.614  1.00 20.00     0.043 C 
HETATM    9  C6  UNL     1     -34.325  14.362  -4.277  1.00 20.00    -0.088 C 
HETATM   10  C7  UNL     1     -35.079  13.263  -4.344  1.00 20.00     0.014 C 
HETATM   11  C9  UNL     1     -34.482  15.750  -4.843  1.00 20.00     0.043 C 
ENDBRANCH   5   7
TORSDOF 1
ENDMDL
MODEL 6
REMARK VINA RESULT:      -4.4      3.226      5.569
REMARK  1 active torsions:
REMARK  status: ('A' for Active; 'I' for Inactive)
REMARK    1  A    between atoms: C5_5  and  C10_10 
ROOT
HETATM    1  C1  UNL     1     -34.295  18.140   1.136  1.00 20.00     0.027 A 
HETATM    2  C2  UNL     1     -32.429  18.669  -0.287  1.00 20.00     0.027 A 
HETATM    3  C3  UNL     1     -33.528  18.566   2.208  1.00 20.00     0.116 A 
HETATM    4  C4  UNL     1     -31.747  19.071   0.850  1.00 20.00     0.116 A 
HETATM    5  C5  UNL     1     -33.727  18.195  -0.132  1.00 20.00    -0.051 A 
HETATM    6  N11 UNL     1     -32.265  19.033   2.097  1.00 20.00    -0.273 NA
ENDROOT
BRANCH   5   7
HETATM    7  C10 UNL     1     -34.568  17.715  -1.414  1.00 20.00     0.026 C 
HETATM    8  C8  UNL     1     -33.895  17.786  -2.823  1.00 20.00     0.043 C 
HETATM    9  C6  UNL     1     -33.788  16.287  -2.707  1.00 20.00    -0.088 C 
HETATM   10  C7  UNL     1     -33.050  15.378  -3.347  1.00 20.00     0.014 C 
HETATM   11  C9  UNL     1     -34.820  16.186  -1.614  1.00 20.00     0.043 C 
ENDBRANCH   5   7
TORSDOF 1
ENDMDL
MODEL 7
REMARK VINA RESULT:      -4.4      2.609      3.375
REMARK  1 active torsions:
REMARK  status: ('A' for Active; 'I' for Inactive)
REMARK    1  A    between atoms: C5_5  and  C10_10 
ROOT
HETATM    1  C1  UNL     1     -36.002  15.983  -5.544  1.00 20.00     0.027 A 
HETATM    2  C2  UNL     1     -34.361  14.952  -6.968  1.00 20.00     0.027 A 
HETATM    3  C3  UNL     1     -36.969  15.555  -6.438  1.00 20.00     0.116 A 
HETATM    4  C4  UNL     1     -35.403  14.569  -7.799  1.00 20.00     0.116 A 
HETATM    5  C5  UNL     1     -34.675  15.673  -5.822  1.00 20.00    -0.051 A 
HETATM    6  N11 UNL     1     -36.703  14.852  -7.562  1.00 20.00    -0.273 NA
ENDROOT
BRANCH   5   7
HETATM    7  C10 UNL     1     -33.510  16.143  -4.821  1.00 20.00     0.026 C 
HETATM    8  C8  UNL     1     -33.778  17.358  -3.875  1.00 20.00     0.043 C 
HETATM    9  C6  UNL     1     -33.884  16.322  -2.785  1.00 20.00    -0.088 C 
HETATM   10  C7  UNL     1     -34.404  16.347  -1.556  1.00 20.00     0.014 C 
HETATM   11  C9  UNL     1     -33.183  15.251  -3.581  1.00 20.00     0.043 C 
ENDBRANCH   5   7
TORSDOF 1
ENDMDL
MODEL 8
REMARK VINA RESULT:      -4.3      2.339      4.681
REMARK  1 active torsions:
REMARK  status: ('A' for Active; 'I' for Inactive)
REMARK    1  A    between atoms: C5_5  and  C10_10 
ROOT
HETATM    1  C1  UNL     1     -36.070  16.775  -2.817  1.00 20.00     0.027 A 
HETATM    2  C2  UNL     1     -34.559  16.589  -0.955  1.00 20.00     0.027 A 
HETATM    3  C3  UNL     1     -36.687  17.816  -2.143  1.00 20.00     0.116 A 
HETATM    4  C4  UNL     1     -35.244  17.639  -0.365  1.00 20.00     0.116 A 
HETATM    5  C5  UNL     1     -34.987  16.155  -2.204  1.00 20.00    -0.051 A 
HETATM    6  N11 UNL     1     -36.300  18.266  -0.929  1.00 20.00    -0.273 NA
ENDROOT
BRANCH   5   7
HETATM    7  C10 UNL     1     -34.232  14.942  -2.939  1.00 20.00     0.026 C 
HETATM    8  C8  UNL     1     -35.040  14.046  -3.932  1.00 20.00     0.043 C 
HETATM    9  C6  UNL     1     -34.279  14.775  -5.010  1.00 20.00    -0.088 C 
HETATM   10  C7  UNL     1     -34.478  14.921  -6.321  1.00 20.00     0.014 C 
HETATM   11  C9  UNL     1     -33.209  15.274  -4.073  1.00 20.00     0.043 C 
ENDBRANCH   5   7
TORSDOF 1
ENDMDL
MODEL 9
REMARK VINA RESULT:      -4.3      2.903      5.044
REMARK  1 active torsions:
REMARK  status: ('A' for Active; 'I' for Inactive)
REMARK    1  A    between atoms: C5_5  and  C10_10 
ROOT
HETATM    1  C1  UNL     1     -35.035  17.206   0.268  1.00 20.00     0.027 A 
HETATM    2  C2  UNL     1     -33.084  17.943  -0.930  1.00 20.00     0.027 A 
HETATM    3  C3  UNL     1     -34.672  18.075   1.284  1.00 20.00     0.116 A 
HETATM    4  C4  UNL     1     -32.810  18.780   0.140  1.00 20.00     0.116 A 
HETATM    5  C5  UNL     1     -34.219  17.144  -0.857  1.00 20.00    -0.051 A 
HETATM    6  N11 UNL     1     -33.578  18.867   1.248  1.00 20.00    -0.273 NA
ENDROOT
BRANCH   5   7
HETATM    7  C10 UNL     1     -34.589  16.155  -2.067  1.00 20.00     0.026 C 
HETATM    8  C8  UNL     1     -35.328  16.738  -3.314  1.00 20.00     0.043 C 
HETATM    9  C6  UNL     1     -33.997  16.604  -4.008  1.00 20.00    -0.088 C 
HETATM   10  C7  UNL     1     -33.497  17.139  -5.123  1.00 20.00     0.014 C 
HETATM   11  C9  UNL     1     -33.439  15.642  -2.992  1.00 20.00     0.043 C 
ENDBRANCH   5   7
TORSDOF 1
ENDMDL
