MODEL 1
REMARK VINA RESULT:      -3.5      0.000      0.000
REMARK  1 active torsions:
REMARK  status: ('A' for Active; 'I' for Inactive)
REMARK    1  A    between atoms: C4_4  and  S6_6 
ROOT
HETATM    1  C1  UNL     1     -32.792  14.053  -3.505  1.00 20.00     0.030 C 
HETATM    2  C2  UNL     1     -33.366  16.137  -4.785  1.00 20.00     0.030 C 
HETATM    3  C3  UNL     1     -34.562  15.614  -2.636  1.00 20.00     0.030 C 
HETATM    4  C4  UNL     1     -33.915  15.021  -3.891  1.00 20.00     0.042 C 
ENDROOT
BRANCH   4   5
HETATM    5  S6  UNL     1     -35.189  14.083  -4.849  1.00 20.00     0.120 S 
HETATM    6  O5  UNL     1     -35.039  12.659  -4.441  1.00 20.00    -0.240 OA
HETATM    7 CL7  UNL     1     -36.821  14.586  -3.801  1.00 20.00    -0.010 Cl
ENDBRANCH   4   5
TORSDOF 1
ENDMDL
MODEL 2
REMARK VINA RESULT:      -3.5      0.076      1.650
REMARK  1 active torsions:
REMARK  status: ('A' for Active; 'I' for Inactive)
REMARK    1  A    between atoms: C4_4  and  S6_6 
ROOT
HETATM    1  C1  UNL     1     -33.318  16.148  -4.744  1.00 20.00     0.030 C 
HETATM    2  C2  UNL     1     -34.569  15.566  -2.645  1.00 20.00     0.030 C 
HETATM    3  C3  UNL     1     -32.734  14.058  -3.473  1.00 20.00     0.030 C 
HETATM    4  C4  UNL     1     -33.866  15.005  -3.885  1.00 20.00     0.042 C 
ENDROOT
BRANCH   4   5
HETATM    5  S6  UNL     1     -35.110  14.070  -4.885  1.00 20.00     0.120 S 
HETATM    6  O5  UNL     1     -34.957  12.642  -4.496  1.00 20.00    -0.240 OA
HETATM    7 CL7  UNL     1     -36.769  14.542  -3.866  1.00 20.00    -0.010 Cl
ENDBRANCH   4   5
TORSDOF 1
ENDMDL
MODEL 3
REMARK VINA RESULT:      -3.5      0.051      1.647
REMARK  1 active torsions:
REMARK  status: ('A' for Active; 'I' for Inactive)
REMARK    1  A    between atoms: C4_4  and  S6_6 
ROOT
HETATM    1  C1  UNL     1     -34.618  15.594  -2.644  1.00 20.00     0.030 C 
HETATM    2  C2  UNL     1     -32.829  14.049  -3.493  1.00 20.00     0.030 C 
HETATM    3  C3  UNL     1     -33.408  16.129  -4.783  1.00 20.00     0.030 C 
HETATM    4  C4  UNL     1     -33.954  15.007  -3.894  1.00 20.00     0.042 C 
ENDROOT
BRANCH   4   5
HETATM    5  S6  UNL     1     -35.227  14.050  -4.833  1.00 20.00     0.120 S 
HETATM    6  O5  UNL     1     -35.084  12.636  -4.389  1.00 20.00    -0.240 OA
HETATM    7 CL7  UNL     1     -36.862  14.584  -3.805  1.00 20.00    -0.010 Cl
ENDBRANCH   4   5
TORSDOF 1
ENDMDL
MODEL 4
REMARK VINA RESULT:      -3.4      2.286      2.688
REMARK  1 active torsions:
REMARK  status: ('A' for Active; 'I' for Inactive)
REMARK    1  A    between atoms: C4_4  and  S6_6 
ROOT
HETATM    1  C1  UNL     1     -34.903  14.510  -6.700  1.00 20.00     0.030 C 
HETATM    2  C2  UNL     1     -36.145  16.026  -5.128  1.00 20.00     0.030 C 
HETATM    3  C3  UNL     1     -33.632  16.086  -5.208  1.00 20.00     0.030 C 
HETATM    4  C4  UNL     1     -34.873  15.197  -5.330  1.00 20.00     0.042 C 
ENDROOT
BRANCH   4   5
HETATM    5  S6  UNL     1     -34.817  13.889  -4.025  1.00 20.00     0.120 S 
HETATM    6  O5  UNL     1     -34.901  12.589  -4.745  1.00 20.00    -0.240 OA
HETATM    7 CL7  UNL     1     -32.860  13.936  -3.599  1.00 20.00    -0.010 Cl
ENDBRANCH   4   5
TORSDOF 1
ENDMDL
MODEL 5
REMARK VINA RESULT:      -3.4      2.334      2.868
REMARK  1 active torsions:
REMARK  status: ('A' for Active; 'I' for Inactive)
REMARK    1  A    between atoms: C4_4  and  S6_6 
ROOT
HETATM    1  C1  UNL     1     -36.251  16.004  -5.170  1.00 20.00     0.030 C 
HETATM    2  C2  UNL     1     -33.746  16.041  -5.359  1.00 20.00     0.030 C 
HETATM    3  C3  UNL     1     -35.088  14.443  -6.763  1.00 20.00     0.030 C 
HETATM    4  C4  UNL     1     -34.997  15.158  -5.411  1.00 20.00     0.042 C 
ENDROOT
BRANCH   4   5
HETATM    5  S6  UNL     1     -34.877  13.899  -4.062  1.00 20.00     0.120 S 
HETATM    6  O5  UNL     1     -34.896  12.573  -4.737  1.00 20.00    -0.240 OA
HETATM    7 CL7  UNL     1     -32.924  14.057  -3.640  1.00 20.00    -0.010 Cl
ENDBRANCH   4   5
TORSDOF 1
ENDMDL
MODEL 6
REMARK VINA RESULT:      -3.3      2.559      2.772
REMARK  1 active torsions:
REMARK  status: ('A' for Active; 'I' for Inactive)
REMARK    1  A    between atoms: C4_4  and  S6_6 
ROOT
HETATM    1  C1  UNL     1     -33.649  13.844  -3.779  1.00 20.00     0.030 C 
HETATM    2  C2  UNL     1     -34.649  15.707  -2.421  1.00 20.00     0.030 C 
HETATM    3  C3  UNL     1     -36.093  14.394  -4.007  1.00 20.00     0.030 C 
HETATM    4  C4  UNL     1     -34.694  14.966  -3.761  1.00 20.00     0.042 C 
ENDROOT
BRANCH   4   5
HETATM    5  S6  UNL     1     -34.280  16.167  -5.104  1.00 20.00     0.120 S 
HETATM    6  O5  UNL     1     -32.815  16.408  -5.000  1.00 20.00    -0.240 OA
HETATM    7 CL7  UNL     1     -34.326  14.926  -6.677  1.00 20.00    -0.010 Cl
ENDBRANCH   4   5
TORSDOF 1
ENDMDL
MODEL 7
REMARK VINA RESULT:      -3.3      2.357      2.630
REMARK  1 active torsions:
REMARK  status: ('A' for Active; 'I' for Inactive)
REMARK    1  A    between atoms: C4_4  and  S6_6 
ROOT
HETATM    1  C1  UNL     1     -33.818  15.995  -5.448  1.00 20.00     0.030 C 
HETATM    2  C2  UNL     1     -35.228  14.329  -6.692  1.00 20.00     0.030 C 
HETATM    3  C3  UNL     1     -36.317  16.004  -5.164  1.00 20.00     0.030 C 
HETATM    4  C4  UNL     1     -35.081  15.129  -5.394  1.00 20.00     0.042 C 
ENDROOT
BRANCH   4   5
HETATM    5  S6  UNL     1     -34.908  13.936  -3.992  1.00 20.00     0.120 S 
HETATM    6  O5  UNL     1     -34.962  12.579  -4.601  1.00 20.00    -0.240 OA
HETATM    7 CL7  UNL     1     -32.939  14.102  -3.663  1.00 20.00    -0.010 Cl
ENDBRANCH   4   5
TORSDOF 1
ENDMDL
MODEL 8
REMARK VINA RESULT:      -3.3      2.561      3.019
REMARK  1 active torsions:
REMARK  status: ('A' for Active; 'I' for Inactive)
REMARK    1  A    between atoms: C4_4  and  S6_6 
ROOT
HETATM    1  C1  UNL     1     -34.701  15.671  -2.472  1.00 20.00     0.030 C 
HETATM    2  C2  UNL     1     -36.024  14.287  -4.098  1.00 20.00     0.030 C 
HETATM    3  C3  UNL     1     -33.568  13.848  -3.783  1.00 20.00     0.030 C 
HETATM    4  C4  UNL     1     -34.661  14.921  -3.808  1.00 20.00     0.042 C 
ENDROOT
BRANCH   4   5
HETATM    5  S6  UNL     1     -34.289  16.140  -5.148  1.00 20.00     0.120 S 
HETATM    6  O5  UNL     1     -32.831  16.424  -5.049  1.00 20.00    -0.240 OA
HETATM    7 CL7  UNL     1     -34.307  14.906  -6.726  1.00 20.00    -0.010 Cl
ENDBRANCH   4   5
TORSDOF 1
ENDMDL
MODEL 9
REMARK VINA RESULT:      -3.3      2.539      2.880
REMARK  1 active torsions:
REMARK  status: ('A' for Active; 'I' for Inactive)
REMARK    1  A    between atoms: C4_4  and  S6_6 
ROOT
HETATM    1  C1  UNL     1     -36.252  14.709  -3.798  1.00 20.00     0.030 C 
HETATM    2  C2  UNL     1     -33.904  13.820  -3.706  1.00 20.00     0.030 C 
HETATM    3  C3  UNL     1     -34.548  15.811  -2.313  1.00 20.00     0.030 C 
HETATM    4  C4  UNL     1     -34.773  15.079  -3.639  1.00 20.00     0.042 C 
ENDROOT
BRANCH   4   5
HETATM    5  S6  UNL     1     -34.298  16.190  -5.038  1.00 20.00     0.120 S 
HETATM    6  O5  UNL     1     -32.825  16.378  -4.929  1.00 20.00    -0.240 OA
HETATM    7 CL7  UNL     1     -34.379  14.871  -6.545  1.00 20.00    -0.010 Cl
ENDBRANCH   4   5
TORSDOF 1
ENDMDL
