MODEL 1
REMARK VINA RESULT:      -4.8      0.000      0.000
REMARK  0 active torsions:
REMARK  status: ('A' for Active; 'I' for Inactive)
ROOT
HETATM    1  C1  UNL     1     -34.099  14.315  -3.421  1.00 20.00     0.099 A 
HETATM    2  C2  UNL     1     -33.863  16.469  -4.510  1.00 20.00     0.063 A 
HETATM    3  C3  UNL     1     -35.142  15.117  -7.847  1.00 20.00     0.167 A 
HETATM    4  C4  UNL     1     -34.701  14.539  -5.764  1.00 20.00     0.124 A 
HETATM    5  C5  UNL     1     -34.576  13.745  -4.604  1.00 20.00     0.204 A 
HETATM    6  C6  UNL     1     -33.748  15.661  -3.376  1.00 20.00     0.121 A 
HETATM    7  C7  UNL     1     -34.342  15.889  -5.695  1.00 20.00     0.042 A 
HETATM    8  N8  UNL     1     -35.157  14.112  -7.003  1.00 20.00    -0.249 NA
HETATM    9  O9  UNL     1     -34.920  12.525  -4.737  1.00 20.00    -0.286 OA
HETATM   10  F10 UNL     1     -33.293  16.190  -2.232  1.00 20.00    -0.206 F 
HETATM   11  S11 UNL     1     -34.593  16.618  -7.237  1.00 20.00    -0.080 SA
ENDROOT
TORSDOF 0
ENDMDL
MODEL 2
REMARK VINA RESULT:      -4.7      2.634      2.867
REMARK  0 active torsions:
REMARK  status: ('A' for Active; 'I' for Inactive)
ROOT
HETATM    1  C1  UNL     1     -33.952  14.392  -4.537  1.00 20.00     0.099 A 
HETATM    2  C2  UNL     1     -34.916  16.604  -4.298  1.00 20.00     0.063 A 
HETATM    3  C3  UNL     1     -38.400  15.200  -3.596  1.00 20.00     0.167 A 
HETATM    4  C4  UNL     1     -36.320  14.613  -4.040  1.00 20.00     0.124 A 
HETATM    5  C5  UNL     1     -35.194  13.801  -4.288  1.00 20.00     0.204 A 
HETATM    6  C6  UNL     1     -33.817  15.777  -4.540  1.00 20.00     0.121 A 
HETATM    7  C7  UNL     1     -36.160  16.003  -4.049  1.00 20.00     0.042 A 
HETATM    8  N8  UNL     1     -37.609  14.169  -3.779  1.00 20.00    -0.249 NA
HETATM    9  O9  UNL     1     -35.410  12.544  -4.264  1.00 20.00    -0.286 OA
HETATM   10  F10 UNL     1     -32.619  16.326  -4.781  1.00 20.00    -0.206 F 
HETATM   11  S11 UNL     1     -37.680  16.747  -3.720  1.00 20.00    -0.080 SA
ENDROOT
TORSDOF 0
ENDMDL
MODEL 3
REMARK VINA RESULT:      -4.7      2.576      2.777
REMARK  0 active torsions:
REMARK  status: ('A' for Active; 'I' for Inactive)
ROOT
HETATM    1  C1  UNL     1     -33.521  13.754  -3.948  1.00 20.00     0.099 A 
HETATM    2  C2  UNL     1     -33.795  16.058  -3.244  1.00 20.00     0.063 A 
HETATM    3  C3  UNL     1     -37.607  15.831  -3.389  1.00 20.00     0.167 A 
HETATM    4  C4  UNL     1     -35.759  14.669  -3.710  1.00 20.00     0.124 A 
HETATM    5  C5  UNL     1     -34.907  13.590  -4.025  1.00 20.00     0.204 A 
HETATM    6  C6  UNL     1     -32.974  14.973  -3.561  1.00 20.00     0.121 A 
HETATM    7  C7  UNL     1     -35.186  15.886  -3.324  1.00 20.00     0.042 A 
HETATM    8  N8  UNL     1     -37.146  14.654  -3.742  1.00 20.00    -0.249 NA
HETATM    9  O9  UNL     1     -35.495  12.512  -4.368  1.00 20.00    -0.286 OA
HETATM   10  F10 UNL     1     -31.643  15.111  -3.492  1.00 20.00    -0.206 F 
HETATM   11  S11 UNL     1     -36.441  17.022  -2.999  1.00 20.00    -0.080 SA
ENDROOT
TORSDOF 0
ENDMDL
MODEL 4
REMARK VINA RESULT:      -4.6     12.179     12.884
REMARK  0 active torsions:
REMARK  status: ('A' for Active; 'I' for Inactive)
ROOT
HETATM    1  C1  UNL     1     -41.622   7.072  -0.997  1.00 20.00     0.099 A 
HETATM    2  C2  UNL     1     -40.867   4.772  -0.870  1.00 20.00     0.063 A 
HETATM    3  C3  UNL     1     -43.200   3.668  -3.689  1.00 20.00     0.167 A 
HETATM    4  C4  UNL     1     -42.576   5.421  -2.502  1.00 20.00     0.124 A 
HETATM    5  C5  UNL     1     -42.503   6.749  -2.033  1.00 20.00     0.204 A 
HETATM    6  C6  UNL     1     -40.815   6.095  -0.425  1.00 20.00     0.121 A 
HETATM    7  C7  UNL     1     -41.754   4.454  -1.911  1.00 20.00     0.042 A 
HETATM    8  N8  UNL     1     -43.398   4.954  -3.519  1.00 20.00    -0.249 NA
HETATM    9  O9  UNL     1     -43.277   7.578  -2.615  1.00 20.00    -0.286 OA
HETATM   10  F10 UNL     1     -39.977   6.424   0.568  1.00 20.00    -0.206 F 
HETATM   11  S11 UNL     1     -42.041   2.932  -2.668  1.00 20.00    -0.080 SA
ENDROOT
TORSDOF 0
ENDMDL
MODEL 5
REMARK VINA RESULT:      -4.5      2.816      3.121
REMARK  0 active torsions:
REMARK  status: ('A' for Active; 'I' for Inactive)
ROOT
HETATM    1  C1  UNL     1     -34.934  13.617  -3.808  1.00 20.00     0.099 A 
HETATM    2  C2  UNL     1     -33.391  15.474  -3.579  1.00 20.00     0.063 A 
HETATM    3  C3  UNL     1     -36.218  18.046  -3.555  1.00 20.00     0.167 A 
HETATM    4  C4  UNL     1     -35.804  15.883  -3.692  1.00 20.00     0.124 A 
HETATM    5  C5  UNL     1     -36.023  14.494  -3.807  1.00 20.00     0.204 A 
HETATM    6  C6  UNL     1     -33.635  14.104  -3.695  1.00 20.00     0.121 A 
HETATM    7  C7  UNL     1     -34.490  16.348  -3.579  1.00 20.00     0.042 A 
HETATM    8  N8  UNL     1     -36.782  16.867  -3.676  1.00 20.00    -0.249 NA
HETATM    9  O9  UNL     1     -37.243  14.138  -3.905  1.00 20.00    -0.286 OA
HETATM   10  F10 UNL     1     -32.604  13.248  -3.698  1.00 20.00    -0.206 F 
HETATM   11  S11 UNL     1     -34.510  18.067  -3.452  1.00 20.00    -0.080 SA
ENDROOT
TORSDOF 0
ENDMDL
MODEL 6
REMARK VINA RESULT:      -4.5      2.463      2.966
REMARK  0 active torsions:
REMARK  status: ('A' for Active; 'I' for Inactive)
ROOT
HETATM    1  C1  UNL     1     -33.838  17.371  -2.825  1.00 20.00     0.099 A 
HETATM    2  C2  UNL     1     -34.670  15.093  -2.800  1.00 20.00     0.063 A 
HETATM    3  C3  UNL     1     -34.418  14.774  -6.599  1.00 20.00     0.167 A 
HETATM    4  C4  UNL     1     -34.074  16.164  -4.921  1.00 20.00     0.124 A 
HETATM    5  C5  UNL     1     -33.716  17.334  -4.217  1.00 20.00     0.204 A 
HETATM    6  C6  UNL     1     -34.308  16.263  -2.127  1.00 20.00     0.121 A 
HETATM    7  C7  UNL     1     -34.545  15.063  -4.197  1.00 20.00     0.042 A 
HETATM    8  N8  UNL     1     -34.007  15.983  -6.295  1.00 20.00    -0.249 NA
HETATM    9  O9  UNL     1     -33.294  18.298  -4.937  1.00 20.00    -0.286 OA
HETATM   10  F10 UNL     1     -34.418  16.317  -0.793  1.00 20.00    -0.206 F 
HETATM   11  S11 UNL     1     -34.906  13.782  -5.293  1.00 20.00    -0.080 SA
ENDROOT
TORSDOF 0
ENDMDL
MODEL 7
REMARK VINA RESULT:      -4.4      2.711      3.474
REMARK  0 active torsions:
REMARK  status: ('A' for Active; 'I' for Inactive)
ROOT
HETATM    1  C1  UNL     1     -34.785  13.515  -5.606  1.00 20.00     0.099 A 
HETATM    2  C2  UNL     1     -34.828  15.808  -6.394  1.00 20.00     0.063 A 
HETATM    3  C3  UNL     1     -33.707  17.178  -3.008  1.00 20.00     0.167 A 
HETATM    4  C4  UNL     1     -34.183  15.311  -4.084  1.00 20.00     0.124 A 
HETATM    5  C5  UNL     1     -34.373  13.936  -4.338  1.00 20.00     0.204 A 
HETATM    6  C6  UNL     1     -35.008  14.441  -6.620  1.00 20.00     0.121 A 
HETATM    7  C7  UNL     1     -34.414  16.223  -5.119  1.00 20.00     0.042 A 
HETATM    8  N8  UNL     1     -33.779  15.873  -2.881  1.00 20.00    -0.249 NA
HETATM    9  O9  UNL     1     -34.145  13.161  -3.352  1.00 20.00    -0.286 OA
HETATM   10  F10 UNL     1     -35.403  14.018  -7.829  1.00 20.00    -0.206 F 
HETATM   11  S11 UNL     1     -34.109  17.819  -4.542  1.00 20.00    -0.080 SA
ENDROOT
TORSDOF 0
ENDMDL
MODEL 8
REMARK VINA RESULT:      -4.4     11.638     12.126
REMARK  0 active torsions:
REMARK  status: ('A' for Active; 'I' for Inactive)
ROOT
HETATM    1  C1  UNL     1     -40.793   4.908  -0.571  1.00 20.00     0.099 A 
HETATM    2  C2  UNL     1     -41.174   7.295  -0.764  1.00 20.00     0.063 A 
HETATM    3  C3  UNL     1     -43.417   6.865  -3.828  1.00 20.00     0.167 A 
HETATM    4  C4  UNL     1     -42.209   5.748  -2.358  1.00 20.00     0.124 A 
HETATM    5  C5  UNL     1     -41.601   4.667  -1.685  1.00 20.00     0.204 A 
HETATM    6  C6  UNL     1     -40.584   6.206  -0.117  1.00 20.00     0.121 A 
HETATM    7  C7  UNL     1     -41.984   7.045  -1.883  1.00 20.00     0.042 A 
HETATM    8  N8  UNL     1     -43.032   5.662  -3.471  1.00 20.00    -0.249 NA
HETATM    9  O9  UNL     1     -41.848   3.514  -2.169  1.00 20.00    -0.286 OA
HETATM   10  F10 UNL     1     -39.806   6.418   0.953  1.00 20.00    -0.206 F 
HETATM   11  S11 UNL     1     -42.837   8.165  -2.878  1.00 20.00    -0.080 SA
ENDROOT
TORSDOF 0
ENDMDL
MODEL 9
REMARK VINA RESULT:      -4.3      3.115      3.515
REMARK  0 active torsions:
REMARK  status: ('A' for Active; 'I' for Inactive)
ROOT
HETATM    1  C1  UNL     1     -33.030  15.430  -3.847  1.00 20.00     0.099 A 
HETATM    2  C2  UNL     1     -34.842  13.820  -3.796  1.00 20.00     0.063 A 
HETATM    3  C3  UNL     1     -37.500  16.535  -4.203  1.00 20.00     0.167 A 
HETATM    4  C4  UNL     1     -35.323  16.209  -4.049  1.00 20.00     0.124 A 
HETATM    5  C5  UNL     1     -33.940  16.481  -3.998  1.00 20.00     0.204 A 
HETATM    6  C6  UNL     1     -33.478  14.117  -3.748  1.00 20.00     0.121 A 
HETATM    7  C7  UNL     1     -35.750  14.880  -3.948  1.00 20.00     0.042 A 
HETATM    8  N8  UNL     1     -36.338  17.144  -4.195  1.00 20.00    -0.249 NA
HETATM    9  O9  UNL     1     -33.621  17.712  -4.097  1.00 20.00    -0.286 OA
HETATM   10  F10 UNL     1     -32.591  13.123  -3.604  1.00 20.00    -0.206 F 
HETATM   11  S11 UNL     1     -37.470  14.832  -4.040  1.00 20.00    -0.080 SA
ENDROOT
TORSDOF 0
ENDMDL
