MODEL 1
REMARK VINA RESULT:      -3.6      0.000      0.000
REMARK  1 active torsions:
REMARK  status: ('A' for Active; 'I' for Inactive)
REMARK    1  A    between atoms: C1_1  and  C3_3 
ROOT
HETATM    1  C1  UNL     1     -33.949   6.449   4.014  1.00 20.00     0.181 A 
HETATM    2  C2  UNL     1     -32.592   6.446   3.374  1.00 20.00     0.247 A 
HETATM    3  O4  UNL     1     -33.653   5.615   2.887  1.00 20.00    -0.358 OA
HETATM    4 CL5  UNL     1     -32.080   7.807   2.413  1.00 20.00    -0.092 Cl
ENDROOT
BRANCH   1   5
HETATM    5  C3  UNL     1     -34.200   5.709   5.279  1.00 20.00     0.150 C 
HETATM    6 CL6  UNL     1     -35.150   4.225   4.985  1.00 20.00    -0.128 Cl
ENDBRANCH   1   5
TORSDOF 1
ENDMDL
MODEL 2
REMARK VINA RESULT:      -3.3      0.891      3.578
REMARK  1 active torsions:
REMARK  status: ('A' for Active; 'I' for Inactive)
REMARK    1  A    between atoms: C1_1  and  C3_3 
ROOT
HETATM    1  C1  UNL     1     -33.425   5.959   3.421  1.00 20.00     0.181 A 
HETATM    2  C2  UNL     1     -34.033   5.649   4.758  1.00 20.00     0.247 A 
HETATM    3  O4  UNL     1     -34.448   6.786   3.989  1.00 20.00    -0.358 OA
HETATM    4 CL5  UNL     1     -35.124   4.302   4.925  1.00 20.00    -0.092 Cl
ENDROOT
BRANCH   1   5
HETATM    5  C3  UNL     1     -32.093   6.611   3.318  1.00 20.00     0.150 C 
HETATM    6 CL6  UNL     1     -32.136   8.005   2.200  1.00 20.00    -0.128 Cl
ENDBRANCH   1   5
TORSDOF 1
ENDMDL
MODEL 3
REMARK VINA RESULT:      -3.3      1.842      2.068
REMARK  1 active torsions:
REMARK  status: ('A' for Active; 'I' for Inactive)
REMARK    1  A    between atoms: C1_1  and  C3_3 
ROOT
HETATM    1  C1  UNL     1     -32.346   6.670   3.097  1.00 20.00     0.181 A 
HETATM    2  C2  UNL     1     -32.281   8.087   2.607  1.00 20.00     0.247 A 
HETATM    3  O4  UNL     1     -31.373   7.595   3.601  1.00 20.00    -0.358 OA
HETATM    4 CL5  UNL     1     -31.676   8.427   1.009  1.00 20.00    -0.092 Cl
ENDROOT
BRANCH   1   5
HETATM    5  C3  UNL     1     -33.368   6.250   4.092  1.00 20.00     0.150 C 
HETATM    6 CL6  UNL     1     -34.705   5.357   3.313  1.00 20.00    -0.128 Cl
ENDBRANCH   1   5
TORSDOF 1
ENDMDL
MODEL 4
REMARK VINA RESULT:      -3.2      1.843      3.875
REMARK  1 active torsions:
REMARK  status: ('A' for Active; 'I' for Inactive)
REMARK    1  A    between atoms: C1_1  and  C3_3 
ROOT
HETATM    1  C1  UNL     1     -32.137   7.410   3.161  1.00 20.00     0.181 A 
HETATM    2  C2  UNL     1     -33.276   6.476   3.446  1.00 20.00     0.247 A 
HETATM    3  O4  UNL     1     -31.956   5.989   3.171  1.00 20.00    -0.358 OA
HETATM    4 CL5  UNL     1     -33.903   6.339   5.065  1.00 20.00    -0.092 Cl
ENDROOT
BRANCH   1   5
HETATM    5  C3  UNL     1     -31.980   8.041   1.824  1.00 20.00     0.150 C 
HETATM    6 CL6  UNL     1     -32.587   9.721   1.822  1.00 20.00    -0.128 Cl
ENDBRANCH   1   5
TORSDOF 1
ENDMDL
MODEL 5
REMARK VINA RESULT:      -2.9     11.121     12.252
REMARK  1 active torsions:
REMARK  status: ('A' for Active; 'I' for Inactive)
REMARK    1  A    between atoms: C1_1  and  C3_3 
ROOT
HETATM    1  C1  UNL     1     -34.635  13.712  -5.396  1.00 20.00     0.181 A 
HETATM    2  C2  UNL     1     -34.313  13.845  -3.936  1.00 20.00     0.247 A 
HETATM    3  O4  UNL     1     -35.030  12.714  -4.446  1.00 20.00    -0.358 OA
HETATM    4 CL5  UNL     1     -32.675  13.624  -3.384  1.00 20.00    -0.092 Cl
ENDROOT
BRANCH   1   5
HETATM    5  C3  UNL     1     -35.764  14.466  -6.003  1.00 20.00     0.150 C 
HETATM    6 CL6  UNL     1     -35.685  14.429  -7.787  1.00 20.00    -0.128 Cl
ENDBRANCH   1   5
TORSDOF 1
ENDMDL
MODEL 6
REMARK VINA RESULT:      -2.9      2.691      3.167
REMARK  1 active torsions:
REMARK  status: ('A' for Active; 'I' for Inactive)
REMARK    1  A    between atoms: C1_1  and  C3_3 
ROOT
HETATM    1  C1  UNL     1     -34.038   5.494   5.129  1.00 20.00     0.181 A 
HETATM    2  C2  UNL     1     -34.391   6.371   6.295  1.00 20.00     0.247 A 
HETATM    3  O4  UNL     1     -34.263   4.951   6.437  1.00 20.00    -0.358 OA
HETATM    4 CL5  UNL     1     -33.180   7.401   7.006  1.00 20.00    -0.092 Cl
ENDROOT
BRANCH   1   5
HETATM    5  C3  UNL     1     -35.061   5.113   4.120  1.00 20.00     0.150 C 
HETATM    6 CL6  UNL     1     -34.410   5.225   2.460  1.00 20.00    -0.128 Cl
ENDBRANCH   1   5
TORSDOF 1
ENDMDL
MODEL 7
REMARK VINA RESULT:      -2.9     11.359     12.252
REMARK  1 active torsions:
REMARK  status: ('A' for Active; 'I' for Inactive)
REMARK    1  A    between atoms: C1_1  and  C3_3 
ROOT
HETATM    1  C1  UNL     1     -34.164  14.306  -4.558  1.00 20.00     0.181 A 
HETATM    2  C2  UNL     1     -34.978  14.671  -3.351  1.00 20.00     0.247 A 
HETATM    3  O4  UNL     1     -34.361  13.383  -3.478  1.00 20.00    -0.358 OA
HETATM    4 CL5  UNL     1     -34.343  15.796  -2.182  1.00 20.00    -0.092 Cl
ENDROOT
BRANCH   1   5
HETATM    5  C3  UNL     1     -34.818  13.911  -5.833  1.00 20.00     0.150 C 
HETATM    6 CL6  UNL     1     -34.334  14.989  -7.173  1.00 20.00    -0.128 Cl
ENDBRANCH   1   5
TORSDOF 1
ENDMDL
MODEL 8
REMARK VINA RESULT:      -2.8     11.438     11.678
REMARK  1 active torsions:
REMARK  status: ('A' for Active; 'I' for Inactive)
REMARK    1  A    between atoms: C1_1  and  C3_3 
ROOT
HETATM    1  C1  UNL     1     -34.622  14.871  -3.384  1.00 20.00     0.181 A 
HETATM    2  C2  UNL     1     -34.069  14.234  -4.625  1.00 20.00     0.247 A 
HETATM    3  O4  UNL     1     -34.108  13.533  -3.375  1.00 20.00    -0.358 OA
HETATM    4 CL5  UNL     1     -35.145  13.738  -5.902  1.00 20.00    -0.092 Cl
ENDROOT
BRANCH   1   5
HETATM    5  C3  UNL     1     -33.819  15.844  -2.599  1.00 20.00     0.150 C 
HETATM    6 CL6  UNL     1     -34.679  16.353  -1.118  1.00 20.00    -0.128 Cl
ENDBRANCH   1   5
TORSDOF 1
ENDMDL
MODEL 9
REMARK VINA RESULT:      -2.8     11.227     11.895
REMARK  1 active torsions:
REMARK  status: ('A' for Active; 'I' for Inactive)
REMARK    1  A    between atoms: C1_1  and  C3_3 
ROOT
HETATM    1  C1  UNL     1     -35.072  14.104  -4.184  1.00 20.00     0.181 A 
HETATM    2  C2  UNL     1     -34.560  13.869  -5.575  1.00 20.00     0.247 A 
HETATM    3  O4  UNL     1     -34.904  12.780  -4.709  1.00 20.00    -0.358 OA
HETATM    4 CL5  UNL     1     -35.580  14.209  -6.946  1.00 20.00    -0.092 Cl
ENDROOT
BRANCH   1   5
HETATM    5  C3  UNL     1     -34.144  14.448  -3.075  1.00 20.00     0.150 C 
HETATM    6 CL6  UNL     1     -34.759  15.826  -2.118  1.00 20.00    -0.128 Cl
ENDBRANCH   1   5
TORSDOF 1
ENDMDL
