MODEL 1
REMARK VINA RESULT:      -3.1      0.000      0.000
REMARK  0 active torsions:
REMARK  status: ('A' for Active; 'I' for Inactive)
ROOT
HETATM    1  C1  UNL     1     -34.046   6.318   6.048  1.00 20.00     0.200 C 
HETATM    2  C2  UNL     1     -34.734   5.218   6.329  1.00 20.00     0.113 C 
HETATM    3  F3  UNL     1     -33.831   7.270   6.973  1.00 20.00    -0.219 F 
HETATM    4 CL4  UNL     1     -35.030   3.985   5.179  1.00 20.00    -0.095 Cl
ENDROOT
TORSDOF 0
ENDMDL
MODEL 2
REMARK VINA RESULT:      -3.0      2.906      3.052
REMARK  0 active torsions:
REMARK  status: ('A' for Active; 'I' for Inactive)
ROOT
HETATM    1  C1  UNL     1     -34.828   4.370   5.792  1.00 20.00     0.200 C 
HETATM    2  C2  UNL     1     -34.368   5.563   5.434  1.00 20.00     0.113 C 
HETATM    3  F3  UNL     1     -35.169   3.443   4.877  1.00 20.00    -0.219 F 
HETATM    4 CL4  UNL     1     -33.926   6.768   6.567  1.00 20.00    -0.095 Cl
ENDROOT
TORSDOF 0
ENDMDL
MODEL 3
REMARK VINA RESULT:      -2.9      3.024      3.024
REMARK  0 active torsions:
REMARK  status: ('A' for Active; 'I' for Inactive)
ROOT
HETATM    1  C1  UNL     1     -34.245   5.651   3.776  1.00 20.00     0.200 C 
HETATM    2  C2  UNL     1     -34.860   5.050   4.788  1.00 20.00     0.113 C 
HETATM    3  F3  UNL     1     -34.408   5.235   2.507  1.00 20.00    -0.219 F 
HETATM    4 CL4  UNL     1     -34.677   5.547   6.416  1.00 20.00    -0.095 Cl
ENDROOT
TORSDOF 0
ENDMDL
MODEL 4
REMARK VINA RESULT:      -2.8      2.215      2.313
REMARK  0 active torsions:
REMARK  status: ('A' for Active; 'I' for Inactive)
ROOT
HETATM    1  C1  UNL     1     -34.014   6.276   5.936  1.00 20.00     0.200 C 
HETATM    2  C2  UNL     1     -33.978   5.927   4.655  1.00 20.00     0.113 C 
HETATM    3  F3  UNL     1     -34.949   5.788   6.772  1.00 20.00    -0.219 F 
HETATM    4 CL4  UNL     1     -32.806   6.527   3.560  1.00 20.00    -0.095 Cl
ENDROOT
TORSDOF 0
ENDMDL
MODEL 5
REMARK VINA RESULT:      -2.8      3.312      3.412
REMARK  0 active torsions:
REMARK  status: ('A' for Active; 'I' for Inactive)
ROOT
HETATM    1  C1  UNL     1     -34.776   5.376   3.613  1.00 20.00     0.200 C 
HETATM    2  C2  UNL     1     -33.746   6.050   4.112  1.00 20.00     0.113 C 
HETATM    3  F3  UNL     1     -35.874   5.122   4.348  1.00 20.00    -0.219 F 
HETATM    4 CL4  UNL     1     -32.332   6.392   3.210  1.00 20.00    -0.095 Cl
ENDROOT
TORSDOF 0
ENDMDL
MODEL 6
REMARK VINA RESULT:      -2.7      2.924      3.052
REMARK  0 active torsions:
REMARK  status: ('A' for Active; 'I' for Inactive)
ROOT
HETATM    1  C1  UNL     1     -32.745   6.453   3.232  1.00 20.00     0.200 C 
HETATM    2  C2  UNL     1     -33.689   6.190   4.128  1.00 20.00     0.113 C 
HETATM    3  F3  UNL     1     -31.597   7.064   3.578  1.00 20.00    -0.219 F 
HETATM    4 CL4  UNL     1     -35.163   5.416   3.727  1.00 20.00    -0.095 Cl
ENDROOT
TORSDOF 0
ENDMDL
MODEL 7
REMARK VINA RESULT:      -2.5      5.130      5.386
REMARK  0 active torsions:
REMARK  status: ('A' for Active; 'I' for Inactive)
ROOT
HETATM    1  C1  UNL     1     -32.527   7.174   2.870  1.00 20.00     0.200 C 
HETATM    2  C2  UNL     1     -31.893   8.057   2.106  1.00 20.00     0.113 C 
HETATM    3  F3  UNL     1     -31.970   5.991   3.188  1.00 20.00    -0.219 F 
HETATM    4 CL4  UNL     1     -32.569   9.570   1.678  1.00 20.00    -0.095 Cl
ENDROOT
TORSDOF 0
ENDMDL
MODEL 8
REMARK VINA RESULT:      -2.4      4.474      4.650
REMARK  0 active torsions:
REMARK  status: ('A' for Active; 'I' for Inactive)
ROOT
HETATM    1  C1  UNL     1     -32.191   7.952   2.432  1.00 20.00     0.200 C 
HETATM    2  C2  UNL     1     -32.385   6.728   2.909  1.00 20.00     0.113 C 
HETATM    3  F3  UNL     1     -31.435   8.170   1.340  1.00 20.00    -0.219 F 
HETATM    4 CL4  UNL     1     -33.338   6.409   4.295  1.00 20.00    -0.095 Cl
ENDROOT
TORSDOF 0
ENDMDL
MODEL 9
REMARK VINA RESULT:      -2.3      9.540      9.578
REMARK  0 active torsions:
REMARK  status: ('A' for Active; 'I' for Inactive)
ROOT
HETATM    1  C1  UNL     1     -40.945   5.837  -0.628  1.00 20.00     0.200 C 
HETATM    2  C2  UNL     1     -40.736   4.581  -1.005  1.00 20.00     0.113 C 
HETATM    3  F3  UNL     1     -40.267   6.386   0.397  1.00 20.00    -0.219 F 
HETATM    4 CL4  UNL     1     -41.579   3.847  -2.301  1.00 20.00    -0.095 Cl
ENDROOT
TORSDOF 0
ENDMDL
