MODEL 1
REMARK VINA RESULT:      -5.5      0.000      0.000
REMARK  0 active torsions:
REMARK  status: ('A' for Active; 'I' for Inactive)
ROOT
HETATM    1  C1  UNL     1     -31.795   7.655   2.329  1.00 20.00     0.012 C 
HETATM    2  C2  UNL     1     -32.683   7.258   3.033  1.00 20.00    -0.113 C 
HETATM    3  C3  UNL     1     -35.013   4.826   5.669  1.00 20.00     0.127 C 
HETATM    4  C4  UNL     1     -34.369   6.062   6.252  1.00 20.00     0.079 C 
HETATM    5  C5  UNL     1     -35.459   4.913   4.227  1.00 20.00     0.079 C 
HETATM    6  C6  UNL     1     -33.271   6.581   5.332  1.00 20.00     0.024 C 
HETATM    7  C7  UNL     1     -34.338   5.454   3.349  1.00 20.00     0.024 C 
HETATM    8  C8  UNL     1     -33.774   6.773   3.895  1.00 20.00     0.065 C 
HETATM    9  O9  UNL     1     -35.257   3.838   6.361  1.00 20.00    -0.298 OA
ENDROOT
TORSDOF 0
ENDMDL
MODEL 2
REMARK VINA RESULT:      -4.6     11.771     13.496
REMARK  0 active torsions:
REMARK  status: ('A' for Active; 'I' for Inactive)
ROOT
HETATM    1  C1  UNL     1     -33.561  18.949  -4.806  1.00 20.00     0.012 C 
HETATM    2  C2  UNL     1     -33.500  17.755  -4.925  1.00 20.00    -0.113 C 
HETATM    3  C3  UNL     1     -34.418  13.586  -4.672  1.00 20.00     0.127 C 
HETATM    4  C4  UNL     1     -34.602  14.258  -6.013  1.00 20.00     0.079 C 
HETATM    5  C5  UNL     1     -33.292  14.104  -3.807  1.00 20.00     0.079 C 
HETATM    6  C6  UNL     1     -34.637  15.772  -5.855  1.00 20.00     0.024 C 
HETATM    7  C7  UNL     1     -33.355  15.622  -3.694  1.00 20.00     0.024 C 
HETATM    8  C8  UNL     1     -33.424  16.292  -5.072  1.00 20.00     0.065 C 
HETATM    9  O9  UNL     1     -35.081  12.602  -4.347  1.00 20.00    -0.298 OA
ENDROOT
TORSDOF 0
ENDMDL
MODEL 3
REMARK VINA RESULT:      -4.6     12.064     13.157
REMARK  0 active torsions:
REMARK  status: ('A' for Active; 'I' for Inactive)
ROOT
HETATM    1  C1  UNL     1     -34.645  16.684  -0.764  1.00 20.00     0.012 C 
HETATM    2  C2  UNL     1     -34.331  16.197  -1.816  1.00 20.00    -0.113 C 
HETATM    3  C3  UNL     1     -34.504  14.649  -5.799  1.00 20.00     0.127 C 
HETATM    4  C4  UNL     1     -33.845  15.995  -5.605  1.00 20.00     0.079 C 
HETATM    5  C5  UNL     1     -34.350  13.653  -4.672  1.00 20.00     0.079 C 
HETATM    6  C6  UNL     1     -34.216  16.585  -4.250  1.00 20.00     0.024 C 
HETATM    7  C7  UNL     1     -34.713  14.292  -3.337  1.00 20.00     0.024 C 
HETATM    8  C8  UNL     1     -33.945  15.600  -3.106  1.00 20.00     0.065 C 
HETATM    9  O9  UNL     1     -35.046  14.344  -6.861  1.00 20.00    -0.298 OA
ENDROOT
TORSDOF 0
ENDMDL
MODEL 4
REMARK VINA RESULT:      -4.5     11.854     12.364
REMARK  0 active torsions:
REMARK  status: ('A' for Active; 'I' for Inactive)
ROOT
HETATM    1  C1  UNL     1     -33.643  17.749  -0.697  1.00 20.00     0.012 C 
HETATM    2  C2  UNL     1     -33.943  17.091  -1.656  1.00 20.00    -0.113 C 
HETATM    3  C3  UNL     1     -34.935  13.780  -4.175  1.00 20.00     0.127 C 
HETATM    4  C4  UNL     1     -36.055  14.718  -3.787  1.00 20.00     0.079 C 
HETATM    5  C5  UNL     1     -33.565  14.397  -4.345  1.00 20.00     0.079 C 
HETATM    6  C6  UNL     1     -35.649  15.576  -2.595  1.00 20.00     0.024 C 
HETATM    7  C7  UNL     1     -33.212  15.261  -3.141  1.00 20.00     0.024 C 
HETATM    8  C8  UNL     1     -34.310  16.287  -2.833  1.00 20.00     0.065 C 
HETATM    9  O9  UNL     1     -35.147  12.598  -4.440  1.00 20.00    -0.298 OA
ENDROOT
TORSDOF 0
ENDMDL
MODEL 5
REMARK VINA RESULT:      -4.5      0.717      1.837
REMARK  0 active torsions:
REMARK  status: ('A' for Active; 'I' for Inactive)
ROOT
HETATM    1  C1  UNL     1     -32.206   8.111   2.053  1.00 20.00     0.012 C 
HETATM    2  C2  UNL     1     -32.540   7.287   2.861  1.00 20.00    -0.113 C 
HETATM    3  C3  UNL     1     -34.790   5.145   5.800  1.00 20.00     0.127 C 
HETATM    4  C4  UNL     1     -34.709   4.546   4.414  1.00 20.00     0.079 C 
HETATM    5  C5  UNL     1     -33.578   5.913   6.276  1.00 20.00     0.079 C 
HETATM    6  C6  UNL     1     -34.245   5.588   3.405  1.00 20.00     0.024 C 
HETATM    7  C7  UNL     1     -33.139   6.927   5.227  1.00 20.00     0.024 C 
HETATM    8  C8  UNL     1     -32.949   6.277   3.851  1.00 20.00     0.065 C 
HETATM    9  O9  UNL     1     -35.749   4.930   6.540  1.00 20.00    -0.298 OA
ENDROOT
TORSDOF 0
ENDMDL
MODEL 6
REMARK VINA RESULT:      -4.4     12.361     13.368
REMARK  0 active torsions:
REMARK  status: ('A' for Active; 'I' for Inactive)
ROOT
HETATM    1  C1  UNL     1     -34.908  17.048  -0.171  1.00 20.00     0.012 C 
HETATM    2  C2  UNL     1     -34.451  16.642  -1.205  1.00 20.00    -0.113 C 
HETATM    3  C3  UNL     1     -34.018  15.566  -5.321  1.00 20.00     0.127 C 
HETATM    4  C4  UNL     1     -33.272  16.790  -4.841  1.00 20.00     0.079 C 
HETATM    5  C5  UNL     1     -34.187  14.443  -4.323  1.00 20.00     0.079 C 
HETATM    6  C6  UNL     1     -33.833  17.272  -3.509  1.00 20.00     0.024 C 
HETATM    7  C7  UNL     1     -34.730  14.975  -3.003  1.00 20.00     0.024 C 
HETATM    8  C8  UNL     1     -33.890  16.144  -2.471  1.00 20.00     0.065 C 
HETATM    9  O9  UNL     1     -34.376  15.448  -6.493  1.00 20.00    -0.298 OA
ENDROOT
TORSDOF 0
ENDMDL
MODEL 7
REMARK VINA RESULT:      -4.4     12.053     12.574
REMARK  0 active torsions:
REMARK  status: ('A' for Active; 'I' for Inactive)
ROOT
HETATM    1  C1  UNL     1     -33.738  17.738  -1.049  1.00 20.00     0.012 C 
HETATM    2  C2  UNL     1     -34.069  16.753  -1.651  1.00 20.00    -0.113 C 
HETATM    3  C3  UNL     1     -35.058  14.060  -4.823  1.00 20.00     0.127 C 
HETATM    4  C4  UNL     1     -33.739  13.847  -4.117  1.00 20.00     0.079 C 
HETATM    5  C5  UNL     1     -36.196  14.592  -3.982  1.00 20.00     0.079 C 
HETATM    6  C6  UNL     1     -33.348  15.087  -3.323  1.00 20.00     0.024 C 
HETATM    7  C7  UNL     1     -35.754  15.817  -3.192  1.00 20.00     0.024 C 
HETATM    8  C8  UNL     1     -34.476  15.545  -2.389  1.00 20.00     0.065 C 
HETATM    9  O9  UNL     1     -35.225  13.720  -5.994  1.00 20.00    -0.298 OA
ENDROOT
TORSDOF 0
ENDMDL
MODEL 8
REMARK VINA RESULT:      -4.4      9.112     10.523
REMARK  0 active torsions:
REMARK  status: ('A' for Active; 'I' for Inactive)
ROOT
HETATM    1  C1  UNL     1     -41.583   2.058  -3.552  1.00 20.00     0.012 C 
HETATM    2  C2  UNL     1     -41.768   2.994  -2.822  1.00 20.00    -0.113 C 
HETATM    3  C3  UNL     1     -41.483   6.849  -0.993  1.00 20.00     0.127 C 
HETATM    4  C4  UNL     1     -42.704   6.570  -1.839  1.00 20.00     0.079 C 
HETATM    5  C5  UNL     1     -40.903   5.676  -0.236  1.00 20.00     0.079 C 
HETATM    6  C6  UNL     1     -42.474   5.357  -2.730  1.00 20.00     0.024 C 
HETATM    7  C7  UNL     1     -40.710   4.482  -1.162  1.00 20.00     0.024 C 
HETATM    8  C8  UNL     1     -41.995   4.141  -1.927  1.00 20.00     0.065 C 
HETATM    9  O9  UNL     1     -41.048   7.991  -0.845  1.00 20.00    -0.298 OA
ENDROOT
TORSDOF 0
ENDMDL
MODEL 9
REMARK VINA RESULT:      -4.3     11.725     13.549
REMARK  0 active torsions:
REMARK  status: ('A' for Active; 'I' for Inactive)
ROOT
HETATM    1  C1  UNL     1     -34.510  17.556  -7.832  1.00 20.00     0.012 C 
HETATM    2  C2  UNL     1     -34.518  16.849  -6.862  1.00 20.00    -0.113 C 
HETATM    3  C3  UNL     1     -33.483  13.832  -4.012  1.00 20.00     0.127 C 
HETATM    4  C4  UNL     1     -33.203  15.269  -3.636  1.00 20.00     0.079 C 
HETATM    5  C5  UNL     1     -34.699  13.586  -4.876  1.00 20.00     0.079 C 
HETATM    6  C6  UNL     1     -33.235  16.164  -4.868  1.00 20.00     0.024 C 
HETATM    7  C7  UNL     1     -34.699  14.515  -6.083  1.00 20.00     0.024 C 
HETATM    8  C8  UNL     1     -34.530  15.983  -5.671  1.00 20.00     0.065 C 
HETATM    9  O9  UNL     1     -32.818  12.904  -3.554  1.00 20.00    -0.298 OA
ENDROOT
TORSDOF 0
ENDMDL
