MODEL 1
REMARK VINA RESULT:      -4.6      0.000      0.000
REMARK  3 active torsions:
REMARK  status: ('A' for Active; 'I' for Inactive)
REMARK    1  A    between atoms: C3_3  and  C4_4 
REMARK    2  A    between atoms: C4_4  and  C5_5 
REMARK    3  A    between atoms: C7_7  and  O10_10 
ROOT
HETATM    1  C1  UNL     1     -35.142   4.953   3.954  1.00 20.00     0.006 C 
HETATM    2  C2  UNL     1     -35.409   4.131   4.971  1.00 20.00    -0.023 C 
HETATM    3  C3  UNL     1     -34.123   5.902   4.317  1.00 20.00    -0.027 C 
HETATM    4  C6  UNL     1     -34.561   4.423   6.169  1.00 20.00     0.064 C 
HETATM    5  C7  UNL     1     -33.790   5.690   5.769  1.00 20.00     0.157 C 
ENDROOT
BRANCH   3   6
HETATM    6  C4  UNL     1     -33.566   6.799   3.497  1.00 20.00     0.051 C 
BRANCH   6   7
HETATM    7  C5  UNL     1     -32.104   6.743   3.310  1.00 20.00     0.259 C 
HETATM    8  O9  UNL     1     -31.363   7.644   3.685  1.00 20.00    -0.302 OA
ENDBRANCH   6   7
ENDBRANCH   3   6
BRANCH   5   9
HETATM    9  O10 UNL     1     -34.261   6.802   6.522  1.00 20.00    -0.386 OA
HETATM   10  C8  UNL     1     -33.186   7.580   7.028  1.00 20.00     0.202 C 
ENDBRANCH   5   9
TORSDOF 3
ENDMDL
MODEL 2
REMARK VINA RESULT:      -4.1     11.871     13.347
REMARK  3 active torsions:
REMARK  status: ('A' for Active; 'I' for Inactive)
REMARK    1  A    between atoms: C3_3  and  C4_4 
REMARK    2  A    between atoms: C4_4  and  C5_5 
REMARK    3  A    between atoms: C7_7  and  O10_10 
ROOT
HETATM    1  C1  UNL     1     -33.171  16.360  -5.011  1.00 20.00     0.006 C 
HETATM    2  C2  UNL     1     -33.505  17.651  -4.968  1.00 20.00    -0.023 C 
HETATM    3  C3  UNL     1     -33.740  15.647  -3.898  1.00 20.00    -0.027 C 
HETATM    4  C6  UNL     1     -34.383  17.967  -3.797  1.00 20.00     0.064 C 
HETATM    5  C7  UNL     1     -34.434  16.647  -3.013  1.00 20.00     0.157 C 
ENDROOT
BRANCH   3   6
HETATM    6  C4  UNL     1     -33.670  14.327  -3.702  1.00 20.00     0.051 C 
BRANCH   6   7
HETATM    7  C5  UNL     1     -34.855  13.519  -4.046  1.00 20.00     0.259 C 
HETATM    8  O9  UNL     1     -34.798  12.574  -4.824  1.00 20.00    -0.302 OA
ENDBRANCH   6   7
ENDBRANCH   3   6
BRANCH   5   9
HETATM    9  O10 UNL     1     -33.707  16.777  -1.796  1.00 20.00    -0.386 OA
HETATM   10  C8  UNL     1     -34.571  16.756  -0.670  1.00 20.00     0.202 C 
ENDBRANCH   5   9
TORSDOF 3
ENDMDL
MODEL 3
REMARK VINA RESULT:      -4.1     11.880     12.820
REMARK  3 active torsions:
REMARK  status: ('A' for Active; 'I' for Inactive)
REMARK    1  A    between atoms: C3_3  and  C4_4 
REMARK    2  A    between atoms: C4_4  and  C5_5 
REMARK    3  A    between atoms: C7_7  and  O10_10 
ROOT
HETATM    1  C1  UNL     1     -34.496  16.096  -1.982  1.00 20.00     0.006 C 
HETATM    2  C2  UNL     1     -35.402  17.074  -1.921  1.00 20.00    -0.023 C 
HETATM    3  C3  UNL     1     -34.819  15.164  -3.030  1.00 20.00    -0.027 C 
HETATM    4  C6  UNL     1     -36.462  16.926  -2.968  1.00 20.00     0.064 C 
HETATM    5  C7  UNL     1     -36.137  15.576  -3.626  1.00 20.00     0.157 C 
ENDROOT
BRANCH   3   6
HETATM    6  C4  UNL     1     -34.065  14.127  -3.408  1.00 20.00     0.051 C 
BRANCH   6   7
HETATM    7  C5  UNL     1     -34.306  13.557  -4.747  1.00 20.00     0.259 C 
HETATM    8  O9  UNL     1     -34.893  12.493  -4.908  1.00 20.00    -0.302 OA
ENDBRANCH   6   7
ENDBRANCH   3   6
BRANCH   5   9
HETATM    9  O10 UNL     1     -37.128  14.616  -3.278  1.00 20.00    -0.386 OA
HETATM   10  C8  UNL     1     -38.346  14.850  -3.969  1.00 20.00     0.202 C 
ENDBRANCH   5   9
TORSDOF 3
ENDMDL
MODEL 4
REMARK VINA RESULT:      -4.1     11.890     12.715
REMARK  3 active torsions:
REMARK  status: ('A' for Active; 'I' for Inactive)
REMARK    1  A    between atoms: C3_3  and  C4_4 
REMARK    2  A    between atoms: C4_4  and  C5_5 
REMARK    3  A    between atoms: C7_7  and  O10_10 
ROOT
HETATM    1  C1  UNL     1     -34.830  13.787  -3.822  1.00 20.00     0.006 C 
HETATM    2  C2  UNL     1     -33.498  13.752  -3.880  1.00 20.00    -0.023 C 
HETATM    3  C3  UNL     1     -35.292  15.096  -3.442  1.00 20.00    -0.027 C 
HETATM    4  C6  UNL     1     -32.885  15.079  -3.559  1.00 20.00     0.064 C 
HETATM    5  C7  UNL     1     -34.085  15.944  -3.144  1.00 20.00     0.157 C 
ENDROOT
BRANCH   3   6
HETATM    6  C4  UNL     1     -36.569  15.484  -3.383  1.00 20.00     0.051 C 
BRANCH   6   7
HETATM    7  C5  UNL     1     -37.538  14.788  -4.250  1.00 20.00     0.259 C 
HETATM    8  O9  UNL     1     -38.490  14.164  -3.796  1.00 20.00    -0.302 OA
ENDBRANCH   6   7
ENDBRANCH   3   6
BRANCH   5   9
HETATM    9  O10 UNL     1     -34.033  16.206  -1.746  1.00 20.00    -0.386 OA
HETATM   10  C8  UNL     1     -33.750  17.572  -1.483  1.00 20.00     0.202 C 
ENDBRANCH   5   9
TORSDOF 3
ENDMDL
MODEL 5
REMARK VINA RESULT:      -4.0     11.900     13.534
REMARK  3 active torsions:
REMARK  status: ('A' for Active; 'I' for Inactive)
REMARK    1  A    between atoms: C3_3  and  C4_4 
REMARK    2  A    between atoms: C4_4  and  C5_5 
REMARK    3  A    between atoms: C7_7  and  O10_10 
ROOT
HETATM    1  C1  UNL     1     -34.456  16.025  -1.826  1.00 20.00     0.006 C 
HETATM    2  C2  UNL     1     -34.401  17.352  -1.701  1.00 20.00    -0.023 C 
HETATM    3  C3  UNL     1     -33.974  15.611  -3.117  1.00 20.00    -0.027 C 
HETATM    4  C6  UNL     1     -33.838  18.009  -2.923  1.00 20.00     0.064 C 
HETATM    5  C7  UNL     1     -33.671  16.850  -3.917  1.00 20.00     0.157 C 
ENDROOT
BRANCH   3   6
HETATM    6  C4  UNL     1     -33.813  14.347  -3.520  1.00 20.00     0.051 C 
BRANCH   6   7
HETATM    7  C5  UNL     1     -35.007  13.622  -3.994  1.00 20.00     0.259 C 
HETATM    8  O9  UNL     1     -34.927  12.602  -4.669  1.00 20.00    -0.302 OA
ENDBRANCH   6   7
ENDBRANCH   3   6
BRANCH   5   9
HETATM    9  O10 UNL     1     -34.623  16.971  -4.968  1.00 20.00    -0.386 OA
HETATM   10  C8  UNL     1     -34.021  16.774  -6.239  1.00 20.00     0.202 C 
ENDBRANCH   5   9
TORSDOF 3
ENDMDL
MODEL 6
REMARK VINA RESULT:      -4.0     11.984     12.768
REMARK  3 active torsions:
REMARK  status: ('A' for Active; 'I' for Inactive)
REMARK    1  A    between atoms: C3_3  and  C4_4 
REMARK    2  A    between atoms: C4_4  and  C5_5 
REMARK    3  A    between atoms: C7_7  and  O10_10 
ROOT
HETATM    1  C1  UNL     1     -33.263  14.482  -3.688  1.00 20.00     0.006 C 
HETATM    2  C2  UNL     1     -33.903  13.509  -4.338  1.00 20.00    -0.023 C 
HETATM    3  C3  UNL     1     -34.197  15.372  -3.049  1.00 20.00    -0.027 C 
HETATM    4  C6  UNL     1     -35.389  13.619  -4.194  1.00 20.00     0.064 C 
HETATM    5  C7  UNL     1     -35.585  14.940  -3.435  1.00 20.00     0.157 C 
ENDROOT
BRANCH   3   6
HETATM    6  C4  UNL     1     -33.876  16.391  -2.246  1.00 20.00     0.051 C 
BRANCH   6   7
HETATM    7  C5  UNL     1     -34.602  16.511  -0.968  1.00 20.00     0.259 C 
HETATM    8  O9  UNL     1     -34.298  17.341  -0.119  1.00 20.00    -0.302 OA
ENDBRANCH   6   7
ENDBRANCH   3   6
BRANCH   5   9
HETATM    9  O10 UNL     1     -36.155  15.916  -4.299  1.00 20.00    -0.386 OA
HETATM   10  C8  UNL     1     -37.101  15.337  -5.186  1.00 20.00     0.202 C 
ENDBRANCH   5   9
TORSDOF 3
ENDMDL
MODEL 7
REMARK VINA RESULT:      -4.0     11.763     13.370
REMARK  3 active torsions:
REMARK  status: ('A' for Active; 'I' for Inactive)
REMARK    1  A    between atoms: C3_3  and  C4_4 
REMARK    2  A    between atoms: C4_4  and  C5_5 
REMARK    3  A    between atoms: C7_7  and  O10_10 
ROOT
HETATM    1  C1  UNL     1     -33.987  13.795  -3.659  1.00 20.00     0.006 C 
HETATM    2  C2  UNL     1     -34.452  13.356  -4.830  1.00 20.00    -0.023 C 
HETATM    3  C3  UNL     1     -34.032  15.232  -3.596  1.00 20.00    -0.027 C 
HETATM    4  C6  UNL     1     -34.900  14.477  -5.714  1.00 20.00     0.064 C 
HETATM    5  C7  UNL     1     -34.500  15.739  -4.934  1.00 20.00     0.157 C 
ENDROOT
BRANCH   3   6
HETATM    6  C4  UNL     1     -33.724  15.975  -2.529  1.00 20.00     0.051 C 
BRANCH   6   7
HETATM    7  C5  UNL     1     -34.819  16.340  -1.609  1.00 20.00     0.259 C 
HETATM    8  O9  UNL     1     -34.612  16.673  -0.448  1.00 20.00    -0.302 OA
ENDBRANCH   6   7
ENDBRANCH   3   6
BRANCH   5   9
HETATM    9  O10 UNL     1     -33.419  16.392  -5.589  1.00 20.00    -0.386 OA
HETATM   10  C8  UNL     1     -33.665  17.782  -5.740  1.00 20.00     0.202 C 
ENDBRANCH   5   9
TORSDOF 3
ENDMDL
MODEL 8
REMARK VINA RESULT:      -3.8     12.591     13.600
REMARK  3 active torsions:
REMARK  status: ('A' for Active; 'I' for Inactive)
REMARK    1  A    between atoms: C3_3  and  C4_4 
REMARK    2  A    between atoms: C4_4  and  C5_5 
REMARK    3  A    between atoms: C7_7  and  O10_10 
ROOT
HETATM    1  C1  UNL     1     -34.960  15.632  -2.642  1.00 20.00     0.006 C 
HETATM    2  C2  UNL     1     -33.717  16.119  -2.657  1.00 20.00    -0.023 C 
HETATM    3  C3  UNL     1     -35.228  14.877  -3.837  1.00 20.00    -0.027 C 
HETATM    4  C6  UNL     1     -32.971  15.720  -3.891  1.00 20.00     0.064 C 
HETATM    5  C7  UNL     1     -34.028  14.994  -4.738  1.00 20.00     0.157 C 
ENDROOT
BRANCH   3   6
HETATM    6  C4  UNL     1     -36.344  14.185  -4.087  1.00 20.00     0.051 C 
BRANCH   6   7
HETATM    7  C5  UNL     1     -37.631  14.896  -3.972  1.00 20.00     0.259 C 
HETATM    8  O9  UNL     1     -38.660  14.332  -3.619  1.00 20.00    -0.302 OA
ENDBRANCH   6   7
ENDBRANCH   3   6
BRANCH   5   9
HETATM    9  O10 UNL     1     -34.370  15.785  -5.870  1.00 20.00    -0.386 OA
HETATM   10  C8  UNL     1     -34.381  15.011  -7.061  1.00 20.00     0.202 C 
ENDBRANCH   5   9
TORSDOF 3
ENDMDL
MODEL 9
REMARK VINA RESULT:      -3.8      9.921     11.148
REMARK  3 active torsions:
REMARK  status: ('A' for Active; 'I' for Inactive)
REMARK    1  A    between atoms: C3_3  and  C4_4 
REMARK    2  A    between atoms: C4_4  and  C5_5 
REMARK    3  A    between atoms: C7_7  and  O10_10 
ROOT
HETATM    1  C1  UNL     1     -41.148   6.861  -1.194  1.00 20.00     0.006 C 
HETATM    2  C2  UNL     1     -40.766   6.151  -0.130  1.00 20.00    -0.023 C 
HETATM    3  C3  UNL     1     -42.000   6.080  -2.051  1.00 20.00    -0.027 C 
HETATM    4  C6  UNL     1     -41.351   4.774  -0.133  1.00 20.00     0.064 C 
HETATM    5  C7  UNL     1     -42.075   4.688  -1.485  1.00 20.00     0.157 C 
ENDROOT
BRANCH   3   6
HETATM    6  C4  UNL     1     -42.622   6.527  -3.146  1.00 20.00     0.051 C 
BRANCH   6   7
HETATM    7  C5  UNL     1     -42.535   7.969  -3.444  1.00 20.00     0.259 C 
HETATM    8  O9  UNL     1     -42.119   8.390  -4.517  1.00 20.00    -0.302 OA
ENDBRANCH   6   7
ENDBRANCH   3   6
BRANCH   5   9
HETATM    9  O10 UNL     1     -41.383   3.794  -2.350  1.00 20.00    -0.386 OA
HETATM   10  C8  UNL     1     -42.248   2.790  -2.860  1.00 20.00     0.202 C 
ENDBRANCH   5   9
TORSDOF 3
ENDMDL
