MODEL 1
REMARK VINA RESULT:      -5.8      0.000      0.000
REMARK  1 active torsions:
REMARK  status: ('A' for Active; 'I' for Inactive)
REMARK    1  A    between atoms: C1_1  and  C7_7 
ROOT
HETATM    1  C2  UNL     1     -36.215  16.487  -3.443  1.00 20.00     0.007 C 
HETATM    2  C3  UNL     1     -35.796  15.022  -3.581  1.00 20.00     0.020 C 
HETATM    3  C4  UNL     1     -33.339  15.553  -3.430  1.00 20.00     0.026 C 
HETATM    4  C5  UNL     1     -35.099  17.461  -3.206  1.00 20.00    -0.002 A 
HETATM    5  C6  UNL     1     -33.659  17.004  -3.220  1.00 20.00    -0.000 A 
HETATM    6  C7  UNL     1     -34.427  14.841  -4.239  1.00 20.00     0.045 C 
HETATM    7  C8  UNL     1     -34.271  17.554  -1.935  1.00 20.00    -0.040 A 
HETATM    8  C9  UNL     1     -34.419  15.228  -5.714  1.00 20.00     0.027 C 
HETATM    9  C10 UNL     1     -33.826  18.936  -1.514  1.00 20.00     0.015 C 
HETATM   10  C11 UNL     1     -34.571  16.663  -0.759  1.00 20.00     0.015 C 
ENDROOT
BRANCH   6  11
HETATM   11  C1  UNL     1     -34.122  13.348  -4.161  1.00 20.00     0.181 C 
HETATM   12  O12 UNL     1     -32.963  13.055  -3.754  1.00 20.00    -0.647 OA
HETATM   13  O13 UNL     1     -35.071  12.594  -4.516  1.00 20.00    -0.647 OA
ENDBRANCH   6  11
TORSDOF 1
ENDMDL
MODEL 2
REMARK VINA RESULT:      -5.5      1.066      1.353
REMARK  1 active torsions:
REMARK  status: ('A' for Active; 'I' for Inactive)
REMARK    1  A    between atoms: C1_1  and  C7_7 
ROOT
HETATM    1  C2  UNL     1     -35.529  17.646  -3.609  1.00 20.00     0.007 C 
HETATM    2  C3  UNL     1     -36.113  16.248  -3.816  1.00 20.00     0.020 C 
HETATM    3  C4  UNL     1     -34.082  15.096  -2.871  1.00 20.00     0.026 C 
HETATM    4  C5  UNL     1     -34.197  17.698  -2.921  1.00 20.00    -0.002 A 
HETATM    5  C6  UNL     1     -33.460  16.427  -2.569  1.00 20.00    -0.000 A 
HETATM    6  C7  UNL     1     -35.049  15.175  -4.056  1.00 20.00     0.045 C 
HETATM    7  C8  UNL     1     -33.951  17.355  -1.461  1.00 20.00    -0.040 A 
HETATM    8  C9  UNL     1     -34.335  15.332  -5.395  1.00 20.00     0.027 C 
HETATM    9  C10 UNL     1     -32.895  18.163  -0.741  1.00 20.00     0.015 C 
HETATM   10  C11 UNL     1     -35.096  16.971  -0.561  1.00 20.00     0.015 C 
ENDROOT
BRANCH   6  11
HETATM   11  C1  UNL     1     -35.799  13.846  -4.097  1.00 20.00     0.181 C 
HETATM   12  O12 UNL     1     -35.083  12.829  -4.316  1.00 20.00    -0.647 OA
HETATM   13  O13 UNL     1     -37.044  13.934  -3.905  1.00 20.00    -0.647 OA
ENDBRANCH   6  11
TORSDOF 1
ENDMDL
MODEL 3
REMARK VINA RESULT:      -5.2      1.233      1.969
REMARK  1 active torsions:
REMARK  status: ('A' for Active; 'I' for Inactive)
REMARK    1  A    between atoms: C1_1  and  C7_7 
ROOT
HETATM    1  C2  UNL     1     -33.784  17.012  -4.814  1.00 20.00     0.007 C 
HETATM    2  C3  UNL     1     -34.611  15.739  -5.004  1.00 20.00     0.020 C 
HETATM    3  C4  UNL     1     -34.986  15.434  -2.532  1.00 20.00     0.026 C 
HETATM    4  C5  UNL     1     -33.665  17.504  -3.402  1.00 20.00    -0.002 A 
HETATM    5  C6  UNL     1     -34.245  16.709  -2.256  1.00 20.00    -0.000 A 
HETATM    6  C7  UNL     1     -34.510  14.768  -3.826  1.00 20.00     0.045 C 
HETATM    7  C8  UNL     1     -34.800  18.093  -2.580  1.00 20.00    -0.040 A 
HETATM    8  C9  UNL     1     -33.130  14.132  -3.694  1.00 20.00     0.027 C 
HETATM    9  C10 UNL     1     -34.439  19.206  -1.623  1.00 20.00     0.015 C 
HETATM   10  C11 UNL     1     -36.168  18.273  -3.183  1.00 20.00     0.015 C 
ENDROOT
BRANCH   6  11
HETATM   11  C1  UNL     1     -35.498  13.644  -4.128  1.00 20.00     0.181 C 
HETATM   12  O12 UNL     1     -34.986  12.584  -4.583  1.00 20.00    -0.647 OA
HETATM   13  O13 UNL     1     -36.706  13.920  -3.881  1.00 20.00    -0.647 OA
ENDBRANCH   6  11
TORSDOF 1
ENDMDL
MODEL 4
REMARK VINA RESULT:      -5.2      1.892      2.783
REMARK  1 active torsions:
REMARK  status: ('A' for Active; 'I' for Inactive)
REMARK    1  A    between atoms: C1_1  and  C7_7 
ROOT
HETATM    1  C2  UNL     1     -33.065  15.864  -4.170  1.00 20.00     0.007 C 
HETATM    2  C3  UNL     1     -34.014  15.699  -5.358  1.00 20.00     0.020 C 
HETATM    3  C4  UNL     1     -35.967  15.058  -3.903  1.00 20.00     0.026 C 
HETATM    4  C5  UNL     1     -33.684  15.684  -2.815  1.00 20.00    -0.002 A 
HETATM    5  C6  UNL     1     -35.128  15.261  -2.677  1.00 20.00    -0.000 A 
HETATM    6  C7  UNL     1     -35.118  14.668  -5.116  1.00 20.00     0.045 C 
HETATM    7  C8  UNL     1     -34.685  16.633  -2.176  1.00 20.00    -0.040 A 
HETATM    8  C9  UNL     1     -34.592  13.239  -5.038  1.00 20.00     0.027 C 
HETATM    9  C10 UNL     1     -34.593  16.807  -0.677  1.00 20.00     0.015 C 
HETATM   10  C11 UNL     1     -35.096  17.899  -2.879  1.00 20.00     0.015 C 
ENDROOT
BRANCH   6  11
HETATM   11  C1  UNL     1     -36.035  14.746  -6.334  1.00 20.00     0.181 C 
HETATM   12  O12 UNL     1     -35.553  14.278  -7.403  1.00 20.00    -0.647 OA
HETATM   13  O13 UNL     1     -37.163  15.270  -6.116  1.00 20.00    -0.647 OA
ENDBRANCH   6  11
TORSDOF 1
ENDMDL
MODEL 5
REMARK VINA RESULT:      -5.1      2.271      4.375
REMARK  1 active torsions:
REMARK  status: ('A' for Active; 'I' for Inactive)
REMARK    1  A    between atoms: C1_1  and  C7_7 
ROOT
HETATM    1  C2  UNL     1     -35.158  13.451  -4.200  1.00 20.00     0.007 C 
HETATM    2  C3  UNL     1     -34.972  14.560  -3.163  1.00 20.00     0.020 C 
HETATM    3  C4  UNL     1     -34.171  16.229  -4.871  1.00 20.00     0.026 C 
HETATM    4  C5  UNL     1     -34.900  13.844  -5.625  1.00 20.00    -0.002 A 
HETATM    5  C6  UNL     1     -34.386  15.224  -5.963  1.00 20.00    -0.000 A 
HETATM    6  C7  UNL     1     -33.870  15.556  -3.529  1.00 20.00     0.045 C 
HETATM    7  C8  UNL     1     -35.767  14.786  -6.444  1.00 20.00    -0.040 A 
HETATM    8  C9  UNL     1     -32.473  14.945  -3.471  1.00 20.00     0.027 C 
HETATM    9  C10 UNL     1     -35.901  14.476  -7.918  1.00 20.00     0.015 C 
HETATM   10  C11 UNL     1     -37.027  15.369  -5.861  1.00 20.00     0.015 C 
ENDROOT
BRANCH   6  11
HETATM   11  C1  UNL     1     -33.928  16.651  -2.468  1.00 20.00     0.181 C 
HETATM   12  O12 UNL     1     -34.334  16.279  -1.331  1.00 20.00    -0.647 OA
HETATM   13  O13 UNL     1     -33.561  17.793  -2.864  1.00 20.00    -0.647 OA
ENDBRANCH   6  11
TORSDOF 1
ENDMDL
MODEL 6
REMARK VINA RESULT:      -5.1      1.826      3.501
REMARK  1 active torsions:
REMARK  status: ('A' for Active; 'I' for Inactive)
REMARK    1  A    between atoms: C1_1  and  C7_7 
ROOT
HETATM    1  C2  UNL     1     -33.478  17.210  -4.829  1.00 20.00     0.007 C 
HETATM    2  C3  UNL     1     -33.266  15.715  -4.586  1.00 20.00     0.020 C 
HETATM    3  C4  UNL     1     -35.693  15.157  -4.958  1.00 20.00     0.026 C 
HETATM    4  C5  UNL     1     -34.866  17.612  -5.233  1.00 20.00    -0.002 A 
HETATM    5  C6  UNL     1     -35.982  16.594  -5.277  1.00 20.00    -0.000 A 
HETATM    6  C7  UNL     1     -34.498  15.012  -4.012  1.00 20.00     0.045 C 
HETATM    7  C8  UNL     1     -35.523  17.279  -6.562  1.00 20.00    -0.040 A 
HETATM    8  C9  UNL     1     -34.816  15.440  -2.583  1.00 20.00     0.027 C 
HETATM    9  C10 UNL     1     -36.454  18.322  -7.139  1.00 20.00     0.015 C 
HETATM   10  C11 UNL     1     -34.763  16.533  -7.626  1.00 20.00     0.015 C 
ENDROOT
BRANCH   6  11
HETATM   11  C1  UNL     1     -34.149  13.527  -3.972  1.00 20.00     0.181 C 
HETATM   12  O12 UNL     1     -32.971  13.259  -3.608  1.00 20.00    -0.647 OA
HETATM   13  O13 UNL     1     -35.089  12.753  -4.309  1.00 20.00    -0.647 OA
ENDBRANCH   6  11
TORSDOF 1
ENDMDL
MODEL 7
REMARK VINA RESULT:      -4.9      1.747      2.990
REMARK  1 active torsions:
REMARK  status: ('A' for Active; 'I' for Inactive)
REMARK    1  A    between atoms: C1_1  and  C7_7 
ROOT
HETATM    1  C2  UNL     1     -34.816  16.541  -6.146  1.00 20.00     0.007 C 
HETATM    2  C3  UNL     1     -34.441  15.096  -5.811  1.00 20.00     0.020 C 
HETATM    3  C4  UNL     1     -35.554  15.172  -3.554  1.00 20.00     0.026 C 
HETATM    4  C5  UNL     1     -35.669  17.243  -5.131  1.00 20.00    -0.002 A 
HETATM    5  C6  UNL     1     -36.023  16.571  -3.824  1.00 20.00    -0.000 A 
HETATM    6  C7  UNL     1     -34.265  14.846  -4.312  1.00 20.00     0.045 C 
HETATM    7  C8  UNL     1     -37.121  16.912  -4.828  1.00 20.00    -0.040 A 
HETATM    8  C9  UNL     1     -33.041  15.547  -3.731  1.00 20.00     0.027 C 
HETATM    9  C10 UNL     1     -38.022  18.074  -4.474  1.00 20.00     0.015 C 
HETATM   10  C11 UNL     1     -37.841  15.841  -5.604  1.00 20.00     0.015 C 
ENDROOT
BRANCH   6  11
HETATM   11  C1  UNL     1     -34.039  13.344  -4.164  1.00 20.00     0.181 C 
HETATM   12  O12 UNL     1     -32.900  13.010  -3.734  1.00 20.00    -0.647 OA
HETATM   13  O13 UNL     1     -35.024  12.625  -4.491  1.00 20.00    -0.647 OA
ENDBRANCH   6  11
TORSDOF 1
ENDMDL
MODEL 8
REMARK VINA RESULT:      -4.9      2.965      4.647
REMARK  1 active torsions:
REMARK  status: ('A' for Active; 'I' for Inactive)
REMARK    1  A    between atoms: C1_1  and  C7_7 
ROOT
HETATM    1  C2  UNL     1     -34.350  17.334  -4.389  1.00 20.00     0.007 C 
HETATM    2  C3  UNL     1     -33.668  18.046  -3.220  1.00 20.00     0.020 C 
HETATM    3  C4  UNL     1     -34.415  16.326  -1.539  1.00 20.00     0.026 C 
HETATM    4  C5  UNL     1     -35.002  16.023  -4.060  1.00 20.00    -0.002 A 
HETATM    5  C6  UNL     1     -35.056  15.525  -2.634  1.00 20.00    -0.000 A 
HETATM    6  C7  UNL     1     -34.367  17.818  -1.878  1.00 20.00     0.045 C 
HETATM    7  C8  UNL     1     -34.265  14.748  -3.683  1.00 20.00    -0.040 A 
HETATM    8  C9  UNL     1     -35.734  18.490  -1.797  1.00 20.00     0.027 C 
HETATM    9  C10 UNL     1     -34.872  13.448  -4.159  1.00 20.00     0.015 C 
HETATM   10  C11 UNL     1     -32.760  14.710  -3.668  1.00 20.00     0.015 C 
ENDROOT
BRANCH   6  11
HETATM   11  C1  UNL     1     -33.477  18.476  -0.827  1.00 20.00     0.181 C 
HETATM   12  O12 UNL     1     -33.724  18.152   0.368  1.00 20.00    -0.647 OA
HETATM   13  O13 UNL     1     -32.604  19.263  -1.290  1.00 20.00    -0.647 OA
ENDBRANCH   6  11
TORSDOF 1
ENDMDL
MODEL 9
REMARK VINA RESULT:      -4.8      1.696      2.666
REMARK  1 active torsions:
REMARK  status: ('A' for Active; 'I' for Inactive)
REMARK    1  A    between atoms: C1_1  and  C7_7 
ROOT
HETATM    1  C2  UNL     1     -36.163  16.229  -5.736  1.00 20.00     0.007 C 
HETATM    2  C3  UNL     1     -35.434  14.893  -5.585  1.00 20.00     0.020 C 
HETATM    3  C4  UNL     1     -35.329  15.062  -3.075  1.00 20.00     0.026 C 
HETATM    4  C5  UNL     1     -36.534  16.915  -4.455  1.00 20.00    -0.002 A 
HETATM    5  C6  UNL     1     -36.101  16.347  -3.122  1.00 20.00    -0.000 A 
HETATM    6  C7  UNL     1     -34.524  14.833  -4.357  1.00 20.00     0.045 C 
HETATM    7  C8  UNL     1     -37.585  16.427  -3.471  1.00 20.00    -0.040 A 
HETATM    8  C9  UNL     1     -33.311  15.751  -4.468  1.00 20.00     0.027 C 
HETATM    9  C10 UNL     1     -38.390  17.488  -2.756  1.00 20.00     0.015 C 
HETATM   10  C11 UNL     1     -38.393  15.191  -3.766  1.00 20.00     0.015 C 
ENDROOT
BRANCH   6  11
HETATM   11  C1  UNL     1     -34.002  13.400  -4.295  1.00 20.00     0.181 C 
HETATM   12  O12 UNL     1     -32.883  13.258  -3.728  1.00 20.00    -0.647 OA
HETATM   13  O13 UNL     1     -34.761  12.536  -4.819  1.00 20.00    -0.647 OA
ENDBRANCH   6  11
TORSDOF 1
ENDMDL
