MODEL 1
REMARK VINA RESULT:      -4.5      0.000      0.000
REMARK  1 active torsions:
REMARK  status: ('A' for Active; 'I' for Inactive)
REMARK    1  A    between atoms: C1_1  and  C3_3 
ROOT
HETATM    1  C1  UNL     1     -33.782   6.318   5.037  1.00 20.00     0.064 C 
HETATM    2  C2  UNL     1     -34.474   5.542   5.881  1.00 20.00     0.184 C 
HETATM    3  F4  UNL     1     -34.956   6.057   7.033  1.00 20.00    -0.193 F 
HETATM    4 CL5  UNL     1     -34.767   3.881   5.529  1.00 20.00    -0.052 Cl
ENDROOT
BRANCH   1   5
HETATM    5  C3  UNL     1     -33.211   5.836   3.742  1.00 20.00     0.205 C 
HETATM    6 CL6  UNL     1     -34.529   5.395   2.631  1.00 20.00    -0.104 Cl
HETATM    7 CL7  UNL     1     -32.204   7.110   3.017  1.00 20.00    -0.104 Cl
ENDBRANCH   1   5
TORSDOF 1
ENDMDL
MODEL 2
REMARK VINA RESULT:      -4.0      2.487      3.852
REMARK  1 active torsions:
REMARK  status: ('A' for Active; 'I' for Inactive)
REMARK    1  A    between atoms: C1_1  and  C3_3 
ROOT
HETATM    1  C1  UNL     1     -34.763   5.198   4.194  1.00 20.00     0.064 C 
HETATM    2  C2  UNL     1     -34.035   5.567   3.134  1.00 20.00     0.184 C 
HETATM    3  F4  UNL     1     -34.598   5.603   1.907  1.00 20.00    -0.193 F 
HETATM    4 CL5  UNL     1     -32.375   6.000   3.298  1.00 20.00    -0.052 Cl
ENDROOT
BRANCH   1   5
HETATM    5  C3  UNL     1     -34.226   5.128   5.589  1.00 20.00     0.205 C 
HETATM    6 CL6  UNL     1     -34.034   6.771   6.243  1.00 20.00    -0.104 Cl
HETATM    7 CL7  UNL     1     -35.336   4.190   6.614  1.00 20.00    -0.104 Cl
ENDBRANCH   1   5
TORSDOF 1
ENDMDL
MODEL 3
REMARK VINA RESULT:      -3.9      2.206      2.545
REMARK  1 active torsions:
REMARK  status: ('A' for Active; 'I' for Inactive)
REMARK    1  A    between atoms: C1_1  and  C3_3 
ROOT
HETATM    1  C1  UNL     1     -34.377   6.296   3.890  1.00 20.00     0.064 C 
HETATM    2  C2  UNL     1     -35.337   5.390   4.111  1.00 20.00     0.184 C 
HETATM    3  F4  UNL     1     -36.506   5.466   3.438  1.00 20.00    -0.193 F 
HETATM    4 CL5  UNL     1     -35.116   4.114   5.248  1.00 20.00    -0.052 Cl
ENDROOT
BRANCH   1   5
HETATM    5  C3  UNL     1     -33.053   6.291   4.587  1.00 20.00     0.205 C 
HETATM    6 CL6  UNL     1     -31.882   7.257   3.658  1.00 20.00    -0.104 Cl
HETATM    7 CL7  UNL     1     -33.233   6.963   6.224  1.00 20.00    -0.104 Cl
ENDBRANCH   1   5
TORSDOF 1
ENDMDL
MODEL 4
REMARK VINA RESULT:      -3.9      2.324      3.538
REMARK  1 active torsions:
REMARK  status: ('A' for Active; 'I' for Inactive)
REMARK    1  A    between atoms: C1_1  and  C3_3 
ROOT
HETATM    1  C1  UNL     1     -33.331   6.570   4.577  1.00 20.00     0.064 C 
HETATM    2  C2  UNL     1     -32.446   6.683   3.579  1.00 20.00     0.184 C 
HETATM    3  F4  UNL     1     -31.669   7.784   3.486  1.00 20.00    -0.193 F 
HETATM    4 CL5  UNL     1     -32.274   5.443   2.394  1.00 20.00    -0.052 Cl
ENDROOT
BRANCH   1   5
HETATM    5  C3  UNL     1     -34.233   5.391   4.760  1.00 20.00     0.205 C 
HETATM    6 CL6  UNL     1     -34.787   5.314   6.449  1.00 20.00    -0.104 Cl
HETATM    7 CL7  UNL     1     -35.629   5.526   3.667  1.00 20.00    -0.104 Cl
ENDBRANCH   1   5
TORSDOF 1
ENDMDL
MODEL 5
REMARK VINA RESULT:      -3.9      2.509      3.480
REMARK  1 active torsions:
REMARK  status: ('A' for Active; 'I' for Inactive)
REMARK    1  A    between atoms: C1_1  and  C3_3 
ROOT
HETATM    1  C1  UNL     1     -33.111   6.361   4.529  1.00 20.00     0.064 C 
HETATM    2  C2  UNL     1     -33.122   6.036   3.231  1.00 20.00     0.184 C 
HETATM    3  F4  UNL     1     -32.047   6.304   2.458  1.00 20.00    -0.193 F 
HETATM    4 CL5  UNL     1     -34.492   5.277   2.512  1.00 20.00    -0.052 Cl
ENDROOT
BRANCH   1   5
HETATM    5  C3  UNL     1     -34.253   6.105   5.460  1.00 20.00     0.205 C 
HETATM    6 CL6  UNL     1     -34.337   4.370   5.846  1.00 20.00    -0.104 Cl
HETATM    7 CL7  UNL     1     -34.038   7.050   6.952  1.00 20.00    -0.104 Cl
ENDBRANCH   1   5
TORSDOF 1
ENDMDL
MODEL 6
REMARK VINA RESULT:      -3.9      1.627      2.171
REMARK  1 active torsions:
REMARK  status: ('A' for Active; 'I' for Inactive)
REMARK    1  A    between atoms: C1_1  and  C3_3 
ROOT
HETATM    1  C1  UNL     1     -34.777   4.953   4.578  1.00 20.00     0.064 C 
HETATM    2  C2  UNL     1     -34.743   5.181   5.897  1.00 20.00     0.184 C 
HETATM    3  F4  UNL     1     -35.244   4.265   6.754  1.00 20.00    -0.193 F 
HETATM    4 CL5  UNL     1     -34.069   6.633   6.534  1.00 20.00    -0.052 Cl
ENDROOT
BRANCH   1   5
HETATM    5  C3  UNL     1     -34.248   5.906   3.555  1.00 20.00     0.205 C 
HETATM    6 CL6  UNL     1     -32.490   6.090   3.757  1.00 20.00    -0.104 Cl
HETATM    7 CL7  UNL     1     -34.613   5.302   1.923  1.00 20.00    -0.104 Cl
ENDBRANCH   1   5
TORSDOF 1
ENDMDL
MODEL 7
REMARK VINA RESULT:      -3.8      2.196      2.741
REMARK  1 active torsions:
REMARK  status: ('A' for Active; 'I' for Inactive)
REMARK    1  A    between atoms: C1_1  and  C3_3 
ROOT
HETATM    1  C1  UNL     1     -34.223   5.414   5.953  1.00 20.00     0.064 C 
HETATM    2  C2  UNL     1     -35.012   4.672   5.167  1.00 20.00     0.184 C 
HETATM    3  F4  UNL     1     -35.315   3.403   5.519  1.00 20.00    -0.193 F 
HETATM    4 CL5  UNL     1     -35.659   5.303   3.700  1.00 20.00    -0.052 Cl
ENDROOT
BRANCH   1   5
HETATM    5  C3  UNL     1     -33.834   6.825   5.646  1.00 20.00     0.205 C 
HETATM    6 CL6  UNL     1     -33.118   7.579   7.090  1.00 20.00    -0.104 Cl
HETATM    7 CL7  UNL     1     -32.667   6.850   4.304  1.00 20.00    -0.104 Cl
ENDBRANCH   1   5
TORSDOF 1
ENDMDL
MODEL 8
REMARK VINA RESULT:      -3.5     11.838     12.574
REMARK  1 active torsions:
REMARK  status: ('A' for Active; 'I' for Inactive)
REMARK    1  A    between atoms: C1_1  and  C3_3 
ROOT
HETATM    1  C1  UNL     1     -35.047  15.208  -2.977  1.00 20.00     0.064 C 
HETATM    2  C2  UNL     1     -34.704  14.076  -3.603  1.00 20.00     0.184 C 
HETATM    3  F4  UNL     1     -35.656  13.293  -4.155  1.00 20.00    -0.193 F 
HETATM    4 CL5  UNL     1     -33.056  13.586  -3.720  1.00 20.00    -0.052 Cl
ENDROOT
BRANCH   1   5
HETATM    5  C3  UNL     1     -34.065  16.136  -2.336  1.00 20.00     0.205 C 
HETATM    6 CL6  UNL     1     -33.864  17.588  -3.343  1.00 20.00    -0.104 Cl
HETATM    7 CL7  UNL     1     -34.637  16.593  -0.715  1.00 20.00    -0.104 Cl
ENDBRANCH   1   5
TORSDOF 1
ENDMDL
MODEL 9
REMARK VINA RESULT:      -3.5      9.293      9.893
REMARK  1 active torsions:
REMARK  status: ('A' for Active; 'I' for Inactive)
REMARK    1  A    between atoms: C1_1  and  C3_3 
ROOT
HETATM    1  C1  UNL     1     -41.006   4.998  -1.234  1.00 20.00     0.064 C 
HETATM    2  C2  UNL     1     -41.194   5.607  -0.057  1.00 20.00     0.184 C 
HETATM    3  F4  UNL     1     -40.174   6.268   0.532  1.00 20.00    -0.193 F 
HETATM    4 CL5  UNL     1     -42.724   5.567   0.735  1.00 20.00    -0.052 Cl
ENDROOT
BRANCH   1   5
HETATM    5  C3  UNL     1     -42.074   4.243  -1.960  1.00 20.00     0.205 C 
HETATM    6 CL6  UNL     1     -42.937   5.337  -3.066  1.00 20.00    -0.104 Cl
HETATM    7 CL7  UNL     1     -41.348   2.901  -2.874  1.00 20.00    -0.104 Cl
ENDBRANCH   1   5
TORSDOF 1
ENDMDL
