MODEL 1
REMARK VINA RESULT:      -4.0      0.000      0.000
REMARK  2 active torsions:
REMARK  status: ('A' for Active; 'I' for Inactive)
REMARK    1  A    between atoms: C3_3  and  C4_4 
REMARK    2  A    between atoms: C4_4  and  S7_7 
ROOT
HETATM    1  C4  UNL     1     -34.361  14.653  -3.157  1.00 20.00     0.162 C 
ENDROOT
BRANCH   1   2
HETATM    2  C3  UNL     1     -34.876  15.964  -2.671  1.00 20.00     0.001 A 
HETATM    3  C1  UNL     1     -34.655  16.382  -1.244  1.00 20.00     0.006 A 
HETATM    4  C2  UNL     1     -33.921  17.081  -2.353  1.00 20.00     0.006 A 
ENDBRANCH   1   2
BRANCH   1   5
HETATM    5  S7  UNL     1     -35.481  13.869  -4.284  1.00 20.00     0.230 S 
HETATM    6  O5  UNL     1     -36.829  14.026  -3.778  1.00 20.00    -0.211 OA
HETATM    7  O6  UNL     1     -34.942  12.575  -4.644  1.00 20.00    -0.211 OA
HETATM    8 CL8  UNL     1     -35.428  14.969  -6.009  1.00 20.00     0.018 Cl
ENDBRANCH   1   5
TORSDOF 2
ENDMDL
MODEL 2
REMARK VINA RESULT:      -4.0      1.162      1.571
REMARK  2 active torsions:
REMARK  status: ('A' for Active; 'I' for Inactive)
REMARK    1  A    between atoms: C3_3  and  C4_4 
REMARK    2  A    between atoms: C4_4  and  S7_7 
ROOT
HETATM    1  C4  UNL     1     -35.150  15.055  -3.128  1.00 20.00     0.162 C 
ENDROOT
BRANCH   1   2
HETATM    2  C3  UNL     1     -34.189  15.841  -2.303  1.00 20.00     0.001 A 
HETATM    3  C1  UNL     1     -34.272  17.341  -2.267  1.00 20.00     0.006 A 
HETATM    4  C2  UNL     1     -34.656  16.539  -1.056  1.00 20.00     0.006 A 
ENDBRANCH   1   2
BRANCH   1   5
HETATM    5  S7  UNL     1     -34.332  13.878  -4.169  1.00 20.00     0.230 S 
HETATM    6  O5  UNL     1     -35.167  12.699  -4.275  1.00 20.00    -0.211 OA
HETATM    7  O6  UNL     1     -32.941  13.801  -3.775  1.00 20.00    -0.211 OA
HETATM    8 CL8  UNL     1     -34.310  14.686  -6.049  1.00 20.00     0.018 Cl
ENDBRANCH   1   5
TORSDOF 2
ENDMDL
MODEL 3
REMARK VINA RESULT:      -3.9      1.677      2.070
REMARK  2 active torsions:
REMARK  status: ('A' for Active; 'I' for Inactive)
REMARK    1  A    between atoms: C3_3  and  C4_4 
REMARK    2  A    between atoms: C4_4  and  S7_7 
ROOT
HETATM    1  C4  UNL     1     -36.051  16.136  -3.081  1.00 20.00     0.162 C 
ENDROOT
BRANCH   1   2
HETATM    2  C3  UNL     1     -34.883  15.816  -2.213  1.00 20.00     0.001 A 
HETATM    3  C1  UNL     1     -33.752  16.797  -2.074  1.00 20.00     0.006 A 
HETATM    4  C2  UNL     1     -34.679  16.551  -0.917  1.00 20.00     0.006 A 
ENDBRANCH   1   2
BRANCH   1   5
HETATM    5  S7  UNL     1     -36.461  14.801  -4.171  1.00 20.00     0.230 S 
HETATM    6  O5  UNL     1     -36.343  15.269  -5.537  1.00 20.00    -0.211 OA
HETATM    7  O6  UNL     1     -37.661  14.157  -3.682  1.00 20.00    -0.211 OA
HETATM    8 CL8  UNL     1     -34.980  13.404  -3.956  1.00 20.00     0.018 Cl
ENDBRANCH   1   5
TORSDOF 2
ENDMDL
MODEL 4
REMARK VINA RESULT:      -3.9     11.788     12.166
REMARK  2 active torsions:
REMARK  status: ('A' for Active; 'I' for Inactive)
REMARK    1  A    between atoms: C3_3  and  C4_4 
REMARK    2  A    between atoms: C4_4  and  S7_7 
ROOT
HETATM    1  C4  UNL     1     -33.548   5.383   3.400  1.00 20.00     0.162 C 
ENDROOT
BRANCH   1   2
HETATM    2  C3  UNL     1     -33.154   6.816   3.509  1.00 20.00     0.001 A 
HETATM    3  C1  UNL     1     -31.718   7.189   3.752  1.00 20.00     0.006 A 
HETATM    4  C2  UNL     1     -32.349   7.464   2.416  1.00 20.00     0.006 A 
ENDBRANCH   1   2
BRANCH   1   5
HETATM    5  S7  UNL     1     -34.951   4.996   4.411  1.00 20.00     0.230 S 
HETATM    6  O5  UNL     1     -34.961   3.569   4.658  1.00 20.00    -0.211 OA
HETATM    7  O6  UNL     1     -36.105   5.692   3.884  1.00 20.00    -0.211 OA
HETATM    8 CL8  UNL     1     -34.600   5.851   6.237  1.00 20.00     0.018 Cl
ENDBRANCH   1   5
TORSDOF 2
ENDMDL
MODEL 5
REMARK VINA RESULT:      -3.8     11.503     11.977
REMARK  2 active torsions:
REMARK  status: ('A' for Active; 'I' for Inactive)
REMARK    1  A    between atoms: C3_3  and  C4_4 
REMARK    2  A    between atoms: C4_4  and  S7_7 
ROOT
HETATM    1  C4  UNL     1     -33.825   6.767   4.113  1.00 20.00     0.162 C 
ENDROOT
BRANCH   1   2
HETATM    2  C3  UNL     1     -33.947   5.480   4.854  1.00 20.00     0.001 A 
HETATM    3  C1  UNL     1     -34.671   5.430   6.170  1.00 20.00     0.006 A 
HETATM    4  C2  UNL     1     -35.277   4.787   4.954  1.00 20.00     0.006 A 
ENDBRANCH   1   2
BRANCH   1   5
HETATM    5  S7  UNL     1     -32.241   6.949   3.342  1.00 20.00     0.230 S 
HETATM    6  O5  UNL     1     -31.906   5.708   2.677  1.00 20.00    -0.211 OA
HETATM    7  O6  UNL     1     -31.341   7.583   4.282  1.00 20.00    -0.211 OA
HETATM    8 CL8  UNL     1     -32.485   8.313   1.835  1.00 20.00     0.018 Cl
ENDBRANCH   1   5
TORSDOF 2
ENDMDL
MODEL 6
REMARK VINA RESULT:      -3.7      1.327      1.557
REMARK  2 active torsions:
REMARK  status: ('A' for Active; 'I' for Inactive)
REMARK    1  A    between atoms: C3_3  and  C4_4 
REMARK    2  A    between atoms: C4_4  and  S7_7 
ROOT
HETATM    1  C4  UNL     1     -33.960  14.885  -3.437  1.00 20.00     0.162 C 
ENDROOT
BRANCH   1   2
HETATM    2  C3  UNL     1     -34.510  16.147  -2.867  1.00 20.00     0.001 A 
HETATM    3  C1  UNL     1     -34.743  16.271  -1.387  1.00 20.00     0.006 A 
HETATM    4  C2  UNL     1     -33.636  17.050  -2.041  1.00 20.00     0.006 A 
ENDBRANCH   1   2
BRANCH   1   5
HETATM    5  S7  UNL     1     -35.115  14.074  -4.508  1.00 20.00     0.230 S 
HETATM    6  O5  UNL     1     -35.018  12.645  -4.292  1.00 20.00    -0.211 OA
HETATM    7  O6  UNL     1     -35.011  14.660  -5.827  1.00 20.00    -0.211 OA
HETATM    8 CL8  UNL     1     -36.980  14.588  -3.841  1.00 20.00     0.018 Cl
ENDBRANCH   1   5
TORSDOF 2
ENDMDL
MODEL 7
REMARK VINA RESULT:      -3.7      2.401      2.680
REMARK  2 active torsions:
REMARK  status: ('A' for Active; 'I' for Inactive)
REMARK    1  A    between atoms: C3_3  and  C4_4 
REMARK    2  A    between atoms: C4_4  and  S7_7 
ROOT
HETATM    1  C4  UNL     1     -34.835  16.413  -3.218  1.00 20.00     0.162 C 
ENDROOT
BRANCH   1   2
HETATM    2  C3  UNL     1     -34.116  16.286  -1.919  1.00 20.00     0.001 A 
HETATM    3  C1  UNL     1     -33.605  17.511  -1.214  1.00 20.00     0.006 A 
HETATM    4  C2  UNL     1     -34.768  16.749  -0.645  1.00 20.00     0.006 A 
ENDBRANCH   1   2
BRANCH   1   5
HETATM    5  S7  UNL     1     -33.985  15.591  -4.537  1.00 20.00     0.230 S 
HETATM    6  O5  UNL     1     -32.785  16.338  -4.849  1.00 20.00    -0.211 OA
HETATM    7  O6  UNL     1     -34.951  15.230  -5.554  1.00 20.00    -0.211 OA
HETATM    8 CL8  UNL     1     -33.323  13.810  -3.776  1.00 20.00     0.018 Cl
ENDBRANCH   1   5
TORSDOF 2
ENDMDL
MODEL 8
REMARK VINA RESULT:      -3.7      2.776      3.200
REMARK  2 active torsions:
REMARK  status: ('A' for Active; 'I' for Inactive)
REMARK    1  A    between atoms: C3_3  and  C4_4 
REMARK    2  A    between atoms: C4_4  and  S7_7 
ROOT
HETATM    1  C4  UNL     1     -34.370  14.468  -5.782  1.00 20.00     0.162 C 
ENDROOT
BRANCH   1   2
HETATM    2  C3  UNL     1     -34.668  15.923  -5.665  1.00 20.00     0.001 A 
HETATM    3  C1  UNL     1     -33.548  16.918  -5.542  1.00 20.00     0.006 A 
HETATM    4  C2  UNL     1     -34.359  16.854  -6.806  1.00 20.00     0.006 A 
ENDBRANCH   1   2
BRANCH   1   5
HETATM    5  S7  UNL     1     -34.434  13.643  -4.216  1.00 20.00     0.230 S 
HETATM    6  O5  UNL     1     -33.080  13.369  -3.784  1.00 20.00    -0.211 OA
HETATM    7  O6  UNL     1     -35.443  12.607  -4.282  1.00 20.00    -0.211 OA
HETATM    8 CL8  UNL     1     -35.157  15.008  -2.873  1.00 20.00     0.018 Cl
ENDBRANCH   1   5
TORSDOF 2
ENDMDL
MODEL 9
REMARK VINA RESULT:      -3.6     12.047     12.525
REMARK  2 active torsions:
REMARK  status: ('A' for Active; 'I' for Inactive)
REMARK    1  A    between atoms: C3_3  and  C4_4 
REMARK    2  A    between atoms: C4_4  and  S7_7 
ROOT
HETATM    1  C4  UNL     1     -33.663   6.305   4.974  1.00 20.00     0.162 C 
ENDROOT
BRANCH   1   2
HETATM    2  C3  UNL     1     -34.832   5.394   5.125  1.00 20.00     0.001 A 
HETATM    3  C1  UNL     1     -34.621   3.924   5.357  1.00 20.00     0.006 A 
HETATM    4  C2  UNL     1     -35.153   4.790   6.464  1.00 20.00     0.006 A 
ENDBRANCH   1   2
BRANCH   1   5
HETATM    5  S7  UNL     1     -32.998   6.277   3.332  1.00 20.00     0.230 S 
HETATM    6  O5  UNL     1     -31.812   5.447   3.329  1.00 20.00    -0.211 OA
HETATM    7  O6  UNL     1     -32.991   7.629   2.814  1.00 20.00    -0.211 OA
HETATM    8 CL8  UNL     1     -34.356   5.271   2.177  1.00 20.00     0.018 Cl
ENDBRANCH   1   5
TORSDOF 2
ENDMDL
