MODEL 1
REMARK VINA RESULT:      -4.3      0.000      0.000
REMARK  2 active torsions:
REMARK  status: ('A' for Active; 'I' for Inactive)
REMARK    1  A    between atoms: C1_1  and  C5_5 
REMARK    2  A    between atoms: C4_4  and  C5_5 
ROOT
HETATM    1  C2  UNL     1     -36.337  14.945  -3.991  1.00 20.00     0.032 C 
HETATM    2  C3  UNL     1     -34.359  15.591  -2.606  1.00 20.00     0.032 C 
HETATM    3  C5  UNL     1     -34.806  14.932  -3.915  1.00 20.00     0.100 C 
ENDROOT
BRANCH   3   4
HETATM    4  C1  UNL     1     -34.262  13.477  -4.011  1.00 20.00     0.186 C 
HETATM    5  O6  UNL     1     -33.053  13.318  -3.672  1.00 20.00    -0.647 OA
HETATM    6  O7  UNL     1     -35.091  12.604  -4.399  1.00 20.00    -0.647 OA
ENDBRANCH   3   4
BRANCH   3   7
HETATM    7  C4  UNL     1     -34.217  15.686  -5.110  1.00 20.00     0.371 C 
HETATM    8  F8  UNL     1     -34.090  14.861  -6.181  1.00 20.00    -0.213 F 
HETATM    9  F9  UNL     1     -32.973  16.145  -4.822  1.00 20.00    -0.213 F 
ENDBRANCH   3   7
TORSDOF 2
ENDMDL
MODEL 2
REMARK VINA RESULT:      -4.3      0.041      1.075
REMARK  2 active torsions:
REMARK  status: ('A' for Active; 'I' for Inactive)
REMARK    1  A    between atoms: C1_1  and  C5_5 
REMARK    2  A    between atoms: C4_4  and  C5_5 
ROOT
HETATM    1  C2  UNL     1     -36.323  14.947  -3.919  1.00 20.00     0.032 C 
HETATM    2  C3  UNL     1     -34.299  15.577  -2.595  1.00 20.00     0.032 C 
HETATM    3  C5  UNL     1     -34.792  14.922  -3.890  1.00 20.00     0.100 C 
ENDROOT
BRANCH   3   4
HETATM    4  C1  UNL     1     -34.263  13.462  -4.002  1.00 20.00     0.186 C 
HETATM    5  O6  UNL     1     -35.092  12.608  -4.431  1.00 20.00    -0.647 OA
HETATM    6  O7  UNL     1     -33.054  13.287  -3.671  1.00 20.00    -0.647 OA
ENDBRANCH   3   4
BRANCH   3   7
HETATM    7  C4  UNL     1     -34.233  15.671  -5.102  1.00 20.00     0.371 C 
HETATM    8  F8  UNL     1     -34.122  14.839  -6.169  1.00 20.00    -0.213 F 
HETATM    9  F9  UNL     1     -32.987  16.142  -4.843  1.00 20.00    -0.213 F 
ENDBRANCH   3   7
TORSDOF 2
ENDMDL
MODEL 3
REMARK VINA RESULT:      -4.2      1.171      2.037
REMARK  2 active torsions:
REMARK  status: ('A' for Active; 'I' for Inactive)
REMARK    1  A    between atoms: C1_1  and  C5_5 
REMARK    2  A    between atoms: C4_4  and  C5_5 
ROOT
HETATM    1  C2  UNL     1     -34.751  15.279  -5.698  1.00 20.00     0.032 C 
HETATM    2  C3  UNL     1     -35.621  15.246  -3.355  1.00 20.00     0.032 C 
HETATM    3  C5  UNL     1     -34.435  14.879  -4.252  1.00 20.00     0.100 C 
ENDROOT
BRANCH   3   4
HETATM    4  C1  UNL     1     -34.125  13.357  -4.157  1.00 20.00     0.186 C 
HETATM    5  O6  UNL     1     -35.069  12.581  -4.486  1.00 20.00    -0.647 OA
HETATM    6  O7  UNL     1     -32.956  13.056  -3.779  1.00 20.00    -0.647 OA
ENDBRANCH   3   4
BRANCH   3   7
HETATM    7  C4  UNL     1     -33.173  15.601  -3.774  1.00 20.00     0.371 C 
HETATM    8  F8  UNL     1     -33.321  16.029  -2.495  1.00 20.00    -0.213 F 
HETATM    9  F9  UNL     1     -32.936  16.703  -4.529  1.00 20.00    -0.213 F 
ENDBRANCH   3   7
TORSDOF 2
ENDMDL
MODEL 4
REMARK VINA RESULT:      -4.2      1.016      1.604
REMARK  2 active torsions:
REMARK  status: ('A' for Active; 'I' for Inactive)
REMARK    1  A    between atoms: C1_1  and  C5_5 
REMARK    2  A    between atoms: C4_4  and  C5_5 
ROOT
HETATM    1  C2  UNL     1     -34.541  15.609  -2.606  1.00 20.00     0.032 C 
HETATM    2  C3  UNL     1     -32.915  13.974  -3.572  1.00 20.00     0.032 C 
HETATM    3  C5  UNL     1     -34.207  14.755  -3.834  1.00 20.00     0.100 C 
ENDROOT
BRANCH   3   4
HETATM    4  C1  UNL     1     -35.378  13.783  -4.164  1.00 20.00     0.186 C 
HETATM    5  O6  UNL     1     -35.046  12.592  -4.429  1.00 20.00    -0.647 OA
HETATM    6  O7  UNL     1     -36.539  14.283  -4.114  1.00 20.00    -0.647 OA
ENDBRANCH   3   4
BRANCH   3   7
HETATM    7  C4  UNL     1     -34.039  15.651  -5.064  1.00 20.00     0.371 C 
HETATM    8  F8  UNL     1     -34.071  14.912  -6.202  1.00 20.00    -0.213 F 
HETATM    9  F9  UNL     1     -32.835  16.277  -5.039  1.00 20.00    -0.213 F 
ENDBRANCH   3   7
TORSDOF 2
ENDMDL
MODEL 5
REMARK VINA RESULT:      -4.1      1.836      2.817
REMARK  2 active torsions:
REMARK  status: ('A' for Active; 'I' for Inactive)
REMARK    1  A    between atoms: C1_1  and  C5_5 
REMARK    2  A    between atoms: C4_4  and  C5_5 
ROOT
HETATM    1  C2  UNL     1     -33.171  15.857  -4.530  1.00 20.00     0.032 C 
HETATM    2  C3  UNL     1     -35.253  15.166  -5.729  1.00 20.00     0.032 C 
HETATM    3  C5  UNL     1     -34.454  15.025  -4.429  1.00 20.00     0.100 C 
ENDROOT
BRANCH   3   4
HETATM    4  C1  UNL     1     -34.120  13.530  -4.151  1.00 20.00     0.186 C 
HETATM    5  O6  UNL     1     -34.993  12.693  -4.521  1.00 20.00    -0.647 OA
HETATM    6  O7  UNL     1     -33.002  13.309  -3.600  1.00 20.00    -0.647 OA
ENDBRANCH   3   4
BRANCH   3   7
HETATM    7  C4  UNL     1     -35.294  15.501  -3.242  1.00 20.00     0.371 C 
HETATM    8  F8  UNL     1     -34.616  15.335  -2.078  1.00 20.00    -0.213 F 
HETATM    9  F9  UNL     1     -36.433  14.770  -3.136  1.00 20.00    -0.213 F 
ENDBRANCH   3   7
TORSDOF 2
ENDMDL
MODEL 6
REMARK VINA RESULT:      -4.0      1.677      2.427
REMARK  2 active torsions:
REMARK  status: ('A' for Active; 'I' for Inactive)
REMARK    1  A    between atoms: C1_1  and  C5_5 
REMARK    2  A    between atoms: C4_4  and  C5_5 
ROOT
HETATM    1  C2  UNL     1     -34.365  14.831  -6.109  1.00 20.00     0.032 C 
HETATM    2  C3  UNL     1     -36.015  16.239  -4.868  1.00 20.00     0.032 C 
HETATM    3  C5  UNL     1     -35.026  15.076  -4.748  1.00 20.00     0.100 C 
ENDROOT
BRANCH   3   4
HETATM    4  C1  UNL     1     -35.747  13.791  -4.247  1.00 20.00     0.186 C 
HETATM    5  O6  UNL     1     -36.929  13.952  -3.826  1.00 20.00    -0.647 OA
HETATM    6  O7  UNL     1     -35.083  12.718  -4.332  1.00 20.00    -0.647 OA
ENDBRANCH   3   4
BRANCH   3   7
HETATM    7  C4  UNL     1     -33.959  15.400  -3.700  1.00 20.00     0.371 C 
HETATM    8  F8  UNL     1     -32.863  14.619  -3.874  1.00 20.00    -0.213 F 
HETATM    9  F9  UNL     1     -34.423  15.149  -2.450  1.00 20.00    -0.213 F 
ENDBRANCH   3   7
TORSDOF 2
ENDMDL
MODEL 7
REMARK VINA RESULT:      -3.9     12.597     13.211
REMARK  2 active torsions:
REMARK  status: ('A' for Active; 'I' for Inactive)
REMARK    1  A    between atoms: C1_1  and  C5_5 
REMARK    2  A    between atoms: C4_4  and  C5_5 
ROOT
HETATM    1  C2  UNL     1     -34.313   6.590   5.920  1.00 20.00     0.032 C 
HETATM    2  C3  UNL     1     -35.779   5.762   4.073  1.00 20.00     0.032 C 
HETATM    3  C5  UNL     1     -34.392   5.647   4.715  1.00 20.00     0.100 C 
ENDROOT
BRANCH   3   4
HETATM    4  C1  UNL     1     -33.279   5.982   3.679  1.00 20.00     0.186 C 
HETATM    5  O6  UNL     1     -33.401   5.436   2.544  1.00 20.00    -0.647 OA
HETATM    6  O7  UNL     1     -32.381   6.780   4.075  1.00 20.00    -0.647 OA
ENDBRANCH   3   4
BRANCH   3   7
HETATM    7  C4  UNL     1     -34.138   4.205   5.160  1.00 20.00     0.371 C 
HETATM    8  F8  UNL     1     -35.173   3.404   4.803  1.00 20.00    -0.213 F 
HETATM    9  F9  UNL     1     -34.036   4.132   6.512  1.00 20.00    -0.213 F 
ENDBRANCH   3   7
TORSDOF 2
ENDMDL
MODEL 8
REMARK VINA RESULT:      -3.9      2.065      2.780
REMARK  2 active torsions:
REMARK  status: ('A' for Active; 'I' for Inactive)
REMARK    1  A    between atoms: C1_1  and  C5_5 
REMARK    2  A    between atoms: C4_4  and  C5_5 
ROOT
HETATM    1  C2  UNL     1     -33.957  15.633  -5.022  1.00 20.00     0.032 C 
HETATM    2  C3  UNL     1     -34.752  15.516  -2.655  1.00 20.00     0.032 C 
HETATM    3  C5  UNL     1     -34.803  14.832  -4.025  1.00 20.00     0.100 C 
ENDROOT
BRANCH   3   4
HETATM    4  C1  UNL     1     -36.272  14.710  -4.523  1.00 20.00     0.186 C 
HETATM    5  O6  UNL     1     -36.520  15.246  -5.642  1.00 20.00    -0.647 OA
HETATM    6  O7  UNL     1     -37.059  14.072  -3.766  1.00 20.00    -0.647 OA
ENDBRANCH   3   4
BRANCH   3   7
HETATM    7  C4  UNL     1     -34.270  13.402  -3.918  1.00 20.00     0.371 C 
HETATM    8  F8  UNL     1     -32.927  13.404  -3.722  1.00 20.00    -0.213 F 
HETATM    9  F9  UNL     1     -34.494  12.719  -5.069  1.00 20.00    -0.213 F 
ENDBRANCH   3   7
TORSDOF 2
ENDMDL
MODEL 9
REMARK VINA RESULT:      -3.9      2.064      2.971
REMARK  2 active torsions:
REMARK  status: ('A' for Active; 'I' for Inactive)
REMARK    1  A    between atoms: C1_1  and  C5_5 
REMARK    2  A    between atoms: C4_4  and  C5_5 
ROOT
HETATM    1  C2  UNL     1     -34.157  15.944  -2.452  1.00 20.00     0.032 C 
HETATM    2  C3  UNL     1     -36.105  15.296  -3.877  1.00 20.00     0.032 C 
HETATM    3  C5  UNL     1     -34.593  15.144  -3.683  1.00 20.00     0.100 C 
ENDROOT
BRANCH   3   4
HETATM    4  C1  UNL     1     -33.826  15.621  -4.951  1.00 20.00     0.186 C 
HETATM    5  O6  UNL     1     -34.308  15.247  -6.059  1.00 20.00    -0.647 OA
HETATM    6  O7  UNL     1     -32.813  16.349  -4.740  1.00 20.00    -0.647 OA
ENDBRANCH   3   4
BRANCH   3   7
HETATM    7  C4  UNL     1     -34.234  13.667  -3.501  1.00 20.00     0.371 C 
HETATM    8  F8  UNL     1     -32.951  13.436  -3.878  1.00 20.00    -0.213 F 
HETATM    9  F9  UNL     1     -35.017  12.883  -4.283  1.00 20.00    -0.213 F 
ENDBRANCH   3   7
TORSDOF 2
ENDMDL
