MODEL 1
REMARK VINA RESULT:      -2.9      0.000      0.000
REMARK  1 active torsions:
REMARK  status: ('A' for Active; 'I' for Inactive)
REMARK    1  A    between atoms: N3_3  and  P4_4 
ROOT
HETATM    1  C1  UNL     1     -34.001   5.308   2.528  1.00 20.00     0.117 C 
HETATM    2  C2  UNL     1     -32.432   6.809   3.530  1.00 20.00     0.117 C 
HETATM    3  N3  UNL     1     -33.379   5.720   3.790  1.00 20.00    -0.274 NA
ENDROOT
BRANCH   3   4
HETATM    4  P4  UNL     1     -34.478   6.012   5.073  1.00 20.00     0.158 P 
HETATM    5 CL5  UNL     1     -34.950   4.226   6.075  1.00 20.00    -0.059 Cl
HETATM    6 CL6  UNL     1     -33.520   6.984   6.673  1.00 20.00    -0.059 Cl
ENDBRANCH   3   4
TORSDOF 1
ENDMDL
MODEL 2
REMARK VINA RESULT:      -2.9      3.053      3.763
REMARK  1 active torsions:
REMARK  status: ('A' for Active; 'I' for Inactive)
REMARK    1  A    between atoms: N3_3  and  P4_4 
ROOT
HETATM    1  C1  UNL     1     -34.053   6.504   6.562  1.00 20.00     0.117 C 
HETATM    2  C2  UNL     1     -35.046   4.582   5.543  1.00 20.00     0.117 C 
HETATM    3  N3  UNL     1     -33.993   5.593   5.414  1.00 20.00    -0.274 NA
ENDROOT
BRANCH   3   4
HETATM    4  P4  UNL     1     -33.920   6.367   3.885  1.00 20.00     0.158 P 
HETATM    5 CL5  UNL     1     -31.934   6.839   3.381  1.00 20.00    -0.059 Cl
HETATM    6 CL6  UNL     1     -34.282   4.995   2.334  1.00 20.00    -0.059 Cl
ENDBRANCH   3   4
TORSDOF 1
ENDMDL
MODEL 3
REMARK VINA RESULT:      -2.8     12.481     12.828
REMARK  1 active torsions:
REMARK  status: ('A' for Active; 'I' for Inactive)
REMARK    1  A    between atoms: N3_3  and  P4_4 
ROOT
HETATM    1  C1  UNL     1     -36.041  14.763  -3.730  1.00 20.00     0.117 C 
HETATM    2  C2  UNL     1     -34.672  13.203  -4.918  1.00 20.00     0.117 C 
HETATM    3  N3  UNL     1     -34.734  14.098  -3.759  1.00 20.00    -0.274 NA
ENDROOT
BRANCH   3   4
HETATM    4  P4  UNL     1     -33.389  15.147  -3.585  1.00 20.00     0.158 P 
HETATM    5 CL5  UNL     1     -33.268  16.482  -5.204  1.00 20.00    -0.059 Cl
HETATM    6 CL6  UNL     1     -33.739  16.569  -2.076  1.00 20.00    -0.059 Cl
ENDBRANCH   3   4
TORSDOF 1
ENDMDL
MODEL 4
REMARK VINA RESULT:      -2.7      0.767      2.362
REMARK  1 active torsions:
REMARK  status: ('A' for Active; 'I' for Inactive)
REMARK    1  A    between atoms: N3_3  and  P4_4 
ROOT
HETATM    1  C1  UNL     1     -32.698   6.525   3.160  1.00 20.00     0.117 C 
HETATM    2  C2  UNL     1     -34.845   5.470   3.148  1.00 20.00     0.117 C 
HETATM    3  N3  UNL     1     -33.918   6.286   3.939  1.00 20.00    -0.274 NA
ENDROOT
BRANCH   3   4
HETATM    4  P4  UNL     1     -33.654   5.731   5.539  1.00 20.00     0.158 P 
HETATM    5 CL5  UNL     1     -33.865   7.301   6.920  1.00 20.00    -0.059 Cl
HETATM    6 CL6  UNL     1     -35.269   4.559   6.201  1.00 20.00    -0.059 Cl
ENDBRANCH   3   4
TORSDOF 1
ENDMDL
MODEL 5
REMARK VINA RESULT:      -2.7      9.699     10.247
REMARK  1 active torsions:
REMARK  status: ('A' for Active; 'I' for Inactive)
REMARK    1  A    between atoms: N3_3  and  P4_4 
ROOT
HETATM    1  C1  UNL     1     -42.369   6.470  -2.730  1.00 20.00     0.117 C 
HETATM    2  C2  UNL     1     -41.218   7.387  -0.845  1.00 20.00     0.117 C 
HETATM    3  N3  UNL     1     -41.226   6.298  -1.827  1.00 20.00    -0.274 NA
ENDROOT
BRANCH   3   4
HETATM    4  P4  UNL     1     -41.065   4.726  -1.162  1.00 20.00     0.158 P 
HETATM    5 CL5  UNL     1     -42.580   4.350   0.245  1.00 20.00    -0.059 Cl
HETATM    6 CL6  UNL     1     -41.617   3.260  -2.565  1.00 20.00    -0.059 Cl
ENDBRANCH   3   4
TORSDOF 1
ENDMDL
MODEL 6
REMARK VINA RESULT:      -2.7     12.217     12.540
REMARK  1 active torsions:
REMARK  status: ('A' for Active; 'I' for Inactive)
REMARK    1  A    between atoms: N3_3  and  P4_4 
ROOT
HETATM    1  C1  UNL     1     -36.938  14.913  -4.619  1.00 20.00     0.117 C 
HETATM    2  C2  UNL     1     -35.198  13.300  -4.318  1.00 20.00     0.117 C 
HETATM    3  N3  UNL     1     -35.801  14.522  -3.778  1.00 20.00    -0.274 NA
ENDROOT
BRANCH   3   4
HETATM    4  P4  UNL     1     -34.692  15.784  -3.436  1.00 20.00     0.158 P 
HETATM    5 CL5  UNL     1     -34.660  16.213  -1.379  1.00 20.00    -0.059 Cl
HETATM    6 CL6  UNL     1     -32.710  15.104  -3.609  1.00 20.00    -0.059 Cl
ENDBRANCH   3   4
TORSDOF 1
ENDMDL
MODEL 7
REMARK VINA RESULT:      -2.7     13.336     13.484
REMARK  1 active torsions:
REMARK  status: ('A' for Active; 'I' for Inactive)
REMARK    1  A    between atoms: N3_3  and  P4_4 
ROOT
HETATM    1  C1  UNL     1     -34.051  15.846  -6.194  1.00 20.00     0.117 C 
HETATM    2  C2  UNL     1     -33.613  17.658  -4.696  1.00 20.00     0.117 C 
HETATM    3  N3  UNL     1     -33.271  16.271  -5.026  1.00 20.00    -0.274 NA
ENDROOT
BRANCH   3   4
HETATM    4  P4  UNL     1     -33.308  15.184  -3.702  1.00 20.00     0.158 P 
HETATM    5 CL5  UNL     1     -34.487  15.948  -2.139  1.00 20.00    -0.059 Cl
HETATM    6 CL6  UNL     1     -34.489  13.503  -4.146  1.00 20.00    -0.059 Cl
ENDBRANCH   3   4
TORSDOF 1
ENDMDL
MODEL 8
REMARK VINA RESULT:      -2.6     13.202     13.301
REMARK  1 active torsions:
REMARK  status: ('A' for Active; 'I' for Inactive)
REMARK    1  A    between atoms: N3_3  and  P4_4 
ROOT
HETATM    1  C1  UNL     1     -33.491  17.011  -4.933  1.00 20.00     0.117 C 
HETATM    2  C2  UNL     1     -34.320  15.401  -6.494  1.00 20.00     0.117 C 
HETATM    3  N3  UNL     1     -34.548  16.027  -5.188  1.00 20.00    -0.274 NA
ENDROOT
BRANCH   3   4
HETATM    4  P4  UNL     1     -34.835  14.930  -3.902  1.00 20.00     0.158 P 
HETATM    5 CL5  UNL     1     -33.242  13.572  -3.707  1.00 20.00    -0.059 Cl
HETATM    6 CL6  UNL     1     -34.617  15.884  -2.042  1.00 20.00    -0.059 Cl
ENDBRANCH   3   4
TORSDOF 1
ENDMDL
MODEL 9
REMARK VINA RESULT:      -2.6     10.176     10.547
REMARK  1 active torsions:
REMARK  status: ('A' for Active; 'I' for Inactive)
REMARK    1  A    between atoms: N3_3  and  P4_4 
ROOT
HETATM    1  C1  UNL     1     -41.792   7.129  -2.144  1.00 20.00     0.117 C 
HETATM    2  C2  UNL     1     -40.748   5.724  -0.514  1.00 20.00     0.117 C 
HETATM    3  N3  UNL     1     -41.312   5.771  -1.867  1.00 20.00    -0.274 NA
ENDROOT
BRANCH   3   4
HETATM    4  P4  UNL     1     -42.434   4.525  -2.224  1.00 20.00     0.158 P 
HETATM    5 CL5  UNL     1     -41.449   2.824  -2.969  1.00 20.00    -0.059 Cl
HETATM    6 CL6  UNL     1     -43.182   3.663  -0.458  1.00 20.00    -0.059 Cl
ENDBRANCH   3   4
TORSDOF 1
ENDMDL
