MODEL 1
REMARK VINA RESULT:      -5.0      0.000      0.000
REMARK  1 active torsions:
REMARK  status: ('A' for Active; 'I' for Inactive)
REMARK    1  A    between atoms: C3_3  and  C8_8 
ROOT
HETATM    1  C1  UNL     1     -34.448  17.538  -5.288  1.00 20.00    -0.026 C 
HETATM    2  C2  UNL     1     -35.589  16.855  -5.112  1.00 20.00    -0.024 C 
HETATM    3  C4  UNL     1     -34.169  15.487  -6.302  1.00 20.00     0.018 C 
HETATM    4  C5  UNL     1     -33.081  15.781  -4.199  1.00 20.00     0.029 C 
HETATM    5  C6  UNL     1     -33.353  16.526  -5.531  1.00 20.00     0.010 C 
HETATM    6  C7  UNL     1     -35.251  15.386  -5.214  1.00 20.00     0.027 C 
HETATM    7  C8  UNL     1     -34.396  14.979  -3.988  1.00 20.00     0.052 C 
HETATM    8  C9  UNL     1     -35.046  15.198  -2.628  1.00 20.00     0.027 C 
ENDROOT
BRANCH   7   9
HETATM    9  C3  UNL     1     -34.115  13.480  -4.015  1.00 20.00     0.182 C 
HETATM   10  O10 UNL     1     -35.111  12.749  -4.274  1.00 20.00    -0.647 OA
HETATM   11  O11 UNL     1     -32.917  13.162  -3.772  1.00 20.00    -0.647 OA
ENDBRANCH   7   9
TORSDOF 1
ENDMDL
MODEL 2
REMARK VINA RESULT:      -4.9      1.035      2.547
REMARK  1 active torsions:
REMARK  status: ('A' for Active; 'I' for Inactive)
REMARK    1  A    between atoms: C3_3  and  C8_8 
ROOT
HETATM    1  C1  UNL     1     -34.909  17.591  -3.622  1.00 20.00    -0.026 C 
HETATM    2  C2  UNL     1     -33.703  17.248  -4.099  1.00 20.00    -0.024 C 
HETATM    3  C4  UNL     1     -34.144  15.843  -2.327  1.00 20.00     0.018 C 
HETATM    4  C5  UNL     1     -35.821  15.308  -3.938  1.00 20.00     0.029 C 
HETATM    5  C6  UNL     1     -35.459  16.390  -2.889  1.00 20.00     0.010 C 
HETATM    6  C7  UNL     1     -33.457  15.810  -3.703  1.00 20.00     0.027 C 
HETATM    7  C8  UNL     1     -34.428  14.898  -4.493  1.00 20.00     0.052 C 
HETATM    8  C9  UNL     1     -34.317  14.971  -6.010  1.00 20.00     0.027 C 
ENDROOT
BRANCH   7   9
HETATM    9  C3  UNL     1     -34.143  13.431  -4.183  1.00 20.00     0.182 C 
HETATM   10  O10 UNL     1     -32.959  13.175  -3.825  1.00 20.00    -0.647 OA
HETATM   11  O11 UNL     1     -35.132  12.659  -4.325  1.00 20.00    -0.647 OA
ENDBRANCH   7   9
TORSDOF 1
ENDMDL
MODEL 3
REMARK VINA RESULT:      -4.9      1.394      2.281
REMARK  1 active torsions:
REMARK  status: ('A' for Active; 'I' for Inactive)
REMARK    1  A    between atoms: C3_3  and  C8_8 
ROOT
HETATM    1  C1  UNL     1     -33.962  17.250  -2.621  1.00 20.00    -0.026 C 
HETATM    2  C2  UNL     1     -34.318  16.130  -1.974  1.00 20.00    -0.024 C 
HETATM    3  C4  UNL     1     -35.733  16.336  -3.781  1.00 20.00     0.018 C 
HETATM    4  C5  UNL     1     -33.572  16.045  -4.751  1.00 20.00     0.029 C 
HETATM    5  C6  UNL     1     -34.443  17.116  -4.047  1.00 20.00     0.010 C 
HETATM    6  C7  UNL     1     -35.018  15.239  -2.975  1.00 20.00     0.027 C 
HETATM    7  C8  UNL     1     -33.983  14.740  -4.013  1.00 20.00     0.052 C 
HETATM    8  C9  UNL     1     -32.809  13.949  -3.450  1.00 20.00     0.027 C 
ENDROOT
BRANCH   7   9
HETATM    9  C3  UNL     1     -34.639  13.764  -4.985  1.00 20.00     0.182 C 
HETATM   10  O10 UNL     1     -35.031  12.677  -4.476  1.00 20.00    -0.647 OA
HETATM   11  O11 UNL     1     -34.706  14.170  -6.179  1.00 20.00    -0.647 OA
ENDBRANCH   7   9
TORSDOF 1
ENDMDL
MODEL 4
REMARK VINA RESULT:      -4.8      1.210      2.428
REMARK  1 active torsions:
REMARK  status: ('A' for Active; 'I' for Inactive)
REMARK    1  A    between atoms: C3_3  and  C8_8 
ROOT
HETATM    1  C1  UNL     1     -33.691  17.423  -4.702  1.00 20.00    -0.026 C 
HETATM    2  C2  UNL     1     -32.996  16.306  -4.967  1.00 20.00    -0.024 C 
HETATM    3  C4  UNL     1     -34.131  15.936  -2.996  1.00 20.00     0.018 C 
HETATM    4  C5  UNL     1     -35.851  16.210  -4.627  1.00 20.00     0.029 C 
HETATM    5  C6  UNL     1     -34.835  17.035  -3.795  1.00 20.00     0.010 C 
HETATM    6  C7  UNL     1     -33.691  15.168  -4.253  1.00 20.00     0.027 C 
HETATM    7  C8  UNL     1     -35.058  14.909  -4.933  1.00 20.00     0.052 C 
HETATM    8  C9  UNL     1     -35.004  14.548  -6.411  1.00 20.00     0.027 C 
ENDROOT
BRANCH   7   9
HETATM    9  C3  UNL     1     -35.745  13.706  -4.294  1.00 20.00     0.182 C 
HETATM   10  O10 UNL     1     -36.900  13.925  -3.835  1.00 20.00    -0.647 OA
HETATM   11  O11 UNL     1     -35.066  12.641  -4.308  1.00 20.00    -0.647 OA
ENDBRANCH   7   9
TORSDOF 1
ENDMDL
MODEL 5
REMARK VINA RESULT:      -4.7      0.925      1.505
REMARK  1 active torsions:
REMARK  status: ('A' for Active; 'I' for Inactive)
REMARK    1  A    between atoms: C3_3  and  C8_8 
ROOT
HETATM    1  C1  UNL     1     -34.810  17.663  -4.285  1.00 20.00    -0.026 C 
HETATM    2  C2  UNL     1     -35.389  16.948  -5.261  1.00 20.00    -0.024 C 
HETATM    3  C4  UNL     1     -33.224  16.184  -5.068  1.00 20.00     0.018 C 
HETATM    4  C5  UNL     1     -34.232  15.640  -2.975  1.00 20.00     0.029 C 
HETATM    5  C6  UNL     1     -33.653  16.847  -3.757  1.00 20.00     0.010 C 
HETATM    6  C7  UNL     1     -34.632  15.644  -5.370  1.00 20.00     0.027 C 
HETATM    7  C8  UNL     1     -34.900  14.800  -4.100  1.00 20.00     0.052 C 
HETATM    8  C9  UNL     1     -36.359  14.453  -3.832  1.00 20.00     0.027 C 
ENDROOT
BRANCH   7   9
HETATM    9  C3  UNL     1     -34.224  13.438  -4.219  1.00 20.00     0.182 C 
HETATM   10  O10 UNL     1     -33.138  13.318  -3.587  1.00 20.00    -0.647 OA
HETATM   11  O11 UNL     1     -34.840  12.602  -4.938  1.00 20.00    -0.647 OA
ENDBRANCH   7   9
TORSDOF 1
ENDMDL
MODEL 6
REMARK VINA RESULT:      -4.6      1.944      3.235
REMARK  1 active torsions:
REMARK  status: ('A' for Active; 'I' for Inactive)
REMARK    1  A    between atoms: C3_3  and  C8_8 
ROOT
HETATM    1  C1  UNL     1     -32.666  15.153  -3.765  1.00 20.00    -0.026 C 
HETATM    2  C2  UNL     1     -33.281  13.963  -3.696  1.00 20.00    -0.024 C 
HETATM    3  C4  UNL     1     -34.589  15.459  -2.530  1.00 20.00     0.018 C 
HETATM    4  C5  UNL     1     -34.641  16.255  -4.779  1.00 20.00     0.029 C 
HETATM    5  C6  UNL     1     -33.717  16.214  -3.536  1.00 20.00     0.010 C 
HETATM    6  C7  UNL     1     -34.747  14.231  -3.443  1.00 20.00     0.027 C 
HETATM    7  C8  UNL     1     -35.365  14.881  -4.705  1.00 20.00     0.052 C 
HETATM    8  C9  UNL     1     -35.272  14.060  -5.984  1.00 20.00     0.027 C 
ENDROOT
BRANCH   7   9
HETATM    9  C3  UNL     1     -36.866  15.080  -4.515  1.00 20.00     0.182 C 
HETATM   10  O10 UNL     1     -37.460  14.149  -3.904  1.00 20.00    -0.647 OA
HETATM   11  O11 UNL     1     -37.321  16.156  -4.995  1.00 20.00    -0.647 OA
ENDBRANCH   7   9
TORSDOF 1
ENDMDL
MODEL 7
REMARK VINA RESULT:      -4.6      1.499      1.983
REMARK  1 active torsions:
REMARK  status: ('A' for Active; 'I' for Inactive)
REMARK    1  A    between atoms: C3_3  and  C8_8 
ROOT
HETATM    1  C1  UNL     1     -34.221  17.102  -2.872  1.00 20.00    -0.026 C 
HETATM    2  C2  UNL     1     -35.010  17.306  -3.938  1.00 20.00    -0.024 C 
HETATM    3  C4  UNL     1     -33.213  16.061  -4.665  1.00 20.00     0.018 C 
HETATM    4  C5  UNL     1     -34.328  14.637  -3.108  1.00 20.00     0.029 C 
HETATM    5  C6  UNL     1     -33.391  15.872  -3.157  1.00 20.00     0.010 C 
HETATM    6  C7  UNL     1     -34.722  16.198  -4.925  1.00 20.00     0.027 C 
HETATM    7  C8  UNL     1     -35.243  14.860  -4.345  1.00 20.00     0.052 C 
HETATM    8  C9  UNL     1     -36.732  14.809  -4.033  1.00 20.00     0.027 C 
ENDROOT
BRANCH   7   9
HETATM    9  C3  UNL     1     -35.050  13.735  -5.358  1.00 20.00     0.182 C 
HETATM   10  O10 UNL     1     -35.259  14.052  -6.562  1.00 20.00    -0.647 OA
HETATM   11  O11 UNL     1     -34.704  12.627  -4.859  1.00 20.00    -0.647 OA
ENDBRANCH   7   9
TORSDOF 1
ENDMDL
MODEL 8
REMARK VINA RESULT:      -4.6      0.960      2.381
REMARK  1 active torsions:
REMARK  status: ('A' for Active; 'I' for Inactive)
REMARK    1  A    between atoms: C3_3  and  C8_8 
ROOT
HETATM    1  C1  UNL     1     -35.764  17.405  -4.009  1.00 20.00    -0.026 C 
HETATM    2  C2  UNL     1     -34.442  17.252  -4.176  1.00 20.00    -0.024 C 
HETATM    3  C4  UNL     1     -35.077  15.792  -2.512  1.00 20.00     0.018 C 
HETATM    4  C5  UNL     1     -36.223  15.010  -4.454  1.00 20.00     0.029 C 
HETATM    5  C6  UNL     1     -36.287  16.132  -3.386  1.00 20.00     0.010 C 
HETATM    6  C7  UNL     1     -34.086  15.868  -3.685  1.00 20.00     0.027 C 
HETATM    7  C8  UNL     1     -34.693  14.820  -4.650  1.00 20.00     0.052 C 
HETATM    8  C9  UNL     1     -34.236  14.914  -6.100  1.00 20.00     0.027 C 
ENDROOT
BRANCH   7   9
HETATM    9  C3  UNL     1     -34.274  13.414  -4.233  1.00 20.00     0.182 C 
HETATM   10  O10 UNL     1     -35.162  12.526  -4.364  1.00 20.00    -0.647 OA
HETATM   11  O11 UNL     1     -33.088  13.318  -3.809  1.00 20.00    -0.647 OA
ENDBRANCH   7   9
TORSDOF 1
ENDMDL
MODEL 9
REMARK VINA RESULT:      -4.4      2.276      3.664
REMARK  1 active torsions:
REMARK  status: ('A' for Active; 'I' for Inactive)
REMARK    1  A    between atoms: C3_3  and  C8_8 
ROOT
HETATM    1  C1  UNL     1     -33.340  13.752  -3.752  1.00 20.00    -0.026 C 
HETATM    2  C2  UNL     1     -34.459  13.396  -4.401  1.00 20.00    -0.024 C 
HETATM    3  C4  UNL     1     -34.972  15.273  -3.168  1.00 20.00     0.018 C 
HETATM    4  C5  UNL     1     -33.343  16.025  -4.740  1.00 20.00     0.029 C 
HETATM    5  C6  UNL     1     -33.464  15.221  -3.420  1.00 20.00     0.010 C 
HETATM    6  C7  UNL     1     -35.319  14.633  -4.522  1.00 20.00     0.027 C 
HETATM    7  C8  UNL     1     -34.639  15.624  -5.498  1.00 20.00     0.052 C 
HETATM    8  C9  UNL     1     -34.398  15.104  -6.909  1.00 20.00     0.027 C 
ENDROOT
BRANCH   7   9
HETATM    9  C3  UNL     1     -35.528  16.845  -5.713  1.00 20.00     0.182 C 
HETATM   10  O10 UNL     1     -34.963  17.961  -5.542  1.00 20.00    -0.647 OA
HETATM   11  O11 UNL     1     -36.720  16.582  -6.037  1.00 20.00    -0.647 OA
ENDBRANCH   7   9
TORSDOF 1
ENDMDL
