MODEL 1
REMARK VINA RESULT:      -4.2      0.000      0.000
REMARK  0 active torsions:
REMARK  status: ('A' for Active; 'I' for Inactive)
ROOT
HETATM    1  C1  UNL     1     -43.021   3.530  -3.568  1.00 20.00     0.136 A 
HETATM    2  C2  UNL     1     -41.970   3.012  -2.851  1.00 20.00     0.136 A 
HETATM    3  C3  UNL     1     -42.733   5.565  -2.536  1.00 20.00     0.059 A 
HETATM    4  C4  UNL     1     -41.662   5.044  -1.819  1.00 20.00     0.059 A 
HETATM    5  C5  UNL     1     -43.144   7.006  -2.414  1.00 20.00     0.061 C 
HETATM    6  C6  UNL     1     -40.921   5.860  -0.798  1.00 20.00     0.061 C 
HETATM    7  C7  UNL     1     -42.615   7.675  -1.147  1.00 20.00     0.006 C 
HETATM    8  C8  UNL     1     -41.133   7.364  -0.961  1.00 20.00     0.006 C 
HETATM    9  N9  UNL     1     -43.417   4.809  -3.427  1.00 20.00    -0.262 NA
HETATM   10  N10 UNL     1     -41.278   3.755  -1.967  1.00 20.00    -0.262 NA
ENDROOT
TORSDOF 0
ENDMDL
MODEL 2
REMARK VINA RESULT:      -4.2     12.044     13.287
REMARK  0 active torsions:
REMARK  status: ('A' for Active; 'I' for Inactive)
ROOT
HETATM    1  C1  UNL     1     -35.505  14.966  -7.866  1.00 20.00     0.136 A 
HETATM    2  C2  UNL     1     -34.973  16.231  -7.806  1.00 20.00     0.136 A 
HETATM    3  C3  UNL     1     -34.589  14.474  -5.815  1.00 20.00     0.059 A 
HETATM    4  C4  UNL     1     -34.060  15.758  -5.749  1.00 20.00     0.059 A 
HETATM    5  C5  UNL     1     -34.432  13.492  -4.688  1.00 20.00     0.061 C 
HETATM    6  C6  UNL     1     -33.205  16.203  -4.597  1.00 20.00     0.061 C 
HETATM    7  C7  UNL     1     -33.294  13.852  -3.734  1.00 20.00     0.006 C 
HETATM    8  C8  UNL     1     -33.364  15.328  -3.356  1.00 20.00     0.006 C 
HETATM    9  N9  UNL     1     -35.327  14.071  -6.876  1.00 20.00    -0.262 NA
HETATM   10  N10 UNL     1     -34.243  16.645  -6.754  1.00 20.00    -0.262 NA
ENDROOT
TORSDOF 0
ENDMDL
MODEL 3
REMARK VINA RESULT:      -4.2     12.036     13.268
REMARK  0 active torsions:
REMARK  status: ('A' for Active; 'I' for Inactive)
ROOT
HETATM    1  C1  UNL     1     -34.956  16.219  -7.835  1.00 20.00     0.136 A 
HETATM    2  C2  UNL     1     -35.486  14.953  -7.906  1.00 20.00     0.136 A 
HETATM    3  C3  UNL     1     -34.070  15.740  -5.767  1.00 20.00     0.059 A 
HETATM    4  C4  UNL     1     -34.596  14.455  -5.845  1.00 20.00     0.059 A 
HETATM    5  C5  UNL     1     -33.229  16.183  -4.603  1.00 20.00     0.061 C 
HETATM    6  C6  UNL     1     -34.450  13.470  -4.719  1.00 20.00     0.061 C 
HETATM    7  C7  UNL     1     -33.405  15.303  -3.367  1.00 20.00     0.006 C 
HETATM    8  C8  UNL     1     -33.327  13.828  -3.748  1.00 20.00     0.006 C 
HETATM    9  N9  UNL     1     -34.240  16.631  -6.771  1.00 20.00    -0.262 NA
HETATM   10  N10 UNL     1     -35.318  14.055  -6.917  1.00 20.00    -0.262 NA
ENDROOT
TORSDOF 0
ENDMDL
MODEL 4
REMARK VINA RESULT:      -4.2      0.041      2.137
REMARK  0 active torsions:
REMARK  status: ('A' for Active; 'I' for Inactive)
ROOT
HETATM    1  C1  UNL     1     -41.969   3.015  -2.896  1.00 20.00     0.136 A 
HETATM    2  C2  UNL     1     -43.027   3.548  -3.593  1.00 20.00     0.136 A 
HETATM    3  C3  UNL     1     -41.645   5.027  -1.832  1.00 20.00     0.059 A 
HETATM    4  C4  UNL     1     -42.723   5.563  -2.528  1.00 20.00     0.059 A 
HETATM    5  C5  UNL     1     -40.892   5.822  -0.802  1.00 20.00     0.061 C 
HETATM    6  C6  UNL     1     -43.127   7.003  -2.375  1.00 20.00     0.061 C 
HETATM    7  C7  UNL     1     -41.100   7.329  -0.938  1.00 20.00     0.006 C 
HETATM    8  C8  UNL     1     -42.582   7.648  -1.103  1.00 20.00     0.006 C 
HETATM    9  N9  UNL     1     -41.266   3.740  -2.006  1.00 20.00    -0.262 NA
HETATM   10  N10 UNL     1     -43.417   4.825  -3.424  1.00 20.00    -0.262 NA
ENDROOT
TORSDOF 0
ENDMDL
MODEL 5
REMARK VINA RESULT:      -4.1     12.463     13.946
REMARK  0 active torsions:
REMARK  status: ('A' for Active; 'I' for Inactive)
ROOT
HETATM    1  C1  UNL     1     -33.581  18.020  -5.872  1.00 20.00     0.136 A 
HETATM    2  C2  UNL     1     -34.450  17.583  -6.842  1.00 20.00     0.136 A 
HETATM    3  C3  UNL     1     -33.703  15.974  -4.828  1.00 20.00     0.059 A 
HETATM    4  C4  UNL     1     -34.573  15.528  -5.817  1.00 20.00     0.059 A 
HETATM    5  C5  UNL     1     -33.231  15.074  -3.722  1.00 20.00     0.061 C 
HETATM    6  C6  UNL     1     -35.181  14.154  -5.775  1.00 20.00     0.061 C 
HETATM    7  C7  UNL     1     -34.121  13.848  -3.525  1.00 20.00     0.006 C 
HETATM    8  C8  UNL     1     -34.423  13.189  -4.867  1.00 20.00     0.006 C 
HETATM    9  N9  UNL     1     -33.191  17.227  -4.856  1.00 20.00    -0.262 NA
HETATM   10  N10 UNL     1     -34.960  16.337  -6.830  1.00 20.00    -0.262 NA
ENDROOT
TORSDOF 0
ENDMDL
MODEL 6
REMARK VINA RESULT:      -4.1     12.480     13.848
REMARK  0 active torsions:
REMARK  status: ('A' for Active; 'I' for Inactive)
ROOT
HETATM    1  C1  UNL     1     -34.421  17.567  -6.871  1.00 20.00     0.136 A 
HETATM    2  C2  UNL     1     -33.567  18.017  -5.893  1.00 20.00     0.136 A 
HETATM    3  C3  UNL     1     -34.539  15.517  -5.836  1.00 20.00     0.059 A 
HETATM    4  C4  UNL     1     -33.685  15.976  -4.840  1.00 20.00     0.059 A 
HETATM    5  C5  UNL     1     -35.137  14.139  -5.794  1.00 20.00     0.061 C 
HETATM    6  C6  UNL     1     -33.219  15.085  -3.723  1.00 20.00     0.061 C 
HETATM    7  C7  UNL     1     -34.381  13.184  -4.872  1.00 20.00     0.006 C 
HETATM    8  C8  UNL     1     -34.100  13.853  -3.530  1.00 20.00     0.006 C 
HETATM    9  N9  UNL     1     -34.922  16.317  -6.858  1.00 20.00    -0.262 NA
HETATM   10  N10 UNL     1     -33.184  17.233  -4.868  1.00 20.00    -0.262 NA
ENDROOT
TORSDOF 0
ENDMDL
MODEL 7
REMARK VINA RESULT:      -4.1      9.923     11.141
REMARK  0 active torsions:
REMARK  status: ('A' for Active; 'I' for Inactive)
ROOT
HETATM    1  C1  UNL     1     -32.226   7.177   3.045  1.00 20.00     0.136 A 
HETATM    2  C2  UNL     1     -32.872   6.309   2.198  1.00 20.00     0.136 A 
HETATM    3  C3  UNL     1     -33.406   6.328   4.827  1.00 20.00     0.059 A 
HETATM    4  C4  UNL     1     -34.051   5.442   3.972  1.00 20.00     0.059 A 
HETATM    5  C5  UNL     1     -33.651   6.319   6.310  1.00 20.00     0.061 C 
HETATM    6  C6  UNL     1     -35.113   4.498   4.463  1.00 20.00     0.061 C 
HETATM    7  C7  UNL     1     -34.952   5.619   6.699  1.00 20.00     0.006 C 
HETATM    8  C8  UNL     1     -35.073   4.282   5.974  1.00 20.00     0.006 C 
HETATM    9  N9  UNL     1     -32.478   7.200   4.368  1.00 20.00    -0.262 NA
HETATM   10  N10 UNL     1     -33.792   5.433   2.644  1.00 20.00    -0.262 NA
ENDROOT
TORSDOF 0
ENDMDL
MODEL 8
REMARK VINA RESULT:      -4.1      9.926     11.063
REMARK  0 active torsions:
REMARK  status: ('A' for Active; 'I' for Inactive)
ROOT
HETATM    1  C1  UNL     1     -32.886   6.305   2.202  1.00 20.00     0.136 A 
HETATM    2  C2  UNL     1     -32.226   7.171   3.041  1.00 20.00     0.136 A 
HETATM    3  C3  UNL     1     -34.058   5.453   3.988  1.00 20.00     0.059 A 
HETATM    4  C4  UNL     1     -33.399   6.336   4.836  1.00 20.00     0.059 A 
HETATM    5  C5  UNL     1     -35.124   4.520   4.489  1.00 20.00     0.061 C 
HETATM    6  C6  UNL     1     -33.634   6.334   6.320  1.00 20.00     0.061 C 
HETATM    7  C7  UNL     1     -35.074   4.307   6.000  1.00 20.00     0.006 C 
HETATM    8  C8  UNL     1     -34.936   5.644   6.721  1.00 20.00     0.006 C 
HETATM    9  N9  UNL     1     -33.810   5.439   2.657  1.00 20.00    -0.262 NA
HETATM   10  N10 UNL     1     -32.468   7.199   4.366  1.00 20.00    -0.262 NA
ENDROOT
TORSDOF 0
ENDMDL
MODEL 9
REMARK VINA RESULT:      -4.1     10.660     12.081
REMARK  0 active torsions:
REMARK  status: ('A' for Active; 'I' for Inactive)
ROOT
HETATM    1  C1  UNL     1     -38.029  16.486  -3.295  1.00 20.00     0.136 A 
HETATM    2  C2  UNL     1     -38.455  15.217  -3.602  1.00 20.00     0.136 A 
HETATM    3  C3  UNL     1     -35.841  15.818  -3.538  1.00 20.00     0.059 A 
HETATM    4  C4  UNL     1     -36.274  14.536  -3.860  1.00 20.00     0.059 A 
HETATM    5  C5  UNL     1     -34.385  16.190  -3.548  1.00 20.00     0.061 C 
HETATM    6  C6  UNL     1     -35.306  13.418  -4.127  1.00 20.00     0.061 C 
HETATM    7  C7  UNL     1     -33.457  14.979  -3.475  1.00 20.00     0.006 C 
HETATM    8  C8  UNL     1     -33.900  13.908  -4.467  1.00 20.00     0.006 C 
HETATM    9  N9  UNL     1     -36.722  16.808  -3.262  1.00 20.00    -0.262 NA
HETATM   10  N10 UNL     1     -37.590  14.225  -3.885  1.00 20.00    -0.262 NA
ENDROOT
TORSDOF 0
ENDMDL
