MODEL 1
REMARK VINA RESULT:      -4.6      0.000      0.000
REMARK  2 active torsions:
REMARK  status: ('A' for Active; 'I' for Inactive)
REMARK    1  A    between atoms: C3_3  and  O11_11 
REMARK    2  A    between atoms: C8_8  and  O11_11 
ROOT
HETATM    1  C1  UNL     1     -35.086  17.765  -3.287  1.00 20.00    -0.025 C 
HETATM    2  C2  UNL     1     -33.806  17.374  -3.369  1.00 20.00    -0.023 C 
HETATM    3  C4  UNL     1     -34.649  16.484  -1.411  1.00 20.00     0.019 C 
HETATM    4  C5  UNL     1     -35.906  15.444  -3.157  1.00 20.00     0.042 C 
HETATM    5  C6  UNL     1     -35.794  16.781  -2.388  1.00 20.00     0.011 C 
HETATM    6  C7  UNL     1     -33.663  16.125  -2.528  1.00 20.00     0.038 C 
HETATM    7  C8  UNL     1     -34.430  14.959  -3.197  1.00 20.00     0.140 C 
ENDROOT
BRANCH   7   8
HETATM    8  O11 UNL     1     -33.993  14.711  -4.518  1.00 20.00    -0.316 OA
BRANCH   8   9
HETATM    9  C3  UNL     1     -34.654  13.718  -5.195  1.00 20.00     0.255 C 
HETATM   10  C9  UNL     1     -35.141  14.230  -6.516  1.00 20.00     0.126 C 
HETATM   11  O10 UNL     1     -34.832  12.576  -4.796  1.00 20.00    -0.266 OA
ENDBRANCH   8   9
ENDBRANCH   7   8
TORSDOF 2
ENDMDL
MODEL 2
REMARK VINA RESULT:      -4.5      0.820      1.802
REMARK  2 active torsions:
REMARK  status: ('A' for Active; 'I' for Inactive)
REMARK    1  A    between atoms: C3_3  and  O11_11 
REMARK    2  A    between atoms: C8_8  and  O11_11 
ROOT
HETATM    1  C1  UNL     1     -33.721  17.169  -1.530  1.00 20.00    -0.025 C 
HETATM    2  C2  UNL     1     -34.671  16.223  -1.480  1.00 20.00    -0.023 C 
HETATM    3  C4  UNL     1     -35.470  17.894  -2.860  1.00 20.00     0.019 C 
HETATM    4  C5  UNL     1     -33.549  17.025  -3.985  1.00 20.00     0.042 C 
HETATM    5  C6  UNL     1     -33.937  17.947  -2.806  1.00 20.00     0.011 C 
HETATM    6  C7  UNL     1     -35.517  16.369  -2.725  1.00 20.00     0.038 C 
HETATM    7  C8  UNL     1     -34.685  15.965  -3.965  1.00 20.00     0.140 C 
ENDROOT
BRANCH   7   8
HETATM    8  O11 UNL     1     -34.176  14.649  -3.871  1.00 20.00    -0.316 OA
BRANCH   8   9
HETATM    9  C3  UNL     1     -34.728  13.727  -4.723  1.00 20.00     0.255 C 
HETATM   10  C9  UNL     1     -34.929  14.333  -6.079  1.00 20.00     0.126 C 
HETATM   11  O10 UNL     1     -35.021  12.574  -4.439  1.00 20.00    -0.266 OA
ENDBRANCH   8   9
ENDBRANCH   7   8
TORSDOF 2
ENDMDL
MODEL 3
REMARK VINA RESULT:      -4.5      2.206      3.026
REMARK  2 active torsions:
REMARK  status: ('A' for Active; 'I' for Inactive)
REMARK    1  A    between atoms: C3_3  and  O11_11 
REMARK    2  A    between atoms: C8_8  and  O11_11 
ROOT
HETATM    1  C1  UNL     1     -33.274  16.030  -4.731  1.00 20.00    -0.025 C 
HETATM    2  C2  UNL     1     -34.189  15.384  -5.470  1.00 20.00    -0.023 C 
HETATM    3  C4  UNL     1     -33.464  13.895  -3.859  1.00 20.00     0.019 C 
HETATM    4  C5  UNL     1     -34.531  15.655  -2.643  1.00 20.00     0.042 C 
HETATM    5  C6  UNL     1     -33.216  15.336  -3.391  1.00 20.00     0.011 C 
HETATM    6  C7  UNL     1     -34.742  14.262  -4.620  1.00 20.00     0.038 C 
HETATM    7  C8  UNL     1     -35.582  14.855  -3.463  1.00 20.00     0.140 C 
ENDROOT
BRANCH   7   8
HETATM    8  O11 UNL     1     -36.631  15.683  -3.924  1.00 20.00    -0.316 OA
BRANCH   8   9
HETATM    9  C3  UNL     1     -37.746  15.037  -4.393  1.00 20.00     0.255 C 
HETATM   10  C9  UNL     1     -38.092  15.534  -5.764  1.00 20.00     0.126 C 
HETATM   11  O10 UNL     1     -38.382  14.179  -3.796  1.00 20.00    -0.266 OA
ENDBRANCH   8   9
ENDBRANCH   7   8
TORSDOF 2
ENDMDL
MODEL 4
REMARK VINA RESULT:      -4.5      1.775      4.038
REMARK  2 active torsions:
REMARK  status: ('A' for Active; 'I' for Inactive)
REMARK    1  A    between atoms: C3_3  and  O11_11 
REMARK    2  A    between atoms: C8_8  and  O11_11 
ROOT
HETATM    1  C1  UNL     1     -34.466  14.598  -5.884  1.00 20.00    -0.025 C 
HETATM    2  C2  UNL     1     -35.007  15.710  -5.363  1.00 20.00    -0.023 C 
HETATM    3  C4  UNL     1     -36.033  13.921  -4.322  1.00 20.00     0.019 C 
HETATM    4  C5  UNL     1     -33.736  13.782  -3.675  1.00 20.00     0.042 C 
HETATM    5  C6  UNL     1     -34.667  13.493  -4.876  1.00 20.00     0.011 C 
HETATM    6  C7  UNL     1     -35.564  15.345  -4.005  1.00 20.00     0.038 C 
HETATM    7  C8  UNL     1     -34.400  15.033  -3.035  1.00 20.00     0.140 C 
ENDROOT
BRANCH   7   8
HETATM    8  O11 UNL     1     -33.490  16.109  -2.916  1.00 20.00    -0.316 OA
BRANCH   8   9
HETATM    9  C3  UNL     1     -33.899  17.161  -2.138  1.00 20.00     0.255 C 
HETATM   10  C9  UNL     1     -34.553  16.655  -0.888  1.00 20.00     0.126 C 
HETATM   11  O10 UNL     1     -33.762  18.346  -2.407  1.00 20.00    -0.266 OA
ENDBRANCH   8   9
ENDBRANCH   7   8
TORSDOF 2
ENDMDL
MODEL 5
REMARK VINA RESULT:      -4.4      1.976      4.226
REMARK  2 active torsions:
REMARK  status: ('A' for Active; 'I' for Inactive)
REMARK    1  A    between atoms: C3_3  and  O11_11 
REMARK    2  A    between atoms: C8_8  and  O11_11 
ROOT
HETATM    1  C1  UNL     1     -34.937  13.276  -4.214  1.00 20.00    -0.025 C 
HETATM    2  C2  UNL     1     -33.732  13.721  -3.827  1.00 20.00    -0.023 C 
HETATM    3  C4  UNL     1     -34.408  15.070  -5.576  1.00 20.00     0.019 C 
HETATM    4  C5  UNL     1     -35.993  15.471  -3.833  1.00 20.00     0.042 C 
HETATM    5  C6  UNL     1     -35.630  14.423  -4.910  1.00 20.00     0.011 C 
HETATM    6  C7  UNL     1     -33.624  15.165  -4.263  1.00 20.00     0.038 C 
HETATM    7  C8  UNL     1     -34.600  16.031  -3.431  1.00 20.00     0.140 C 
ENDROOT
BRANCH   7   8
HETATM    8  O11 UNL     1     -34.370  15.922  -2.040  1.00 20.00    -0.316 OA
BRANCH   8   9
HETATM    9  C3  UNL     1     -34.129  17.096  -1.376  1.00 20.00     0.255 C 
HETATM   10  C9  UNL     1     -34.807  17.082  -0.040  1.00 20.00     0.126 C 
HETATM   11  O10 UNL     1     -33.461  18.032  -1.794  1.00 20.00    -0.266 OA
ENDBRANCH   8   9
ENDBRANCH   7   8
TORSDOF 2
ENDMDL
MODEL 6
REMARK VINA RESULT:      -4.3     11.938     13.060
REMARK  2 active torsions:
REMARK  status: ('A' for Active; 'I' for Inactive)
REMARK    1  A    between atoms: C3_3  and  O11_11 
REMARK    2  A    between atoms: C8_8  and  O11_11 
ROOT
HETATM    1  C1  UNL     1     -40.842   6.970  -0.785  1.00 20.00    -0.025 C 
HETATM    2  C2  UNL     1     -40.738   5.796  -0.145  1.00 20.00    -0.023 C 
HETATM    3  C4  UNL     1     -42.987   6.322  -0.207  1.00 20.00     0.019 C 
HETATM    4  C5  UNL     1     -42.352   6.033  -2.494  1.00 20.00     0.042 C 
HETATM    5  C6  UNL     1     -42.245   7.053  -1.335  1.00 20.00     0.011 C 
HETATM    6  C7  UNL     1     -42.072   5.095  -0.273  1.00 20.00     0.038 C 
HETATM    7  C8  UNL     1     -42.296   4.672  -1.744  1.00 20.00     0.140 C 
ENDROOT
BRANCH   7   8
HETATM    8  O11 UNL     1     -41.260   3.845  -2.234  1.00 20.00    -0.316 OA
BRANCH   8   9
HETATM    9  C3  UNL     1     -41.655   2.737  -2.939  1.00 20.00     0.255 C 
HETATM   10  C9  UNL     1     -43.040   2.335  -2.532  1.00 20.00     0.126 C 
HETATM   11  O10 UNL     1     -40.990   2.148  -3.779  1.00 20.00    -0.266 OA
ENDBRANCH   8   9
ENDBRANCH   7   8
TORSDOF 2
ENDMDL
MODEL 7
REMARK VINA RESULT:      -4.1      2.183      4.147
REMARK  2 active torsions:
REMARK  status: ('A' for Active; 'I' for Inactive)
REMARK    1  A    between atoms: C3_3  and  O11_11 
REMARK    2  A    between atoms: C8_8  and  O11_11 
ROOT
HETATM    1  C1  UNL     1     -35.643  14.950  -5.017  1.00 20.00    -0.025 C 
HETATM    2  C2  UNL     1     -35.833  14.809  -3.697  1.00 20.00    -0.023 C 
HETATM    3  C4  UNL     1     -33.818  13.794  -4.191  1.00 20.00     0.019 C 
HETATM    4  C5  UNL     1     -33.489  16.106  -4.698  1.00 20.00     0.042 C 
HETATM    5  C6  UNL     1     -34.159  14.834  -5.267  1.00 20.00     0.011 C 
HETATM    6  C7  UNL     1     -34.474  14.602  -3.067  1.00 20.00     0.038 C 
HETATM    7  C8  UNL     1     -33.654  15.911  -3.165  1.00 20.00     0.140 C 
ENDROOT
BRANCH   7   8
HETATM    8  O11 UNL     1     -34.311  17.008  -2.562  1.00 20.00    -0.316 OA
BRANCH   8   9
HETATM    9  C3  UNL     1     -34.159  17.130  -1.205  1.00 20.00     0.255 C 
HETATM   10  C9  UNL     1     -33.131  18.175  -0.892  1.00 20.00     0.126 C 
HETATM   11  O10 UNL     1     -34.762  16.488  -0.356  1.00 20.00    -0.266 OA
ENDBRANCH   8   9
ENDBRANCH   7   8
TORSDOF 2
ENDMDL
MODEL 8
REMARK VINA RESULT:      -4.1      1.956      3.074
REMARK  2 active torsions:
REMARK  status: ('A' for Active; 'I' for Inactive)
REMARK    1  A    between atoms: C3_3  and  O11_11 
REMARK    2  A    between atoms: C8_8  and  O11_11 
ROOT
HETATM    1  C1  UNL     1     -33.247  13.931  -3.792  1.00 20.00    -0.025 C 
HETATM    2  C2  UNL     1     -34.548  13.749  -3.519  1.00 20.00    -0.023 C 
HETATM    3  C4  UNL     1     -33.974  15.818  -2.666  1.00 20.00     0.019 C 
HETATM    4  C5  UNL     1     -33.684  16.018  -5.030  1.00 20.00     0.042 C 
HETATM    5  C6  UNL     1     -32.996  15.420  -3.781  1.00 20.00     0.011 C 
HETATM    6  C7  UNL     1     -35.164  15.117  -3.330  1.00 20.00     0.038 C 
HETATM    7  C8  UNL     1     -35.191  15.864  -4.685  1.00 20.00     0.140 C 
ENDROOT
BRANCH   7   8
HETATM    8  O11 UNL     1     -35.889  15.147  -5.685  1.00 20.00    -0.316 OA
BRANCH   8   9
HETATM    9  C3  UNL     1     -35.842  15.676  -6.949  1.00 20.00     0.255 C 
HETATM   10  C9  UNL     1     -35.325  14.656  -7.917  1.00 20.00     0.126 C 
HETATM   11  O10 UNL     1     -36.168  16.813  -7.262  1.00 20.00    -0.266 OA
ENDBRANCH   8   9
ENDBRANCH   7   8
TORSDOF 2
ENDMDL
MODEL 9
REMARK VINA RESULT:      -4.1      2.569      4.002
REMARK  2 active torsions:
REMARK  status: ('A' for Active; 'I' for Inactive)
REMARK    1  A    between atoms: C3_3  and  O11_11 
REMARK    2  A    between atoms: C8_8  and  O11_11 
ROOT
HETATM    1  C1  UNL     1     -34.777  13.577  -5.464  1.00 20.00    -0.025 C 
HETATM    2  C2  UNL     1     -34.959  13.381  -4.150  1.00 20.00    -0.023 C 
HETATM    3  C4  UNL     1     -34.420  15.611  -4.420  1.00 20.00     0.019 C 
HETATM    4  C5  UNL     1     -36.505  15.334  -5.555  1.00 20.00     0.042 C 
HETATM    5  C6  UNL     1     -34.995  15.048  -5.727  1.00 20.00     0.011 C 
HETATM    6  C7  UNL     1     -35.302  14.721  -3.538  1.00 20.00     0.038 C 
HETATM    7  C8  UNL     1     -36.702  15.168  -4.022  1.00 20.00     0.140 C 
ENDROOT
BRANCH   7   8
HETATM    8  O11 UNL     1     -37.708  14.221  -3.721  1.00 20.00    -0.316 OA
BRANCH   8   9
HETATM    9  C3  UNL     1     -38.997  14.605  -3.987  1.00 20.00     0.255 C 
HETATM   10  C9  UNL     1     -39.342  15.832  -3.199  1.00 20.00     0.126 C 
HETATM   11  O10 UNL     1     -39.769  14.042  -4.750  1.00 20.00    -0.266 OA
ENDBRANCH   8   9
ENDBRANCH   7   8
TORSDOF 2
ENDMDL
