MODEL 1
REMARK VINA RESULT:      -5.8      0.000      0.000
REMARK  0 active torsions:
REMARK  status: ('A' for Active; 'I' for Inactive)
ROOT
HETATM    1  C1  UNL     1     -34.556   5.682   6.601  1.00 20.00    -0.030 C 
HETATM    2  C2  UNL     1     -35.109   4.562   6.077  1.00 20.00    -0.029 C 
HETATM    3  C3  UNL     1     -33.079   6.488   3.118  1.00 20.00     0.224 C 
HETATM    4  C4  UNL     1     -33.741   6.684   5.784  1.00 20.00     0.043 C 
HETATM    5  C5  UNL     1     -35.041   4.201   4.593  1.00 20.00     0.053 C 
HETATM    6  C6  UNL     1     -33.342   5.954   4.525  1.00 20.00     0.104 C 
HETATM    7  C7  UNL     1     -34.673   5.484   3.893  1.00 20.00     0.101 C 
HETATM    8  N8  UNL     1     -33.955   5.539   2.631  1.00 20.00    -0.355 N 
HETATM    9  O9  UNL     1     -32.376   7.314   2.592  1.00 20.00    -0.273 OA
HETATM   10  H18 UNL     1     -34.272   5.444   1.674  1.00 20.00     0.162 HD
ENDROOT
TORSDOF 0
ENDMDL
MODEL 2
REMARK VINA RESULT:      -4.8      2.251      3.086
REMARK  0 active torsions:
REMARK  status: ('A' for Active; 'I' for Inactive)
ROOT
HETATM    1  C1  UNL     1     -33.321   5.812   2.721  1.00 20.00    -0.030 C 
HETATM    2  C2  UNL     1     -34.480   5.121   2.836  1.00 20.00    -0.029 C 
HETATM    3  C3  UNL     1     -33.662   6.853   6.430  1.00 20.00     0.224 C 
HETATM    4  C4  UNL     1     -32.670   6.572   3.876  1.00 20.00     0.043 C 
HETATM    5  C5  UNL     1     -35.242   4.965   4.153  1.00 20.00     0.053 C 
HETATM    6  C6  UNL     1     -33.756   6.749   4.910  1.00 20.00     0.104 C 
HETATM    7  C7  UNL     1     -34.247   5.317   5.228  1.00 20.00     0.101 C 
HETATM    8  N8  UNL     1     -34.616   5.860   6.524  1.00 20.00    -0.355 N 
HETATM    9  O9  UNL     1     -33.088   7.531   7.246  1.00 20.00    -0.273 OA
HETATM   10  H18 UNL     1     -34.939   5.412   7.372  1.00 20.00     0.162 HD
ENDROOT
TORSDOF 0
ENDMDL
MODEL 3
REMARK VINA RESULT:      -4.7      1.244      2.128
REMARK  0 active torsions:
REMARK  status: ('A' for Active; 'I' for Inactive)
ROOT
HETATM    1  C1  UNL     1     -35.080   4.629   6.366  1.00 20.00    -0.030 C 
HETATM    2  C2  UNL     1     -34.532   5.805   6.752  1.00 20.00    -0.029 C 
HETATM    3  C3  UNL     1     -34.074   5.443   2.722  1.00 20.00     0.224 C 
HETATM    4  C4  UNL     1     -35.073   4.125   4.924  1.00 20.00     0.043 C 
HETATM    5  C5  UNL     1     -33.782   6.739   5.802  1.00 20.00     0.053 C 
HETATM    6  C6  UNL     1     -34.781   5.335   4.071  1.00 20.00     0.104 C 
HETATM    7  C7  UNL     1     -33.440   5.890   4.605  1.00 20.00     0.101 C 
HETATM    8  N8  UNL     1     -33.262   6.419   3.263  1.00 20.00    -0.355 N 
HETATM    9  O9  UNL     1     -34.179   4.971   1.617  1.00 20.00    -0.273 OA
HETATM   10  H18 UNL     1     -32.468   6.860   2.815  1.00 20.00     0.162 HD
ENDROOT
TORSDOF 0
ENDMDL
MODEL 4
REMARK VINA RESULT:      -4.3     12.094     13.141
REMARK  0 active torsions:
REMARK  status: ('A' for Active; 'I' for Inactive)
ROOT
HETATM    1  C1  UNL     1     -34.066  17.081  -2.394  1.00 20.00    -0.030 C 
HETATM    2  C2  UNL     1     -33.726  17.714  -3.542  1.00 20.00    -0.029 C 
HETATM    3  C3  UNL     1     -34.677  13.859  -4.444  1.00 20.00     0.224 C 
HETATM    4  C4  UNL     1     -34.454  15.604  -2.326  1.00 20.00     0.043 C 
HETATM    5  C5  UNL     1     -33.626  17.012  -4.896  1.00 20.00     0.053 C 
HETATM    6  C6  UNL     1     -34.800  15.208  -3.741  1.00 20.00     0.104 C 
HETATM    7  C7  UNL     1     -33.539  15.543  -4.572  1.00 20.00     0.101 C 
HETATM    8  N8  UNL     1     -33.994  14.490  -5.464  1.00 20.00    -0.355 N 
HETATM    9  O9  UNL     1     -35.053  12.725  -4.276  1.00 20.00    -0.273 OA
HETATM   10  H18 UNL     1     -33.551  14.046  -6.259  1.00 20.00     0.162 HD
ENDROOT
TORSDOF 0
ENDMDL
MODEL 5
REMARK VINA RESULT:      -4.3     11.811     12.434
REMARK  0 active torsions:
REMARK  status: ('A' for Active; 'I' for Inactive)
ROOT
HETATM    1  C1  UNL     1     -33.552  16.531  -2.520  1.00 20.00    -0.030 C 
HETATM    2  C2  UNL     1     -34.795  16.916  -2.142  1.00 20.00    -0.029 C 
HETATM    3  C3  UNL     1     -35.122  13.475  -4.296  1.00 20.00     0.224 C 
HETATM    4  C4  UNL     1     -33.273  15.296  -3.375  1.00 20.00     0.043 C 
HETATM    5  C5  UNL     1     -36.071  16.198  -2.582  1.00 20.00     0.053 C 
HETATM    6  C6  UNL     1     -34.519  14.449  -3.287  1.00 20.00     0.104 C 
HETATM    7  C7  UNL     1     -35.665  15.367  -3.771  1.00 20.00     0.101 C 
HETATM    8  N8  UNL     1     -36.328  14.133  -4.160  1.00 20.00    -0.355 N 
HETATM    9  O9  UNL     1     -34.776  12.499  -4.915  1.00 20.00    -0.273 OA
HETATM   10  H18 UNL     1     -37.172  13.964  -4.693  1.00 20.00     0.162 HD
ENDROOT
TORSDOF 0
ENDMDL
MODEL 6
REMARK VINA RESULT:      -4.2     11.983     12.997
REMARK  0 active torsions:
REMARK  status: ('A' for Active; 'I' for Inactive)
ROOT
HETATM    1  C1  UNL     1     -33.260  14.203  -3.848  1.00 20.00    -0.030 C 
HETATM    2  C2  UNL     1     -33.067  15.542  -3.914  1.00 20.00    -0.029 C 
HETATM    3  C3  UNL     1     -37.076  14.830  -3.853  1.00 20.00     0.224 C 
HETATM    4  C4  UNL     1     -34.639  13.547  -3.840  1.00 20.00     0.043 C 
HETATM    5  C5  UNL     1     -34.205  16.553  -4.056  1.00 20.00     0.053 C 
HETATM    6  C6  UNL     1     -35.610  14.642  -3.471  1.00 20.00     0.104 C 
HETATM    7  C7  UNL     1     -35.389  15.749  -4.528  1.00 20.00     0.101 C 
HETATM    8  N8  UNL     1     -36.771  16.112  -4.263  1.00 20.00    -0.355 N 
HETATM    9  O9  UNL     1     -38.106  14.206  -3.782  1.00 20.00    -0.273 OA
HETATM   10  H18 UNL     1     -37.394  16.763  -4.724  1.00 20.00     0.162 HD
ENDROOT
TORSDOF 0
ENDMDL
MODEL 7
REMARK VINA RESULT:      -4.1      9.694     10.508
REMARK  0 active torsions:
REMARK  status: ('A' for Active; 'I' for Inactive)
ROOT
HETATM    1  C1  UNL     1     -41.160   6.923  -1.091  1.00 20.00    -0.030 C 
HETATM    2  C2  UNL     1     -40.880   6.115  -0.041  1.00 20.00    -0.029 C 
HETATM    3  C3  UNL     1     -42.872   3.929  -2.841  1.00 20.00     0.224 C 
HETATM    4  C4  UNL     1     -41.931   6.466  -2.328  1.00 20.00     0.043 C 
HETATM    5  C5  UNL     1     -41.361   4.668   0.062  1.00 20.00     0.053 C 
HETATM    6  C6  UNL     1     -41.878   4.958  -2.308  1.00 20.00     0.104 C 
HETATM    7  C7  UNL     1     -42.479   4.552  -0.942  1.00 20.00     0.101 C 
HETATM    8  N8  UNL     1     -42.845   3.312  -1.606  1.00 20.00    -0.355 N 
HETATM    9  O9  UNL     1     -43.417   3.670  -3.885  1.00 20.00    -0.273 OA
HETATM   10  H18 UNL     1     -43.420   2.535  -1.307  1.00 20.00     0.162 HD
ENDROOT
TORSDOF 0
ENDMDL
MODEL 8
REMARK VINA RESULT:      -4.1      9.670     10.371
REMARK  0 active torsions:
REMARK  status: ('A' for Active; 'I' for Inactive)
ROOT
HETATM    1  C1  UNL     1     -40.663   5.986  -0.206  1.00 20.00    -0.030 C 
HETATM    2  C2  UNL     1     -40.839   4.760  -0.753  1.00 20.00    -0.029 C 
HETATM    3  C3  UNL     1     -42.646   7.505  -3.158  1.00 20.00     0.224 C 
HETATM    4  C4  UNL     1     -41.230   7.271  -0.808  1.00 20.00     0.043 C 
HETATM    5  C5  UNL     1     -41.683   4.507  -2.003  1.00 20.00     0.053 C 
HETATM    6  C6  UNL     1     -41.568   6.936  -2.240  1.00 20.00     0.104 C 
HETATM    7  C7  UNL     1     -42.541   5.736  -2.154  1.00 20.00     0.101 C 
HETATM    8  N8  UNL     1     -43.052   6.214  -3.428  1.00 20.00    -0.355 N 
HETATM    9  O9  UNL     1     -42.993   8.586  -3.568  1.00 20.00    -0.273 OA
HETATM   10  H18 UNL     1     -43.858   5.936  -3.975  1.00 20.00     0.162 HD
ENDROOT
TORSDOF 0
ENDMDL
MODEL 9
REMARK VINA RESULT:      -4.1     12.064     13.768
REMARK  0 active torsions:
REMARK  status: ('A' for Active; 'I' for Inactive)
ROOT
HETATM    1  C1  UNL     1     -34.055  16.833  -6.467  1.00 20.00    -0.030 C 
HETATM    2  C2  UNL     1     -33.575  17.464  -5.369  1.00 20.00    -0.029 C 
HETATM    3  C3  UNL     1     -34.681  13.695  -4.294  1.00 20.00     0.224 C 
HETATM    4  C4  UNL     1     -34.599  15.405  -6.451  1.00 20.00     0.043 C 
HETATM    5  C5  UNL     1     -33.584  16.849  -3.970  1.00 20.00     0.053 C 
HETATM    6  C6  UNL     1     -34.078  14.784  -5.178  1.00 20.00     0.104 C 
HETATM    7  C7  UNL     1     -34.572  15.714  -4.045  1.00 20.00     0.101 C 
HETATM    8  N8  UNL     1     -34.508  14.528  -3.207  1.00 20.00    -0.355 N 
HETATM    9  O9  UNL     1     -35.079  12.563  -4.415  1.00 20.00    -0.273 OA
HETATM   10  H18 UNL     1     -34.822  14.358  -2.259  1.00 20.00     0.162 HD
ENDROOT
TORSDOF 0
ENDMDL
