MODEL 1
REMARK VINA RESULT:      -4.2      0.000      0.000
REMARK  2 active torsions:
REMARK  status: ('A' for Active; 'I' for Inactive)
REMARK    1  A    between atoms: C3_3  and  C5_5 
REMARK    2  A    between atoms: C5_5  and  C6_6 
ROOT
HETATM    1  C1  UNL     1     -35.563   4.914   4.408  1.00 20.00     0.179 C 
HETATM    2  C2  UNL     1     -34.891   4.873   5.768  1.00 20.00     0.103 C 
HETATM    3  C3  UNL     1     -33.805   6.339   3.911  1.00 20.00     0.182 C 
HETATM    4  O7  UNL     1     -34.559   5.217   3.431  1.00 20.00    -0.375 OA
HETATM    5  S8  UNL     1     -33.809   6.312   5.724  1.00 20.00    -0.135 SA
ENDROOT
BRANCH   3   6
HETATM    6  C5  UNL     1     -32.393   6.251   3.360  1.00 20.00     0.042 C 
BRANCH   6   7
HETATM    7  C6  UNL     1     -31.754   7.633   3.229  1.00 20.00    -0.001 C 
HETATM    8  C4  UNL     1     -32.058   8.264   1.878  1.00 20.00     0.005 C 
ENDBRANCH   6   7
ENDBRANCH   3   6
TORSDOF 2
ENDMDL
MODEL 2
REMARK VINA RESULT:      -3.7     11.647     12.133
REMARK  2 active torsions:
REMARK  status: ('A' for Active; 'I' for Inactive)
REMARK    1  A    between atoms: C3_3  and  C5_5 
REMARK    2  A    between atoms: C5_5  and  C6_6 
ROOT
HETATM    1  C1  UNL     1     -34.553  13.271  -4.640  1.00 20.00     0.179 C 
HETATM    2  C2  UNL     1     -35.239  14.273  -5.551  1.00 20.00     0.103 C 
HETATM    3  C3  UNL     1     -33.405  15.152  -3.925  1.00 20.00     0.182 C 
HETATM    4  O7  UNL     1     -34.093  13.974  -3.479  1.00 20.00    -0.375 OA
HETATM    5  S8  UNL     1     -34.125  15.687  -5.500  1.00 20.00    -0.135 SA
ENDROOT
BRANCH   3   6
HETATM    6  C5  UNL     1     -33.539  16.228  -2.862  1.00 20.00     0.042 C 
BRANCH   6   7
HETATM    7  C6  UNL     1     -34.764  15.997  -1.980  1.00 20.00    -0.001 C 
HETATM    8  C4  UNL     1     -34.644  16.730  -0.652  1.00 20.00     0.005 C 
ENDBRANCH   6   7
ENDBRANCH   3   6
TORSDOF 2
ENDMDL
MODEL 3
REMARK VINA RESULT:      -3.5      9.066     10.120
REMARK  2 active torsions:
REMARK  status: ('A' for Active; 'I' for Inactive)
REMARK    1  A    between atoms: C3_3  and  C5_5 
REMARK    2  A    between atoms: C5_5  and  C6_6 
ROOT
HETATM    1  C1  UNL     1     -41.653   7.699  -1.053  1.00 20.00     0.179 C 
HETATM    2  C2  UNL     1     -42.985   7.101  -0.637  1.00 20.00     0.103 C 
HETATM    3  C3  UNL     1     -40.889   5.556  -0.617  1.00 20.00     0.182 C 
HETATM    4  O7  UNL     1     -40.832   6.638  -1.558  1.00 20.00    -0.375 OA
HETATM    5  S8  UNL     1     -42.495   5.595   0.222  1.00 20.00    -0.135 SA
ENDROOT
BRANCH   3   6
HETATM    6  C5  UNL     1     -40.686   4.249  -1.363  1.00 20.00     0.042 C 
BRANCH   6   7
HETATM    7  C6  UNL     1     -41.881   3.922  -2.257  1.00 20.00    -0.001 C 
HETATM    8  C4  UNL     1     -41.646   2.651  -3.061  1.00 20.00     0.005 C 
ENDBRANCH   6   7
ENDBRANCH   3   6
TORSDOF 2
ENDMDL
MODEL 4
REMARK VINA RESULT:      -3.5     11.983     12.948
REMARK  2 active torsions:
REMARK  status: ('A' for Active; 'I' for Inactive)
REMARK    1  A    between atoms: C3_3  and  C5_5 
REMARK    2  A    between atoms: C5_5  and  C6_6 
ROOT
HETATM    1  C1  UNL     1     -34.565  14.777  -6.525  1.00 20.00     0.179 C 
HETATM    2  C2  UNL     1     -34.447  16.291  -6.507  1.00 20.00     0.103 C 
HETATM    3  C3  UNL     1     -33.845  14.989  -4.333  1.00 20.00     0.182 C 
HETATM    4  O7  UNL     1     -34.802  14.338  -5.182  1.00 20.00    -0.375 OA
HETATM    5  S8  UNL     1     -33.416  16.593  -5.061  1.00 20.00    -0.135 SA
ENDROOT
BRANCH   3   6
HETATM    6  C5  UNL     1     -34.450  15.153  -2.950  1.00 20.00     0.042 C 
BRANCH   6   7
HETATM    7  C6  UNL     1     -33.956  16.428  -2.269  1.00 20.00    -0.001 C 
HETATM    8  C4  UNL     1     -34.600  16.618  -0.904  1.00 20.00     0.005 C 
ENDBRANCH   6   7
ENDBRANCH   3   6
TORSDOF 2
ENDMDL
MODEL 5
REMARK VINA RESULT:      -3.4     11.848     12.401
REMARK  2 active torsions:
REMARK  status: ('A' for Active; 'I' for Inactive)
REMARK    1  A    between atoms: C3_3  and  C5_5 
REMARK    2  A    between atoms: C5_5  and  C6_6 
ROOT
HETATM    1  C1  UNL     1     -36.057  15.297  -5.693  1.00 20.00     0.179 C 
HETATM    2  C2  UNL     1     -35.107  14.141  -5.952  1.00 20.00     0.103 C 
HETATM    3  C3  UNL     1     -35.272  15.071  -3.526  1.00 20.00     0.182 C 
HETATM    4  O7  UNL     1     -35.569  16.022  -4.558  1.00 20.00    -0.375 OA
HETATM    5  S8  UNL     1     -34.798  13.501  -4.297  1.00 20.00    -0.135 SA
ENDROOT
BRANCH   3   6
HETATM    6  C5  UNL     1     -34.153  15.621  -2.660  1.00 20.00     0.042 C 
BRANCH   6   7
HETATM    7  C6  UNL     1     -34.698  16.338  -1.426  1.00 20.00    -0.001 C 
HETATM    8  C4  UNL     1     -33.764  17.446  -0.963  1.00 20.00     0.005 C 
ENDBRANCH   6   7
ENDBRANCH   3   6
TORSDOF 2
ENDMDL
MODEL 6
REMARK VINA RESULT:      -3.3     11.447     12.574
REMARK  2 active torsions:
REMARK  status: ('A' for Active; 'I' for Inactive)
REMARK    1  A    between atoms: C3_3  and  C5_5 
REMARK    2  A    between atoms: C5_5  and  C6_6 
ROOT
HETATM    1  C1  UNL     1     -33.671  17.489  -4.330  1.00 20.00     0.179 C 
HETATM    2  C2  UNL     1     -35.040  17.256  -3.716  1.00 20.00     0.103 C 
HETATM    3  C3  UNL     1     -33.217  15.430  -3.371  1.00 20.00     0.182 C 
HETATM    4  O7  UNL     1     -33.072  16.209  -4.567  1.00 20.00    -0.375 OA
HETATM    5  S8  UNL     1     -34.721  15.959  -2.508  1.00 20.00    -0.135 SA
ENDROOT
BRANCH   3   6
HETATM    6  C5  UNL     1     -33.284  13.961  -3.749  1.00 20.00     0.042 C 
BRANCH   6   7
HETATM    7  C6  UNL     1     -34.719  13.519  -4.031  1.00 20.00    -0.001 C 
HETATM    8  C4  UNL     1     -35.043  13.584  -5.516  1.00 20.00     0.005 C 
ENDBRANCH   6   7
ENDBRANCH   3   6
TORSDOF 2
ENDMDL
MODEL 7
REMARK VINA RESULT:      -3.3     11.396     12.362
REMARK  2 active torsions:
REMARK  status: ('A' for Active; 'I' for Inactive)
REMARK    1  A    between atoms: C3_3  and  C5_5 
REMARK    2  A    between atoms: C5_5  and  C6_6 
ROOT
HETATM    1  C1  UNL     1     -33.702  16.188  -2.704  1.00 20.00     0.179 C 
HETATM    2  C2  UNL     1     -35.054  16.689  -3.178  1.00 20.00     0.103 C 
HETATM    3  C3  UNL     1     -34.468  14.184  -3.576  1.00 20.00     0.182 C 
HETATM    4  O7  UNL     1     -33.338  15.066  -3.518  1.00 20.00    -0.375 OA
HETATM    5  S8  UNL     1     -35.984  15.165  -3.415  1.00 20.00    -0.135 SA
ENDROOT
BRANCH   3   6
HETATM    6  C5  UNL     1     -34.434  13.432  -4.894  1.00 20.00     0.042 C 
BRANCH   6   7
HETATM    7  C6  UNL     1     -35.244  14.151  -5.972  1.00 20.00    -0.001 C 
HETATM    8  C4  UNL     1     -34.350  14.978  -6.885  1.00 20.00     0.005 C 
ENDBRANCH   6   7
ENDBRANCH   3   6
TORSDOF 2
ENDMDL
MODEL 8
REMARK VINA RESULT:      -3.3      9.556     10.807
REMARK  2 active torsions:
REMARK  status: ('A' for Active; 'I' for Inactive)
REMARK    1  A    between atoms: C3_3  and  C5_5 
REMARK    2  A    between atoms: C5_5  and  C6_6 
ROOT
HETATM    1  C1  UNL     1     -41.127   6.839  -0.976  1.00 20.00     0.179 C 
HETATM    2  C2  UNL     1     -41.870   7.173  -2.257  1.00 20.00     0.103 C 
HETATM    3  C3  UNL     1     -41.617   4.665  -1.605  1.00 20.00     0.182 C 
HETATM    4  O7  UNL     1     -40.577   5.523  -1.116  1.00 20.00    -0.375 OA
HETATM    5  S8  UNL     1     -42.762   5.648  -2.609  1.00 20.00    -0.135 SA
ENDROOT
BRANCH   3   6
HETATM    6  C5  UNL     1     -40.987   3.549  -2.419  1.00 20.00     0.042 C 
BRANCH   6   7
HETATM    7  C6  UNL     1     -42.047   2.647  -3.051  1.00 20.00    -0.001 C 
HETATM    8  C4  UNL     1     -41.424   1.631  -3.997  1.00 20.00     0.005 C 
ENDBRANCH   6   7
ENDBRANCH   3   6
TORSDOF 2
ENDMDL
MODEL 9
REMARK VINA RESULT:      -3.2     11.338     12.349
REMARK  2 active torsions:
REMARK  status: ('A' for Active; 'I' for Inactive)
REMARK    1  A    between atoms: C3_3  and  C5_5 
REMARK    2  A    between atoms: C5_5  and  C6_6 
ROOT
HETATM    1  C1  UNL     1     -37.128  14.947  -4.987  1.00 20.00     0.179 C 
HETATM    2  C2  UNL     1     -36.189  15.703  -5.910  1.00 20.00     0.103 C 
HETATM    3  C3  UNL     1     -35.222  13.707  -4.545  1.00 20.00     0.182 C 
HETATM    4  O7  UNL     1     -36.343  14.367  -3.938  1.00 20.00    -0.375 OA
HETATM    5  S8  UNL     1     -34.802  14.567  -6.084  1.00 20.00    -0.135 SA
ENDROOT
BRANCH   3   6
HETATM    6  C5  UNL     1     -34.060  13.721  -3.568  1.00 20.00     0.042 C 
BRANCH   6   7
HETATM    7  C6  UNL     1     -33.224  14.993  -3.707  1.00 20.00    -0.001 C 
HETATM    8  C4  UNL     1     -33.670  16.066  -2.726  1.00 20.00     0.005 C 
ENDBRANCH   6   7
ENDBRANCH   3   6
TORSDOF 2
ENDMDL
