MODEL 1
REMARK VINA RESULT:      -4.3      0.000      0.000
REMARK  1 active torsions:
REMARK  status: ('A' for Active; 'I' for Inactive)
REMARK    1  A    between atoms: C4_4  and  C5_5 
ROOT
HETATM    1  C1  UNL     1     -34.411   4.763   5.890  1.00 20.00     0.029 C 
HETATM    2  C2  UNL     1     -34.100   6.227   5.710  1.00 20.00     0.035 C 
HETATM    3  C3  UNL     1     -35.305   4.486   4.702  1.00 20.00     0.168 C 
HETATM    4  C4  UNL     1     -34.022   6.371   4.197  1.00 20.00     0.131 C 
HETATM    5  O6  UNL     1     -34.851   5.336   3.641  1.00 20.00    -0.385 OA
ENDROOT
BRANCH   4   6
HETATM    6  C5  UNL     1     -32.608   6.195   3.658  1.00 20.00     0.117 C 
HETATM    7 BR7  UNL     1     -32.138   7.714   2.543  1.00 20.00    -0.094 Br
ENDBRANCH   4   6
TORSDOF 1
ENDMDL
MODEL 2
REMARK VINA RESULT:      -3.4      2.449      3.390
REMARK  1 active torsions:
REMARK  status: ('A' for Active; 'I' for Inactive)
REMARK    1  A    between atoms: C4_4  and  C5_5 
ROOT
HETATM    1  C1  UNL     1     -32.527   5.639   3.009  1.00 20.00     0.029 C 
HETATM    2  C2  UNL     1     -33.924   5.375   2.504  1.00 20.00     0.035 C 
HETATM    3  C3  UNL     1     -32.752   6.800   3.951  1.00 20.00     0.168 C 
HETATM    4  C4  UNL     1     -34.784   5.672   3.723  1.00 20.00     0.131 C 
HETATM    5  O6  UNL     1     -34.053   6.618   4.523  1.00 20.00    -0.385 OA
ENDROOT
BRANCH   4   6
HETATM    6  C5  UNL     1     -35.056   4.437   4.572  1.00 20.00     0.117 C 
HETATM    7 BR7  UNL     1     -34.713   4.837   6.441  1.00 20.00    -0.094 Br
ENDBRANCH   4   6
TORSDOF 1
ENDMDL
MODEL 3
REMARK VINA RESULT:      -3.4     11.834     12.345
REMARK  1 active torsions:
REMARK  status: ('A' for Active; 'I' for Inactive)
REMARK    1  A    between atoms: C4_4  and  C5_5 
ROOT
HETATM    1  C1  UNL     1     -34.580  14.485  -5.608  1.00 20.00     0.029 C 
HETATM    2  C2  UNL     1     -33.754  15.382  -4.720  1.00 20.00     0.035 C 
HETATM    3  C3  UNL     1     -34.489  13.162  -4.883  1.00 20.00     0.168 C 
HETATM    4  C4  UNL     1     -34.059  14.850  -3.328  1.00 20.00     0.131 C 
HETATM    5  O6  UNL     1     -34.414  13.465  -3.484  1.00 20.00    -0.385 OA
ENDROOT
BRANCH   4   6
HETATM    6  C5  UNL     1     -35.223  15.570  -2.660  1.00 20.00     0.117 C 
HETATM    7 BR7  UNL     1     -34.569  16.637  -1.175  1.00 20.00    -0.094 Br
ENDBRANCH   4   6
TORSDOF 1
ENDMDL
MODEL 4
REMARK VINA RESULT:      -3.3      2.537      3.299
REMARK  1 active torsions:
REMARK  status: ('A' for Active; 'I' for Inactive)
REMARK    1  A    between atoms: C4_4  and  C5_5 
ROOT
HETATM    1  C1  UNL     1     -33.599   5.227   2.856  1.00 20.00     0.029 C 
HETATM    2  C2  UNL     1     -34.749   5.867   3.591  1.00 20.00     0.035 C 
HETATM    3  C3  UNL     1     -32.507   6.259   3.030  1.00 20.00     0.168 C 
HETATM    4  C4  UNL     1     -34.058   6.576   4.746  1.00 20.00     0.131 C 
HETATM    5  O6  UNL     1     -32.720   6.870   4.309  1.00 20.00    -0.385 OA
ENDROOT
BRANCH   4   6
HETATM    6  C5  UNL     1     -33.973   5.719   6.002  1.00 20.00     0.117 C 
HETATM    7 BR7  UNL     1     -35.084   4.139   5.794  1.00 20.00    -0.094 Br
ENDBRANCH   4   6
TORSDOF 1
ENDMDL
MODEL 5
REMARK VINA RESULT:      -3.2     12.107     12.627
REMARK  1 active torsions:
REMARK  status: ('A' for Active; 'I' for Inactive)
REMARK    1  A    between atoms: C4_4  and  C5_5 
ROOT
HETATM    1  C1  UNL     1     -35.053  13.338  -4.456  1.00 20.00     0.029 C 
HETATM    2  C2  UNL     1     -35.751  14.445  -3.707  1.00 20.00     0.035 C 
HETATM    3  C3  UNL     1     -34.578  14.055  -5.699  1.00 20.00     0.168 C 
HETATM    4  C4  UNL     1     -34.900  15.663  -4.036  1.00 20.00     0.131 C 
HETATM    5  O6  UNL     1     -34.280  15.402  -5.308  1.00 20.00    -0.385 OA
ENDROOT
BRANCH   4   6
HETATM    6  C5  UNL     1     -33.801  15.912  -3.011  1.00 20.00     0.117 C 
HETATM    7 BR7  UNL     1     -34.587  16.533  -1.347  1.00 20.00    -0.094 Br
ENDBRANCH   4   6
TORSDOF 1
ENDMDL
MODEL 6
REMARK VINA RESULT:      -3.1      9.526     10.001
REMARK  1 active torsions:
REMARK  status: ('A' for Active; 'I' for Inactive)
REMARK    1  A    between atoms: C4_4  and  C5_5 
ROOT
HETATM    1  C1  UNL     1     -42.224   5.992   0.201  1.00 20.00     0.029 C 
HETATM    2  C2  UNL     1     -41.634   4.627  -0.047  1.00 20.00     0.035 C 
HETATM    3  C3  UNL     1     -41.336   6.874  -0.647  1.00 20.00     0.168 C 
HETATM    4  C4  UNL     1     -41.206   4.706  -1.505  1.00 20.00     0.131 C 
HETATM    5  O6  UNL     1     -40.950   6.093  -1.786  1.00 20.00    -0.385 OA
ENDROOT
BRANCH   4   6
HETATM    6  C5  UNL     1     -42.280   4.213  -2.466  1.00 20.00     0.117 C 
HETATM    7 BR7  UNL     1     -41.778   2.476  -3.174  1.00 20.00    -0.094 Br
ENDBRANCH   4   6
TORSDOF 1
ENDMDL
MODEL 7
REMARK VINA RESULT:      -3.1      9.410     10.164
REMARK  1 active torsions:
REMARK  status: ('A' for Active; 'I' for Inactive)
REMARK    1  A    between atoms: C4_4  and  C5_5 
ROOT
HETATM    1  C1  UNL     1     -42.003   5.354   0.224  1.00 20.00     0.029 C 
HETATM    2  C2  UNL     1     -42.183   4.387  -0.919  1.00 20.00     0.035 C 
HETATM    3  C3  UNL     1     -40.828   6.180  -0.249  1.00 20.00     0.168 C 
HETATM    4  C4  UNL     1     -41.832   5.233  -2.134  1.00 20.00     0.131 C 
HETATM    5  O6  UNL     1     -40.929   6.257  -1.677  1.00 20.00    -0.385 OA
ENDROOT
BRANCH   4   6
HETATM    6  C5  UNL     1     -43.046   5.909  -2.756  1.00 20.00     0.117 C 
HETATM    7 BR7  UNL     1     -42.553   7.670  -3.410  1.00 20.00    -0.094 Br
ENDBRANCH   4   6
TORSDOF 1
ENDMDL
MODEL 8
REMARK VINA RESULT:      -3.1     11.947     12.683
REMARK  1 active torsions:
REMARK  status: ('A' for Active; 'I' for Inactive)
REMARK    1  A    between atoms: C4_4  and  C5_5 
ROOT
HETATM    1  C1  UNL     1     -33.547  17.521  -1.219  1.00 20.00     0.029 C 
HETATM    2  C2  UNL     1     -33.833  17.855  -2.661  1.00 20.00     0.035 C 
HETATM    3  C3  UNL     1     -34.655  16.542  -0.901  1.00 20.00     0.168 C 
HETATM    4  C4  UNL     1     -34.348  16.535  -3.216  1.00 20.00     0.131 C 
HETATM    5  O6  UNL     1     -34.920  15.817  -2.108  1.00 20.00    -0.385 OA
ENDROOT
BRANCH   4   6
HETATM    6  C5  UNL     1     -33.247  15.678  -3.825  1.00 20.00     0.117 C 
HETATM    7 BR7  UNL     1     -33.827  13.826  -3.904  1.00 20.00    -0.094 Br
ENDBRANCH   4   6
TORSDOF 1
ENDMDL
MODEL 9
REMARK VINA RESULT:      -3.1     12.066     12.601
REMARK  1 active torsions:
REMARK  status: ('A' for Active; 'I' for Inactive)
REMARK    1  A    between atoms: C4_4  and  C5_5 
ROOT
HETATM    1  C1  UNL     1     -34.692  13.283  -4.745  1.00 20.00     0.029 C 
HETATM    2  C2  UNL     1     -33.551  13.647  -3.828  1.00 20.00     0.035 C 
HETATM    3  C3  UNL     1     -35.828  14.094  -4.164  1.00 20.00     0.168 C 
HETATM    4  C4  UNL     1     -33.829  15.109  -3.510  1.00 20.00     0.131 C 
HETATM    5  O6  UNL     1     -35.249  15.297  -3.644  1.00 20.00    -0.385 OA
ENDROOT
BRANCH   4   6
HETATM    6  C5  UNL     1     -33.127  16.067  -4.462  1.00 20.00     0.117 C 
HETATM    7 BR7  UNL     1     -34.269  17.600  -4.810  1.00 20.00    -0.094 Br
ENDBRANCH   4   6
TORSDOF 1
ENDMDL
