MODEL 1
REMARK VINA RESULT:      -3.6      0.000      0.000
REMARK  0 active torsions:
REMARK  status: ('A' for Active; 'I' for Inactive)
ROOT
HETATM    1  C1  UNL     1     -36.250  14.056  -4.280  1.00 20.00     0.075 C 
HETATM    2  C2  UNL     1     -33.230  16.397  -4.913  1.00 20.00     0.084 C 
HETATM    3  C3  UNL     1     -33.480  15.678  -3.598  1.00 20.00     0.085 C 
HETATM    4  C4  UNL     1     -34.757  14.498  -6.231  1.00 20.00     0.104 C 
HETATM    5  C5  UNL     1     -34.974  13.722  -4.932  1.00 20.00     0.163 C 
HETATM    6  N6  UNL     1     -37.256  14.320  -3.766  1.00 20.00    -0.196 NA
HETATM    7  S7  UNL     1     -34.651  16.309  -6.041  1.00 20.00    -0.166 SA
HETATM    8  S8  UNL     1     -33.562  13.870  -3.782  1.00 20.00    -0.148 SA
ENDROOT
TORSDOF 0
ENDMDL
MODEL 2
REMARK VINA RESULT:      -3.5      2.133      2.643
REMARK  0 active torsions:
REMARK  status: ('A' for Active; 'I' for Inactive)
ROOT
HETATM    1  C1  UNL     1     -34.804  13.692  -3.946  1.00 20.00     0.075 C 
HETATM    2  C2  UNL     1     -34.877  17.370  -5.157  1.00 20.00     0.084 C 
HETATM    3  C3  UNL     1     -36.117  16.503  -5.015  1.00 20.00     0.085 C 
HETATM    4  C4  UNL     1     -33.554  15.764  -3.330  1.00 20.00     0.104 C 
HETATM    5  C5  UNL     1     -34.807  14.911  -3.122  1.00 20.00     0.163 C 
HETATM    6  N6  UNL     1     -34.802  12.732  -4.596  1.00 20.00    -0.196 NA
HETATM    7  S7  UNL     1     -33.336  16.418  -5.017  1.00 20.00    -0.166 SA
HETATM    8  S8  UNL     1     -36.348  15.869  -3.325  1.00 20.00    -0.148 SA
ENDROOT
TORSDOF 0
ENDMDL
MODEL 3
REMARK VINA RESULT:      -3.5      1.900      3.086
REMARK  0 active torsions:
REMARK  status: ('A' for Active; 'I' for Inactive)
ROOT
HETATM    1  C1  UNL     1     -34.095  15.890  -2.428  1.00 20.00     0.075 C 
HETATM    2  C2  UNL     1     -35.136  14.473  -5.880  1.00 20.00     0.084 C 
HETATM    3  C3  UNL     1     -35.034  15.958  -5.572  1.00 20.00     0.085 C 
HETATM    4  C4  UNL     1     -33.383  13.932  -3.804  1.00 20.00     0.104 C 
HETATM    5  C5  UNL     1     -33.215  15.424  -3.512  1.00 20.00     0.163 C 
HETATM    6  N6  UNL     1     -34.789  16.257  -1.574  1.00 20.00    -0.196 NA
HETATM    7  S7  UNL     1     -35.038  13.441  -4.389  1.00 20.00    -0.166 SA
HETATM    8  S8  UNL     1     -33.376  16.455  -5.012  1.00 20.00    -0.148 SA
ENDROOT
TORSDOF 0
ENDMDL
MODEL 4
REMARK VINA RESULT:      -3.5      1.760      2.600
REMARK  0 active torsions:
REMARK  status: ('A' for Active; 'I' for Inactive)
ROOT
HETATM    1  C1  UNL     1     -35.234  13.735  -4.653  1.00 20.00     0.075 C 
HETATM    2  C2  UNL     1     -33.744  17.102  -3.448  1.00 20.00     0.084 C 
HETATM    3  C3  UNL     1     -33.369  16.434  -4.761  1.00 20.00     0.085 C 
HETATM    4  C4  UNL     1     -36.144  15.719  -3.440  1.00 20.00     0.104 C 
HETATM    5  C5  UNL     1     -35.819  15.079  -4.791  1.00 20.00     0.163 C 
HETATM    6  N6  UNL     1     -34.772  12.677  -4.544  1.00 20.00    -0.196 NA
HETATM    7  S7  UNL     1     -34.707  16.014  -2.358  1.00 20.00    -0.166 SA
HETATM    8  S8  UNL     1     -34.799  16.161  -5.852  1.00 20.00    -0.148 SA
ENDROOT
TORSDOF 0
ENDMDL
MODEL 5
REMARK VINA RESULT:      -3.4      1.682      2.388
REMARK  0 active torsions:
REMARK  status: ('A' for Active; 'I' for Inactive)
ROOT
HETATM    1  C1  UNL     1     -37.266  14.823  -4.329  1.00 20.00     0.075 C 
HETATM    2  C2  UNL     1     -33.455  14.391  -3.788  1.00 20.00     0.084 C 
HETATM    3  C3  UNL     1     -34.305  13.437  -4.613  1.00 20.00     0.085 C 
HETATM    4  C4  UNL     1     -35.329  16.391  -4.187  1.00 20.00     0.104 C 
HETATM    5  C5  UNL     1     -36.173  15.471  -5.071  1.00 20.00     0.163 C 
HETATM    6  N6  UNL     1     -38.127  14.311  -3.744  1.00 20.00    -0.196 NA
HETATM    7  S7  UNL     1     -34.453  15.561  -2.821  1.00 20.00    -0.166 SA
HETATM    8  S8  UNL     1     -35.160  14.261  -5.991  1.00 20.00    -0.148 SA
ENDROOT
TORSDOF 0
ENDMDL
MODEL 6
REMARK VINA RESULT:      -3.4      2.022      2.437
REMARK  0 active torsions:
REMARK  status: ('A' for Active; 'I' for Inactive)
ROOT
HETATM    1  C1  UNL     1     -34.361  13.839  -3.905  1.00 20.00     0.075 C 
HETATM    2  C2  UNL     1     -35.525  17.488  -4.479  1.00 20.00     0.084 C 
HETATM    3  C3  UNL     1     -36.071  16.591  -3.380  1.00 20.00     0.085 C 
HETATM    4  C4  UNL     1     -33.220  15.956  -4.574  1.00 20.00     0.104 C 
HETATM    5  C5  UNL     1     -33.718  15.074  -3.428  1.00 20.00     0.163 C 
HETATM    6  N6  UNL     1     -34.868  12.866  -4.280  1.00 20.00    -0.196 NA
HETATM    7  S7  UNL     1     -34.519  16.582  -5.689  1.00 20.00    -0.166 SA
HETATM    8  S8  UNL     1     -34.779  15.985  -2.252  1.00 20.00    -0.148 SA
ENDROOT
TORSDOF 0
ENDMDL
MODEL 7
REMARK VINA RESULT:      -3.4      2.180      2.426
REMARK  0 active torsions:
REMARK  status: ('A' for Active; 'I' for Inactive)
ROOT
HETATM    1  C1  UNL     1     -34.685  13.795  -4.986  1.00 20.00     0.075 C 
HETATM    2  C2  UNL     1     -35.308  16.794  -2.615  1.00 20.00     0.084 C 
HETATM    3  C3  UNL     1     -33.986  16.050  -2.706  1.00 20.00     0.085 C 
HETATM    4  C4  UNL     1     -35.957  15.936  -5.168  1.00 20.00     0.104 C 
HETATM    5  C5  UNL     1     -34.608  15.229  -5.309  1.00 20.00     0.163 C 
HETATM    6  N6  UNL     1     -34.746  12.665  -4.730  1.00 20.00    -0.196 NA
HETATM    7  S7  UNL     1     -36.655  15.939  -3.484  1.00 20.00    -0.166 SA
HETATM    8  S8  UNL     1     -33.276  16.067  -4.381  1.00 20.00    -0.148 SA
ENDROOT
TORSDOF 0
ENDMDL
MODEL 8
REMARK VINA RESULT:      -3.3      1.358      1.408
REMARK  0 active torsions:
REMARK  status: ('A' for Active; 'I' for Inactive)
ROOT
HETATM    1  C1  UNL     1     -36.584  14.269  -3.863  1.00 20.00     0.075 C 
HETATM    2  C2  UNL     1     -33.982  16.135  -6.043  1.00 20.00     0.084 C 
HETATM    3  C3  UNL     1     -34.545  16.686  -4.742  1.00 20.00     0.085 C 
HETATM    4  C4  UNL     1     -34.607  13.566  -5.215  1.00 20.00     0.104 C 
HETATM    5  C5  UNL     1     -35.124  14.088  -3.873  1.00 20.00     0.163 C 
HETATM    6  N6  UNL     1     -37.735  14.413  -3.854  1.00 20.00    -0.196 NA
HETATM    7  S7  UNL     1     -34.887  14.675  -6.635  1.00 20.00    -0.166 SA
HETATM    8  S8  UNL     1     -34.246  15.591  -3.320  1.00 20.00    -0.148 SA
ENDROOT
TORSDOF 0
ENDMDL
MODEL 9
REMARK VINA RESULT:      -3.3      1.646      2.746
REMARK  0 active torsions:
REMARK  status: ('A' for Active; 'I' for Inactive)
ROOT
HETATM    1  C1  UNL     1     -37.376  14.877  -3.689  1.00 20.00     0.075 C 
HETATM    2  C2  UNL     1     -34.480  14.698  -6.255  1.00 20.00     0.084 C 
HETATM    3  C3  UNL     1     -35.666  15.641  -6.384  1.00 20.00     0.085 C 
HETATM    4  C4  UNL     1     -34.907  14.549  -3.522  1.00 20.00     0.104 C 
HETATM    5  C5  UNL     1     -36.066  15.543  -3.615  1.00 20.00     0.163 C 
HETATM    6  N6  UNL     1     -38.409  14.352  -3.748  1.00 20.00    -0.196 NA
HETATM    7  S7  UNL     1     -34.718  13.446  -4.962  1.00 20.00    -0.166 SA
HETATM    8  S8  UNL     1     -35.841  16.759  -4.959  1.00 20.00    -0.148 SA
ENDROOT
TORSDOF 0
ENDMDL
