MODEL 1
REMARK VINA RESULT:      -4.5      0.000      0.000
REMARK  2 active torsions:
REMARK  status: ('A' for Active; 'I' for Inactive)
REMARK    1  A    between atoms: C3_3  and  C5_5 
REMARK    2  A    between atoms: C5_5  and  C6_6 
ROOT
HETATM    1  C1  UNL     1     -34.374   5.999   6.436  1.00 20.00     0.179 C 
HETATM    2  C2  UNL     1     -34.909   4.665   5.949  1.00 20.00     0.103 C 
HETATM    3  C3  UNL     1     -34.056   6.365   4.171  1.00 20.00     0.182 C 
HETATM    4  O7  UNL     1     -33.441   6.482   5.461  1.00 20.00    -0.375 OA
HETATM    5  S8  UNL     1     -35.214   4.971   4.201  1.00 20.00    -0.135 SA
ENDROOT
BRANCH   3   6
HETATM    6  C5  UNL     1     -32.972   6.162   3.129  1.00 20.00     0.042 C 
BRANCH   6   7
HETATM    7  C6  UNL     1     -31.919   7.269   3.190  1.00 20.00    -0.001 C 
HETATM    8  C4  UNL     1     -32.058   8.238   2.027  1.00 20.00     0.005 C 
ENDBRANCH   6   7
ENDBRANCH   3   6
TORSDOF 2
ENDMDL
MODEL 2
REMARK VINA RESULT:      -3.6     11.765     12.293
REMARK  2 active torsions:
REMARK  status: ('A' for Active; 'I' for Inactive)
REMARK    1  A    between atoms: C3_3  and  C5_5 
REMARK    2  A    between atoms: C5_5  and  C6_6 
ROOT
HETATM    1  C1  UNL     1     -34.788  13.232  -4.644  1.00 20.00     0.179 C 
HETATM    2  C2  UNL     1     -34.779  14.289  -5.733  1.00 20.00     0.103 C 
HETATM    3  C3  UNL     1     -34.955  15.079  -3.258  1.00 20.00     0.182 C 
HETATM    4  O7  UNL     1     -34.279  13.829  -3.445  1.00 20.00    -0.375 OA
HETATM    5  S8  UNL     1     -35.414  15.744  -4.881  1.00 20.00    -0.135 SA
ENDROOT
BRANCH   3   6
HETATM    6  C5  UNL     1     -34.035  16.027  -2.513  1.00 20.00     0.042 C 
BRANCH   6   7
HETATM    7  C6  UNL     1     -34.647  16.478  -1.186  1.00 20.00    -0.001 C 
HETATM    8  C4  UNL     1     -33.873  17.637  -0.578  1.00 20.00     0.005 C 
ENDBRANCH   6   7
ENDBRANCH   3   6
TORSDOF 2
ENDMDL
MODEL 3
REMARK VINA RESULT:      -3.6     12.023     12.710
REMARK  2 active torsions:
REMARK  status: ('A' for Active; 'I' for Inactive)
REMARK    1  A    between atoms: C3_3  and  C5_5 
REMARK    2  A    between atoms: C5_5  and  C6_6 
ROOT
HETATM    1  C1  UNL     1     -34.500  14.778  -6.121  1.00 20.00     0.179 C 
HETATM    2  C2  UNL     1     -34.866  13.661  -5.160  1.00 20.00     0.103 C 
HETATM    3  C3  UNL     1     -33.393  15.613  -4.266  1.00 20.00     0.182 C 
HETATM    4  O7  UNL     1     -34.264  15.962  -5.350  1.00 20.00    -0.375 OA
HETATM    5  S8  UNL     1     -33.677  13.877  -3.825  1.00 20.00    -0.135 SA
ENDROOT
BRANCH   3   6
HETATM    6  C5  UNL     1     -33.676  16.535  -3.094  1.00 20.00     0.042 C 
BRANCH   6   7
HETATM    7  C6  UNL     1     -34.680  15.916  -2.121  1.00 20.00    -0.001 C 
HETATM    8  C4  UNL     1     -34.667  16.627  -0.777  1.00 20.00     0.005 C 
ENDBRANCH   6   7
ENDBRANCH   3   6
TORSDOF 2
ENDMDL
MODEL 4
REMARK VINA RESULT:      -3.5      1.463      1.626
REMARK  2 active torsions:
REMARK  status: ('A' for Active; 'I' for Inactive)
REMARK    1  A    between atoms: C3_3  and  C5_5 
REMARK    2  A    between atoms: C5_5  and  C6_6 
ROOT
HETATM    1  C1  UNL     1     -35.017   4.119   5.220  1.00 20.00     0.179 C 
HETATM    2  C2  UNL     1     -35.205   5.172   6.298  1.00 20.00     0.103 C 
HETATM    3  C3  UNL     1     -33.526   5.675   4.372  1.00 20.00     0.182 C 
HETATM    4  O7  UNL     1     -34.594   4.784   4.024  1.00 20.00    -0.375 OA
HETATM    5  S8  UNL     1     -33.759   6.224   6.085  1.00 20.00    -0.135 SA
ENDROOT
BRANCH   3   6
HETATM    6  C5  UNL     1     -33.534   6.848   3.410  1.00 20.00     0.042 C 
BRANCH   6   7
HETATM    7  C6  UNL     1     -32.115   7.277   3.035  1.00 20.00    -0.001 C 
HETATM    8  C4  UNL     1     -32.121   8.343   1.951  1.00 20.00     0.005 C 
ENDBRANCH   6   7
ENDBRANCH   3   6
TORSDOF 2
ENDMDL
MODEL 5
REMARK VINA RESULT:      -3.4     11.616     12.168
REMARK  2 active torsions:
REMARK  status: ('A' for Active; 'I' for Inactive)
REMARK    1  A    between atoms: C3_3  and  C5_5 
REMARK    2  A    between atoms: C5_5  and  C6_6 
ROOT
HETATM    1  C1  UNL     1     -35.578  14.108  -4.315  1.00 20.00     0.179 C 
HETATM    2  C2  UNL     1     -34.136  13.655  -4.180  1.00 20.00     0.103 C 
HETATM    3  C3  UNL     1     -34.836  15.877  -3.018  1.00 20.00     0.182 C 
HETATM    4  O7  UNL     1     -35.893  14.922  -3.179  1.00 20.00    -0.375 OA
HETATM    5  S8  UNL     1     -33.295  15.154  -3.641  1.00 20.00    -0.135 SA
ENDROOT
BRANCH   3   6
HETATM    6  C5  UNL     1     -34.722  16.239  -1.549  1.00 20.00     0.042 C 
BRANCH   6   7
HETATM    7  C6  UNL     1     -33.711  17.363  -1.323  1.00 20.00    -0.001 C 
HETATM    8  C4  UNL     1     -33.868  17.989   0.053  1.00 20.00     0.005 C 
ENDBRANCH   6   7
ENDBRANCH   3   6
TORSDOF 2
ENDMDL
MODEL 6
REMARK VINA RESULT:      -3.3     11.490     12.653
REMARK  2 active torsions:
REMARK  status: ('A' for Active; 'I' for Inactive)
REMARK    1  A    between atoms: C3_3  and  C5_5 
REMARK    2  A    between atoms: C5_5  and  C6_6 
ROOT
HETATM    1  C1  UNL     1     -35.522  14.509  -6.645  1.00 20.00     0.179 C 
HETATM    2  C2  UNL     1     -36.463  15.363  -5.815  1.00 20.00     0.103 C 
HETATM    3  C3  UNL     1     -34.997  13.601  -4.581  1.00 20.00     0.182 C 
HETATM    4  O7  UNL     1     -34.438  14.102  -5.802  1.00 20.00    -0.375 OA
HETATM    5  S8  UNL     1     -36.566  14.453  -4.265  1.00 20.00    -0.135 SA
ENDROOT
BRANCH   3   6
HETATM    6  C5  UNL     1     -34.005  13.834  -3.456  1.00 20.00     0.042 C 
BRANCH   6   7
HETATM    7  C6  UNL     1     -33.247  15.149  -3.638  1.00 20.00    -0.001 C 
HETATM    8  C4  UNL     1     -33.692  16.196  -2.630  1.00 20.00     0.005 C 
ENDBRANCH   6   7
ENDBRANCH   3   6
TORSDOF 2
ENDMDL
MODEL 7
REMARK VINA RESULT:      -3.3      9.657     10.181
REMARK  2 active torsions:
REMARK  status: ('A' for Active; 'I' for Inactive)
REMARK    1  A    between atoms: C3_3  and  C5_5 
REMARK    2  A    between atoms: C5_5  and  C6_6 
ROOT
HETATM    1  C1  UNL     1     -41.773   3.585  -2.425  1.00 20.00     0.179 C 
HETATM    2  C2  UNL     1     -43.168   3.800  -1.865  1.00 20.00     0.103 C 
HETATM    3  C3  UNL     1     -41.144   4.699  -0.495  1.00 20.00     0.182 C 
HETATM    4  O7  UNL     1     -40.927   4.620  -1.909  1.00 20.00    -0.375 OA
HETATM    5  S8  UNL     1     -42.847   4.192  -0.136  1.00 20.00    -0.135 SA
ENDROOT
BRANCH   3   6
HETATM    6  C5  UNL     1     -40.884   6.123  -0.038  1.00 20.00     0.042 C 
BRANCH   6   7
HETATM    7  C6  UNL     1     -41.126   7.128  -1.165  1.00 20.00    -0.001 C 
HETATM    8  C4  UNL     1     -42.457   7.843  -1.000  1.00 20.00     0.005 C 
ENDBRANCH   6   7
ENDBRANCH   3   6
TORSDOF 2
ENDMDL
MODEL 8
REMARK VINA RESULT:      -3.3     11.590     12.581
REMARK  2 active torsions:
REMARK  status: ('A' for Active; 'I' for Inactive)
REMARK    1  A    between atoms: C3_3  and  C5_5 
REMARK    2  A    between atoms: C5_5  and  C6_6 
ROOT
HETATM    1  C1  UNL     1     -38.605  14.884  -4.055  1.00 20.00     0.179 C 
HETATM    2  C2  UNL     1     -38.427  15.273  -5.511  1.00 20.00     0.103 C 
HETATM    3  C3  UNL     1     -36.303  14.650  -4.141  1.00 20.00     0.182 C 
HETATM    4  O7  UNL     1     -37.514  14.030  -3.691  1.00 20.00    -0.375 OA
HETATM    5  S8  UNL     1     -36.667  15.642  -5.614  1.00 20.00    -0.135 SA
ENDROOT
BRANCH   3   6
HETATM    6  C5  UNL     1     -35.281  13.569  -4.441  1.00 20.00     0.042 C 
BRANCH   6   7
HETATM    7  C6  UNL     1     -34.042  13.706  -3.556  1.00 20.00    -0.001 C 
HETATM    8  C4  UNL     1     -33.301  15.005  -3.828  1.00 20.00     0.005 C 
ENDBRANCH   6   7
ENDBRANCH   3   6
TORSDOF 2
ENDMDL
MODEL 9
REMARK VINA RESULT:      -3.2     11.794     12.735
REMARK  2 active torsions:
REMARK  status: ('A' for Active; 'I' for Inactive)
REMARK    1  A    between atoms: C3_3  and  C5_5 
REMARK    2  A    between atoms: C5_5  and  C6_6 
ROOT
HETATM    1  C1  UNL     1     -33.897  17.294  -2.726  1.00 20.00     0.179 C 
HETATM    2  C2  UNL     1     -34.364  17.485  -4.158  1.00 20.00     0.103 C 
HETATM    3  C3  UNL     1     -32.986  15.350  -3.593  1.00 20.00     0.182 C 
HETATM    4  O7  UNL     1     -33.739  15.888  -2.499  1.00 20.00    -0.375 OA
HETATM    5  S8  UNL     1     -33.320  16.340  -5.075  1.00 20.00    -0.135 SA
ENDROOT
BRANCH   3   6
HETATM    6  C5  UNL     1     -33.386  13.900  -3.796  1.00 20.00     0.042 C 
BRANCH   6   7
HETATM    7  C6  UNL     1     -34.470  13.759  -4.865  1.00 20.00    -0.001 C 
HETATM    8  C4  UNL     1     -35.861  13.755  -4.253  1.00 20.00     0.005 C 
ENDBRANCH   6   7
ENDBRANCH   3   6
TORSDOF 2
ENDMDL
