MODEL 1
REMARK VINA RESULT:      -4.1      0.000      0.000
REMARK  0 active torsions:
REMARK  status: ('A' for Active; 'I' for Inactive)
ROOT
HETATM    1  C1  UNL     1     -34.786  13.282  -5.199  1.00 20.00     0.029 C 
HETATM    2  C2  UNL     1     -34.926  13.874  -3.796  1.00 20.00     0.048 C 
HETATM    3  C3  UNL     1     -35.032  14.345  -6.259  1.00 20.00     0.170 C 
HETATM    4  C4  UNL     1     -34.405  16.116  -4.809  1.00 20.00     0.255 C 
HETATM    5  C5  UNL     1     -34.106  15.164  -3.634  1.00 20.00     0.152 C 
HETATM    6  O6  UNL     1     -34.175  15.468  -6.064  1.00 20.00    -0.367 OA
HETATM    7 CL7  UNL     1     -33.432  17.616  -4.778  1.00 20.00    -0.092 Cl
HETATM    8 CL8  UNL     1     -34.542  15.930  -2.068  1.00 20.00    -0.098 Cl
HETATM    9 CL9  UNL     1     -32.355  14.741  -3.571  1.00 20.00    -0.098 Cl
ENDROOT
TORSDOF 0
ENDMDL
MODEL 2
REMARK VINA RESULT:      -3.9      2.062      2.652
REMARK  0 active torsions:
REMARK  status: ('A' for Active; 'I' for Inactive)
ROOT
HETATM    1  C1  UNL     1     -33.988  15.769  -6.091  1.00 20.00     0.029 C 
HETATM    2  C2  UNL     1     -35.370  15.348  -5.589  1.00 20.00     0.048 C 
HETATM    3  C3  UNL     1     -33.441  16.922  -5.260  1.00 20.00     0.170 C 
HETATM    4  C4  UNL     1     -34.742  16.337  -3.363  1.00 20.00     0.255 C 
HETATM    5  C5  UNL     1     -35.384  15.125  -4.068  1.00 20.00     0.152 C 
HETATM    6  O6  UNL     1     -33.430  16.590  -3.874  1.00 20.00    -0.367 OA
HETATM    7 CL7  UNL     1     -34.616  16.147  -1.590  1.00 20.00    -0.092 Cl
HETATM    8 CL8  UNL     1     -37.085  14.907  -3.534  1.00 20.00    -0.098 Cl
HETATM    9 CL9  UNL     1     -34.489  13.607  -3.690  1.00 20.00    -0.098 Cl
ENDROOT
TORSDOF 0
ENDMDL
MODEL 3
REMARK VINA RESULT:      -3.8      2.272      3.032
REMARK  0 active torsions:
REMARK  status: ('A' for Active; 'I' for Inactive)
ROOT
HETATM    1  C1  UNL     1     -33.981  13.856  -3.606  1.00 20.00     0.029 C 
HETATM    2  C2  UNL     1     -34.544  13.506  -4.984  1.00 20.00     0.048 C 
HETATM    3  C3  UNL     1     -32.942  14.962  -3.714  1.00 20.00     0.170 C 
HETATM    4  C4  UNL     1     -33.872  15.814  -5.724  1.00 20.00     0.255 C 
HETATM    5  C5  UNL     1     -34.994  14.757  -5.755  1.00 20.00     0.152 C 
HETATM    6  O6  UNL     1     -33.478  16.103  -4.380  1.00 20.00    -0.367 OA
HETATM    7 CL7  UNL     1     -34.321  17.355  -6.511  1.00 20.00    -0.092 Cl
HETATM    8 CL8  UNL     1     -35.378  14.285  -7.445  1.00 20.00    -0.098 Cl
HETATM    9 CL9  UNL     1     -36.505  15.394  -5.005  1.00 20.00    -0.098 Cl
ENDROOT
TORSDOF 0
ENDMDL
MODEL 4
REMARK VINA RESULT:      -3.8      1.465      2.753
REMARK  0 active torsions:
REMARK  status: ('A' for Active; 'I' for Inactive)
ROOT
HETATM    1  C1  UNL     1     -34.992  13.958  -5.895  1.00 20.00     0.029 C 
HETATM    2  C2  UNL     1     -34.342  15.329  -6.088  1.00 20.00     0.048 C 
HETATM    3  C3  UNL     1     -34.474  13.289  -4.630  1.00 20.00     0.170 C 
HETATM    4  C4  UNL     1     -33.930  15.361  -3.607  1.00 20.00     0.255 C 
HETATM    5  C5  UNL     1     -34.421  16.185  -4.814  1.00 20.00     0.152 C 
HETATM    6  O6  UNL     1     -34.657  14.134  -3.496  1.00 20.00    -0.367 OA
HETATM    7 CL7  UNL     1     -34.067  16.226  -2.049  1.00 20.00    -0.092 Cl
HETATM    8 CL8  UNL     1     -33.404  17.649  -5.040  1.00 20.00    -0.098 Cl
HETATM    9 CL9  UNL     1     -36.124  16.729  -4.578  1.00 20.00    -0.098 Cl
ENDROOT
TORSDOF 0
ENDMDL
MODEL 5
REMARK VINA RESULT:      -3.8      1.591      2.572
REMARK  0 active torsions:
REMARK  status: ('A' for Active; 'I' for Inactive)
ROOT
HETATM    1  C1  UNL     1     -35.974  14.548  -5.191  1.00 20.00     0.029 C 
HETATM    2  C2  UNL     1     -34.507  14.203  -4.928  1.00 20.00     0.048 C 
HETATM    3  C3  UNL     1     -36.720  14.762  -3.882  1.00 20.00     0.170 C 
HETATM    4  C4  UNL     1     -34.746  15.364  -2.709  1.00 20.00     0.255 C 
HETATM    5  C5  UNL     1     -33.851  15.195  -3.954  1.00 20.00     0.152 C 
HETATM    6  O6  UNL     1     -36.073  15.749  -3.082  1.00 20.00    -0.367 OA
HETATM    7 CL7  UNL     1     -34.128  16.571  -1.545  1.00 20.00    -0.092 Cl
HETATM    8 CL8  UNL     1     -32.233  14.564  -3.493  1.00 20.00    -0.098 Cl
HETATM    9 CL9  UNL     1     -33.608  16.770  -4.796  1.00 20.00    -0.098 Cl
ENDROOT
TORSDOF 0
ENDMDL
MODEL 6
REMARK VINA RESULT:      -3.7      1.869      3.085
REMARK  0 active torsions:
REMARK  status: ('A' for Active; 'I' for Inactive)
ROOT
HETATM    1  C1  UNL     1     -33.668  17.557  -4.904  1.00 20.00     0.029 C 
HETATM    2  C2  UNL     1     -33.103  16.176  -4.565  1.00 20.00     0.048 C 
HETATM    3  C3  UNL     1     -34.985  17.430  -5.655  1.00 20.00     0.170 C 
HETATM    4  C4  UNL     1     -35.454  15.296  -4.727  1.00 20.00     0.255 C 
HETATM    5  C5  UNL     1     -34.154  15.276  -3.897  1.00 20.00     0.152 C 
HETATM    6  O6  UNL     1     -35.915  16.636  -4.921  1.00 20.00    -0.367 OA
HETATM    7 CL7  UNL     1     -36.784  14.355  -3.992  1.00 20.00    -0.092 Cl
HETATM    8 CL8  UNL     1     -33.496  13.607  -3.786  1.00 20.00    -0.098 Cl
HETATM    9 CL9  UNL     1     -34.448  15.864  -2.218  1.00 20.00    -0.098 Cl
ENDROOT
TORSDOF 0
ENDMDL
MODEL 7
REMARK VINA RESULT:      -3.7      2.013      3.140
REMARK  0 active torsions:
REMARK  status: ('A' for Active; 'I' for Inactive)
ROOT
HETATM    1  C1  UNL     1     -34.202  17.434  -2.694  1.00 20.00     0.029 C 
HETATM    2  C2  UNL     1     -33.682  15.999  -2.595  1.00 20.00     0.048 C 
HETATM    3  C3  UNL     1     -33.880  18.031  -4.057  1.00 20.00     0.170 C 
HETATM    4  C4  UNL     1     -33.788  15.904  -5.106  1.00 20.00     0.255 C 
HETATM    5  C5  UNL     1     -34.112  15.149  -3.801  1.00 20.00     0.152 C 
HETATM    6  O6  UNL     1     -34.382  17.205  -5.106  1.00 20.00    -0.367 OA
HETATM    7 CL7  UNL     1     -34.332  15.049  -6.579  1.00 20.00    -0.092 Cl
HETATM    8 CL8  UNL     1     -33.239  13.580  -3.740  1.00 20.00    -0.098 Cl
HETATM    9 CL9  UNL     1     -35.877  14.803  -3.675  1.00 20.00    -0.098 Cl
ENDROOT
TORSDOF 0
ENDMDL
MODEL 8
REMARK VINA RESULT:      -3.7      1.705      2.145
REMARK  0 active torsions:
REMARK  status: ('A' for Active; 'I' for Inactive)
ROOT
HETATM    1  C1  UNL     1     -33.670  13.771  -3.788  1.00 20.00     0.029 C 
HETATM    2  C2  UNL     1     -34.233  15.081  -3.237  1.00 20.00     0.048 C 
HETATM    3  C3  UNL     1     -34.618  13.167  -4.814  1.00 20.00     0.170 C 
HETATM    4  C4  UNL     1     -35.574  15.270  -5.357  1.00 20.00     0.255 C 
HETATM    5  C5  UNL     1     -34.677  16.033  -4.360  1.00 20.00     0.152 C 
HETATM    6  O6  UNL     1     -34.912  14.102  -5.850  1.00 20.00    -0.367 OA
HETATM    7 CL7  UNL     1     -36.074  16.255  -6.762  1.00 20.00    -0.092 Cl
HETATM    8 CL8  UNL     1     -35.568  17.411  -3.628  1.00 20.00    -0.098 Cl
HETATM    9 CL9  UNL     1     -33.214  16.695  -5.179  1.00 20.00    -0.098 Cl
ENDROOT
TORSDOF 0
ENDMDL
MODEL 9
REMARK VINA RESULT:      -3.7      1.599      2.714
REMARK  0 active torsions:
REMARK  status: ('A' for Active; 'I' for Inactive)
ROOT
HETATM    1  C1  UNL     1     -36.869  15.195  -3.540  1.00 20.00     0.029 C 
HETATM    2  C2  UNL     1     -36.068  16.484  -3.734  1.00 20.00     0.048 C 
HETATM    3  C3  UNL     1     -36.152  14.014  -4.179  1.00 20.00     0.170 C 
HETATM    4  C4  UNL     1     -34.022  15.043  -3.990  1.00 20.00     0.255 C 
HETATM    5  C5  UNL     1     -34.596  16.311  -3.325  1.00 20.00     0.152 C 
HETATM    6  O6  UNL     1     -34.821  13.897  -3.682  1.00 20.00    -0.367 OA
HETATM    7 CL7  UNL     1     -32.337  14.687  -3.509  1.00 20.00    -0.092 Cl
HETATM    8 CL8  UNL     1     -33.681  17.769  -3.838  1.00 20.00    -0.098 Cl
HETATM    9 CL9  UNL     1     -34.496  16.202  -1.528  1.00 20.00    -0.098 Cl
ENDROOT
TORSDOF 0
ENDMDL
