MODEL 1
REMARK VINA RESULT:      -3.6      0.000      0.000
REMARK  0 active torsions:
REMARK  status: ('A' for Active; 'I' for Inactive)
ROOT
HETATM    1  C1  UNL     1     -34.604  14.686  -4.097  1.00 20.00     0.056 A 
HETATM    2  C2  UNL     1     -34.276  15.622  -5.054  1.00 20.00     0.077 A 
HETATM    3  C3  UNL     1     -34.036  16.332  -2.764  1.00 20.00     0.072 A 
HETATM    4  C4  UNL     1     -35.083  13.308  -4.341  1.00 20.00     0.072 C 
HETATM    5  C5  UNL     1     -33.771  17.107  -1.532  1.00 20.00     0.079 C 
HETATM    6  N6  UNL     1     -34.468  15.091  -2.783  1.00 20.00    -0.249 NA
HETATM    7  S7  UNL     1     -33.774  17.074  -4.289  1.00 20.00    -0.066 SA
HETATM    8 BR8  UNL     1     -34.351  15.387  -6.932  1.00 20.00    -0.041 Br
ENDROOT
TORSDOF 0
ENDMDL
MODEL 2
REMARK VINA RESULT:      -3.5     12.553     13.506
REMARK  0 active torsions:
REMARK  status: ('A' for Active; 'I' for Inactive)
ROOT
HETATM    1  C1  UNL     1     -41.337   5.531  -1.086  1.00 20.00     0.056 A 
HETATM    2  C2  UNL     1     -42.418   6.071  -1.749  1.00 20.00     0.077 A 
HETATM    3  C3  UNL     1     -41.761   3.859  -2.440  1.00 20.00     0.072 A 
HETATM    4  C4  UNL     1     -40.556   6.172  -0.007  1.00 20.00     0.072 C 
HETATM    5  C5  UNL     1     -41.664   2.546  -3.116  1.00 20.00     0.079 C 
HETATM    6  N6  UNL     1     -40.958   4.262  -1.480  1.00 20.00    -0.249 NA
HETATM    7  S7  UNL     1     -42.992   4.954  -2.918  1.00 20.00    -0.066 SA
HETATM    8 BR8  UNL     1     -43.185   7.777  -1.450  1.00 20.00    -0.041 Br
ENDROOT
TORSDOF 0
ENDMDL
MODEL 3
REMARK VINA RESULT:      -3.4      2.998      3.550
REMARK  0 active torsions:
REMARK  status: ('A' for Active; 'I' for Inactive)
ROOT
HETATM    1  C1  UNL     1     -33.377  16.261  -3.882  1.00 20.00     0.056 A 
HETATM    2  C2  UNL     1     -34.067  17.061  -2.997  1.00 20.00     0.077 A 
HETATM    3  C3  UNL     1     -33.652  18.013  -5.171  1.00 20.00     0.072 A 
HETATM    4  C4  UNL     1     -32.876  14.893  -3.626  1.00 20.00     0.072 C 
HETATM    5  C5  UNL     1     -33.595  18.907  -6.348  1.00 20.00     0.079 C 
HETATM    6  N6  UNL     1     -33.138  16.804  -5.130  1.00 20.00    -0.249 NA
HETATM    7  S7  UNL     1     -34.436  18.560  -3.745  1.00 20.00    -0.066 SA
HETATM    8 BR8  UNL     1     -34.552  16.618  -1.220  1.00 20.00    -0.041 Br
ENDROOT
TORSDOF 0
ENDMDL
MODEL 4
REMARK VINA RESULT:      -3.4      1.947      3.286
REMARK  0 active torsions:
REMARK  status: ('A' for Active; 'I' for Inactive)
ROOT
HETATM    1  C1  UNL     1     -34.384  16.157  -2.499  1.00 20.00     0.056 A 
HETATM    2  C2  UNL     1     -34.033  16.994  -3.537  1.00 20.00     0.077 A 
HETATM    3  C3  UNL     1     -34.311  14.671  -4.109  1.00 20.00     0.072 A 
HETATM    4  C4  UNL     1     -34.602  16.546  -1.089  1.00 20.00     0.072 C 
HETATM    5  C5  UNL     1     -34.386  13.378  -4.825  1.00 20.00     0.079 C 
HETATM    6  N6  UNL     1     -34.544  14.825  -2.825  1.00 20.00    -0.249 NA
HETATM    7  S7  UNL     1     -33.894  16.087  -4.986  1.00 20.00    -0.066 SA
HETATM    8 BR8  UNL     1     -33.740  18.863  -3.426  1.00 20.00    -0.041 Br
ENDROOT
TORSDOF 0
ENDMDL
MODEL 5
REMARK VINA RESULT:      -3.4      2.864      3.454
REMARK  0 active torsions:
REMARK  status: ('A' for Active; 'I' for Inactive)
ROOT
HETATM    1  C1  UNL     1     -35.884  14.191  -4.517  1.00 20.00     0.056 A 
HETATM    2  C2  UNL     1     -35.963  14.856  -5.721  1.00 20.00     0.077 A 
HETATM    3  C3  UNL     1     -37.974  14.841  -4.395  1.00 20.00     0.072 A 
HETATM    4  C4  UNL     1     -34.698  13.495  -3.972  1.00 20.00     0.072 C 
HETATM    5  C5  UNL     1     -39.349  15.044  -3.889  1.00 20.00     0.079 C 
HETATM    6  N6  UNL     1     -37.036  14.180  -3.755  1.00 20.00    -0.249 NA
HETATM    7  S7  UNL     1     -37.541  15.501  -5.920  1.00 20.00    -0.066 SA
HETATM    8 BR8  UNL     1     -34.572  15.055  -6.992  1.00 20.00    -0.041 Br
ENDROOT
TORSDOF 0
ENDMDL
MODEL 6
REMARK VINA RESULT:      -3.3      2.390      3.001
REMARK  0 active torsions:
REMARK  status: ('A' for Active; 'I' for Inactive)
ROOT
HETATM    1  C1  UNL     1     -34.175  16.620  -2.873  1.00 20.00     0.056 A 
HETATM    2  C2  UNL     1     -33.944  15.695  -3.869  1.00 20.00     0.077 A 
HETATM    3  C3  UNL     1     -33.703  18.007  -4.504  1.00 20.00     0.072 A 
HETATM    4  C4  UNL     1     -34.551  16.329  -1.472  1.00 20.00     0.072 C 
HETATM    5  C5  UNL     1     -33.467  19.263  -5.248  1.00 20.00     0.079 C 
HETATM    6  N6  UNL     1     -34.037  17.945  -3.234  1.00 20.00    -0.249 NA
HETATM    7  S7  UNL     1     -33.537  16.508  -5.324  1.00 20.00    -0.066 SA
HETATM    8 BR8  UNL     1     -34.048  13.811  -3.703  1.00 20.00    -0.041 Br
ENDROOT
TORSDOF 0
ENDMDL
MODEL 7
REMARK VINA RESULT:      -3.3      1.709      2.429
REMARK  0 active torsions:
REMARK  status: ('A' for Active; 'I' for Inactive)
ROOT
HETATM    1  C1  UNL     1     -34.003  17.081  -4.623  1.00 20.00     0.056 A 
HETATM    2  C2  UNL     1     -34.433  15.797  -4.886  1.00 20.00     0.077 A 
HETATM    3  C3  UNL     1     -34.445  16.455  -2.568  1.00 20.00     0.072 A 
HETATM    4  C4  UNL     1     -33.543  18.076  -5.616  1.00 20.00     0.072 C 
HETATM    5  C5  UNL     1     -34.589  16.487  -1.097  1.00 20.00     0.079 C 
HETATM    6  N6  UNL     1     -34.009  17.460  -3.295  1.00 20.00    -0.249 NA
HETATM    7  S7  UNL     1     -34.864  15.023  -3.417  1.00 20.00    -0.066 SA
HETATM    8 BR8  UNL     1     -34.546  14.974  -6.588  1.00 20.00    -0.041 Br
ENDROOT
TORSDOF 0
ENDMDL
MODEL 8
REMARK VINA RESULT:      -3.3      2.544      3.708
REMARK  0 active torsions:
REMARK  status: ('A' for Active; 'I' for Inactive)
ROOT
HETATM    1  C1  UNL     1     -35.087  15.910  -2.443  1.00 20.00     0.056 A 
HETATM    2  C2  UNL     1     -36.234  16.284  -3.110  1.00 20.00     0.077 A 
HETATM    3  C3  UNL     1     -35.068  14.378  -4.012  1.00 20.00     0.072 A 
HETATM    4  C4  UNL     1     -34.514  16.559  -1.244  1.00 20.00     0.072 C 
HETATM    5  C5  UNL     1     -34.652  13.218  -4.830  1.00 20.00     0.079 C 
HETATM    6  N6  UNL     1     -34.417  14.818  -2.958  1.00 20.00    -0.249 NA
HETATM    7  S7  UNL     1     -36.494  15.232  -4.440  1.00 20.00    -0.066 SA
HETATM    8 BR8  UNL     1     -37.376  17.728  -2.664  1.00 20.00    -0.041 Br
ENDROOT
TORSDOF 0
ENDMDL
MODEL 9
REMARK VINA RESULT:      -3.2      2.513      3.168
REMARK  0 active torsions:
REMARK  status: ('A' for Active; 'I' for Inactive)
ROOT
HETATM    1  C1  UNL     1     -35.344  14.445  -4.126  1.00 20.00     0.056 A 
HETATM    2  C2  UNL     1     -35.263  15.685  -4.723  1.00 20.00     0.077 A 
HETATM    3  C3  UNL     1     -37.487  14.894  -4.244  1.00 20.00     0.072 A 
HETATM    4  C4  UNL     1     -34.211  13.569  -3.759  1.00 20.00     0.072 C 
HETATM    5  C5  UNL     1     -38.954  14.758  -4.113  1.00 20.00     0.079 C 
HETATM    6  N6  UNL     1     -36.618  13.989  -3.851  1.00 20.00    -0.249 NA
HETATM    7  S7  UNL     1     -36.841  16.317  -4.954  1.00 20.00    -0.066 SA
HETATM    8 BR8  UNL     1     -33.677  16.591  -5.226  1.00 20.00    -0.041 Br
ENDROOT
TORSDOF 0
ENDMDL
