MODEL 1
REMARK VINA RESULT:      -4.3      0.000      0.000
REMARK  1 active torsions:
REMARK  status: ('A' for Active; 'I' for Inactive)
REMARK    1  A    between atoms: C8_8  and  N9_9 
ROOT
HETATM    1  C1  UNL     1     -42.199   2.790  -2.912  1.00 20.00     0.158 C 
HETATM    2  N9  UNL     1     -42.650   3.615  -2.208  1.00 20.00    -0.270 NA
HETATM    3  S10 UNL     1     -41.610   1.654  -3.861  1.00 20.00    -0.055 SA
ENDROOT
BRANCH   2   4
HETATM    4  C8  UNL     1     -41.867   4.850  -2.126  1.00 20.00     0.118 C 
HETATM    5  C5  UNL     1     -40.733   4.689  -1.075  1.00 20.00     0.036 C 
HETATM    6  C6  UNL     1     -41.077   5.780  -0.034  1.00 20.00     0.010 C 
HETATM    7  C2  UNL     1     -40.917   7.127  -0.700  1.00 20.00    -0.026 C 
HETATM    8  C4  UNL     1     -42.605   5.703  -0.020  1.00 20.00     0.019 C 
HETATM    9  C3  UNL     1     -41.913   7.251  -1.590  1.00 20.00    -0.024 C 
HETATM   10  C7  UNL     1     -42.731   5.981  -1.524  1.00 20.00     0.033 C 
ENDBRANCH   2   4
TORSDOF 1
ENDMDL
MODEL 2
REMARK VINA RESULT:      -4.3     12.936     14.223
REMARK  1 active torsions:
REMARK  status: ('A' for Active; 'I' for Inactive)
REMARK    1  A    between atoms: C8_8  and  N9_9 
ROOT
HETATM    1  C1  UNL     1     -33.581  18.040  -5.670  1.00 20.00     0.158 C 
HETATM    2  N9  UNL     1     -33.222  17.368  -4.775  1.00 20.00    -0.270 NA
HETATM    3  S10 UNL     1     -34.055  18.973  -6.871  1.00 20.00    -0.055 SA
ENDROOT
BRANCH   2   4
HETATM    4  C8  UNL     1     -33.561  15.949  -4.895  1.00 20.00     0.118 C 
HETATM    5  C5  UNL     1     -35.105  15.778  -4.968  1.00 20.00     0.036 C 
HETATM    6  C6  UNL     1     -35.411  14.926  -3.714  1.00 20.00     0.010 C 
HETATM    7  C2  UNL     1     -34.775  13.568  -3.905  1.00 20.00    -0.026 C 
HETATM    8  C4  UNL     1     -34.419  15.513  -2.708  1.00 20.00     0.019 C 
HETATM    9  C3  UNL     1     -33.447  13.737  -3.823  1.00 20.00    -0.024 C 
HETATM   10  C7  UNL     1     -33.198  15.209  -3.587  1.00 20.00     0.033 C 
ENDBRANCH   2   4
TORSDOF 1
ENDMDL
MODEL 3
REMARK VINA RESULT:      -4.2     12.419     13.533
REMARK  1 active torsions:
REMARK  status: ('A' for Active; 'I' for Inactive)
REMARK    1  A    between atoms: C8_8  and  N9_9 
ROOT
HETATM    1  C1  UNL     1     -34.293  16.717  -1.451  1.00 20.00     0.158 C 
HETATM    2  N9  UNL     1     -34.851  15.768  -1.862  1.00 20.00    -0.270 NA
HETATM    3  S10 UNL     1     -33.539  17.993  -0.869  1.00 20.00    -0.055 SA
ENDROOT
BRANCH   2   4
HETATM    4  C8  UNL     1     -35.005  15.725  -3.317  1.00 20.00     0.118 C 
HETATM    5  C5  UNL     1     -35.881  14.505  -3.721  1.00 20.00     0.036 C 
HETATM    6  C6  UNL     1     -34.918  13.670  -4.596  1.00 20.00     0.010 C 
HETATM    7  C2  UNL     1     -34.612  14.467  -5.844  1.00 20.00    -0.026 C 
HETATM    8  C4  UNL     1     -33.594  13.874  -3.856  1.00 20.00     0.019 C 
HETATM    9  C3  UNL     1     -33.844  15.503  -5.475  1.00 20.00    -0.024 C 
HETATM   10  C7  UNL     1     -33.647  15.402  -3.980  1.00 20.00     0.033 C 
ENDBRANCH   2   4
TORSDOF 1
ENDMDL
MODEL 4
REMARK VINA RESULT:      -4.1     11.106     12.413
REMARK  1 active torsions:
REMARK  status: ('A' for Active; 'I' for Inactive)
REMARK    1  A    between atoms: C8_8  and  N9_9 
ROOT
HETATM    1  C1  UNL     1     -38.221  14.804  -3.806  1.00 20.00     0.158 C 
HETATM    2  N9  UNL     1     -37.225  14.179  -3.802  1.00 20.00    -0.270 NA
HETATM    3  S10 UNL     1     -39.585  15.625  -3.815  1.00 20.00    -0.055 SA
ENDROOT
BRANCH   2   4
HETATM    4  C8  UNL     1     -36.003  14.970  -3.644  1.00 20.00     0.118 C 
HETATM    5  C5  UNL     1     -35.802  15.887  -4.883  1.00 20.00     0.036 C 
HETATM    6  C6  UNL     1     -34.455  15.391  -5.458  1.00 20.00     0.010 C 
HETATM    7  C2  UNL     1     -33.372  15.710  -4.453  1.00 20.00    -0.026 C 
HETATM    8  C4  UNL     1     -34.567  13.884  -5.214  1.00 20.00     0.019 C 
HETATM    9  C3  UNL     1     -33.556  14.898  -3.401  1.00 20.00    -0.024 C 
HETATM   10  C7  UNL     1     -34.766  14.045  -3.701  1.00 20.00     0.033 C 
ENDBRANCH   2   4
TORSDOF 1
ENDMDL
MODEL 5
REMARK VINA RESULT:      -4.1     12.593     13.836
REMARK  1 active torsions:
REMARK  status: ('A' for Active; 'I' for Inactive)
REMARK    1  A    between atoms: C8_8  and  N9_9 
ROOT
HETATM    1  C1  UNL     1     -34.179  17.209  -1.602  1.00 20.00     0.158 C 
HETATM    2  N9  UNL     1     -33.773  17.199  -2.705  1.00 20.00    -0.270 NA
HETATM    3  S10 UNL     1     -34.729  17.252  -0.108  1.00 20.00    -0.055 SA
ENDROOT
BRANCH   2   4
HETATM    4  C8  UNL     1     -33.569  15.866  -3.274  1.00 20.00     0.118 C 
HETATM    5  C5  UNL     1     -33.253  15.981  -4.793  1.00 20.00     0.036 C 
HETATM    6  C6  UNL     1     -34.424  15.207  -5.442  1.00 20.00     0.010 C 
HETATM    7  C2  UNL     1     -34.302  13.754  -5.043  1.00 20.00    -0.026 C 
HETATM    8  C4  UNL     1     -35.585  15.607  -4.529  1.00 20.00     0.019 C 
HETATM    9  C3  UNL     1     -34.593  13.677  -3.735  1.00 20.00    -0.024 C 
HETATM   10  C7  UNL     1     -34.899  15.079  -3.262  1.00 20.00     0.033 C 
ENDBRANCH   2   4
TORSDOF 1
ENDMDL
MODEL 6
REMARK VINA RESULT:      -4.1      2.703      3.426
REMARK  1 active torsions:
REMARK  status: ('A' for Active; 'I' for Inactive)
REMARK    1  A    between atoms: C8_8  and  N9_9 
ROOT
HETATM    1  C1  UNL     1     -42.956   7.232  -3.831  1.00 20.00     0.158 C 
HETATM    2  N9  UNL     1     -43.077   6.125  -3.454  1.00 20.00    -0.270 NA
HETATM    3  S10 UNL     1     -42.798   8.723  -4.369  1.00 20.00    -0.055 SA
ENDROOT
BRANCH   2   4
HETATM    4  C8  UNL     1     -42.909   5.945  -2.011  1.00 20.00     0.118 C 
HETATM    5  C5  UNL     1     -41.477   6.378  -1.587  1.00 20.00     0.036 C 
HETATM    6  C6  UNL     1     -40.882   5.070  -1.014  1.00 20.00     0.010 C 
HETATM    7  C2  UNL     1     -41.657   4.711   0.233  1.00 20.00    -0.026 C 
HETATM    8  C4  UNL     1     -41.478   4.032  -1.969  1.00 20.00     0.019 C 
HETATM    9  C3  UNL     1     -42.882   4.327  -0.157  1.00 20.00    -0.024 C 
HETATM   10  C7  UNL     1     -42.925   4.439  -1.664  1.00 20.00     0.033 C 
ENDBRANCH   2   4
TORSDOF 1
ENDMDL
MODEL 7
REMARK VINA RESULT:      -4.0      0.919      1.780
REMARK  1 active torsions:
REMARK  status: ('A' for Active; 'I' for Inactive)
REMARK    1  A    between atoms: C8_8  and  N9_9 
ROOT
HETATM    1  C1  UNL     1     -41.537   2.723  -3.036  1.00 20.00     0.158 C 
HETATM    2  N9  UNL     1     -41.116   3.555  -2.321  1.00 20.00    -0.270 NA
HETATM    3  S10 UNL     1     -42.081   1.587  -4.012  1.00 20.00    -0.055 SA
ENDROOT
BRANCH   2   4
HETATM    4  C8  UNL     1     -42.133   4.401  -1.695  1.00 20.00     0.118 C 
HETATM    5  C5  UNL     1     -42.227   5.760  -2.446  1.00 20.00     0.036 C 
HETATM    6  C6  UNL     1     -41.845   6.781  -1.349  1.00 20.00     0.010 C 
HETATM    7  C2  UNL     1     -42.921   6.752  -0.288  1.00 20.00    -0.026 C 
HETATM    8  C4  UNL     1     -40.753   6.014  -0.599  1.00 20.00     0.019 C 
HETATM    9  C3  UNL     1     -42.812   5.580   0.356  1.00 20.00    -0.024 C 
HETATM   10  C7  UNL     1     -41.669   4.825  -0.283  1.00 20.00     0.033 C 
ENDBRANCH   2   4
TORSDOF 1
ENDMDL
MODEL 8
REMARK VINA RESULT:      -4.0     11.161     12.379
REMARK  1 active torsions:
REMARK  status: ('A' for Active; 'I' for Inactive)
REMARK    1  A    between atoms: C8_8  and  N9_9 
ROOT
HETATM    1  C1  UNL     1     -38.146  14.850  -3.913  1.00 20.00     0.158 C 
HETATM    2  N9  UNL     1     -37.198  14.175  -3.750  1.00 20.00    -0.270 NA
HETATM    3  S10 UNL     1     -39.446  15.747  -4.117  1.00 20.00    -0.055 SA
ENDROOT
BRANCH   2   4
HETATM    4  C8  UNL     1     -35.983  14.648  -4.416  1.00 20.00     0.118 C 
HETATM    5  C5  UNL     1     -34.788  13.720  -4.058  1.00 20.00     0.036 C 
HETATM    6  C6  UNL     1     -33.813  14.682  -3.341  1.00 20.00     0.010 C 
HETATM    7  C2  UNL     1     -33.335  15.701  -4.350  1.00 20.00    -0.026 C 
HETATM    8  C4  UNL     1     -34.790  15.563  -2.559  1.00 20.00     0.019 C 
HETATM    9  C3  UNL     1     -34.377  16.499  -4.631  1.00 20.00    -0.024 C 
HETATM   10  C7  UNL     1     -35.550  16.005  -3.816  1.00 20.00     0.033 C 
ENDBRANCH   2   4
TORSDOF 1
ENDMDL
MODEL 9
REMARK VINA RESULT:      -4.0     12.308     12.994
REMARK  1 active torsions:
REMARK  status: ('A' for Active; 'I' for Inactive)
REMARK    1  A    between atoms: C8_8  and  N9_9 
ROOT
HETATM    1  C1  UNL     1     -36.450  15.096  -6.639  1.00 20.00     0.158 C 
HETATM    2  N9  UNL     1     -35.380  14.911  -6.189  1.00 20.00    -0.270 NA
HETATM    3  S10 UNL     1     -37.894  15.326  -7.269  1.00 20.00    -0.055 SA
ENDROOT
BRANCH   2   4
HETATM    4  C8  UNL     1     -35.057  15.725  -5.015  1.00 20.00     0.118 C 
HETATM    5  C5  UNL     1     -33.520  15.944  -4.929  1.00 20.00     0.036 C 
HETATM    6  C6  UNL     1     -33.157  15.281  -3.580  1.00 20.00     0.010 C 
HETATM    7  C2  UNL     1     -33.811  16.080  -2.476  1.00 20.00    -0.026 C 
HETATM    8  C4  UNL     1     -34.095  14.072  -3.583  1.00 20.00     0.019 C 
HETATM    9  C3  UNL     1     -35.133  15.865  -2.559  1.00 20.00    -0.024 C 
HETATM   10  C7  UNL     1     -35.359  14.929  -3.725  1.00 20.00     0.033 C 
ENDBRANCH   2   4
TORSDOF 1
ENDMDL
