MODEL 1
REMARK VINA RESULT:      -4.2      0.000      0.000
REMARK  1 active torsions:
REMARK  status: ('A' for Active; 'I' for Inactive)
REMARK    1  A    between atoms: C9_9  and  C10_10 
ROOT
HETATM    1  C1  UNL     1     -34.437  16.507  -1.149  1.00 20.00     0.015 C 
HETATM    2  C2  UNL     1     -36.136  17.666  -2.651  1.00 20.00     0.015 C 
HETATM    3  C5  UNL     1     -33.622  17.774  -0.913  1.00 20.00     0.074 C 
HETATM    4  C6  UNL     1     -35.463  19.029  -2.541  1.00 20.00     0.074 C 
HETATM    5  C9  UNL     1     -35.189  16.467  -2.488  1.00 20.00    -0.009 C 
HETATM    6  S11 UNL     1     -34.659  19.262  -0.930  1.00 20.00    -0.169 SA
ENDROOT
BRANCH   5   7
HETATM    7  C10 UNL     1     -34.231  16.333  -3.675  1.00 20.00    -0.009 C 
HETATM    8  C3  UNL     1     -33.282  15.136  -3.510  1.00 20.00     0.015 C 
HETATM    9  C7  UNL     1     -33.952  13.771  -3.618  1.00 20.00     0.074 C 
HETATM   10  S12 UNL     1     -34.755  13.533  -5.227  1.00 20.00    -0.169 SA
HETATM   11  C8  UNL     1     -35.796  15.020  -5.247  1.00 20.00     0.074 C 
HETATM   12  C4  UNL     1     -34.984  16.288  -5.013  1.00 20.00     0.015 C 
ENDBRANCH   5   7
TORSDOF 1
ENDMDL
MODEL 2
REMARK VINA RESULT:      -4.1      1.094      1.191
REMARK  1 active torsions:
REMARK  status: ('A' for Active; 'I' for Inactive)
REMARK    1  A    between atoms: C9_9  and  C10_10 
ROOT
HETATM    1  C1  UNL     1     -34.816  16.789  -1.511  1.00 20.00     0.015 C 
HETATM    2  C2  UNL     1     -34.684  18.426  -3.458  1.00 20.00     0.015 C 
HETATM    3  C5  UNL     1     -33.650  17.422  -0.761  1.00 20.00     0.074 C 
HETATM    4  C6  UNL     1     -33.506  19.196  -2.870  1.00 20.00     0.074 C 
HETATM    5  C9  UNL     1     -34.761  16.951  -3.038  1.00 20.00    -0.009 C 
HETATM    6  S11 UNL     1     -33.541  19.209  -1.055  1.00 20.00    -0.169 SA
ENDROOT
BRANCH   5   7
HETATM    7  C10 UNL     1     -33.631  16.123  -3.658  1.00 20.00    -0.009 C 
HETATM    8  C3  UNL     1     -33.763  14.631  -3.316  1.00 20.00     0.015 C 
HETATM    9  C7  UNL     1     -34.937  13.925  -3.985  1.00 20.00     0.074 C 
HETATM   10  S12 UNL     1     -34.835  14.001  -5.794  1.00 20.00    -0.169 SA
HETATM   11  C8  UNL     1     -34.669  15.797  -5.994  1.00 20.00     0.074 C 
HETATM   12  C4  UNL     1     -33.515  16.358  -5.171  1.00 20.00     0.015 C 
ENDBRANCH   5   7
TORSDOF 1
ENDMDL
MODEL 3
REMARK VINA RESULT:      -4.1      1.097      4.527
REMARK  1 active torsions:
REMARK  status: ('A' for Active; 'I' for Inactive)
REMARK    1  A    between atoms: C9_9  and  C10_10 
ROOT
HETATM    1  C1  UNL     1     -33.752  14.615  -3.396  1.00 20.00     0.015 C 
HETATM    2  C2  UNL     1     -33.559  16.355  -5.245  1.00 20.00     0.015 C 
HETATM    3  C5  UNL     1     -34.932  13.900  -4.045  1.00 20.00     0.074 C 
HETATM    4  C6  UNL     1     -34.724  15.786  -6.048  1.00 20.00     0.074 C 
HETATM    5  C9  UNL     1     -33.643  16.110  -3.731  1.00 20.00    -0.009 C 
HETATM    6  S11 UNL     1     -34.868  13.987  -5.856  1.00 20.00    -0.169 SA
ENDROOT
BRANCH   5   7
HETATM    7  C10 UNL     1     -34.769  16.922  -3.085  1.00 20.00    -0.009 C 
HETATM    8  C3  UNL     1     -34.761  16.791  -1.554  1.00 20.00     0.015 C 
HETATM    9  C7  UNL     1     -33.583  17.468  -0.862  1.00 20.00     0.074 C 
HETATM   10  S12 UNL     1     -33.532  19.250  -1.196  1.00 20.00    -0.169 SA
HETATM   11  C8  UNL     1     -33.567  19.200  -3.010  1.00 20.00     0.074 C 
HETATM   12  C4  UNL     1     -34.746  18.390  -3.536  1.00 20.00     0.015 C 
ENDBRANCH   5   7
TORSDOF 1
ENDMDL
MODEL 4
REMARK VINA RESULT:      -3.9      1.175      4.834
REMARK  1 active torsions:
REMARK  status: ('A' for Active; 'I' for Inactive)
REMARK    1  A    between atoms: C9_9  and  C10_10 
ROOT
HETATM    1  C1  UNL     1     -36.750  15.667  -4.328  1.00 20.00     0.015 C 
HETATM    2  C2  UNL     1     -34.772  14.388  -3.361  1.00 20.00     0.015 C 
HETATM    3  C5  UNL     1     -36.151  15.749  -5.727  1.00 20.00     0.074 C 
HETATM    4  C6  UNL     1     -34.007  14.363  -4.680  1.00 20.00     0.074 C 
HETATM    5  C9  UNL     1     -35.720  15.584  -3.191  1.00 20.00    -0.009 C 
HETATM    6  S11 UNL     1     -35.122  14.306  -6.112  1.00 20.00    -0.169 SA
ENDROOT
BRANCH   5   7
HETATM    7  C10 UNL     1     -34.953  16.899  -3.021  1.00 20.00    -0.009 C 
HETATM    8  C3  UNL     1     -35.899  18.106  -2.936  1.00 20.00     0.015 C 
HETATM    9  C7  UNL     1     -36.730  18.175  -1.660  1.00 20.00     0.074 C 
HETATM   10  S12 UNL     1     -35.691  18.269  -0.176  1.00 20.00    -0.169 SA
HETATM   11  C8  UNL     1     -34.654  16.808  -0.464  1.00 20.00     0.074 C 
HETATM   12  C4  UNL     1     -33.983  16.844  -1.832  1.00 20.00     0.015 C 
ENDBRANCH   5   7
TORSDOF 1
ENDMDL
MODEL 5
REMARK VINA RESULT:      -3.9      1.183      2.545
REMARK  1 active torsions:
REMARK  status: ('A' for Active; 'I' for Inactive)
REMARK    1  A    between atoms: C9_9  and  C10_10 
ROOT
HETATM    1  C1  UNL     1     -35.703  18.151  -3.034  1.00 20.00     0.015 C 
HETATM    2  C2  UNL     1     -33.929  16.745  -1.868  1.00 20.00     0.015 C 
HETATM    3  C5  UNL     1     -36.571  18.283  -1.788  1.00 20.00     0.074 C 
HETATM    4  C6  UNL     1     -34.649  16.759  -0.524  1.00 20.00     0.074 C 
HETATM    5  C9  UNL     1     -34.849  16.875  -3.091  1.00 20.00    -0.009 C 
HETATM    6  S11 UNL     1     -35.581  18.296  -0.268  1.00 20.00    -0.169 SA
ENDROOT
BRANCH   5   7
HETATM    7  C10 UNL     1     -35.709  15.624  -3.292  1.00 20.00    -0.009 C 
HETATM    8  C3  UNL     1     -36.690  15.788  -4.464  1.00 20.00     0.015 C 
HETATM    9  C7  UNL     1     -36.038  15.825  -5.841  1.00 20.00     0.074 C 
HETATM   10  S12 UNL     1     -35.110  14.307  -6.195  1.00 20.00    -0.169 SA
HETATM   11  C8  UNL     1     -34.044  14.277  -4.726  1.00 20.00     0.074 C 
HETATM   12  C4  UNL     1     -34.850  14.358  -3.435  1.00 20.00     0.015 C 
ENDBRANCH   5   7
TORSDOF 1
ENDMDL
MODEL 6
REMARK VINA RESULT:      -3.8      1.458      2.751
REMARK  1 active torsions:
REMARK  status: ('A' for Active; 'I' for Inactive)
REMARK    1  A    between atoms: C9_9  and  C10_10 
ROOT
HETATM    1  C1  UNL     1     -33.664  18.018  -4.080  1.00 20.00     0.015 C 
HETATM    2  C2  UNL     1     -33.732  15.812  -2.808  1.00 20.00     0.015 C 
HETATM    3  C5  UNL     1     -34.426  18.784  -3.005  1.00 20.00     0.074 C 
HETATM    4  C6  UNL     1     -34.500  16.395  -1.626  1.00 20.00     0.074 C 
HETATM    5  C9  UNL     1     -33.986  16.517  -4.149  1.00 20.00    -0.009 C 
HETATM    6  S11 UNL     1     -34.090  18.140  -1.342  1.00 20.00    -0.169 SA
ENDROOT
BRANCH   5   7
HETATM    7  C10 UNL     1     -35.404  16.262  -4.666  1.00 20.00    -0.009 C 
HETATM    8  C3  UNL     1     -35.654  16.958  -6.013  1.00 20.00     0.015 C 
HETATM    9  C7  UNL     1     -34.886  16.365  -7.189  1.00 20.00     0.074 C 
HETATM   10  S12 UNL     1     -35.301  14.620  -7.461  1.00 20.00    -0.169 SA
HETATM   11  C8  UNL     1     -34.968  13.986  -5.793  1.00 20.00     0.074 C 
HETATM   12  C4  UNL     1     -35.730  14.763  -4.725  1.00 20.00     0.015 C 
ENDBRANCH   5   7
TORSDOF 1
ENDMDL
MODEL 7
REMARK VINA RESULT:      -3.8      1.434      4.835
REMARK  1 active torsions:
REMARK  status: ('A' for Active; 'I' for Inactive)
REMARK    1  A    between atoms: C9_9  and  C10_10 
ROOT
HETATM    1  C1  UNL     1     -35.609  16.967  -5.935  1.00 20.00     0.015 C 
HETATM    2  C2  UNL     1     -35.615  14.768  -4.649  1.00 20.00     0.015 C 
HETATM    3  C5  UNL     1     -34.814  16.402  -7.107  1.00 20.00     0.074 C 
HETATM    4  C6  UNL     1     -34.820  14.020  -5.714  1.00 20.00     0.074 C 
HETATM    5  C9  UNL     1     -35.343  16.279  -4.587  1.00 20.00    -0.009 C 
HETATM    6  S11 UNL     1     -35.165  14.644  -7.383  1.00 20.00    -0.169 SA
ENDROOT
BRANCH   5   7
HETATM    7  C10 UNL     1     -33.937  16.582  -4.061  1.00 20.00    -0.009 C 
HETATM    8  C3  UNL     1     -33.667  18.093  -3.991  1.00 20.00     0.015 C 
HETATM    9  C7  UNL     1     -34.462  18.834  -2.921  1.00 20.00     0.074 C 
HETATM   10  S12 UNL     1     -34.114  18.202  -1.257  1.00 20.00    -0.169 SA
HETATM   11  C8  UNL     1     -34.463  16.444  -1.542  1.00 20.00     0.074 C 
HETATM   12  C4  UNL     1     -33.668  15.888  -2.718  1.00 20.00     0.015 C 
ENDBRANCH   5   7
TORSDOF 1
ENDMDL
MODEL 8
REMARK VINA RESULT:      -3.6      1.480      2.475
REMARK  1 active torsions:
REMARK  status: ('A' for Active; 'I' for Inactive)
REMARK    1  A    between atoms: C9_9  and  C10_10 
ROOT
HETATM    1  C1  UNL     1     -35.905  18.133  -1.209  1.00 20.00     0.015 C 
HETATM    2  C2  UNL     1     -33.447  18.548  -1.731  1.00 20.00     0.015 C 
HETATM    3  C5  UNL     1     -35.651  17.823   0.261  1.00 20.00     0.074 C 
HETATM    4  C6  UNL     1     -32.987  18.272  -0.304  1.00 20.00     0.074 C 
HETATM    5  C9  UNL     1     -34.730  17.813  -2.146  1.00 20.00    -0.009 C 
HETATM    6  S11 UNL     1     -34.240  18.754   0.919  1.00 20.00    -0.169 SA
ENDROOT
BRANCH   5   7
HETATM    7  C10 UNL     1     -34.504  16.304  -2.280  1.00 20.00    -0.009 C 
HETATM    8  C3  UNL     1     -35.744  15.588  -2.838  1.00 20.00     0.015 C 
HETATM    9  C7  UNL     1     -36.050  15.890  -4.301  1.00 20.00     0.074 C 
HETATM   10  S12 UNL     1     -34.682  15.414  -5.393  1.00 20.00    -0.169 SA
HETATM   11  C8  UNL     1     -33.339  16.322  -4.578  1.00 20.00     0.074 C 
HETATM   12  C4  UNL     1     -33.242  15.986  -3.094  1.00 20.00     0.015 C 
ENDBRANCH   5   7
TORSDOF 1
ENDMDL
MODEL 9
REMARK VINA RESULT:      -3.6      1.788      4.613
REMARK  1 active torsions:
REMARK  status: ('A' for Active; 'I' for Inactive)
REMARK    1  A    between atoms: C9_9  and  C10_10 
ROOT
HETATM    1  C1  UNL     1     -34.265  15.635  -6.094  1.00 20.00     0.015 C 
HETATM    2  C2  UNL     1     -36.527  16.798  -5.976  1.00 20.00     0.015 C 
HETATM    3  C5  UNL     1     -34.810  14.417  -6.832  1.00 20.00     0.074 C 
HETATM    4  C6  UNL     1     -37.262  15.678  -6.704  1.00 20.00     0.074 C 
HETATM    5  C9  UNL     1     -35.284  16.349  -5.194  1.00 20.00    -0.009 C 
HETATM    6  S11 UNL     1     -36.199  14.845  -7.918  1.00 20.00    -0.169 SA
ENDROOT
BRANCH   5   7
HETATM    7  C10 UNL     1     -35.655  15.504  -3.972  1.00 20.00    -0.009 C 
HETATM    8  C3  UNL     1     -34.413  15.070  -3.179  1.00 20.00     0.015 C 
HETATM    9  C7  UNL     1     -33.696  16.200  -2.449  1.00 20.00     0.074 C 
HETATM   10  S12 UNL     1     -34.775  17.025  -1.246  1.00 20.00    -0.169 SA
HETATM   11  C8  UNL     1     -36.161  17.436  -2.343  1.00 20.00     0.074 C 
HETATM   12  C4  UNL     1     -36.688  16.211  -3.081  1.00 20.00     0.015 C 
ENDBRANCH   5   7
TORSDOF 1
ENDMDL
