MODEL 1
REMARK VINA RESULT:      -4.4      0.000      0.000
REMARK  3 active torsions:
REMARK  status: ('A' for Active; 'I' for Inactive)
REMARK    1  A    between atoms: C2_2  and  C5_5 
REMARK    2  A    between atoms: C2_2  and  O10_10 
REMARK    3  A    between atoms: C7_7  and  O10_10 
ROOT
HETATM    1  C1  UNL     1     -34.627  16.214  -1.730  1.00 20.00     0.065 C 
HETATM    2  C3  UNL     1     -33.284  15.800  -3.832  1.00 20.00     0.036 A 
HETATM    3  C4  UNL     1     -34.599  15.801  -3.102  1.00 20.00     0.107 A 
HETATM    4  C5  UNL     1     -33.927  14.495  -3.454  1.00 20.00     0.104 A 
HETATM    5  N8  UNL     1     -34.651  16.548  -0.620  1.00 20.00    -0.197 NA
ENDROOT
BRANCH   4   6
HETATM    6  C2  UNL     1     -34.509  13.650  -4.503  1.00 20.00     0.264 C 
HETATM    7  O9  UNL     1     -35.101  12.601  -4.288  1.00 20.00    -0.265 OA
BRANCH   6   8
HETATM    8  O10 UNL     1     -34.285  14.218  -5.722  1.00 20.00    -0.322 OA
BRANCH   8   9
HETATM    9  C7  UNL     1     -35.447  14.405  -6.536  1.00 20.00     0.174 C 
HETATM   10  C6  UNL     1     -35.019  14.880  -7.908  1.00 20.00     0.034 C 
ENDBRANCH   8   9
ENDBRANCH   6   8
ENDBRANCH   4   6
TORSDOF 3
ENDMDL
MODEL 2
REMARK VINA RESULT:      -4.3     10.660     11.919
REMARK  3 active torsions:
REMARK  status: ('A' for Active; 'I' for Inactive)
REMARK    1  A    between atoms: C2_2  and  C5_5 
REMARK    2  A    between atoms: C2_2  and  O10_10 
REMARK    3  A    between atoms: C7_7  and  O10_10 
ROOT
HETATM    1  C1  UNL     1     -32.190   8.734   1.616  1.00 20.00     0.065 C 
HETATM    2  C3  UNL     1     -31.651   7.449   3.726  1.00 20.00     0.036 A 
HETATM    3  C4  UNL     1     -32.144   7.479   2.305  1.00 20.00     0.107 A 
HETATM    4  C5  UNL     1     -33.112   7.237   3.440  1.00 20.00     0.104 A 
HETATM    5  N8  UNL     1     -32.227   9.750   1.058  1.00 20.00    -0.197 NA
ENDROOT
BRANCH   4   6
HETATM    6  C2  UNL     1     -33.692   5.901   3.614  1.00 20.00     0.264 C 
HETATM    7  O9  UNL     1     -34.328   5.312   2.749  1.00 20.00    -0.265 OA
BRANCH   6   8
HETATM    8  O10 UNL     1     -33.410   5.441   4.866  1.00 20.00    -0.322 OA
BRANCH   8   9
HETATM    9  C7  UNL     1     -34.465   5.580   5.824  1.00 20.00     0.174 C 
HETATM   10  C6  UNL     1     -35.158   4.244   5.992  1.00 20.00     0.034 C 
ENDBRANCH   8   9
ENDBRANCH   6   8
ENDBRANCH   4   6
TORSDOF 3
ENDMDL
MODEL 3
REMARK VINA RESULT:      -4.2     10.971     11.937
REMARK  3 active torsions:
REMARK  status: ('A' for Active; 'I' for Inactive)
REMARK    1  A    between atoms: C2_2  and  C5_5 
REMARK    2  A    between atoms: C2_2  and  O10_10 
REMARK    3  A    between atoms: C7_7  and  O10_10 
ROOT
HETATM    1  C1  UNL     1     -34.954   4.545   5.632  1.00 20.00     0.065 C 
HETATM    2  C3  UNL     1     -35.275   5.775   3.447  1.00 20.00     0.036 A 
HETATM    3  C4  UNL     1     -34.441   4.902   4.343  1.00 20.00     0.107 A 
HETATM    4  C5  UNL     1     -34.039   6.337   4.093  1.00 20.00     0.104 A 
HETATM    5  N8  UNL     1     -35.369   4.255   6.675  1.00 20.00    -0.197 NA
ENDROOT
BRANCH   4   6
HETATM    6  C2  UNL     1     -32.860   6.617   3.266  1.00 20.00     0.264 C 
HETATM    7  O9  UNL     1     -31.861   5.909   3.235  1.00 20.00    -0.265 OA
BRANCH   6   8
HETATM    8  O10 UNL     1     -33.061   7.765   2.559  1.00 20.00    -0.322 OA
BRANCH   8   9
HETATM    9  C7  UNL     1     -31.905   8.292   1.900  1.00 20.00     0.174 C 
HETATM   10  C6  UNL     1     -32.308   9.501   1.084  1.00 20.00     0.034 C 
ENDBRANCH   8   9
ENDBRANCH   6   8
ENDBRANCH   4   6
TORSDOF 3
ENDMDL
MODEL 4
REMARK VINA RESULT:      -4.1      3.397      5.124
REMARK  3 active torsions:
REMARK  status: ('A' for Active; 'I' for Inactive)
REMARK    1  A    between atoms: C2_2  and  C5_5 
REMARK    2  A    between atoms: C2_2  and  O10_10 
REMARK    3  A    between atoms: C7_7  and  O10_10 
ROOT
HETATM    1  C1  UNL     1     -34.403  13.740  -3.802  1.00 20.00     0.065 C 
HETATM    2  C3  UNL     1     -33.586  16.130  -3.920  1.00 20.00     0.036 A 
HETATM    3  C4  UNL     1     -33.742  14.839  -3.164  1.00 20.00     0.107 A 
HETATM    4  C5  UNL     1     -34.558  16.051  -2.775  1.00 20.00     0.104 A 
HETATM    5  N8  UNL     1     -34.938  12.850  -4.319  1.00 20.00    -0.197 NA
ENDROOT
BRANCH   4   6
HETATM    6  C2  UNL     1     -34.250  16.748  -1.521  1.00 20.00     0.264 C 
HETATM    7  O9  UNL     1     -34.738  16.456  -0.437  1.00 20.00    -0.265 OA
BRANCH   6   8
HETATM    8  O10 UNL     1     -33.354  17.747  -1.764  1.00 20.00    -0.322 OA
BRANCH   8   9
HETATM    9  C7  UNL     1     -33.484  18.904  -0.932  1.00 20.00     0.174 C 
HETATM   10  C6  UNL     1     -32.278  18.996  -0.021  1.00 20.00     0.034 C 
ENDBRANCH   8   9
ENDBRANCH   6   8
ENDBRANCH   4   6
TORSDOF 3
ENDMDL
MODEL 5
REMARK VINA RESULT:      -4.1      1.658      2.354
REMARK  3 active torsions:
REMARK  status: ('A' for Active; 'I' for Inactive)
REMARK    1  A    between atoms: C2_2  and  C5_5 
REMARK    2  A    between atoms: C2_2  and  O10_10 
REMARK    3  A    between atoms: C7_7  and  O10_10 
ROOT
HETATM    1  C1  UNL     1     -34.613  16.892  -0.528  1.00 20.00     0.065 C 
HETATM    2  C3  UNL     1     -35.278  16.867  -2.967  1.00 20.00     0.036 A 
HETATM    3  C4  UNL     1     -34.731  16.163  -1.756  1.00 20.00     0.107 A 
HETATM    4  C5  UNL     1     -33.816  16.521  -2.904  1.00 20.00     0.104 A 
HETATM    5  N8  UNL     1     -34.518  17.482   0.466  1.00 20.00    -0.197 NA
ENDROOT
BRANCH   4   6
HETATM    6  C2  UNL     1     -33.292  15.452  -3.762  1.00 20.00     0.264 C 
HETATM    7  O9  UNL     1     -32.296  14.791  -3.501  1.00 20.00    -0.265 OA
BRANCH   6   8
HETATM    8  O10 UNL     1     -34.083  15.325  -4.865  1.00 20.00    -0.322 OA
BRANCH   8   9
HETATM    9  C7  UNL     1     -34.394  13.981  -5.247  1.00 20.00     0.174 C 
HETATM   10  C6  UNL     1     -35.377  13.400  -4.253  1.00 20.00     0.034 C 
ENDBRANCH   8   9
ENDBRANCH   6   8
ENDBRANCH   4   6
TORSDOF 3
ENDMDL
MODEL 6
REMARK VINA RESULT:      -4.0      2.393      2.933
REMARK  3 active torsions:
REMARK  status: ('A' for Active; 'I' for Inactive)
REMARK    1  A    between atoms: C2_2  and  C5_5 
REMARK    2  A    between atoms: C2_2  and  O10_10 
REMARK    3  A    between atoms: C7_7  and  O10_10 
ROOT
HETATM    1  C1  UNL     1     -33.631  16.926  -4.805  1.00 20.00     0.065 C 
HETATM    2  C3  UNL     1     -33.086  14.748  -3.643  1.00 20.00     0.036 A 
HETATM    3  C4  UNL     1     -33.691  15.495  -4.800  1.00 20.00     0.107 A 
HETATM    4  C5  UNL     1     -34.582  14.809  -3.790  1.00 20.00     0.104 A 
HETATM    5  N8  UNL     1     -33.582  18.085  -4.810  1.00 20.00    -0.197 NA
ENDROOT
BRANCH   4   6
HETATM    6  C2  UNL     1     -35.315  13.601  -4.185  1.00 20.00     0.264 C 
HETATM    7  O9  UNL     1     -34.803  12.643  -4.750  1.00 20.00    -0.265 OA
BRANCH   6   8
HETATM    8  O10 UNL     1     -36.624  13.725  -3.826  1.00 20.00    -0.322 OA
BRANCH   8   9
HETATM    9  C7  UNL     1     -37.263  14.937  -4.241  1.00 20.00     0.174 C 
HETATM   10  C6  UNL     1     -38.754  14.815  -4.006  1.00 20.00     0.034 C 
ENDBRANCH   8   9
ENDBRANCH   6   8
ENDBRANCH   4   6
TORSDOF 3
ENDMDL
MODEL 7
REMARK VINA RESULT:      -4.0      2.639      4.335
REMARK  3 active torsions:
REMARK  status: ('A' for Active; 'I' for Inactive)
REMARK    1  A    between atoms: C2_2  and  C5_5 
REMARK    2  A    between atoms: C2_2  and  O10_10 
REMARK    3  A    between atoms: C7_7  and  O10_10 
ROOT
HETATM    1  C1  UNL     1     -37.017  14.406  -3.946  1.00 20.00     0.065 C 
HETATM    2  C3  UNL     1     -34.945  14.970  -5.281  1.00 20.00     0.036 A 
HETATM    3  C4  UNL     1     -35.590  14.363  -4.065  1.00 20.00     0.107 A 
HETATM    4  C5  UNL     1     -34.812  15.653  -3.948  1.00 20.00     0.104 A 
HETATM    5  N8  UNL     1     -38.172  14.440  -3.850  1.00 20.00    -0.197 NA
ENDROOT
BRANCH   4   6
HETATM    6  C2  UNL     1     -33.514  15.647  -3.263  1.00 20.00     0.264 C 
HETATM    7  O9  UNL     1     -32.561  14.960  -3.607  1.00 20.00    -0.265 OA
BRANCH   6   8
HETATM    8  O10 UNL     1     -33.551  16.512  -2.210  1.00 20.00    -0.322 OA
BRANCH   8   9
HETATM    9  C7  UNL     1     -34.675  16.369  -1.336  1.00 20.00     0.174 C 
HETATM   10  C6  UNL     1     -34.510  17.308  -0.160  1.00 20.00     0.034 C 
ENDBRANCH   8   9
ENDBRANCH   6   8
ENDBRANCH   4   6
TORSDOF 3
ENDMDL
MODEL 8
REMARK VINA RESULT:      -3.9      3.277      4.645
REMARK  3 active torsions:
REMARK  status: ('A' for Active; 'I' for Inactive)
REMARK    1  A    between atoms: C2_2  and  C5_5 
REMARK    2  A    between atoms: C2_2  and  O10_10 
REMARK    3  A    between atoms: C7_7  and  O10_10 
ROOT
HETATM    1  C1  UNL     1     -34.729  13.603  -3.986  1.00 20.00     0.065 C 
HETATM    2  C3  UNL     1     -32.991  15.406  -3.636  1.00 20.00     0.036 A 
HETATM    3  C4  UNL     1     -34.343  14.819  -3.334  1.00 20.00     0.107 A 
HETATM    4  C5  UNL     1     -34.229  16.080  -4.158  1.00 20.00     0.104 A 
HETATM    5  N8  UNL     1     -35.042  12.618  -4.512  1.00 20.00    -0.197 NA
ENDROOT
BRANCH   4   6
HETATM    6  C2  UNL     1     -34.653  17.358  -3.573  1.00 20.00     0.264 C 
HETATM    7  O9  UNL     1     -35.806  17.768  -3.583  1.00 20.00    -0.265 OA
BRANCH   6   8
HETATM    8  O10 UNL     1     -33.573  17.991  -3.031  1.00 20.00    -0.322 OA
BRANCH   8   9
HETATM    9  C7  UNL     1     -33.802  18.625  -1.769  1.00 20.00     0.174 C 
HETATM   10  C6  UNL     1     -33.785  17.576  -0.678  1.00 20.00     0.034 C 
ENDBRANCH   8   9
ENDBRANCH   6   8
ENDBRANCH   4   6
TORSDOF 3
ENDMDL
MODEL 9
REMARK VINA RESULT:      -3.9      2.297      3.903
REMARK  3 active torsions:
REMARK  status: ('A' for Active; 'I' for Inactive)
REMARK    1  A    between atoms: C2_2  and  C5_5 
REMARK    2  A    between atoms: C2_2  and  O10_10 
REMARK    3  A    between atoms: C7_7  and  O10_10 
ROOT
HETATM    1  C1  UNL     1     -36.408  16.486  -6.284  1.00 20.00     0.065 C 
HETATM    2  C3  UNL     1     -35.019  14.470  -6.916  1.00 20.00     0.036 A 
HETATM    3  C4  UNL     1     -36.088  15.105  -6.070  1.00 20.00     0.107 A 
HETATM    4  C5  UNL     1     -34.748  14.756  -5.464  1.00 20.00     0.104 A 
HETATM    5  N8  UNL     1     -36.668  17.602  -6.457  1.00 20.00    -0.197 NA
ENDROOT
BRANCH   4   6
HETATM    6  C2  UNL     1     -34.660  13.640  -4.516  1.00 20.00     0.264 C 
HETATM    7  O9  UNL     1     -34.720  12.461  -4.838  1.00 20.00    -0.265 OA
BRANCH   6   8
HETATM    8  O10 UNL     1     -34.505  14.127  -3.252  1.00 20.00    -0.322 OA
BRANCH   8   9
HETATM    9  C7  UNL     1     -33.899  15.421  -3.163  1.00 20.00     0.174 C 
HETATM   10  C6  UNL     1     -34.484  16.160  -1.979  1.00 20.00     0.034 C 
ENDBRANCH   8   9
ENDBRANCH   6   8
ENDBRANCH   4   6
TORSDOF 3
ENDMDL
