MODEL 1
REMARK VINA RESULT:      -5.8      0.000      0.000
REMARK  0 active torsions:
REMARK  status: ('A' for Active; 'I' for Inactive)
ROOT
HETATM    1  C1  UNL     1     -34.666   4.235   6.134  1.00 20.00    -0.028 C 
HETATM    2  C2  UNL     1     -34.991   4.056   4.850  1.00 20.00    -0.023 C 
HETATM    3  C3  UNL     1     -33.002   6.061   3.398  1.00 20.00     0.259 C 
HETATM    4  C4  UNL     1     -34.530   5.683   6.478  1.00 20.00     0.060 C 
HETATM    5  C5  UNL     1     -34.291   5.495   2.885  1.00 20.00     0.122 C 
HETATM    6  C6  UNL     1     -35.141   5.361   4.128  1.00 20.00     0.047 C 
HETATM    7  C7  UNL     1     -34.526   6.352   5.103  1.00 20.00     0.143 C 
HETATM    8  O8  UNL     1     -31.957   6.119   2.769  1.00 20.00    -0.265 OA
HETATM    9  O9  UNL     1     -33.170   6.544   4.664  1.00 20.00    -0.315 OA
ENDROOT
TORSDOF 0
ENDMDL
MODEL 2
REMARK VINA RESULT:      -4.4     11.822     13.091
REMARK  0 active torsions:
REMARK  status: ('A' for Active; 'I' for Inactive)
ROOT
HETATM    1  C1  UNL     1     -34.301  17.193  -4.680  1.00 20.00    -0.028 C 
HETATM    2  C2  UNL     1     -33.264  16.351  -4.624  1.00 20.00    -0.023 C 
HETATM    3  C3  UNL     1     -34.706  13.598  -3.967  1.00 20.00     0.259 C 
HETATM    4  C4  UNL     1     -35.247  16.989  -3.541  1.00 20.00     0.060 C 
HETATM    5  C5  UNL     1     -33.274  13.976  -3.738  1.00 20.00     0.122 C 
HETATM    6  C6  UNL     1     -33.341  15.453  -3.425  1.00 20.00     0.047 C 
HETATM    7  C7  UNL     1     -34.768  15.664  -2.946  1.00 20.00     0.143 C 
HETATM    8  O8  UNL     1     -35.089  12.551  -4.464  1.00 20.00    -0.265 OA
HETATM    9  O9  UNL     1     -35.533  14.580  -3.502  1.00 20.00    -0.315 OA
ENDROOT
TORSDOF 0
ENDMDL
MODEL 3
REMARK VINA RESULT:      -4.4      1.712      3.445
REMARK  0 active torsions:
REMARK  status: ('A' for Active; 'I' for Inactive)
ROOT
HETATM    1  C1  UNL     1     -32.667   5.829   2.868  1.00 20.00    -0.028 C 
HETATM    2  C2  UNL     1     -32.695   6.470   4.040  1.00 20.00    -0.023 C 
HETATM    3  C3  UNL     1     -34.715   4.674   5.707  1.00 20.00     0.259 C 
HETATM    4  C4  UNL     1     -34.037   5.452   2.405  1.00 20.00     0.060 C 
HETATM    5  C5  UNL     1     -34.332   6.104   5.940  1.00 20.00     0.122 C 
HETATM    6  C6  UNL     1     -34.096   6.640   4.547  1.00 20.00     0.047 C 
HETATM    7  C7  UNL     1     -34.888   5.701   3.652  1.00 20.00     0.143 C 
HETATM    8  O8  UNL     1     -34.775   3.811   6.569  1.00 20.00    -0.265 OA
HETATM    9  O9  UNL     1     -35.029   4.477   4.393  1.00 20.00    -0.315 OA
ENDROOT
TORSDOF 0
ENDMDL
MODEL 4
REMARK VINA RESULT:      -4.4      1.245      2.974
REMARK  0 active torsions:
REMARK  status: ('A' for Active; 'I' for Inactive)
ROOT
HETATM    1  C1  UNL     1     -35.239   5.753   3.076  1.00 20.00    -0.028 C 
HETATM    2  C2  UNL     1     -35.658   5.205   4.220  1.00 20.00    -0.023 C 
HETATM    3  C3  UNL     1     -33.849   6.707   6.355  1.00 20.00     0.259 C 
HETATM    4  C4  UNL     1     -33.748   5.833   3.009  1.00 20.00     0.060 C 
HETATM    5  C5  UNL     1     -34.559   5.395   6.496  1.00 20.00     0.122 C 
HETATM    6  C6  UNL     1     -34.511   4.812   5.102  1.00 20.00     0.047 C 
HETATM    7  C7  UNL     1     -33.334   5.519   4.448  1.00 20.00     0.143 C 
HETATM    8  O8  UNL     1     -33.853   7.604   7.183  1.00 20.00    -0.265 OA
HETATM    9  O9  UNL     1     -33.158   6.745   5.178  1.00 20.00    -0.315 OA
ENDROOT
TORSDOF 0
ENDMDL
MODEL 5
REMARK VINA RESULT:      -4.3     12.194     12.964
REMARK  0 active torsions:
REMARK  status: ('A' for Active; 'I' for Inactive)
ROOT
HETATM    1  C1  UNL     1     -33.785  16.450  -2.377  1.00 20.00    -0.028 C 
HETATM    2  C2  UNL     1     -34.989  15.889  -2.224  1.00 20.00    -0.023 C 
HETATM    3  C3  UNL     1     -34.985  13.720  -4.545  1.00 20.00     0.259 C 
HETATM    4  C4  UNL     1     -33.487  16.750  -3.810  1.00 20.00     0.060 C 
HETATM    5  C5  UNL     1     -36.161  14.330  -3.843  1.00 20.00     0.122 C 
HETATM    6  C6  UNL     1     -35.701  15.736  -3.536  1.00 20.00     0.047 C 
HETATM    7  C7  UNL     1     -34.593  15.991  -4.545  1.00 20.00     0.143 C 
HETATM    8  O8  UNL     1     -34.839  12.529  -4.771  1.00 20.00    -0.265 OA
HETATM    9  O9  UNL     1     -34.110  14.693  -4.934  1.00 20.00    -0.315 OA
ENDROOT
TORSDOF 0
ENDMDL
MODEL 6
REMARK VINA RESULT:      -4.3     11.878     12.997
REMARK  0 active torsions:
REMARK  status: ('A' for Active; 'I' for Inactive)
ROOT
HETATM    1  C1  UNL     1     -33.081  15.110  -3.488  1.00 20.00    -0.028 C 
HETATM    2  C2  UNL     1     -33.844  15.888  -4.262  1.00 20.00    -0.023 C 
HETATM    3  C3  UNL     1     -36.584  14.282  -4.284  1.00 20.00     0.259 C 
HETATM    4  C4  UNL     1     -33.208  13.666  -3.852  1.00 20.00     0.060 C 
HETATM    5  C5  UNL     1     -36.094  15.299  -5.270  1.00 20.00     0.122 C 
HETATM    6  C6  UNL     1     -34.597  15.088  -5.283  1.00 20.00     0.047 C 
HETATM    7  C7  UNL     1     -34.421  13.664  -4.783  1.00 20.00     0.143 C 
HETATM    8  O8  UNL     1     -37.705  14.253  -3.800  1.00 20.00    -0.265 OA
HETATM    9  O9  UNL     1     -35.608  13.363  -4.029  1.00 20.00    -0.315 OA
ENDROOT
TORSDOF 0
ENDMDL
MODEL 7
REMARK VINA RESULT:      -4.2     12.291     13.418
REMARK  0 active torsions:
REMARK  status: ('A' for Active; 'I' for Inactive)
ROOT
HETATM    1  C1  UNL     1     -34.760  13.833  -3.789  1.00 20.00    -0.028 C 
HETATM    2  C2  UNL     1     -35.219  14.966  -3.248  1.00 20.00    -0.023 C 
HETATM    3  C3  UNL     1     -33.411  17.143  -4.689  1.00 20.00     0.259 C 
HETATM    4  C4  UNL     1     -33.267  13.797  -3.825  1.00 20.00     0.060 C 
HETATM    5  C5  UNL     1     -34.161  17.265  -3.398  1.00 20.00     0.122 C 
HETATM    6  C6  UNL     1     -34.102  15.869  -2.820  1.00 20.00     0.047 C 
HETATM    7  C7  UNL     1     -32.892  15.242  -3.494  1.00 20.00     0.143 C 
HETATM    8  O8  UNL     1     -33.406  17.976  -5.583  1.00 20.00    -0.265 OA
HETATM    9  O9  UNL     1     -32.695  15.981  -4.712  1.00 20.00    -0.315 OA
ENDROOT
TORSDOF 0
ENDMDL
MODEL 8
REMARK VINA RESULT:      -4.2     12.162     13.593
REMARK  0 active torsions:
REMARK  status: ('A' for Active; 'I' for Inactive)
ROOT
HETATM    1  C1  UNL     1     -34.369  15.418  -7.205  1.00 20.00    -0.028 C 
HETATM    2  C2  UNL     1     -34.051  16.068  -6.081  1.00 20.00    -0.023 C 
HETATM    3  C3  UNL     1     -33.767  13.674  -4.013  1.00 20.00     0.259 C 
HETATM    4  C4  UNL     1     -35.417  14.378  -6.972  1.00 20.00     0.060 C 
HETATM    5  C5  UNL     1     -34.023  15.123  -3.729  1.00 20.00     0.122 C 
HETATM    6  C6  UNL     1     -34.850  15.576  -4.911  1.00 20.00     0.047 C 
HETATM    7  C7  UNL     1     -35.464  14.293  -5.445  1.00 20.00     0.143 C 
HETATM    8  O8  UNL     1     -32.953  12.975  -3.432  1.00 20.00    -0.265 OA
HETATM    9  O9  UNL     1     -34.606  13.230  -4.995  1.00 20.00    -0.315 OA
ENDROOT
TORSDOF 0
ENDMDL
MODEL 9
REMARK VINA RESULT:      -4.2     11.899     12.676
REMARK  0 active torsions:
REMARK  status: ('A' for Active; 'I' for Inactive)
ROOT
HETATM    1  C1  UNL     1     -35.041  13.327  -4.156  1.00 20.00    -0.028 C 
HETATM    2  C2  UNL     1     -33.874  13.943  -3.945  1.00 20.00    -0.023 C 
HETATM    3  C3  UNL     1     -34.694  16.172  -1.837  1.00 20.00     0.259 C 
HETATM    4  C4  UNL     1     -36.158  14.302  -4.352  1.00 20.00     0.060 C 
HETATM    5  C5  UNL     1     -33.506  16.147  -2.749  1.00 20.00     0.122 C 
HETATM    6  C6  UNL     1     -34.018  15.435  -3.980  1.00 20.00     0.047 C 
HETATM    7  C7  UNL     1     -35.525  15.624  -3.916  1.00 20.00     0.143 C 
HETATM    8  O8  UNL     1     -34.666  16.454  -0.649  1.00 20.00    -0.265 OA
HETATM    9  O9  UNL     1     -35.830  15.872  -2.533  1.00 20.00    -0.315 OA
ENDROOT
TORSDOF 0
ENDMDL
