MODEL 1
REMARK VINA RESULT:      -4.6      0.000      0.000
REMARK  0 active torsions:
REMARK  status: ('A' for Active; 'I' for Inactive)
ROOT
HETATM    1  C1  UNL     1     -34.517   4.914   6.279  1.00 20.00     0.006 C 
HETATM    2  C2  UNL     1     -35.204   4.246   5.086  1.00 20.00     0.006 C 
HETATM    3  C3  UNL     1     -34.083   6.296   5.798  1.00 20.00     0.068 C 
HETATM    4  C4  UNL     1     -35.139   5.252   3.940  1.00 20.00     0.068 C 
HETATM    5  C5  UNL     1     -31.948   6.480   3.301  1.00 20.00     0.197 C 
HETATM    6  C6  UNL     1     -32.985   7.358   2.656  1.00 20.00     0.197 C 
HETATM    7  C7  UNL     1     -33.953   6.141   4.289  1.00 20.00     0.164 C 
HETATM    8  O8  UNL     1     -32.727   5.477   3.953  1.00 20.00    -0.353 OA
HETATM    9  O9  UNL     1     -34.026   7.404   3.631  1.00 20.00    -0.353 OA
ENDROOT
TORSDOF 0
ENDMDL
MODEL 2
REMARK VINA RESULT:      -3.9     11.519     12.610
REMARK  0 active torsions:
REMARK  status: ('A' for Active; 'I' for Inactive)
ROOT
HETATM    1  C1  UNL     1     -34.698  14.404  -5.881  1.00 20.00     0.006 C 
HETATM    2  C2  UNL     1     -34.701  13.223  -4.906  1.00 20.00     0.006 C 
HETATM    3  C3  UNL     1     -34.097  15.581  -5.118  1.00 20.00     0.068 C 
HETATM    4  C4  UNL     1     -34.113  13.750  -3.599  1.00 20.00     0.068 C 
HETATM    5  C5  UNL     1     -35.641  16.640  -2.412  1.00 20.00     0.197 C 
HETATM    6  C6  UNL     1     -34.312  16.436  -1.737  1.00 20.00     0.197 C 
HETATM    7  C7  UNL     1     -34.362  15.251  -3.655  1.00 20.00     0.164 C 
HETATM    8  O8  UNL     1     -35.725  15.536  -3.312  1.00 20.00    -0.353 OA
HETATM    9  O9  UNL     1     -33.477  15.966  -2.794  1.00 20.00    -0.353 OA
ENDROOT
TORSDOF 0
ENDMDL
MODEL 3
REMARK VINA RESULT:      -3.9     11.663     12.644
REMARK  0 active torsions:
REMARK  status: ('A' for Active; 'I' for Inactive)
ROOT
HETATM    1  C1  UNL     1     -33.651  15.037  -3.365  1.00 20.00     0.006 C 
HETATM    2  C2  UNL     1     -33.776  13.736  -4.162  1.00 20.00     0.006 C 
HETATM    3  C3  UNL     1     -35.063  15.390  -2.907  1.00 20.00     0.068 C 
HETATM    4  C4  UNL     1     -35.260  13.375  -4.157  1.00 20.00     0.068 C 
HETATM    5  C5  UNL     1     -37.355  15.948  -5.201  1.00 20.00     0.197 C 
HETATM    6  C6  UNL     1     -38.144  14.892  -4.477  1.00 20.00     0.197 C 
HETATM    7  C7  UNL     1     -35.967  14.704  -3.922  1.00 20.00     0.164 C 
HETATM    8  O8  UNL     1     -36.017  15.456  -5.143  1.00 20.00    -0.353 OA
HETATM    9  O9  UNL     1     -37.282  14.519  -3.403  1.00 20.00    -0.353 OA
ENDROOT
TORSDOF 0
ENDMDL
MODEL 4
REMARK VINA RESULT:      -3.9     11.810     13.472
REMARK  0 active torsions:
REMARK  status: ('A' for Active; 'I' for Inactive)
ROOT
HETATM    1  C1  UNL     1     -34.777  13.558  -5.063  1.00 20.00     0.006 C 
HETATM    2  C2  UNL     1     -34.090  13.627  -3.697  1.00 20.00     0.006 C 
HETATM    3  C3  UNL     1     -34.308  14.789  -5.835  1.00 20.00     0.068 C 
HETATM    4  C4  UNL     1     -33.250  14.903  -3.707  1.00 20.00     0.068 C 
HETATM    5  C5  UNL     1     -35.014  17.761  -4.611  1.00 20.00     0.197 C 
HETATM    6  C6  UNL     1     -33.533  18.006  -4.714  1.00 20.00     0.197 C 
HETATM    7  C7  UNL     1     -33.924  15.786  -4.750  1.00 20.00     0.164 C 
HETATM    8  O8  UNL     1     -35.093  16.400  -4.191  1.00 20.00    -0.353 OA
HETATM    9  O9  UNL     1     -33.036  16.782  -5.253  1.00 20.00    -0.353 OA
ENDROOT
TORSDOF 0
ENDMDL
MODEL 5
REMARK VINA RESULT:      -3.9     11.444     12.810
REMARK  0 active torsions:
REMARK  status: ('A' for Active; 'I' for Inactive)
ROOT
HETATM    1  C1  UNL     1     -34.519  13.308  -4.942  1.00 20.00     0.006 C 
HETATM    2  C2  UNL     1     -34.195  13.769  -3.519  1.00 20.00     0.006 C 
HETATM    3  C3  UNL     1     -35.486  14.342  -5.511  1.00 20.00     0.068 C 
HETATM    4  C4  UNL     1     -34.993  15.051  -3.295  1.00 20.00     0.068 C 
HETATM    5  C5  UNL     1     -38.385  14.760  -4.010  1.00 20.00     0.197 C 
HETATM    6  C6  UNL     1     -37.987  16.209  -3.942  1.00 20.00     0.197 C 
HETATM    7  C7  UNL     1     -36.149  14.950  -4.282  1.00 20.00     0.164 C 
HETATM    8  O8  UNL     1     -37.159  14.071  -3.767  1.00 20.00    -0.353 OA
HETATM    9  O9  UNL     1     -36.709  16.228  -4.575  1.00 20.00    -0.353 OA
ENDROOT
TORSDOF 0
ENDMDL
MODEL 6
REMARK VINA RESULT:      -3.9     11.734     13.096
REMARK  0 active torsions:
REMARK  status: ('A' for Active; 'I' for Inactive)
ROOT
HETATM    1  C1  UNL     1     -33.951  17.579  -2.992  1.00 20.00     0.006 C 
HETATM    2  C2  UNL     1     -33.603  17.734  -4.474  1.00 20.00     0.006 C 
HETATM    3  C3  UNL     1     -33.779  16.097  -2.669  1.00 20.00     0.068 C 
HETATM    4  C4  UNL     1     -33.250  16.335  -4.977  1.00 20.00     0.068 C 
HETATM    5  C5  UNL     1     -35.655  13.923  -4.275  1.00 20.00     0.197 C 
HETATM    6  C6  UNL     1     -34.350  13.270  -4.640  1.00 20.00     0.197 C 
HETATM    7  C7  UNL     1     -33.965  15.400  -4.010  1.00 20.00     0.164 C 
HETATM    8  O8  UNL     1     -35.357  15.316  -4.347  1.00 20.00    -0.353 OA
HETATM    9  O9  UNL     1     -33.380  14.099  -4.003  1.00 20.00    -0.353 OA
ENDROOT
TORSDOF 0
ENDMDL
MODEL 7
REMARK VINA RESULT:      -3.8      9.257     10.514
REMARK  0 active torsions:
REMARK  status: ('A' for Active; 'I' for Inactive)
ROOT
HETATM    1  C1  UNL     1     -43.308   3.797  -3.331  1.00 20.00     0.006 C 
HETATM    2  C2  UNL     1     -42.202   2.800  -2.977  1.00 20.00     0.006 C 
HETATM    3  C3  UNL     1     -42.807   5.164  -2.873  1.00 20.00     0.068 C 
HETATM    4  C4  UNL     1     -41.094   3.612  -2.310  1.00 20.00     0.068 C 
HETATM    5  C5  UNL     1     -42.180   5.603   0.327  1.00 20.00     0.197 C 
HETATM    6  C6  UNL     1     -40.820   6.048  -0.139  1.00 20.00     0.197 C 
HETATM    7  C7  UNL     1     -41.808   4.845  -1.769  1.00 20.00     0.164 C 
HETATM    8  O8  UNL     1     -42.489   4.521  -0.549  1.00 20.00    -0.353 OA
HETATM    9  O9  UNL     1     -40.906   5.929  -1.558  1.00 20.00    -0.353 OA
ENDROOT
TORSDOF 0
ENDMDL
MODEL 8
REMARK VINA RESULT:      -3.7     11.774     12.681
REMARK  0 active torsions:
REMARK  status: ('A' for Active; 'I' for Inactive)
ROOT
HETATM    1  C1  UNL     1     -34.418  16.389  -1.728  1.00 20.00     0.006 C 
HETATM    2  C2  UNL     1     -35.718  16.930  -2.326  1.00 20.00     0.006 C 
HETATM    3  C3  UNL     1     -33.622  15.814  -2.897  1.00 20.00     0.068 C 
HETATM    4  C4  UNL     1     -35.649  16.644  -3.825  1.00 20.00     0.068 C 
HETATM    5  C5  UNL     1     -34.938  13.332  -4.610  1.00 20.00     0.197 C 
HETATM    6  C6  UNL     1     -34.708  14.214  -5.807  1.00 20.00     0.197 C 
HETATM    7  C7  UNL     1     -34.680  15.475  -3.938  1.00 20.00     0.164 C 
HETATM    8  O8  UNL     1     -35.347  14.251  -3.599  1.00 20.00    -0.353 OA
HETATM    9  O9  UNL     1     -34.113  15.382  -5.243  1.00 20.00    -0.353 OA
ENDROOT
TORSDOF 0
ENDMDL
MODEL 9
REMARK VINA RESULT:      -3.7     11.740     12.726
REMARK  0 active torsions:
REMARK  status: ('A' for Active; 'I' for Inactive)
ROOT
HETATM    1  C1  UNL     1     -33.698  18.389  -2.260  1.00 20.00     0.006 C 
HETATM    2  C2  UNL     1     -33.785  17.603  -0.950  1.00 20.00     0.006 C 
HETATM    3  C3  UNL     1     -34.497  17.590  -3.286  1.00 20.00     0.068 C 
HETATM    4  C4  UNL     1     -34.622  16.362  -1.253  1.00 20.00     0.068 C 
HETATM    5  C5  UNL     1     -33.512  14.531  -3.994  1.00 20.00     0.197 C 
HETATM    6  C6  UNL     1     -34.921  14.140  -3.640  1.00 20.00     0.197 C 
HETATM    7  C7  UNL     1     -34.466  16.163  -2.755  1.00 20.00     0.164 C 
HETATM    8  O8  UNL     1     -33.203  15.546  -3.040  1.00 20.00    -0.353 OA
HETATM    9  O9  UNL     1     -35.530  15.385  -3.299  1.00 20.00    -0.353 OA
ENDROOT
TORSDOF 0
ENDMDL
