MODEL 1
REMARK VINA RESULT:      -3.7      0.000      0.000
REMARK  0 active torsions:
REMARK  status: ('A' for Active; 'I' for Inactive)
ROOT
HETATM    1  C1  UNL     1     -33.772  15.993  -5.027  1.00 20.00     0.038 A 
HETATM    2  C2  UNL     1     -34.539  15.314  -2.852  1.00 20.00     0.058 A 
HETATM    3  C3  UNL     1     -33.518  17.244  -4.488  1.00 20.00     0.119 A 
HETATM    4  C4  UNL     1     -34.292  15.014  -4.187  1.00 20.00     0.015 A 
HETATM    5  C5  UNL     1     -34.250  16.595  -2.409  1.00 20.00     0.104 A 
HETATM    6  N6  UNL     1     -33.744  17.571  -3.196  1.00 20.00    -0.254 NA
HETATM    7 BR7  UNL     1     -34.660  13.288  -4.857  1.00 20.00    -0.051 Br
HETATM    8 BR8  UNL     1     -34.578  17.025  -0.589  1.00 20.00    -0.029 Br
ENDROOT
TORSDOF 0
ENDMDL
MODEL 2
REMARK VINA RESULT:      -3.7      0.977      3.306
REMARK  0 active torsions:
REMARK  status: ('A' for Active; 'I' for Inactive)
ROOT
HETATM    1  C1  UNL     1     -33.788  17.566  -3.184  1.00 20.00     0.038 A 
HETATM    2  C2  UNL     1     -34.568  15.325  -2.799  1.00 20.00     0.058 A 
HETATM    3  C3  UNL     1     -33.565  17.204  -4.503  1.00 20.00     0.119 A 
HETATM    4  C4  UNL     1     -34.300  16.603  -2.322  1.00 20.00     0.015 A 
HETATM    5  C5  UNL     1     -34.310  15.063  -4.135  1.00 20.00     0.104 A 
HETATM    6  N6  UNL     1     -33.814  15.973  -5.002  1.00 20.00    -0.254 NA
HETATM    7 BR7  UNL     1     -34.629  17.029  -0.512  1.00 20.00    -0.051 Br
HETATM    8 BR8  UNL     1     -34.670  13.324  -4.808  1.00 20.00    -0.029 Br
ENDROOT
TORSDOF 0
ENDMDL
MODEL 3
REMARK VINA RESULT:      -3.6      2.717      3.841
REMARK  0 active torsions:
REMARK  status: ('A' for Active; 'I' for Inactive)
ROOT
HETATM    1  C1  UNL     1     -34.133  14.475  -3.336  1.00 20.00     0.038 A 
HETATM    2  C2  UNL     1     -36.194  15.682  -3.054  1.00 20.00     0.058 A 
HETATM    3  C3  UNL     1     -34.843  13.542  -4.075  1.00 20.00     0.119 A 
HETATM    4  C4  UNL     1     -34.829  15.563  -2.819  1.00 20.00     0.015 A 
HETATM    5  C5  UNL     1     -36.812  14.695  -3.805  1.00 20.00     0.104 A 
HETATM    6  N6  UNL     1     -36.169  13.625  -4.324  1.00 20.00    -0.254 NA
HETATM    7 BR7  UNL     1     -33.922  16.871  -1.803  1.00 20.00    -0.051 Br
HETATM    8 BR8  UNL     1     -38.676  14.838  -4.140  1.00 20.00    -0.029 Br
ENDROOT
TORSDOF 0
ENDMDL
MODEL 4
REMARK VINA RESULT:      -3.6      2.381      3.980
REMARK  0 active torsions:
REMARK  status: ('A' for Active; 'I' for Inactive)
ROOT
HETATM    1  C1  UNL     1     -34.415  13.992  -3.420  1.00 20.00     0.038 A 
HETATM    2  C2  UNL     1     -34.595  16.083  -4.592  1.00 20.00     0.058 A 
HETATM    3  C3  UNL     1     -34.466  13.359  -4.651  1.00 20.00     0.119 A 
HETATM    4  C4  UNL     1     -34.481  15.381  -3.397  1.00 20.00     0.015 A 
HETATM    5  C5  UNL     1     -34.638  15.357  -5.771  1.00 20.00     0.104 A 
HETATM    6  N6  UNL     1     -34.575  14.008  -5.831  1.00 20.00    -0.254 NA
HETATM    7 BR7  UNL     1     -34.416  16.307  -1.753  1.00 20.00    -0.051 Br
HETATM    8 BR8  UNL     1     -34.791  16.297  -7.414  1.00 20.00    -0.029 Br
ENDROOT
TORSDOF 0
ENDMDL
MODEL 5
REMARK VINA RESULT:      -3.5     12.423     13.546
REMARK  0 active torsions:
REMARK  status: ('A' for Active; 'I' for Inactive)
ROOT
HETATM    1  C1  UNL     1     -41.376   6.770  -1.177  1.00 20.00     0.038 A 
HETATM    2  C2  UNL     1     -42.475   5.366  -2.791  1.00 20.00     0.058 A 
HETATM    3  C3  UNL     1     -40.717   5.639  -0.721  1.00 20.00     0.119 A 
HETATM    4  C4  UNL     1     -42.270   6.623  -2.232  1.00 20.00     0.015 A 
HETATM    5  C5  UNL     1     -41.767   4.298  -2.263  1.00 20.00     0.104 A 
HETATM    6  N6  UNL     1     -40.890   4.404  -1.240  1.00 20.00    -0.254 NA
HETATM    7 BR7  UNL     1     -43.200   8.123  -2.903  1.00 20.00    -0.051 Br
HETATM    8 BR8  UNL     1     -42.029   2.573  -3.012  1.00 20.00    -0.029 Br
ENDROOT
TORSDOF 0
ENDMDL
MODEL 6
REMARK VINA RESULT:      -3.5     12.508     13.282
REMARK  0 active torsions:
REMARK  status: ('A' for Active; 'I' for Inactive)
ROOT
HETATM    1  C1  UNL     1     -40.854   4.455  -1.191  1.00 20.00     0.038 A 
HETATM    2  C2  UNL     1     -42.473   5.354  -2.724  1.00 20.00     0.058 A 
HETATM    3  C3  UNL     1     -40.748   5.723  -0.642  1.00 20.00     0.119 A 
HETATM    4  C4  UNL     1     -41.735   4.274  -2.252  1.00 20.00     0.015 A 
HETATM    5  C5  UNL     1     -42.295   6.582  -2.107  1.00 20.00     0.104 A 
HETATM    6  N6  UNL     1     -41.449   6.794  -1.074  1.00 20.00    -0.254 NA
HETATM    7 BR7  UNL     1     -41.929   2.572  -3.045  1.00 20.00    -0.051 Br
HETATM    8 BR8  UNL     1     -43.294   8.070  -2.735  1.00 20.00    -0.029 Br
ENDROOT
TORSDOF 0
ENDMDL
MODEL 7
REMARK VINA RESULT:      -3.4      2.297      2.823
REMARK  0 active torsions:
REMARK  status: ('A' for Active; 'I' for Inactive)
ROOT
HETATM    1  C1  UNL     1     -34.785  13.977  -5.819  1.00 20.00     0.038 A 
HETATM    2  C2  UNL     1     -34.684  16.070  -4.641  1.00 20.00     0.058 A 
HETATM    3  C3  UNL     1     -34.714  13.342  -4.590  1.00 20.00     0.119 A 
HETATM    4  C4  UNL     1     -34.769  15.367  -5.837  1.00 20.00     0.015 A 
HETATM    5  C5  UNL     1     -34.618  15.342  -3.464  1.00 20.00     0.104 A 
HETATM    6  N6  UNL     1     -34.632  13.991  -3.408  1.00 20.00    -0.254 NA
HETATM    7 BR7  UNL     1     -34.864  16.295  -7.479  1.00 20.00    -0.051 Br
HETATM    8 BR8  UNL     1     -34.503  16.281  -1.817  1.00 20.00    -0.029 Br
ENDROOT
TORSDOF 0
ENDMDL
MODEL 8
REMARK VINA RESULT:      -3.4      2.249      2.605
REMARK  0 active torsions:
REMARK  status: ('A' for Active; 'I' for Inactive)
ROOT
HETATM    1  C1  UNL     1     -35.639  13.820  -4.270  1.00 20.00     0.038 A 
HETATM    2  C2  UNL     1     -35.975  15.775  -2.912  1.00 20.00     0.058 A 
HETATM    3  C3  UNL     1     -34.299  13.872  -3.920  1.00 20.00     0.119 A 
HETATM    4  C4  UNL     1     -36.487  14.793  -3.753  1.00 20.00     0.015 A 
HETATM    5  C5  UNL     1     -34.620  15.740  -2.623  1.00 20.00     0.104 A 
HETATM    6  N6  UNL     1     -33.767  14.810  -3.106  1.00 20.00    -0.254 NA
HETATM    7 BR7  UNL     1     -38.324  14.779  -4.189  1.00 20.00    -0.051 Br
HETATM    8 BR8  UNL     1     -33.899  17.071  -1.475  1.00 20.00    -0.029 Br
ENDROOT
TORSDOF 0
ENDMDL
MODEL 9
REMARK VINA RESULT:      -3.4      1.403      3.614
REMARK  0 active torsions:
REMARK  status: ('A' for Active; 'I' for Inactive)
ROOT
HETATM    1  C1  UNL     1     -34.113  18.387  -1.905  1.00 20.00     0.038 A 
HETATM    2  C2  UNL     1     -34.594  16.047  -1.637  1.00 20.00     0.058 A 
HETATM    3  C3  UNL     1     -33.728  18.105  -3.206  1.00 20.00     0.119 A 
HETATM    4  C4  UNL     1     -34.554  17.333  -1.112  1.00 20.00     0.015 A 
HETATM    5  C5  UNL     1     -34.187  15.868  -2.950  1.00 20.00     0.104 A 
HETATM    6  N6  UNL     1     -33.755  16.868  -3.750  1.00 20.00    -0.254 NA
HETATM    7 BR7  UNL     1     -35.094  17.650   0.669  1.00 20.00    -0.051 Br
HETATM    8 BR8  UNL     1     -34.236  14.119  -3.689  1.00 20.00    -0.029 Br
ENDROOT
TORSDOF 0
ENDMDL
