MODEL 1
REMARK VINA RESULT:      -4.3      0.000      0.000
REMARK  0 active torsions:
REMARK  status: ('A' for Active; 'I' for Inactive)
ROOT
HETATM    1  C1  UNL     1     -35.138   4.679   6.053  1.00 20.00     0.000 C 
HETATM    2  C2  UNL     1     -34.408   5.778   6.656  1.00 20.00     0.017 C 
HETATM    3  C3  UNL     1     -35.253   4.582   4.717  1.00 20.00     0.010 C 
HETATM    4  C4  UNL     1     -33.663   6.573   5.871  1.00 20.00     0.092 C 
HETATM    5  C5  UNL     1     -32.568   6.115   2.459  1.00 20.00     0.072 C 
HETATM    6  C6  UNL     1     -32.560   6.758   3.642  1.00 20.00     0.015 C 
HETATM    7  C7  UNL     1     -34.678   5.639   3.815  1.00 20.00     0.178 C 
HETATM    8  C8  UNL     1     -31.498   7.725   4.049  1.00 20.00     0.069 C 
HETATM    9  N9  UNL     1     -33.615   6.417   4.496  1.00 20.00    -0.343 N 
HETATM   10  S10 UNL     1     -33.884   4.977   2.302  1.00 20.00    -0.110 SA
ENDROOT
TORSDOF 0
ENDMDL
MODEL 2
REMARK VINA RESULT:      -4.2     12.286     13.562
REMARK  0 active torsions:
REMARK  status: ('A' for Active; 'I' for Inactive)
ROOT
HETATM    1  C1  UNL     1     -35.020  13.428  -4.551  1.00 20.00     0.000 C 
HETATM    2  C2  UNL     1     -34.800  13.978  -5.875  1.00 20.00     0.017 C 
HETATM    3  C3  UNL     1     -34.495  14.021  -3.465  1.00 20.00     0.010 C 
HETATM    4  C4  UNL     1     -34.257  15.201  -5.990  1.00 20.00     0.092 C 
HETATM    5  C5  UNL     1     -33.781  17.783  -3.508  1.00 20.00     0.072 C 
HETATM    6  C6  UNL     1     -33.775  17.325  -4.774  1.00 20.00     0.015 C 
HETATM    7  C7  UNL     1     -33.619  15.236  -3.598  1.00 20.00     0.178 C 
HETATM    8  C8  UNL     1     -33.745  18.214  -5.973  1.00 20.00     0.069 C 
HETATM    9  N9  UNL     1     -33.844  15.932  -4.889  1.00 20.00    -0.343 N 
HETATM   10  S10 UNL     1     -33.913  16.513  -2.316  1.00 20.00    -0.110 SA
ENDROOT
TORSDOF 0
ENDMDL
MODEL 3
REMARK VINA RESULT:      -4.1     12.745     14.010
REMARK  0 active torsions:
REMARK  status: ('A' for Active; 'I' for Inactive)
ROOT
HETATM    1  C1  UNL     1     -34.141  15.145  -2.849  1.00 20.00     0.000 C 
HETATM    2  C2  UNL     1     -34.438  13.982  -3.663  1.00 20.00     0.017 C 
HETATM    3  C3  UNL     1     -33.648  16.265  -3.405  1.00 20.00     0.010 C 
HETATM    4  C4  UNL     1     -34.426  14.103  -5.000  1.00 20.00     0.092 C 
HETATM    5  C5  UNL     1     -34.406  17.062  -7.072  1.00 20.00     0.072 C 
HETATM    6  C6  UNL     1     -34.510  15.733  -6.886  1.00 20.00     0.015 C 
HETATM    7  C7  UNL     1     -33.337  16.322  -4.875  1.00 20.00     0.178 C 
HETATM    8  C8  UNL     1     -35.076  14.798  -7.904  1.00 20.00     0.069 C 
HETATM    9  N9  UNL     1     -34.082  15.286  -5.631  1.00 20.00    -0.343 N 
HETATM   10  S10 UNL     1     -33.793  17.908  -5.673  1.00 20.00    -0.110 SA
ENDROOT
TORSDOF 0
ENDMDL
MODEL 4
REMARK VINA RESULT:      -4.1     12.346     13.369
REMARK  0 active torsions:
REMARK  status: ('A' for Active; 'I' for Inactive)
ROOT
HETATM    1  C1  UNL     1     -34.687  13.948  -5.800  1.00 20.00     0.000 C 
HETATM    2  C2  UNL     1     -35.182  13.538  -4.501  1.00 20.00     0.017 C 
HETATM    3  C3  UNL     1     -34.506  15.249  -6.088  1.00 20.00     0.010 C 
HETATM    4  C4  UNL     1     -35.250  14.446  -3.514  1.00 20.00     0.092 C 
HETATM    5  C5  UNL     1     -33.782  17.738  -3.270  1.00 20.00     0.072 C 
HETATM    6  C6  UNL     1     -34.435  16.678  -2.757  1.00 20.00     0.015 C 
HETATM    7  C7  UNL     1     -34.868  16.315  -5.091  1.00 20.00     0.178 C 
HETATM    8  C8  UNL     1     -34.601  16.441  -1.292  1.00 20.00     0.069 C 
HETATM    9  N9  UNL     1     -34.919  15.776  -3.711  1.00 20.00    -0.343 N 
HETATM   10  S10 UNL     1     -33.670  17.700  -5.013  1.00 20.00    -0.110 SA
ENDROOT
TORSDOF 0
ENDMDL
MODEL 5
REMARK VINA RESULT:      -4.1     12.675     13.834
REMARK  0 active torsions:
REMARK  status: ('A' for Active; 'I' for Inactive)
ROOT
HETATM    1  C1  UNL     1     -33.466  13.699  -3.884  1.00 20.00     0.000 C 
HETATM    2  C2  UNL     1     -33.065  15.034  -3.484  1.00 20.00     0.017 C 
HETATM    3  C3  UNL     1     -34.400  13.518  -4.834  1.00 20.00     0.010 C 
HETATM    4  C4  UNL     1     -33.470  16.083  -4.219  1.00 20.00     0.092 C 
HETATM    5  C5  UNL     1     -34.924  16.191  -7.524  1.00 20.00     0.072 C 
HETATM    6  C6  UNL     1     -34.384  16.771  -6.435  1.00 20.00     0.015 C 
HETATM    7  C7  UNL     1     -35.096  14.693  -5.464  1.00 20.00     0.178 C 
HETATM    8  C8  UNL     1     -33.859  18.168  -6.418  1.00 20.00     0.069 C 
HETATM    9  N9  UNL     1     -34.307  15.939  -5.312  1.00 20.00    -0.343 N 
HETATM   10  S10 UNL     1     -35.364  14.520  -7.269  1.00 20.00    -0.110 SA
ENDROOT
TORSDOF 0
ENDMDL
MODEL 6
REMARK VINA RESULT:      -4.0     12.792     14.029
REMARK  0 active torsions:
REMARK  status: ('A' for Active; 'I' for Inactive)
ROOT
HETATM    1  C1  UNL     1     -34.568  13.784  -3.688  1.00 20.00     0.000 C 
HETATM    2  C2  UNL     1     -34.810  13.432  -5.074  1.00 20.00     0.017 C 
HETATM    3  C3  UNL     1     -33.957  14.939  -3.369  1.00 20.00     0.010 C 
HETATM    4  C4  UNL     1     -34.619  14.361  -6.025  1.00 20.00     0.092 C 
HETATM    5  C5  UNL     1     -34.197  17.937  -5.738  1.00 20.00     0.072 C 
HETATM    6  C6  UNL     1     -34.384  16.808  -6.447  1.00 20.00     0.015 C 
HETATM    7  C7  UNL     1     -33.456  15.866  -4.442  1.00 20.00     0.178 C 
HETATM    8  C8  UNL     1     -34.855  16.791  -7.863  1.00 20.00     0.069 C 
HETATM    9  N9  UNL     1     -34.143  15.628  -5.734  1.00 20.00    -0.343 N 
HETATM   10  S10 UNL     1     -33.732  17.642  -4.080  1.00 20.00    -0.110 SA
ENDROOT
TORSDOF 0
ENDMDL
MODEL 7
REMARK VINA RESULT:      -4.0     12.209     13.445
REMARK  0 active torsions:
REMARK  status: ('A' for Active; 'I' for Inactive)
ROOT
HETATM    1  C1  UNL     1     -33.957  16.717  -2.077  1.00 20.00     0.000 C 
HETATM    2  C2  UNL     1     -33.831  17.707  -3.129  1.00 20.00     0.017 C 
HETATM    3  C3  UNL     1     -34.636  15.575  -2.285  1.00 20.00     0.010 C 
HETATM    4  C4  UNL     1     -34.207  17.382  -4.377  1.00 20.00     0.092 C 
HETATM    5  C5  UNL     1     -34.928  14.153  -5.828  1.00 20.00     0.072 C 
HETATM    6  C6  UNL     1     -34.712  15.480  -5.909  1.00 20.00     0.015 C 
HETATM    7  C7  UNL     1     -35.332  15.321  -3.594  1.00 20.00     0.178 C 
HETATM    8  C8  UNL     1     -34.393  16.188  -7.184  1.00 20.00     0.069 C 
HETATM    9  N9  UNL     1     -34.766  16.153  -4.683  1.00 20.00    -0.343 N 
HETATM   10  S10 UNL     1     -35.186  13.595  -4.193  1.00 20.00    -0.110 SA
ENDROOT
TORSDOF 0
ENDMDL
MODEL 8
REMARK VINA RESULT:      -3.9     12.403     13.770
REMARK  0 active torsions:
REMARK  status: ('A' for Active; 'I' for Inactive)
ROOT
HETATM    1  C1  UNL     1     -33.845  18.073  -3.206  1.00 20.00     0.000 C 
HETATM    2  C2  UNL     1     -33.843  16.876  -2.388  1.00 20.00     0.017 C 
HETATM    3  C3  UNL     1     -33.682  17.996  -4.538  1.00 20.00     0.010 C 
HETATM    4  C4  UNL     1     -33.899  15.676  -2.990  1.00 20.00     0.092 C 
HETATM    5  C5  UNL     1     -34.720  14.816  -6.401  1.00 20.00     0.072 C 
HETATM    6  C6  UNL     1     -34.461  14.503  -5.118  1.00 20.00     0.015 C 
HETATM    7  C7  UNL     1     -33.435  16.672  -5.208  1.00 20.00     0.178 C 
HETATM    8  C8  UNL     1     -34.785  13.178  -4.510  1.00 20.00     0.069 C 
HETATM    9  N9  UNL     1     -33.897  15.541  -4.368  1.00 20.00    -0.343 N 
HETATM   10  S10 UNL     1     -34.317  16.468  -6.802  1.00 20.00    -0.110 SA
ENDROOT
TORSDOF 0
ENDMDL
MODEL 9
REMARK VINA RESULT:      -3.9     13.096     14.508
REMARK  0 active torsions:
REMARK  status: ('A' for Active; 'I' for Inactive)
ROOT
HETATM    1  C1  UNL     1     -34.223  18.219  -6.438  1.00 20.00     0.000 C 
HETATM    2  C2  UNL     1     -33.511  17.983  -5.197  1.00 20.00     0.017 C 
HETATM    3  C3  UNL     1     -34.567  17.195  -7.238  1.00 20.00     0.010 C 
HETATM    4  C4  UNL     1     -33.391  16.724  -4.744  1.00 20.00     0.092 C 
HETATM    5  C5  UNL     1     -35.120  13.714  -5.743  1.00 20.00     0.072 C 
HETATM    6  C6  UNL     1     -34.302  14.410  -4.932  1.00 20.00     0.015 C 
HETATM    7  C7  UNL     1     -34.172  15.784  -6.897  1.00 20.00     0.178 C 
HETATM    8  C8  UNL     1     -33.908  13.953  -3.566  1.00 20.00     0.069 C 
HETATM    9  N9  UNL     1     -33.873  15.636  -5.452  1.00 20.00    -0.343 N 
HETATM   10  S10 UNL     1     -35.475  14.541  -7.239  1.00 20.00    -0.110 SA
ENDROOT
TORSDOF 0
ENDMDL
