MODEL 1
REMARK VINA RESULT:      -3.2      0.000      0.000
REMARK  0 active torsions:
REMARK  status: ('A' for Active; 'I' for Inactive)
ROOT
HETATM    1  C1  UNL     1     -34.868   5.545   3.128  1.00 20.00     0.197 C 
HETATM    2  C2  UNL     1     -33.443   5.989   3.307  1.00 20.00     0.197 C 
HETATM    3  C3  UNL     1     -34.299   5.378   5.316  1.00 20.00     0.156 C 
HETATM    4  C4  UNL     1     -34.448   3.989   5.923  1.00 20.00     0.078 C 
HETATM    5  C5  UNL     1     -34.265   6.454   6.394  1.00 20.00     0.078 C 
HETATM    6  O6  UNL     1     -35.411   5.637   4.444  1.00 20.00    -0.354 OA
HETATM    7  O7  UNL     1     -33.075   5.421   4.563  1.00 20.00    -0.354 OA
ENDROOT
TORSDOF 0
ENDMDL
MODEL 2
REMARK VINA RESULT:      -3.2      0.071      2.009
REMARK  0 active torsions:
REMARK  status: ('A' for Active; 'I' for Inactive)
ROOT
HETATM    1  C1  UNL     1     -33.382   6.035   3.339  1.00 20.00     0.197 C 
HETATM    2  C2  UNL     1     -34.807   5.600   3.135  1.00 20.00     0.197 C 
HETATM    3  C3  UNL     1     -34.278   5.436   5.333  1.00 20.00     0.156 C 
HETATM    4  C4  UNL     1     -34.256   6.515   6.407  1.00 20.00     0.078 C 
HETATM    5  C5  UNL     1     -34.448   4.050   5.943  1.00 20.00     0.078 C 
HETATM    6  O6  UNL     1     -33.041   5.467   4.602  1.00 20.00    -0.354 OA
HETATM    7  O7  UNL     1     -35.373   5.699   4.441  1.00 20.00    -0.354 OA
ENDROOT
TORSDOF 0
ENDMDL
MODEL 3
REMARK VINA RESULT:      -3.2     11.979     12.794
REMARK  0 active torsions:
REMARK  status: ('A' for Active; 'I' for Inactive)
ROOT
HETATM    1  C1  UNL     1     -36.267  14.347  -4.226  1.00 20.00     0.197 C 
HETATM    2  C2  UNL     1     -35.125  13.369  -4.222  1.00 20.00     0.197 C 
HETATM    3  C3  UNL     1     -34.402  15.372  -3.444  1.00 20.00     0.156 C 
HETATM    4  C4  UNL     1     -34.524  15.971  -2.050  1.00 20.00     0.078 C 
HETATM    5  C5  UNL     1     -33.239  15.988  -4.213  1.00 20.00     0.078 C 
HETATM    6  O6  UNL     1     -35.615  15.615  -4.174  1.00 20.00    -0.354 OA
HETATM    7  O7  UNL     1     -34.190  13.956  -3.319  1.00 20.00    -0.354 OA
ENDROOT
TORSDOF 0
ENDMDL
MODEL 4
REMARK VINA RESULT:      -3.2     11.981     12.843
REMARK  0 active torsions:
REMARK  status: ('A' for Active; 'I' for Inactive)
ROOT
HETATM    1  C1  UNL     1     -35.128  13.371  -4.222  1.00 20.00     0.197 C 
HETATM    2  C2  UNL     1     -36.271  14.348  -4.227  1.00 20.00     0.197 C 
HETATM    3  C3  UNL     1     -34.406  15.373  -3.445  1.00 20.00     0.156 C 
HETATM    4  C4  UNL     1     -33.245  15.990  -4.213  1.00 20.00     0.078 C 
HETATM    5  C5  UNL     1     -34.528  15.974  -2.049  1.00 20.00     0.078 C 
HETATM    6  O6  UNL     1     -34.195  13.958  -3.318  1.00 20.00    -0.354 OA
HETATM    7  O7  UNL     1     -35.620  15.617  -4.174  1.00 20.00    -0.354 OA
ENDROOT
TORSDOF 0
ENDMDL
MODEL 5
REMARK VINA RESULT:      -3.2      1.099      2.769
REMARK  0 active torsions:
REMARK  status: ('A' for Active; 'I' for Inactive)
ROOT
HETATM    1  C1  UNL     1     -34.053   6.411   6.428  1.00 20.00     0.197 C 
HETATM    2  C2  UNL     1     -34.504   4.978   6.358  1.00 20.00     0.197 C 
HETATM    3  C3  UNL     1     -34.163   5.764   4.259  1.00 20.00     0.156 C 
HETATM    4  C4  UNL     1     -32.865   5.897   3.473  1.00 20.00     0.078 C 
HETATM    5  C5  UNL     1     -35.368   5.686   3.330  1.00 20.00     0.078 C 
HETATM    6  O6  UNL     1     -34.319   6.906   5.117  1.00 20.00    -0.354 OA
HETATM    7  O7  UNL     1     -34.098   4.568   5.053  1.00 20.00    -0.354 OA
ENDROOT
TORSDOF 0
ENDMDL
MODEL 6
REMARK VINA RESULT:      -3.2      1.095      2.699
REMARK  0 active torsions:
REMARK  status: ('A' for Active; 'I' for Inactive)
ROOT
HETATM    1  C1  UNL     1     -34.509   4.967   6.342  1.00 20.00     0.197 C 
HETATM    2  C2  UNL     1     -34.061   6.400   6.424  1.00 20.00     0.197 C 
HETATM    3  C3  UNL     1     -34.154   5.764   4.250  1.00 20.00     0.156 C 
HETATM    4  C4  UNL     1     -35.353   5.689   3.313  1.00 20.00     0.078 C 
HETATM    5  C5  UNL     1     -32.851   5.904   3.473  1.00 20.00     0.078 C 
HETATM    6  O6  UNL     1     -34.092   4.565   5.039  1.00 20.00    -0.354 OA
HETATM    7  O7  UNL     1     -34.316   6.902   5.113  1.00 20.00    -0.354 OA
ENDROOT
TORSDOF 0
ENDMDL
MODEL 7
REMARK VINA RESULT:      -3.1     12.625     13.652
REMARK  0 active torsions:
REMARK  status: ('A' for Active; 'I' for Inactive)
ROOT
HETATM    1  C1  UNL     1     -33.357  16.769  -5.303  1.00 20.00     0.197 C 
HETATM    2  C2  UNL     1     -34.361  15.884  -5.989  1.00 20.00     0.197 C 
HETATM    3  C3  UNL     1     -33.993  15.117  -3.888  1.00 20.00     0.156 C 
HETATM    4  C4  UNL     1     -34.590  15.585  -2.567  1.00 20.00     0.078 C 
HETATM    5  C5  UNL     1     -33.505  13.676  -3.796  1.00 20.00     0.078 C 
HETATM    6  O6  UNL     1     -32.880  15.958  -4.231  1.00 20.00    -0.354 OA
HETATM    7  O7  UNL     1     -35.002  15.211  -4.907  1.00 20.00    -0.354 OA
ENDROOT
TORSDOF 0
ENDMDL
MODEL 8
REMARK VINA RESULT:      -3.1     12.630     13.535
REMARK  0 active torsions:
REMARK  status: ('A' for Active; 'I' for Inactive)
ROOT
HETATM    1  C1  UNL     1     -34.273  15.840  -6.041  1.00 20.00     0.197 C 
HETATM    2  C2  UNL     1     -33.358  16.775  -5.299  1.00 20.00     0.197 C 
HETATM    3  C3  UNL     1     -34.007  15.102  -3.914  1.00 20.00     0.156 C 
HETATM    4  C4  UNL     1     -33.458  13.687  -3.780  1.00 20.00     0.078 C 
HETATM    5  C5  UNL     1     -34.709  15.547  -2.638  1.00 20.00     0.078 C 
HETATM    6  O6  UNL     1     -34.951  15.144  -4.996  1.00 20.00    -0.354 OA
HETATM    7  O7  UNL     1     -32.915  15.994  -4.191  1.00 20.00    -0.354 OA
ENDROOT
TORSDOF 0
ENDMDL
MODEL 9
REMARK VINA RESULT:      -3.1      9.182     10.203
REMARK  0 active torsions:
REMARK  status: ('A' for Active; 'I' for Inactive)
ROOT
HETATM    1  C1  UNL     1     -42.019   7.216  -2.665  1.00 20.00     0.197 C 
HETATM    2  C2  UNL     1     -42.895   6.071  -3.090  1.00 20.00     0.197 C 
HETATM    3  C3  UNL     1     -41.677   5.455  -1.280  1.00 20.00     0.156 C 
HETATM    4  C4  UNL     1     -41.929   5.729   0.197  1.00 20.00     0.078 C 
HETATM    5  C5  UNL     1     -40.798   4.225  -1.473  1.00 20.00     0.078 C 
HETATM    6  O6  UNL     1     -41.017   6.587  -1.868  1.00 20.00    -0.354 OA
HETATM    7  O7  UNL     1     -42.941   5.241  -1.930  1.00 20.00    -0.354 OA
ENDROOT
TORSDOF 0
ENDMDL
