MODEL 1
REMARK VINA RESULT:      -3.5      0.000      0.000
REMARK  0 active torsions:
REMARK  status: ('A' for Active; 'I' for Inactive)
ROOT
HETATM    1  C1  UNL     1     -36.048  16.561  -3.416  1.00 20.00     0.089 A 
HETATM    2  C2  UNL     1     -37.556  14.668  -3.950  1.00 20.00     0.089 A 
HETATM    3  C3  UNL     1     -35.368  15.409  -3.720  1.00 20.00     0.109 A 
HETATM    4  C4  UNL     1     -36.228  14.336  -4.053  1.00 20.00     0.109 A 
HETATM    5  C5  UNL     1     -33.594  13.953  -3.745  1.00 20.00     0.202 C 
HETATM    6  C6  UNL     1     -34.405  13.134  -4.755  1.00 20.00     0.202 C 
HETATM    7  O7  UNL     1     -34.017  15.327  -3.716  1.00 20.00    -0.346 OA
HETATM    8  O8  UNL     1     -35.801  13.104  -4.415  1.00 20.00    -0.346 OA
HETATM    9  S9  UNL     1     -37.749  16.315  -3.492  1.00 20.00    -0.108 SA
ENDROOT
TORSDOF 0
ENDMDL
MODEL 2
REMARK VINA RESULT:      -3.5      0.089      2.061
REMARK  0 active torsions:
REMARK  status: ('A' for Active; 'I' for Inactive)
ROOT
HETATM    1  C1  UNL     1     -37.557  14.681  -3.961  1.00 20.00     0.089 A 
HETATM    2  C2  UNL     1     -36.066  16.618  -3.554  1.00 20.00     0.089 A 
HETATM    3  C3  UNL     1     -36.227  14.361  -4.071  1.00 20.00     0.109 A 
HETATM    4  C4  UNL     1     -35.375  15.460  -3.810  1.00 20.00     0.109 A 
HETATM    5  C5  UNL     1     -34.401  13.146  -4.746  1.00 20.00     0.202 C 
HETATM    6  C6  UNL     1     -33.584  14.027  -3.794  1.00 20.00     0.202 C 
HETATM    7  O7  UNL     1     -35.791  13.117  -4.379  1.00 20.00    -0.346 OA
HETATM    8  O8  UNL     1     -34.024  15.395  -3.829  1.00 20.00    -0.346 OA
HETATM    9  S9  UNL     1     -37.764  16.346  -3.584  1.00 20.00    -0.108 SA
ENDROOT
TORSDOF 0
ENDMDL
MODEL 3
REMARK VINA RESULT:      -3.4      2.130      3.737
REMARK  0 active torsions:
REMARK  status: ('A' for Active; 'I' for Inactive)
ROOT
HETATM    1  C1  UNL     1     -35.288  13.386  -4.220  1.00 20.00     0.089 A 
HETATM    2  C2  UNL     1     -34.306  15.445  -3.250  1.00 20.00     0.089 A 
HETATM    3  C3  UNL     1     -36.234  14.328  -3.902  1.00 20.00     0.109 A 
HETATM    4  C4  UNL     1     -35.671  15.514  -3.374  1.00 20.00     0.109 A 
HETATM    5  C5  UNL     1     -38.322  15.124  -3.382  1.00 20.00     0.202 C 
HETATM    6  C6  UNL     1     -37.723  16.525  -3.546  1.00 20.00     0.202 C 
HETATM    7  O7  UNL     1     -37.560  14.135  -4.094  1.00 20.00    -0.346 OA
HETATM    8  O8  UNL     1     -36.392  16.600  -3.009  1.00 20.00    -0.346 OA
HETATM    9  S9  UNL     1     -33.707  13.940  -3.827  1.00 20.00    -0.108 SA
ENDROOT
TORSDOF 0
ENDMDL
MODEL 4
REMARK VINA RESULT:      -3.4      2.607      3.463
REMARK  0 active torsions:
REMARK  status: ('A' for Active; 'I' for Inactive)
ROOT
HETATM    1  C1  UNL     1     -35.358  14.295  -6.873  1.00 20.00     0.089 A 
HETATM    2  C2  UNL     1     -34.255  16.510  -6.745  1.00 20.00     0.089 A 
HETATM    3  C3  UNL     1     -34.624  14.458  -5.725  1.00 20.00     0.109 A 
HETATM    4  C4  UNL     1     -34.018  15.734  -5.639  1.00 20.00     0.109 A 
HETATM    5  C5  UNL     1     -33.446  13.807  -3.867  1.00 20.00     0.202 C 
HETATM    6  C6  UNL     1     -33.457  15.284  -3.460  1.00 20.00     0.202 C 
HETATM    7  O7  UNL     1     -34.516  13.499  -4.776  1.00 20.00    -0.346 OA
HETATM    8  O8  UNL     1     -33.265  16.148  -4.593  1.00 20.00    -0.346 OA
HETATM    9  S9  UNL     1     -35.264  15.692  -7.872  1.00 20.00    -0.108 SA
ENDROOT
TORSDOF 0
ENDMDL
MODEL 5
REMARK VINA RESULT:      -3.4      2.601      2.831
REMARK  0 active torsions:
REMARK  status: ('A' for Active; 'I' for Inactive)
ROOT
HETATM    1  C1  UNL     1     -34.270  16.531  -6.716  1.00 20.00     0.089 A 
HETATM    2  C2  UNL     1     -35.344  14.305  -6.893  1.00 20.00     0.089 A 
HETATM    3  C3  UNL     1     -34.033  15.738  -5.622  1.00 20.00     0.109 A 
HETATM    4  C4  UNL     1     -34.622  14.456  -5.735  1.00 20.00     0.109 A 
HETATM    5  C5  UNL     1     -33.487  15.259  -3.445  1.00 20.00     0.202 C 
HETATM    6  C6  UNL     1     -33.453  13.789  -3.878  1.00 20.00     0.202 C 
HETATM    7  O7  UNL     1     -33.297  16.145  -4.561  1.00 20.00    -0.346 OA
HETATM    8  O8  UNL     1     -34.512  13.484  -4.801  1.00 20.00    -0.346 OA
HETATM    9  S9  UNL     1     -35.258  15.719  -7.866  1.00 20.00    -0.108 SA
ENDROOT
TORSDOF 0
ENDMDL
MODEL 6
REMARK VINA RESULT:      -3.3      2.449      2.617
REMARK  0 active torsions:
REMARK  status: ('A' for Active; 'I' for Inactive)
ROOT
HETATM    1  C1  UNL     1     -33.390  17.034  -5.056  1.00 20.00     0.089 A 
HETATM    2  C2  UNL     1     -35.148  16.279  -6.630  1.00 20.00     0.089 A 
HETATM    3  C3  UNL     1     -33.803  15.748  -4.814  1.00 20.00     0.109 A 
HETATM    4  C4  UNL     1     -34.787  15.306  -5.731  1.00 20.00     0.109 A 
HETATM    5  C5  UNL     1     -34.130  13.835  -3.590  1.00 20.00     0.202 C 
HETATM    6  C6  UNL     1     -34.551  13.178  -4.910  1.00 20.00     0.202 C 
HETATM    7  O7  UNL     1     -33.301  14.987  -3.813  1.00 20.00    -0.346 OA
HETATM    8  O8  UNL     1     -35.334  14.069  -5.720  1.00 20.00    -0.346 OA
HETATM    9  S9  UNL     1     -34.245  17.720  -6.381  1.00 20.00    -0.108 SA
ENDROOT
TORSDOF 0
ENDMDL
MODEL 7
REMARK VINA RESULT:      -3.3      2.444      3.207
REMARK  0 active torsions:
REMARK  status: ('A' for Active; 'I' for Inactive)
ROOT
HETATM    1  C1  UNL     1     -35.052  16.386  -6.568  1.00 20.00     0.089 A 
HETATM    2  C2  UNL     1     -33.365  17.077  -4.889  1.00 20.00     0.089 A 
HETATM    3  C3  UNL     1     -34.741  15.384  -5.683  1.00 20.00     0.109 A 
HETATM    4  C4  UNL     1     -33.799  15.787  -4.707  1.00 20.00     0.109 A 
HETATM    5  C5  UNL     1     -34.561  13.227  -4.919  1.00 20.00     0.202 C 
HETATM    6  C6  UNL     1     -34.199  13.840  -3.562  1.00 20.00     0.202 C 
HETATM    7  O7  UNL     1     -35.297  14.151  -5.738  1.00 20.00    -0.346 OA
HETATM    8  O8  UNL     1     -33.351  14.991  -3.709  1.00 20.00    -0.346 OA
HETATM    9  S9  UNL     1     -34.151  17.811  -6.231  1.00 20.00    -0.108 SA
ENDROOT
TORSDOF 0
ENDMDL
MODEL 8
REMARK VINA RESULT:      -3.3      2.115      2.583
REMARK  0 active torsions:
REMARK  status: ('A' for Active; 'I' for Inactive)
ROOT
HETATM    1  C1  UNL     1     -34.818  17.332  -4.500  1.00 20.00     0.089 A 
HETATM    2  C2  UNL     1     -33.829  16.184  -2.538  1.00 20.00     0.089 A 
HETATM    3  C3  UNL     1     -34.842  15.965  -4.615  1.00 20.00     0.109 A 
HETATM    4  C4  UNL     1     -34.304  15.308  -3.483  1.00 20.00     0.109 A 
HETATM    5  C5  UNL     1     -34.950  13.943  -5.695  1.00 20.00     0.202 C 
HETATM    6  C6  UNL     1     -35.088  13.315  -4.304  1.00 20.00     0.202 C 
HETATM    7  O7  UNL     1     -35.348  15.324  -5.696  1.00 20.00    -0.346 OA
HETATM    8  O8  UNL     1     -34.239  13.964  -3.343  1.00 20.00    -0.346 OA
HETATM    9  S9  UNL     1     -34.089  17.815  -3.018  1.00 20.00    -0.108 SA
ENDROOT
TORSDOF 0
ENDMDL
MODEL 9
REMARK VINA RESULT:      -3.3      1.398      1.604
REMARK  0 active torsions:
REMARK  status: ('A' for Active; 'I' for Inactive)
ROOT
HETATM    1  C1  UNL     1     -33.965  16.796  -2.719  1.00 20.00     0.089 A 
HETATM    2  C2  UNL     1     -36.329  16.120  -3.032  1.00 20.00     0.089 A 
HETATM    3  C3  UNL     1     -34.092  15.549  -3.279  1.00 20.00     0.109 A 
HETATM    4  C4  UNL     1     -35.442  15.175  -3.484  1.00 20.00     0.109 A 
HETATM    5  C5  UNL     1     -33.448  13.425  -3.862  1.00 20.00     0.202 C 
HETATM    6  C6  UNL     1     -34.723  13.376  -4.711  1.00 20.00     0.202 C 
HETATM    7  O7  UNL     1     -33.031  14.778  -3.611  1.00 20.00    -0.346 OA
HETATM    8  O8  UNL     1     -35.830  14.007  -4.045  1.00 20.00    -0.346 OA
HETATM    9  S9  UNL     1     -35.505  17.491  -2.399  1.00 20.00    -0.108 SA
ENDROOT
TORSDOF 0
ENDMDL
