MODEL 1
REMARK VINA RESULT:      -4.7      0.000      0.000
REMARK  4 active torsions:
REMARK  status: ('A' for Active; 'I' for Inactive)
REMARK    1  A    between atoms: C1_1  and  C5_5 
REMARK    2  A    between atoms: C1_1  and  O9_9 
REMARK    3  A    between atoms: C5_5  and  C6_6 
REMARK    4  A    between atoms: C7_7  and  O9_9 
ROOT
HETATM    1  C1  UNL     1     -32.580   6.518   3.240  1.00 20.00     0.259 C 
HETATM    2  O8  UNL     1     -32.118   5.458   2.841  1.00 20.00    -0.265 OA
ENDROOT
BRANCH   1   3
HETATM    3  C5  UNL     1     -31.945   7.876   3.045  1.00 20.00     0.111 C 
BRANCH   3   4
HETATM    4  C6  UNL     1     -31.960   8.308   1.581  1.00 20.00     0.005 C 
HETATM    5  C2  UNL     1     -32.444   9.741   1.428  1.00 20.00     0.005 C 
ENDBRANCH   3   4
ENDBRANCH   1   3
BRANCH   1   6
HETATM    6  O9  UNL     1     -33.748   6.672   3.932  1.00 20.00    -0.317 OA
BRANCH   6   7
HETATM    7  C7  UNL     1     -34.000   5.691   4.942  1.00 20.00     0.123 C 
HETATM    8  C3  UNL     1     -34.129   6.381   6.291  1.00 20.00     0.040 C 
HETATM    9  C4  UNL     1     -35.256   4.911   4.582  1.00 20.00     0.040 C 
ENDBRANCH   6   7
ENDBRANCH   1   6
TORSDOF 4
ENDMDL
MODEL 2
REMARK VINA RESULT:      -4.7      1.077      1.404
REMARK  4 active torsions:
REMARK  status: ('A' for Active; 'I' for Inactive)
REMARK    1  A    between atoms: C1_1  and  C5_5 
REMARK    2  A    between atoms: C1_1  and  O9_9 
REMARK    3  A    between atoms: C5_5  and  C6_6 
REMARK    4  A    between atoms: C7_7  and  O9_9 
ROOT
HETATM    1  C1  UNL     1     -33.653   5.855   3.184  1.00 20.00     0.259 C 
HETATM    2  O8  UNL     1     -34.248   5.209   2.333  1.00 20.00    -0.265 OA
ENDROOT
BRANCH   1   3
HETATM    3  C5  UNL     1     -32.168   6.136   3.187  1.00 20.00     0.111 C 
BRANCH   3   4
HETATM    4  C6  UNL     1     -31.870   7.633   3.206  1.00 20.00     0.005 C 
HETATM    5  C2  UNL     1     -32.076   8.260   1.836  1.00 20.00     0.005 C 
ENDBRANCH   3   4
ENDBRANCH   1   3
BRANCH   1   6
HETATM    6  O9  UNL     1     -34.216   6.440   4.284  1.00 20.00    -0.317 OA
BRANCH   6   7
HETATM    7  C7  UNL     1     -33.966   5.778   5.528  1.00 20.00     0.123 C 
HETATM    8  C3  UNL     1     -33.907   6.812   6.642  1.00 20.00     0.040 C 
HETATM    9  C4  UNL     1     -35.054   4.744   5.773  1.00 20.00     0.040 C 
ENDBRANCH   6   7
ENDBRANCH   1   6
TORSDOF 4
ENDMDL
MODEL 3
REMARK VINA RESULT:      -4.3      1.181      1.904
REMARK  4 active torsions:
REMARK  status: ('A' for Active; 'I' for Inactive)
REMARK    1  A    between atoms: C1_1  and  C5_5 
REMARK    2  A    between atoms: C1_1  and  O9_9 
REMARK    3  A    between atoms: C5_5  and  C6_6 
REMARK    4  A    between atoms: C7_7  and  O9_9 
ROOT
HETATM    1  C1  UNL     1     -33.667   5.666   3.313  1.00 20.00     0.259 C 
HETATM    2  O8  UNL     1     -34.751   5.429   2.799  1.00 20.00    -0.265 OA
ENDROOT
BRANCH   1   3
HETATM    3  C5  UNL     1     -32.434   6.133   2.574  1.00 20.00     0.111 C 
BRANCH   3   4
HETATM    4  C6  UNL     1     -32.071   7.574   2.922  1.00 20.00     0.005 C 
HETATM    5  C2  UNL     1     -32.005   8.449   1.680  1.00 20.00     0.005 C 
ENDBRANCH   3   4
ENDBRANCH   1   3
BRANCH   1   6
HETATM    6  O9  UNL     1     -33.370   5.554   4.642  1.00 20.00    -0.317 OA
BRANCH   6   7
HETATM    7  C7  UNL     1     -34.462   5.781   5.538  1.00 20.00     0.123 C 
HETATM    8  C3  UNL     1     -34.944   4.448   6.089  1.00 20.00     0.040 C 
HETATM    9  C4  UNL     1     -34.013   6.722   6.646  1.00 20.00     0.040 C 
ENDBRANCH   6   7
ENDBRANCH   1   6
TORSDOF 4
ENDMDL
MODEL 4
REMARK VINA RESULT:      -4.1     10.377     11.990
REMARK  4 active torsions:
REMARK  status: ('A' for Active; 'I' for Inactive)
REMARK    1  A    between atoms: C1_1  and  C5_5 
REMARK    2  A    between atoms: C1_1  and  O9_9 
REMARK    3  A    between atoms: C5_5  and  C6_6 
REMARK    4  A    between atoms: C7_7  and  O9_9 
ROOT
HETATM    1  C1  UNL     1     -34.330  13.514  -4.643  1.00 20.00     0.259 C 
HETATM    2  O8  UNL     1     -35.068  12.554  -4.475  1.00 20.00    -0.265 OA
ENDROOT
BRANCH   1   3
HETATM    3  C5  UNL     1     -33.252  13.965  -3.685  1.00 20.00     0.111 C 
BRANCH   3   4
HETATM    4  C6  UNL     1     -33.336  15.461  -3.393  1.00 20.00     0.005 C 
HETATM    5  C2  UNL     1     -34.479  15.780  -2.441  1.00 20.00     0.005 C 
ENDBRANCH   3   4
ENDBRANCH   1   3
BRANCH   1   6
HETATM    6  O9  UNL     1     -34.341  14.353  -5.722  1.00 20.00    -0.317 OA
BRANCH   6   7
HETATM    7  C7  UNL     1     -35.624  14.575  -6.316  1.00 20.00     0.123 C 
HETATM    8  C3  UNL     1     -36.163  15.920  -5.856  1.00 20.00     0.040 C 
HETATM    9  C4  UNL     1     -35.493  14.505  -7.830  1.00 20.00     0.040 C 
ENDBRANCH   6   7
ENDBRANCH   1   6
TORSDOF 4
ENDMDL
MODEL 5
REMARK VINA RESULT:      -4.0      1.114      4.279
REMARK  4 active torsions:
REMARK  status: ('A' for Active; 'I' for Inactive)
REMARK    1  A    between atoms: C1_1  and  C5_5 
REMARK    2  A    between atoms: C1_1  and  O9_9 
REMARK    3  A    between atoms: C5_5  and  C6_6 
REMARK    4  A    between atoms: C7_7  and  O9_9 
ROOT
HETATM    1  C1  UNL     1     -34.120   5.717   3.118  1.00 20.00     0.259 C 
HETATM    2  O8  UNL     1     -33.734   4.971   2.230  1.00 20.00    -0.265 OA
ENDROOT
BRANCH   1   3
HETATM    3  C5  UNL     1     -35.278   5.441   4.049  1.00 20.00     0.111 C 
BRANCH   3   4
HETATM    4  C6  UNL     1     -34.846   4.643   5.277  1.00 20.00     0.005 C 
HETATM    5  C2  UNL     1     -34.509   5.555   6.445  1.00 20.00     0.005 C 
ENDBRANCH   3   4
ENDBRANCH   1   3
BRANCH   1   6
HETATM    6  O9  UNL     1     -33.580   6.933   3.434  1.00 20.00    -0.317 OA
BRANCH   6   7
HETATM    7  C7  UNL     1     -32.256   7.165   2.940  1.00 20.00     0.123 C 
HETATM    8  C3  UNL     1     -32.298   8.270   1.897  1.00 20.00     0.040 C 
HETATM    9  C4  UNL     1     -31.343   7.519   4.104  1.00 20.00     0.040 C 
ENDBRANCH   6   7
ENDBRANCH   1   6
TORSDOF 4
ENDMDL
MODEL 6
REMARK VINA RESULT:      -4.0     10.729     11.590
REMARK  4 active torsions:
REMARK  status: ('A' for Active; 'I' for Inactive)
REMARK    1  A    between atoms: C1_1  and  C5_5 
REMARK    2  A    between atoms: C1_1  and  O9_9 
REMARK    3  A    between atoms: C5_5  and  C6_6 
REMARK    4  A    between atoms: C7_7  and  O9_9 
ROOT
HETATM    1  C1  UNL     1     -35.279  13.728  -4.315  1.00 20.00     0.259 C 
HETATM    2  O8  UNL     1     -35.023  12.549  -4.518  1.00 20.00    -0.265 OA
ENDROOT
BRANCH   1   3
HETATM    3  C5  UNL     1     -35.948  14.658  -5.301  1.00 20.00     0.111 C 
BRANCH   3   4
HETATM    4  C6  UNL     1     -35.454  14.432  -6.727  1.00 20.00     0.005 C 
HETATM    5  C2  UNL     1     -34.276  15.335  -7.059  1.00 20.00     0.005 C 
ENDBRANCH   3   4
ENDBRANCH   1   3
BRANCH   1   6
HETATM    6  O9  UNL     1     -35.010  14.420  -3.168  1.00 20.00    -0.317 OA
BRANCH   6   7
HETATM    7  C7  UNL     1     -34.127  15.537  -3.315  1.00 20.00     0.123 C 
HETATM    8  C3  UNL     1     -34.163  16.375  -2.047  1.00 20.00     0.040 C 
HETATM    9  C4  UNL     1     -32.725  15.030  -3.620  1.00 20.00     0.040 C 
ENDBRANCH   6   7
ENDBRANCH   1   6
TORSDOF 4
ENDMDL
MODEL 7
REMARK VINA RESULT:      -4.0     10.490     12.245
REMARK  4 active torsions:
REMARK  status: ('A' for Active; 'I' for Inactive)
REMARK    1  A    between atoms: C1_1  and  C5_5 
REMARK    2  A    between atoms: C1_1  and  O9_9 
REMARK    3  A    between atoms: C5_5  and  C6_6 
REMARK    4  A    between atoms: C7_7  and  O9_9 
ROOT
HETATM    1  C1  UNL     1     -34.878  13.717  -4.505  1.00 20.00     0.259 C 
HETATM    2  O8  UNL     1     -34.902  12.506  -4.668  1.00 20.00    -0.265 OA
ENDROOT
BRANCH   1   3
HETATM    3  C5  UNL     1     -34.271  14.427  -3.316  1.00 20.00     0.111 C 
BRANCH   3   4
HETATM    4  C6  UNL     1     -35.162  15.558  -2.809  1.00 20.00     0.005 C 
HETATM    5  C2  UNL     1     -34.525  16.287  -1.637  1.00 20.00     0.005 C 
ENDBRANCH   3   4
ENDBRANCH   1   3
BRANCH   1   6
HETATM    6  O9  UNL     1     -35.393  14.651  -5.360  1.00 20.00    -0.317 OA
BRANCH   6   7
HETATM    7  C7  UNL     1     -34.651  14.855  -6.567  1.00 20.00     0.123 C 
HETATM    8  C3  UNL     1     -35.518  14.477  -7.758  1.00 20.00     0.040 C 
HETATM    9  C4  UNL     1     -34.195  16.305  -6.635  1.00 20.00     0.040 C 
ENDBRANCH   6   7
ENDBRANCH   1   6
TORSDOF 4
ENDMDL
MODEL 8
REMARK VINA RESULT:      -4.0     10.377     11.479
REMARK  4 active torsions:
REMARK  status: ('A' for Active; 'I' for Inactive)
REMARK    1  A    between atoms: C1_1  and  C5_5 
REMARK    2  A    between atoms: C1_1  and  O9_9 
REMARK    3  A    between atoms: C5_5  and  C6_6 
REMARK    4  A    between atoms: C7_7  and  O9_9 
ROOT
HETATM    1  C1  UNL     1     -34.099  13.763  -3.963  1.00 20.00     0.259 C 
HETATM    2  O8  UNL     1     -33.036  13.279  -3.601  1.00 20.00    -0.265 OA
ENDROOT
BRANCH   1   3
HETATM    3  C5  UNL     1     -34.894  13.321  -5.170  1.00 20.00     0.111 C 
BRANCH   3   4
HETATM    4  C6  UNL     1     -35.428  14.507  -5.969  1.00 20.00     0.005 C 
HETATM    5  C2  UNL     1     -34.424  14.975  -7.011  1.00 20.00     0.005 C 
ENDBRANCH   3   4
ENDBRANCH   1   3
BRANCH   1   6
HETATM    6  O9  UNL     1     -34.762  14.788  -3.348  1.00 20.00    -0.317 OA
BRANCH   6   7
HETATM    7  C7  UNL     1     -33.932  15.786  -2.747  1.00 20.00     0.123 C 
HETATM    8  C3  UNL     1     -33.671  16.895  -3.755  1.00 20.00     0.040 C 
HETATM    9  C4  UNL     1     -34.610  16.312  -1.491  1.00 20.00     0.040 C 
ENDBRANCH   6   7
ENDBRANCH   1   6
TORSDOF 4
ENDMDL
MODEL 9
REMARK VINA RESULT:      -3.9      1.315      4.323
REMARK  4 active torsions:
REMARK  status: ('A' for Active; 'I' for Inactive)
REMARK    1  A    between atoms: C1_1  and  C5_5 
REMARK    2  A    between atoms: C1_1  and  O9_9 
REMARK    3  A    between atoms: C5_5  and  C6_6 
REMARK    4  A    between atoms: C7_7  and  O9_9 
ROOT
HETATM    1  C1  UNL     1     -32.471   6.638   3.216  1.00 20.00     0.259 C 
HETATM    2  O8  UNL     1     -31.925   5.592   2.894  1.00 20.00    -0.265 OA
ENDROOT
BRANCH   1   3
HETATM    3  C5  UNL     1     -33.792   6.745   3.943  1.00 20.00     0.111 C 
BRANCH   3   4
HETATM    4  C6  UNL     1     -34.692   5.542   3.674  1.00 20.00     0.005 C 
HETATM    5  C2  UNL     1     -35.072   4.830   4.963  1.00 20.00     0.005 C 
ENDBRANCH   3   4
ENDBRANCH   1   3
BRANCH   1   6
HETATM    6  O9  UNL     1     -31.993   7.896   2.982  1.00 20.00    -0.317 OA
BRANCH   6   7
HETATM    7  C7  UNL     1     -32.493   8.535   1.803  1.00 20.00     0.123 C 
HETATM    8  C3  UNL     1     -32.774   9.999   2.107  1.00 20.00     0.040 C 
HETATM    9  C4  UNL     1     -31.482   8.374   0.678  1.00 20.00     0.040 C 
ENDBRANCH   6   7
ENDBRANCH   1   6
TORSDOF 4
ENDMDL
