MODEL 1
REMARK VINA RESULT:      -4.3      0.000      0.000
REMARK  2 active torsions:
REMARK  status: ('A' for Active; 'I' for Inactive)
REMARK    1  A    between atoms: C5_5  and  C6_6 
REMARK    2  A    between atoms: C6_6  and  N8_8 
ROOT
HETATM    1  C1  UNL     1     -35.185   4.743   5.951  1.00 20.00     0.135 A 
HETATM    2  C2  UNL     1     -34.893   4.671   4.609  1.00 20.00     0.111 A 
HETATM    3  C3  UNL     1     -33.826   6.338   5.577  1.00 20.00     0.209 A 
HETATM    4  N7  UNL     1     -34.517   5.783   6.548  1.00 20.00    -0.255 NA
HETATM    5  N8  UNL     1     -34.021   5.699   4.385  1.00 20.00    -0.350 N 
ENDROOT
BRANCH   5   6
HETATM    6  C6  UNL     1     -33.412   6.050   3.107  1.00 20.00     0.129 C 
BRANCH   6   7
HETATM    7  C5  UNL     1     -32.151   6.893   3.283  1.00 20.00     0.016 C 
HETATM    8  C4  UNL     1     -32.082   8.009   2.254  1.00 20.00     0.006 C 
ENDBRANCH   6   7
ENDBRANCH   5   6
TORSDOF 2
ENDMDL
MODEL 2
REMARK VINA RESULT:      -4.2      0.690      1.300
REMARK  2 active torsions:
REMARK  status: ('A' for Active; 'I' for Inactive)
REMARK    1  A    between atoms: C5_5  and  C6_6 
REMARK    2  A    between atoms: C6_6  and  N8_8 
ROOT
HETATM    1  C1  UNL     1     -34.553   5.708   6.513  1.00 20.00     0.135 A 
HETATM    2  C2  UNL     1     -33.792   6.365   5.575  1.00 20.00     0.111 A 
HETATM    3  C3  UNL     1     -34.905   4.687   4.679  1.00 20.00     0.209 A 
HETATM    4  N7  UNL     1     -35.244   4.665   5.949  1.00 20.00    -0.255 NA
HETATM    5  N8  UNL     1     -34.028   5.699   4.405  1.00 20.00    -0.350 N 
ENDROOT
BRANCH   5   6
HETATM    6  C6  UNL     1     -33.450   6.011   3.103  1.00 20.00     0.129 C 
BRANCH   6   7
HETATM    7  C5  UNL     1     -32.143   6.792   3.226  1.00 20.00     0.016 C 
HETATM    8  C4  UNL     1     -32.119   7.984   2.282  1.00 20.00     0.006 C 
ENDBRANCH   6   7
ENDBRANCH   5   6
TORSDOF 2
ENDMDL
MODEL 3
REMARK VINA RESULT:      -3.8     11.362     12.441
REMARK  2 active torsions:
REMARK  status: ('A' for Active; 'I' for Inactive)
REMARK    1  A    between atoms: C5_5  and  C6_6 
REMARK    2  A    between atoms: C6_6  and  N8_8 
ROOT
HETATM    1  C1  UNL     1     -34.804  13.771  -5.656  1.00 20.00     0.135 A 
HETATM    2  C2  UNL     1     -34.494  15.046  -5.244  1.00 20.00     0.111 A 
HETATM    3  C3  UNL     1     -34.321  13.600  -3.590  1.00 20.00     0.209 A 
HETATM    4  N7  UNL     1     -34.693  12.876  -4.622  1.00 20.00    -0.255 NA
HETATM    5  N8  UNL     1     -34.188  14.920  -3.918  1.00 20.00    -0.350 N 
ENDROOT
BRANCH   5   6
HETATM    6  C6  UNL     1     -33.791  15.997  -3.018  1.00 20.00     0.129 C 
BRANCH   6   7
HETATM    7  C5  UNL     1     -34.736  16.128  -1.826  1.00 20.00     0.016 C 
HETATM    8  C4  UNL     1     -34.188  17.096  -0.789  1.00 20.00     0.006 C 
ENDBRANCH   6   7
ENDBRANCH   5   6
TORSDOF 2
ENDMDL
MODEL 4
REMARK VINA RESULT:      -3.3     11.417     13.146
REMARK  2 active torsions:
REMARK  status: ('A' for Active; 'I' for Inactive)
REMARK    1  A    between atoms: C5_5  and  C6_6 
REMARK    2  A    between atoms: C6_6  and  N8_8 
ROOT
HETATM    1  C1  UNL     1     -34.987  13.330  -5.453  1.00 20.00     0.135 A 
HETATM    2  C2  UNL     1     -34.532  14.613  -5.642  1.00 20.00     0.111 A 
HETATM    3  C3  UNL     1     -34.111  13.901  -3.599  1.00 20.00     0.209 A 
HETATM    4  N7  UNL     1     -34.722  12.892  -4.180  1.00 20.00    -0.255 NA
HETATM    5  N8  UNL     1     -33.973  14.966  -4.446  1.00 20.00    -0.350 N 
ENDROOT
BRANCH   5   6
HETATM    6  C6  UNL     1     -33.345  16.243  -4.130  1.00 20.00     0.129 C 
BRANCH   6   7
HETATM    7  C5  UNL     1     -33.424  17.227  -5.296  1.00 20.00     0.016 C 
HETATM    8  C4  UNL     1     -33.563  18.658  -4.804  1.00 20.00     0.006 C 
ENDBRANCH   6   7
ENDBRANCH   5   6
TORSDOF 2
ENDMDL
MODEL 5
REMARK VINA RESULT:      -3.3     12.491     13.739
REMARK  2 active torsions:
REMARK  status: ('A' for Active; 'I' for Inactive)
REMARK    1  A    between atoms: C5_5  and  C6_6 
REMARK    2  A    between atoms: C6_6  and  N8_8 
ROOT
HETATM    1  C1  UNL     1     -33.510  17.782  -4.956  1.00 20.00     0.135 A 
HETATM    2  C2  UNL     1     -34.114  17.910  -3.728  1.00 20.00     0.111 A 
HETATM    3  C3  UNL     1     -33.277  15.891  -4.006  1.00 20.00     0.209 A 
HETATM    4  N7  UNL     1     -32.990  16.523  -5.123  1.00 20.00    -0.255 NA
HETATM    5  N8  UNL     1     -33.958  16.691  -3.131  1.00 20.00    -0.350 N 
ENDROOT
BRANCH   5   6
HETATM    6  C6  UNL     1     -34.430  16.313  -1.804  1.00 20.00     0.129 C 
BRANCH   6   7
HETATM    7  C5  UNL     1     -34.008  17.318  -0.735  1.00 20.00     0.016 C 
HETATM    8  C4  UNL     1     -35.011  17.366   0.406  1.00 20.00     0.006 C 
ENDBRANCH   6   7
ENDBRANCH   5   6
TORSDOF 2
ENDMDL
MODEL 6
REMARK VINA RESULT:      -3.3     10.097     11.090
REMARK  2 active torsions:
REMARK  status: ('A' for Active; 'I' for Inactive)
REMARK    1  A    between atoms: C5_5  and  C6_6 
REMARK    2  A    between atoms: C6_6  and  N8_8 
ROOT
HETATM    1  C1  UNL     1     -41.642   6.490  -1.974  1.00 20.00     0.135 A 
HETATM    2  C2  UNL     1     -42.407   5.564  -2.643  1.00 20.00     0.111 A 
HETATM    3  C3  UNL     1     -40.964   4.591  -1.292  1.00 20.00     0.209 A 
HETATM    4  N7  UNL     1     -40.745   5.878  -1.135  1.00 20.00    -0.255 NA
HETATM    5  N8  UNL     1     -41.962   4.352  -2.195  1.00 20.00    -0.350 N 
ENDROOT
BRANCH   5   6
HETATM    6  C6  UNL     1     -42.459   3.045  -2.606  1.00 20.00     0.129 C 
BRANCH   6   7
HETATM    7  C5  UNL     1     -41.433   2.273  -3.433  1.00 20.00     0.016 C 
HETATM    8  C4  UNL     1     -41.898   0.852  -3.707  1.00 20.00     0.006 C 
ENDBRANCH   6   7
ENDBRANCH   5   6
TORSDOF 2
ENDMDL
MODEL 7
REMARK VINA RESULT:      -3.2     12.428     13.372
REMARK  2 active torsions:
REMARK  status: ('A' for Active; 'I' for Inactive)
REMARK    1  A    between atoms: C5_5  and  C6_6 
REMARK    2  A    between atoms: C6_6  and  N8_8 
ROOT
HETATM    1  C1  UNL     1     -34.425  15.249  -6.777  1.00 20.00     0.135 A 
HETATM    2  C2  UNL     1     -33.895  16.014  -5.766  1.00 20.00     0.111 A 
HETATM    3  C3  UNL     1     -34.573  14.055  -5.022  1.00 20.00     0.209 A 
HETATM    4  N7  UNL     1     -34.845  14.030  -6.307  1.00 20.00    -0.255 NA
HETATM    5  N8  UNL     1     -33.996  15.236  -4.647  1.00 20.00    -0.350 N 
ENDROOT
BRANCH   5   6
HETATM    6  C6  UNL     1     -33.569  15.600  -3.301  1.00 20.00     0.129 C 
BRANCH   6   7
HETATM    7  C5  UNL     1     -34.751  15.784  -2.352  1.00 20.00     0.016 C 
HETATM    8  C4  UNL     1     -34.379  16.664  -1.169  1.00 20.00     0.006 C 
ENDBRANCH   6   7
ENDBRANCH   5   6
TORSDOF 2
ENDMDL
MODEL 8
REMARK VINA RESULT:      -3.2      1.326      3.708
REMARK  2 active torsions:
REMARK  status: ('A' for Active; 'I' for Inactive)
REMARK    1  A    between atoms: C5_5  and  C6_6 
REMARK    2  A    between atoms: C6_6  and  N8_8 
ROOT
HETATM    1  C1  UNL     1     -32.197   6.495   2.782  1.00 20.00     0.135 A 
HETATM    2  C2  UNL     1     -33.307   5.698   2.636  1.00 20.00     0.111 A 
HETATM    3  C3  UNL     1     -33.317   6.745   4.575  1.00 20.00     0.209 A 
HETATM    4  N7  UNL     1     -32.208   7.145   3.991  1.00 20.00    -0.255 NA
HETATM    5  N8  UNL     1     -34.015   5.868   3.793  1.00 20.00    -0.350 N 
ENDROOT
BRANCH   5   6
HETATM    6  C6  UNL     1     -35.283   5.232   4.130  1.00 20.00     0.129 C 
BRANCH   6   7
HETATM    7  C5  UNL     1     -35.097   4.040   5.067  1.00 20.00     0.016 C 
HETATM    8  C4  UNL     1     -35.087   4.477   6.523  1.00 20.00     0.006 C 
ENDBRANCH   6   7
ENDBRANCH   5   6
TORSDOF 2
ENDMDL
MODEL 9
REMARK VINA RESULT:      -3.2     12.158     12.874
REMARK  2 active torsions:
REMARK  status: ('A' for Active; 'I' for Inactive)
REMARK    1  A    between atoms: C5_5  and  C6_6 
REMARK    2  A    between atoms: C6_6  and  N8_8 
ROOT
HETATM    1  C1  UNL     1     -38.511  15.357  -3.561  1.00 20.00     0.135 A 
HETATM    2  C2  UNL     1     -37.704  16.457  -3.393  1.00 20.00     0.111 A 
HETATM    3  C3  UNL     1     -36.520  14.641  -3.785  1.00 20.00     0.209 A 
HETATM    4  N7  UNL     1     -37.769  14.230  -3.805  1.00 20.00    -0.255 NA
HETATM    5  N8  UNL     1     -36.430  15.982  -3.539  1.00 20.00    -0.350 N 
ENDROOT
BRANCH   5   6
HETATM    6  C6  UNL     1     -35.203  16.763  -3.449  1.00 20.00     0.129 C 
BRANCH   6   7
HETATM    7  C5  UNL     1     -34.228  16.187  -2.425  1.00 20.00     0.016 C 
HETATM    8  C4  UNL     1     -34.669  16.498  -1.004  1.00 20.00     0.006 C 
ENDBRANCH   6   7
ENDBRANCH   5   6
TORSDOF 2
ENDMDL
