MODEL 1
REMARK VINA RESULT:      -4.5      0.000      0.000
REMARK  0 active torsions:
REMARK  status: ('A' for Active; 'I' for Inactive)
ROOT
HETATM    1  C1  UNL     1     -34.357  13.693  -4.725  1.00 20.00     0.226 C 
HETATM    2  C2  UNL     1     -33.673  15.968  -5.077  1.00 20.00     0.043 C 
HETATM    3  C3  UNL     1     -33.158  15.479  -3.725  1.00 20.00     0.081 C 
HETATM    4  C4  UNL     1     -34.729  14.934  -5.522  1.00 20.00     0.035 C 
HETATM    5  C5  UNL     1     -33.757  16.216  -2.536  1.00 20.00     0.032 C 
HETATM    6  C6  UNL     1     -34.640  14.660  -7.024  1.00 20.00     0.025 C 
HETATM    7  C7  UNL     1     -36.151  15.365  -5.151  1.00 20.00     0.025 C 
HETATM    8  N8  UNL     1     -33.493  14.080  -3.710  1.00 20.00    -0.356 N 
HETATM    9  O9  UNL     1     -34.777  12.563  -4.930  1.00 20.00    -0.273 OA
HETATM   10  H22 UNL     1     -33.125  13.428  -3.013  1.00 20.00     0.162 HD
ENDROOT
TORSDOF 0
ENDMDL
MODEL 2
REMARK VINA RESULT:      -4.3      1.282      3.074
REMARK  0 active torsions:
REMARK  status: ('A' for Active; 'I' for Inactive)
ROOT
HETATM    1  C1  UNL     1     -33.984  13.785  -4.235  1.00 20.00     0.226 C 
HETATM    2  C2  UNL     1     -35.526  15.480  -4.951  1.00 20.00     0.043 C 
HETATM    3  C3  UNL     1     -35.489  14.352  -5.979  1.00 20.00     0.081 C 
HETATM    4  C4  UNL     1     -34.298  15.260  -4.042  1.00 20.00     0.035 C 
HETATM    5  C5  UNL     1     -34.945  14.774  -7.335  1.00 20.00     0.032 C 
HETATM    6  C6  UNL     1     -34.630  15.556  -2.578  1.00 20.00     0.025 C 
HETATM    7  C7  UNL     1     -33.094  16.096  -4.486  1.00 20.00     0.025 C 
HETATM    8  N8  UNL     1     -34.665  13.346  -5.362  1.00 20.00    -0.356 N 
HETATM    9  O9  UNL     1     -33.235  13.119  -3.534  1.00 20.00    -0.273 OA
HETATM   10  H22 UNL     1     -34.589  12.392  -5.723  1.00 20.00     0.162 HD
ENDROOT
TORSDOF 0
ENDMDL
MODEL 3
REMARK VINA RESULT:      -4.2      1.873      2.320
REMARK  0 active torsions:
REMARK  status: ('A' for Active; 'I' for Inactive)
ROOT
HETATM    1  C1  UNL     1     -36.462  14.195  -4.243  1.00 20.00     0.226 C 
HETATM    2  C2  UNL     1     -34.583  14.531  -5.699  1.00 20.00     0.043 C 
HETATM    3  C3  UNL     1     -34.250  13.452  -4.671  1.00 20.00     0.081 C 
HETATM    4  C4  UNL     1     -35.855  15.231  -5.176  1.00 20.00     0.035 C 
HETATM    5  C5  UNL     1     -33.129  13.836  -3.717  1.00 20.00     0.032 C 
HETATM    6  C6  UNL     1     -36.817  15.562  -6.318  1.00 20.00     0.025 C 
HETATM    7  C7  UNL     1     -35.530  16.499  -4.380  1.00 20.00     0.025 C 
HETATM    8  N8  UNL     1     -35.493  13.238  -3.977  1.00 20.00    -0.356 N 
HETATM    9  O9  UNL     1     -37.597  14.226  -3.787  1.00 20.00    -0.273 OA
HETATM   10  H22 UNL     1     -35.647  12.450  -3.343  1.00 20.00     0.162 HD
ENDROOT
TORSDOF 0
ENDMDL
MODEL 4
REMARK VINA RESULT:      -4.2      1.418      2.386
REMARK  0 active torsions:
REMARK  status: ('A' for Active; 'I' for Inactive)
ROOT
HETATM    1  C1  UNL     1     -35.034  13.879  -4.664  1.00 20.00     0.226 C 
HETATM    2  C2  UNL     1     -35.716  16.132  -5.138  1.00 20.00     0.043 C 
HETATM    3  C3  UNL     1     -34.417  15.821  -5.880  1.00 20.00     0.081 C 
HETATM    4  C4  UNL     1     -35.884  15.004  -4.097  1.00 20.00     0.035 C 
HETATM    5  C5  UNL     1     -33.231  16.654  -5.418  1.00 20.00     0.032 C 
HETATM    6  C6  UNL     1     -37.346  14.572  -3.978  1.00 20.00     0.025 C 
HETATM    7  C7  UNL     1     -35.343  15.404  -2.721  1.00 20.00     0.025 C 
HETATM    8  N8  UNL     1     -34.210  14.417  -5.643  1.00 20.00    -0.356 N 
HETATM    9  O9  UNL     1     -35.055  12.714  -4.293  1.00 20.00    -0.273 OA
HETATM   10  H22 UNL     1     -33.515  13.864  -6.152  1.00 20.00     0.162 HD
ENDROOT
TORSDOF 0
ENDMDL
MODEL 5
REMARK VINA RESULT:      -4.1      2.196      2.790
REMARK  0 active torsions:
REMARK  status: ('A' for Active; 'I' for Inactive)
ROOT
HETATM    1  C1  UNL     1     -33.659  16.301  -4.459  1.00 20.00     0.226 C 
HETATM    2  C2  UNL     1     -35.461  15.200  -3.315  1.00 20.00     0.043 C 
HETATM    3  C3  UNL     1     -35.151  16.529  -2.629  1.00 20.00     0.081 C 
HETATM    4  C4  UNL     1     -34.263  14.921  -4.248  1.00 20.00     0.035 C 
HETATM    5  C5  UNL     1     -34.629  16.379  -1.208  1.00 20.00     0.032 C 
HETATM    6  C6  UNL     1     -34.722  14.322  -5.578  1.00 20.00     0.025 C 
HETATM    7  C7  UNL     1     -33.222  14.008  -3.593  1.00 20.00     0.025 C 
HETATM    8  N8  UNL     1     -34.181  17.149  -3.492  1.00 20.00    -0.356 N 
HETATM    9  O9  UNL     1     -32.833  16.593  -5.312  1.00 20.00    -0.273 OA
HETATM   10  H22 UNL     1     -33.902  18.129  -3.401  1.00 20.00     0.162 HD
ENDROOT
TORSDOF 0
ENDMDL
MODEL 6
REMARK VINA RESULT:      -4.0      1.881      3.265
REMARK  0 active torsions:
REMARK  status: ('A' for Active; 'I' for Inactive)
ROOT
HETATM    1  C1  UNL     1     -36.310  14.677  -4.339  1.00 20.00     0.226 C 
HETATM    2  C2  UNL     1     -34.368  15.997  -4.844  1.00 20.00     0.043 C 
HETATM    3  C3  UNL     1     -35.174  15.758  -6.119  1.00 20.00     0.081 C 
HETATM    4  C4  UNL     1     -34.923  14.999  -3.805  1.00 20.00     0.035 C 
HETATM    5  C5  UNL     1     -34.442  14.926  -7.161  1.00 20.00     0.032 C 
HETATM    6  C6  UNL     1     -35.011  15.634  -2.416  1.00 20.00     0.025 C 
HETATM    7  C7  UNL     1     -34.094  13.713  -3.741  1.00 20.00     0.025 C 
HETATM    8  N8  UNL     1     -36.370  15.105  -5.658  1.00 20.00    -0.356 N 
HETATM    9  O9  UNL     1     -37.197  14.109  -3.718  1.00 20.00    -0.273 OA
HETATM   10  H22 UNL     1     -37.193  14.969  -6.251  1.00 20.00     0.162 HD
ENDROOT
TORSDOF 0
ENDMDL
MODEL 7
REMARK VINA RESULT:      -4.0      1.910      2.414
REMARK  0 active torsions:
REMARK  status: ('A' for Active; 'I' for Inactive)
ROOT
HETATM    1  C1  UNL     1     -36.130  15.102  -3.279  1.00 20.00     0.226 C 
HETATM    2  C2  UNL     1     -33.729  15.148  -3.299  1.00 20.00     0.043 C 
HETATM    3  C3  UNL     1     -34.255  16.187  -2.310  1.00 20.00     0.081 C 
HETATM    4  C4  UNL     1     -34.944  14.732  -4.156  1.00 20.00     0.035 C 
HETATM    5  C5  UNL     1     -33.932  17.622  -2.697  1.00 20.00     0.032 C 
HETATM    6  C6  UNL     1     -34.933  13.230  -4.444  1.00 20.00     0.025 C 
HETATM    7  C7  UNL     1     -35.021  15.517  -5.468  1.00 20.00     0.025 C 
HETATM    8  N8  UNL     1     -35.674  15.948  -2.277  1.00 20.00    -0.356 N 
HETATM    9  O9  UNL     1     -37.285  14.741  -3.453  1.00 20.00    -0.273 OA
HETATM   10  H22 UNL     1     -36.291  16.365  -1.576  1.00 20.00     0.162 HD
ENDROOT
TORSDOF 0
ENDMDL
MODEL 8
REMARK VINA RESULT:      -4.0      1.396      1.411
REMARK  0 active torsions:
REMARK  status: ('A' for Active; 'I' for Inactive)
ROOT
HETATM    1  C1  UNL     1     -33.503  14.181  -4.069  1.00 20.00     0.226 C 
HETATM    2  C2  UNL     1     -34.444  16.006  -5.314  1.00 20.00     0.043 C 
HETATM    3  C3  UNL     1     -33.292  16.513  -4.448  1.00 20.00     0.081 C 
HETATM    4  C4  UNL     1     -34.781  14.597  -4.779  1.00 20.00     0.035 C 
HETATM    5  C5  UNL     1     -33.723  17.493  -3.367  1.00 20.00     0.032 C 
HETATM    6  C6  UNL     1     -35.105  13.632  -5.921  1.00 20.00     0.025 C 
HETATM    7  C7  UNL     1     -35.934  14.623  -3.772  1.00 20.00     0.025 C 
HETATM    8  N8  UNL     1     -32.724  15.316  -3.888  1.00 20.00    -0.356 N 
HETATM    9  O9  UNL     1     -33.232  13.048  -3.696  1.00 20.00    -0.273 OA
HETATM   10  H22 UNL     1     -31.825  15.303  -3.400  1.00 20.00     0.162 HD
ENDROOT
TORSDOF 0
ENDMDL
MODEL 9
REMARK VINA RESULT:      -4.0      1.518      2.640
REMARK  0 active torsions:
REMARK  status: ('A' for Active; 'I' for Inactive)
ROOT
HETATM    1  C1  UNL     1     -35.123  13.695  -4.379  1.00 20.00     0.226 C 
HETATM    2  C2  UNL     1     -35.018  15.836  -3.297  1.00 20.00     0.043 C 
HETATM    3  C3  UNL     1     -36.474  15.394  -3.422  1.00 20.00     0.081 C 
HETATM    4  C4  UNL     1     -34.216  14.906  -4.233  1.00 20.00     0.035 C 
HETATM    5  C5  UNL     1     -37.312  16.287  -4.324  1.00 20.00     0.032 C 
HETATM    6  C6  UNL     1     -32.878  14.508  -3.608  1.00 20.00     0.025 C 
HETATM    7  C7  UNL     1     -33.985  15.534  -5.611  1.00 20.00     0.025 C 
HETATM    8  N8  UNL     1     -36.388  14.051  -3.931  1.00 20.00    -0.356 N 
HETATM    9  O9  UNL     1     -34.795  12.612  -4.843  1.00 20.00    -0.273 OA
HETATM   10  H22 UNL     1     -37.189  13.415  -3.960  1.00 20.00     0.162 HD
ENDROOT
TORSDOF 0
ENDMDL
