MODEL 1
REMARK VINA RESULT:      -4.6      0.000      0.000
REMARK  0 active torsions:
REMARK  status: ('A' for Active; 'I' for Inactive)
ROOT
HETATM    1  C1  UNL     1     -35.892  15.909  -2.598  1.00 20.00    -0.007 C 
HETATM    2  C2  UNL     1     -34.646  16.164  -2.180  1.00 20.00     0.008 C 
HETATM    3  C3  UNL     1     -36.196  15.192  -3.877  1.00 20.00     0.035 C 
HETATM    4  C4  UNL     1     -33.414  15.773  -2.936  1.00 20.00     0.058 C 
HETATM    5  C5  UNL     1     -35.086  13.805  -5.670  1.00 20.00     0.172 C 
HETATM    6  C6  UNL     1     -33.754  13.367  -3.802  1.00 20.00     0.172 C 
HETATM    7  C7  UNL     1     -34.998  15.077  -4.840  1.00 20.00     0.019 C 
HETATM    8  C8  UNL     1     -33.674  14.852  -4.127  1.00 20.00     0.021 C 
HETATM    9  O9  UNL     1     -34.494  12.760  -4.876  1.00 20.00    -0.390 OA
HETATM   10 CL10 UNL     1     -34.376  16.991  -0.686  1.00 20.00    -0.089 Cl
ENDROOT
TORSDOF 0
ENDMDL
MODEL 2
REMARK VINA RESULT:      -4.2      1.964      2.562
REMARK  0 active torsions:
REMARK  status: ('A' for Active; 'I' for Inactive)
ROOT
HETATM    1  C1  UNL     1     -33.789  16.666  -5.564  1.00 20.00    -0.007 C 
HETATM    2  C2  UNL     1     -33.734  17.272  -4.371  1.00 20.00     0.008 C 
HETATM    3  C3  UNL     1     -34.126  15.217  -5.731  1.00 20.00     0.035 C 
HETATM    4  C4  UNL     1     -33.995  16.580  -3.069  1.00 20.00     0.058 C 
HETATM    5  C5  UNL     1     -35.066  13.252  -4.456  1.00 20.00     0.172 C 
HETATM    6  C6  UNL     1     -36.063  15.071  -3.381  1.00 20.00     0.172 C 
HETATM    7  C7  UNL     1     -34.063  14.397  -4.428  1.00 20.00     0.019 C 
HETATM    8  C8  UNL     1     -34.554  15.165  -3.211  1.00 20.00     0.021 C 
HETATM    9  O9  UNL     1     -36.319  13.799  -4.003  1.00 20.00    -0.390 OA
HETATM   10 CL10 UNL     1     -33.347  18.953  -4.261  1.00 20.00    -0.089 Cl
ENDROOT
TORSDOF 0
ENDMDL
MODEL 3
REMARK VINA RESULT:      -4.2      1.655      2.324
REMARK  0 active torsions:
REMARK  status: ('A' for Active; 'I' for Inactive)
ROOT
HETATM    1  C1  UNL     1     -34.459  14.289  -3.275  1.00 20.00    -0.007 C 
HETATM    2  C2  UNL     1     -34.821  15.549  -3.001  1.00 20.00     0.008 C 
HETATM    3  C3  UNL     1     -34.636  13.662  -4.622  1.00 20.00     0.035 C 
HETATM    4  C4  UNL     1     -35.446  16.475  -3.998  1.00 20.00     0.058 C 
HETATM    5  C5  UNL     1     -35.158  14.255  -7.020  1.00 20.00     0.172 C 
HETATM    6  C6  UNL     1     -34.167  16.214  -6.223  1.00 20.00     0.172 C 
HETATM    7  C7  UNL     1     -35.572  14.441  -5.567  1.00 20.00     0.019 C 
HETATM    8  C8  UNL     1     -35.441  15.949  -5.432  1.00 20.00     0.021 C 
HETATM    9  O9  UNL     1     -34.141  15.241  -7.281  1.00 20.00    -0.390 OA
HETATM   10 CL10 UNL     1     -34.576  16.206  -1.421  1.00 20.00    -0.089 Cl
ENDROOT
TORSDOF 0
ENDMDL
MODEL 4
REMARK VINA RESULT:      -4.2      0.921      2.108
REMARK  0 active torsions:
REMARK  status: ('A' for Active; 'I' for Inactive)
ROOT
HETATM    1  C1  UNL     1     -33.361  15.809  -2.863  1.00 20.00    -0.007 C 
HETATM    2  C2  UNL     1     -34.535  16.304  -2.454  1.00 20.00     0.008 C 
HETATM    3  C3  UNL     1     -33.243  14.584  -3.717  1.00 20.00     0.035 C 
HETATM    4  C4  UNL     1     -35.863  15.697  -2.790  1.00 20.00     0.058 C 
HETATM    5  C5  UNL     1     -34.633  13.034  -5.143  1.00 20.00     0.172 C 
HETATM    6  C6  UNL     1     -35.818  15.042  -5.284  1.00 20.00     0.172 C 
HETATM    7  C7  UNL     1     -34.531  13.742  -3.800  1.00 20.00     0.019 C 
HETATM    8  C8  UNL     1     -35.797  14.583  -3.833  1.00 20.00     0.021 C 
HETATM    9  O9  UNL     1     -35.238  13.973  -6.052  1.00 20.00    -0.390 OA
HETATM   10 CL10 UNL     1     -34.590  17.729  -1.476  1.00 20.00    -0.089 Cl
ENDROOT
TORSDOF 0
ENDMDL
MODEL 5
REMARK VINA RESULT:      -4.1      3.077      4.041
REMARK  0 active torsions:
REMARK  status: ('A' for Active; 'I' for Inactive)
ROOT
HETATM    1  C1  UNL     1     -34.989  14.549  -4.842  1.00 20.00    -0.007 C 
HETATM    2  C2  UNL     1     -34.266  15.310  -5.675  1.00 20.00     0.008 C 
HETATM    3  C3  UNL     1     -35.024  14.764  -3.361  1.00 20.00     0.035 C 
HETATM    4  C4  UNL     1     -33.408  16.453  -5.231  1.00 20.00     0.058 C 
HETATM    5  C5  UNL     1     -34.382  16.453  -1.598  1.00 20.00     0.172 C 
HETATM    6  C6  UNL     1     -34.736  17.798  -3.475  1.00 20.00     0.172 C 
HETATM    7  C7  UNL     1     -33.912  15.688  -2.827  1.00 20.00     0.019 C 
HETATM    8  C8  UNL     1     -33.588  16.841  -3.764  1.00 20.00     0.021 C 
HETATM    9  O9  UNL     1     -35.064  17.624  -2.085  1.00 20.00    -0.390 OA
HETATM   10 CL10 UNL     1     -34.284  15.004  -7.376  1.00 20.00    -0.089 Cl
ENDROOT
TORSDOF 0
ENDMDL
MODEL 6
REMARK VINA RESULT:      -4.1      2.913      3.762
REMARK  0 active torsions:
REMARK  status: ('A' for Active; 'I' for Inactive)
ROOT
HETATM    1  C1  UNL     1     -36.081  15.844  -5.665  1.00 20.00    -0.007 C 
HETATM    2  C2  UNL     1     -35.438  14.747  -6.085  1.00 20.00     0.008 C 
HETATM    3  C3  UNL     1     -36.053  16.313  -4.244  1.00 20.00     0.035 C 
HETATM    4  C4  UNL     1     -34.626  13.860  -5.194  1.00 20.00     0.058 C 
HETATM    5  C5  UNL     1     -34.830  15.940  -2.067  1.00 20.00     0.172 C 
HETATM    6  C6  UNL     1     -33.213  15.373  -3.655  1.00 20.00     0.172 C 
HETATM    7  C7  UNL     1     -35.529  15.267  -3.240  1.00 20.00     0.019 C 
HETATM    8  C8  UNL     1     -34.393  14.421  -3.792  1.00 20.00     0.021 C 
HETATM    9  O9  UNL     1     -33.469  16.164  -2.481  1.00 20.00    -0.390 OA
HETATM   10 CL10 UNL     1     -35.510  14.274  -7.747  1.00 20.00    -0.089 Cl
ENDROOT
TORSDOF 0
ENDMDL
MODEL 7
REMARK VINA RESULT:      -4.0      1.461      1.642
REMARK  0 active torsions:
REMARK  status: ('A' for Active; 'I' for Inactive)
ROOT
HETATM    1  C1  UNL     1     -34.926  16.823  -2.258  1.00 20.00    -0.007 C 
HETATM    2  C2  UNL     1     -34.014  17.474  -2.991  1.00 20.00     0.008 C 
HETATM    3  C3  UNL     1     -35.417  15.450  -2.595  1.00 20.00     0.035 C 
HETATM    4  C4  UNL     1     -33.384  16.917  -4.230  1.00 20.00     0.058 C 
HETATM    5  C5  UNL     1     -34.884  13.472  -4.070  1.00 20.00     0.172 C 
HETATM    6  C6  UNL     1     -32.785  14.452  -3.767  1.00 20.00     0.172 C 
HETATM    7  C7  UNL     1     -35.066  14.982  -4.021  1.00 20.00     0.019 C 
HETATM    8  C8  UNL     1     -33.692  15.443  -4.482  1.00 20.00     0.021 C 
HETATM    9  O9  UNL     1     -33.517  13.216  -3.694  1.00 20.00    -0.390 OA
HETATM   10 CL10 UNL     1     -33.490  19.057  -2.532  1.00 20.00    -0.089 Cl
ENDROOT
TORSDOF 0
ENDMDL
MODEL 8
REMARK VINA RESULT:      -4.0      1.922      2.656
REMARK  0 active torsions:
REMARK  status: ('A' for Active; 'I' for Inactive)
ROOT
HETATM    1  C1  UNL     1     -34.280  16.995  -4.972  1.00 20.00    -0.007 C 
HETATM    2  C2  UNL     1     -35.428  17.184  -4.310  1.00 20.00     0.008 C 
HETATM    3  C3  UNL     1     -33.421  15.782  -4.791  1.00 20.00     0.035 C 
HETATM    4  C4  UNL     1     -35.987  16.218  -3.312  1.00 20.00     0.058 C 
HETATM    5  C5  UNL     1     -33.467  13.467  -3.785  1.00 20.00     0.172 C 
HETATM    6  C6  UNL     1     -35.719  13.843  -4.280  1.00 20.00     0.172 C 
HETATM    7  C7  UNL     1     -33.767  14.940  -3.547  1.00 20.00     0.019 C 
HETATM    8  C8  UNL     1     -35.259  14.876  -3.261  1.00 20.00     0.021 C 
HETATM    9  O9  UNL     1     -34.630  12.915  -4.432  1.00 20.00    -0.390 OA
HETATM   10 CL10 UNL     1     -36.370  18.609  -4.581  1.00 20.00    -0.089 Cl
ENDROOT
TORSDOF 0
ENDMDL
MODEL 9
REMARK VINA RESULT:      -4.0      2.793      3.697
REMARK  0 active torsions:
REMARK  status: ('A' for Active; 'I' for Inactive)
ROOT
HETATM    1  C1  UNL     1     -35.349  15.603  -6.727  1.00 20.00    -0.007 C 
HETATM    2  C2  UNL     1     -36.536  15.265  -6.208  1.00 20.00     0.008 C 
HETATM    3  C3  UNL     1     -34.077  15.591  -5.937  1.00 20.00     0.035 C 
HETATM    4  C4  UNL     1     -36.738  14.842  -4.786  1.00 20.00     0.058 C 
HETATM    5  C5  UNL     1     -33.122  14.764  -3.752  1.00 20.00     0.172 C 
HETATM    6  C6  UNL     1     -34.827  13.223  -4.169  1.00 20.00     0.172 C 
HETATM    7  C7  UNL     1     -34.279  15.501  -4.412  1.00 20.00     0.019 C 
HETATM    8  C8  UNL     1     -35.442  14.606  -4.012  1.00 20.00     0.021 C 
HETATM    9  O9  UNL     1     -33.435  13.360  -3.835  1.00 20.00    -0.390 OA
HETATM   10 CL10 UNL     1     -37.960  15.296  -7.189  1.00 20.00    -0.089 Cl
ENDROOT
TORSDOF 0
ENDMDL
