MODEL 1
REMARK VINA RESULT:      -4.6      0.000      0.000
REMARK  1 active torsions:
REMARK  status: ('A' for Active; 'I' for Inactive)
REMARK    1  A    between atoms: C3_3  and  O11_11 
ROOT
HETATM    1  C1  UNL     1     -33.842  16.989  -4.753  1.00 20.00    -0.019 A 
HETATM    2  C2  UNL     1     -34.046  17.286  -3.410  1.00 20.00    -0.029 A 
HETATM    3  C3  UNL     1     -33.943  15.673  -5.191  1.00 20.00     0.096 A 
HETATM    4  C4  UNL     1     -34.346  16.240  -2.552  1.00 20.00     0.037 A 
HETATM    5  C5  UNL     1     -34.246  14.699  -4.253  1.00 20.00     0.064 A 
HETATM    6  C6  UNL     1     -33.516  18.075  -5.727  1.00 20.00     0.052 C 
HETATM    7  C7  UNL     1     -33.945  18.688  -2.911  1.00 20.00     0.051 C 
HETATM    8  C8  UNL     1     -34.576  16.499  -1.099  1.00 20.00     0.071 C 
HETATM    9  C9  UNL     1     -34.366  13.269  -4.668  1.00 20.00     0.073 C 
HETATM   10  N10 UNL     1     -34.451  14.949  -2.940  1.00 20.00    -0.255 NA
ENDROOT
BRANCH   3  11
HETATM   11  O11 UNL     1     -33.748  15.351  -6.498  1.00 20.00    -0.358 OA
HETATM   12  H24 UNL     1     -33.127  15.972  -6.909  1.00 20.00     0.217 HD
ENDBRANCH   3  11
TORSDOF 1
ENDMDL
MODEL 2
REMARK VINA RESULT:      -4.5      1.501      3.256
REMARK  1 active torsions:
REMARK  status: ('A' for Active; 'I' for Inactive)
REMARK    1  A    between atoms: C3_3  and  O11_11 
ROOT
HETATM    1  C1  UNL     1     -33.988  16.936  -4.890  1.00 20.00    -0.019 A 
HETATM    2  C2  UNL     1     -34.245  15.630  -5.294  1.00 20.00    -0.029 A 
HETATM    3  C3  UNL     1     -34.039  17.261  -3.540  1.00 20.00     0.096 A 
HETATM    4  C4  UNL     1     -34.546  14.695  -4.317  1.00 20.00     0.037 A 
HETATM    5  C5  UNL     1     -34.350  16.254  -2.641  1.00 20.00     0.064 A 
HETATM    6  C6  UNL     1     -33.658  17.989  -5.899  1.00 20.00     0.052 C 
HETATM    7  C7  UNL     1     -34.198  15.250  -6.736  1.00 20.00     0.051 C 
HETATM    8  C8  UNL     1     -34.830  13.277  -4.692  1.00 20.00     0.071 C 
HETATM    9  C9  UNL     1     -34.419  16.548  -1.178  1.00 20.00     0.073 C 
HETATM   10  N10 UNL     1     -34.605  14.974  -2.996  1.00 20.00    -0.255 NA
ENDROOT
BRANCH   3  11
HETATM   11  O11 UNL     1     -33.793  18.529  -3.114  1.00 20.00    -0.358 OA
HETATM   12  H24 UNL     1     -34.351  18.743  -2.349  1.00 20.00     0.217 HD
ENDBRANCH   3  11
TORSDOF 1
ENDMDL
MODEL 3
REMARK VINA RESULT:      -4.4      2.589      3.841
REMARK  1 active torsions:
REMARK  status: ('A' for Active; 'I' for Inactive)
REMARK    1  A    between atoms: C3_3  and  O11_11 
ROOT
HETATM    1  C1  UNL     1     -34.749  15.928  -2.684  1.00 20.00    -0.019 A 
HETATM    2  C2  UNL     1     -34.206  14.908  -3.457  1.00 20.00    -0.029 A 
HETATM    3  C3  UNL     1     -36.124  16.132  -2.681  1.00 20.00     0.096 A 
HETATM    4  C4  UNL     1     -35.073  14.127  -4.203  1.00 20.00     0.037 A 
HETATM    5  C5  UNL     1     -36.906  15.296  -3.462  1.00 20.00     0.064 A 
HETATM    6  C6  UNL     1     -33.864  16.804  -1.857  1.00 20.00     0.052 C 
HETATM    7  C7  UNL     1     -32.734  14.665  -3.482  1.00 20.00     0.051 C 
HETATM    8  C8  UNL     1     -34.546  13.016  -5.053  1.00 20.00     0.071 C 
HETATM    9  C9  UNL     1     -38.389  15.471  -3.496  1.00 20.00     0.073 C 
HETATM   10  N10 UNL     1     -36.414  14.295  -4.226  1.00 20.00    -0.255 NA
ENDROOT
BRANCH   3  11
HETATM   11  O11 UNL     1     -36.685  17.121  -1.935  1.00 20.00    -0.358 OA
HETATM   12  H24 UNL     1     -36.754  16.846  -1.006  1.00 20.00     0.217 HD
ENDBRANCH   3  11
TORSDOF 1
ENDMDL
MODEL 4
REMARK VINA RESULT:      -4.2      2.204      2.914
REMARK  1 active torsions:
REMARK  status: ('A' for Active; 'I' for Inactive)
REMARK    1  A    between atoms: C3_3  and  O11_11 
ROOT
HETATM    1  C1  UNL     1     -36.303  15.046  -3.727  1.00 20.00    -0.019 A 
HETATM    2  C2  UNL     1     -36.021  16.368  -3.403  1.00 20.00    -0.029 A 
HETATM    3  C3  UNL     1     -35.271  14.116  -3.786  1.00 20.00     0.096 A 
HETATM    4  C4  UNL     1     -34.701  16.708  -3.149  1.00 20.00     0.037 A 
HETATM    5  C5  UNL     1     -33.985  14.556  -3.516  1.00 20.00     0.064 A 
HETATM    6  C6  UNL     1     -37.707  14.620  -4.011  1.00 20.00     0.052 C 
HETATM    7  C7  UNL     1     -37.106  17.389  -3.332  1.00 20.00     0.051 C 
HETATM    8  C8  UNL     1     -34.338  18.113  -2.796  1.00 20.00     0.071 C 
HETATM    9  C9  UNL     1     -32.839  13.599  -3.566  1.00 20.00     0.073 C 
HETATM   10  N10 UNL     1     -33.672  15.832  -3.198  1.00 20.00    -0.255 NA
ENDROOT
BRANCH   3  11
HETATM   11  O11 UNL     1     -35.516  12.816  -4.100  1.00 20.00    -0.358 OA
HETATM   12  H24 UNL     1     -35.939  12.752  -4.971  1.00 20.00     0.217 HD
ENDBRANCH   3  11
TORSDOF 1
ENDMDL
MODEL 5
REMARK VINA RESULT:      -4.2      2.581      3.665
REMARK  1 active torsions:
REMARK  status: ('A' for Active; 'I' for Inactive)
REMARK    1  A    between atoms: C3_3  and  O11_11 
ROOT
HETATM    1  C1  UNL     1     -35.470  14.675  -3.774  1.00 20.00    -0.019 A 
HETATM    2  C2  UNL     1     -34.465  15.604  -3.526  1.00 20.00    -0.029 A 
HETATM    3  C3  UNL     1     -36.802  15.049  -3.640  1.00 20.00     0.096 A 
HETATM    4  C4  UNL     1     -34.842  16.883  -3.149  1.00 20.00     0.037 A 
HETATM    5  C5  UNL     1     -37.075  16.352  -3.257  1.00 20.00     0.064 A 
HETATM    6  C6  UNL     1     -35.125  13.279  -4.184  1.00 20.00     0.052 C 
HETATM    7  C7  UNL     1     -33.027  15.233  -3.662  1.00 20.00     0.051 C 
HETATM    8  C8  UNL     1     -33.807  17.923  -2.870  1.00 20.00     0.071 C 
HETATM    9  C9  UNL     1     -38.488  16.807  -3.098  1.00 20.00     0.073 C 
HETATM   10  N10 UNL     1     -36.126  17.282  -3.008  1.00 20.00    -0.255 NA
ENDROOT
BRANCH   3  11
HETATM   11  O11 UNL     1     -37.806  14.163  -3.876  1.00 20.00    -0.358 OA
HETATM   12  H24 UNL     1     -37.496  13.445  -4.451  1.00 20.00     0.217 HD
ENDBRANCH   3  11
TORSDOF 1
ENDMDL
MODEL 6
REMARK VINA RESULT:      -4.1     12.240     13.759
REMARK  1 active torsions:
REMARK  status: ('A' for Active; 'I' for Inactive)
REMARK    1  A    between atoms: C3_3  and  O11_11 
ROOT
HETATM    1  C1  UNL     1     -41.657   5.511  -1.413  1.00 20.00    -0.019 A 
HETATM    2  C2  UNL     1     -42.073   6.762  -1.856  1.00 20.00    -0.029 A 
HETATM    3  C3  UNL     1     -42.087   4.368  -2.077  1.00 20.00     0.096 A 
HETATM    4  C4  UNL     1     -42.912   6.815  -2.958  1.00 20.00     0.037 A 
HETATM    5  C5  UNL     1     -42.925   4.528  -3.169  1.00 20.00     0.064 A 
HETATM    6  C6  UNL     1     -40.753   5.390  -0.229  1.00 20.00     0.052 C 
HETATM    7  C7  UNL     1     -41.630   8.007  -1.164  1.00 20.00     0.051 C 
HETATM    8  C8  UNL     1     -43.391   8.131  -3.479  1.00 20.00     0.071 C 
HETATM    9  C9  UNL     1     -43.416   3.333  -3.919  1.00 20.00     0.073 C 
HETATM   10  N10 UNL     1     -43.350   5.726  -3.628  1.00 20.00    -0.255 NA
ENDROOT
BRANCH   3  11
HETATM   11  O11 UNL     1     -41.697   3.131  -1.668  1.00 20.00    -0.358 OA
HETATM   12  H24 UNL     1     -40.940   3.198  -1.064  1.00 20.00     0.217 HD
ENDBRANCH   3  11
TORSDOF 1
ENDMDL
MODEL 7
REMARK VINA RESULT:      -4.1      2.512      4.139
REMARK  1 active torsions:
REMARK  status: ('A' for Active; 'I' for Inactive)
REMARK    1  A    between atoms: C3_3  and  O11_11 
ROOT
HETATM    1  C1  UNL     1     -36.181  15.205  -3.436  1.00 20.00    -0.019 A 
HETATM    2  C2  UNL     1     -34.989  14.558  -3.740  1.00 20.00    -0.029 A 
HETATM    3  C3  UNL     1     -36.161  16.360  -2.663  1.00 20.00     0.096 A 
HETATM    4  C4  UNL     1     -33.812  15.101  -3.250  1.00 20.00     0.037 A 
HETATM    5  C5  UNL     1     -34.932  16.823  -2.220  1.00 20.00     0.064 A 
HETATM    6  C6  UNL     1     -37.483  14.666  -3.937  1.00 20.00     0.052 C 
HETATM    7  C7  UNL     1     -34.978  13.316  -4.567  1.00 20.00     0.051 C 
HETATM    8  C8  UNL     1     -32.500  14.449  -3.544  1.00 20.00     0.071 C 
HETATM    9  C9  UNL     1     -34.852  18.058  -1.386  1.00 20.00     0.073 C 
HETATM   10  N10 UNL     1     -33.753  16.221  -2.495  1.00 20.00    -0.255 NA
ENDROOT
BRANCH   3  11
HETATM   11  O11 UNL     1     -37.311  17.015  -2.350  1.00 20.00    -0.358 OA
HETATM   12  H24 UNL     1     -38.082  16.496  -2.630  1.00 20.00     0.217 HD
ENDBRANCH   3  11
TORSDOF 1
ENDMDL
MODEL 8
REMARK VINA RESULT:      -4.1      2.225      3.328
REMARK  1 active torsions:
REMARK  status: ('A' for Active; 'I' for Inactive)
REMARK    1  A    between atoms: C3_3  and  O11_11 
ROOT
HETATM    1  C1  UNL     1     -34.830  15.564  -5.806  1.00 20.00    -0.019 A 
HETATM    2  C2  UNL     1     -36.193  15.373  -5.608  1.00 20.00    -0.029 A 
HETATM    3  C3  UNL     1     -34.013  15.871  -4.723  1.00 20.00     0.096 A 
HETATM    4  C4  UNL     1     -36.687  15.501  -4.320  1.00 20.00     0.037 A 
HETATM    5  C5  UNL     1     -34.604  15.977  -3.474  1.00 20.00     0.064 A 
HETATM    6  C6  UNL     1     -34.239  15.440  -7.173  1.00 20.00     0.052 C 
HETATM    7  C7  UNL     1     -37.095  15.043  -6.750  1.00 20.00     0.051 C 
HETATM    8  C8  UNL     1     -38.143  15.307  -4.047  1.00 20.00     0.071 C 
HETATM    9  C9  UNL     1     -33.774  16.305  -2.277  1.00 20.00     0.073 C 
HETATM   10  N10 UNL     1     -35.925  15.799  -3.244  1.00 20.00    -0.255 NA
ENDROOT
BRANCH   3  11
HETATM   11  O11 UNL     1     -32.677  16.063  -4.885  1.00 20.00    -0.358 OA
HETATM   12  H24 UNL     1     -32.212  15.924  -4.044  1.00 20.00     0.217 HD
ENDBRANCH   3  11
TORSDOF 1
ENDMDL
MODEL 9
REMARK VINA RESULT:      -4.0      4.836      6.606
REMARK  1 active torsions:
REMARK  status: ('A' for Active; 'I' for Inactive)
REMARK    1  A    between atoms: C3_3  and  O11_11 
ROOT
HETATM    1  C1  UNL     1     -32.332  18.828   2.175  1.00 20.00    -0.019 A 
HETATM    2  C2  UNL     1     -33.470  18.553   2.925  1.00 20.00    -0.029 A 
HETATM    3  C3  UNL     1     -32.371  18.698   0.791  1.00 20.00     0.096 A 
HETATM    4  C4  UNL     1     -34.613  18.154   2.250  1.00 20.00     0.037 A 
HETATM    5  C5  UNL     1     -33.563  18.292   0.211  1.00 20.00     0.064 A 
HETATM    6  C6  UNL     1     -31.070  19.263   2.847  1.00 20.00     0.052 C 
HETATM    7  C7  UNL     1     -33.459  18.683   4.411  1.00 20.00     0.051 C 
HETATM    8  C8  UNL     1     -35.865  17.845   3.003  1.00 20.00     0.071 C 
HETATM    9  C9  UNL     1     -33.660  18.136  -1.271  1.00 20.00     0.073 C 
HETATM   10  N10 UNL     1     -34.688  18.016   0.907  1.00 20.00    -0.255 NA
ENDROOT
BRANCH   3  11
HETATM   11  O11 UNL     1     -31.275  18.960   0.031  1.00 20.00    -0.358 OA
HETATM   12  H24 UNL     1     -30.720  18.168  -0.047  1.00 20.00     0.217 HD
ENDBRANCH   3  11
TORSDOF 1
ENDMDL
