MODEL 1
REMARK VINA RESULT:      -5.3      0.000      0.000
REMARK  0 active torsions:
REMARK  status: ('A' for Active; 'I' for Inactive)
ROOT
HETATM    1  C1  UNL     1     -35.852  14.803  -3.819  1.00 20.00    -0.017 C 
HETATM    2  C2  UNL     1     -34.824  13.724  -3.999  1.00 20.00     0.155 C 
HETATM    3  C3  UNL     1     -37.148  14.587  -4.058  1.00 20.00     0.023 C 
HETATM    4  C4  UNL     1     -33.385  14.166  -3.749  1.00 20.00     0.089 C 
HETATM    5  C5  UNL     1     -34.319  15.939  -2.191  1.00 20.00     0.016 C 
HETATM    6  C6  UNL     1     -35.349  16.137  -3.359  1.00 20.00     0.030 C 
HETATM    7  C7  UNL     1     -33.284  15.644  -3.322  1.00 20.00     0.002 C 
HETATM    8  C8  UNL     1     -34.111  16.673  -4.205  1.00 20.00    -0.036 C 
HETATM    9  C9  UNL     1     -33.765  18.155  -3.962  1.00 20.00     0.016 C 
HETATM   10  C10 UNL     1     -34.123  16.441  -5.721  1.00 20.00     0.016 C 
HETATM   11  O11 UNL     1     -35.111  12.579  -4.328  1.00 20.00    -0.293 OA
ENDROOT
TORSDOF 0
ENDMDL
MODEL 2
REMARK VINA RESULT:      -4.9      2.220      3.660
REMARK  0 active torsions:
REMARK  status: ('A' for Active; 'I' for Inactive)
ROOT
HETATM    1  C1  UNL     1     -34.503  16.501  -2.208  1.00 20.00    -0.017 C 
HETATM    2  C2  UNL     1     -33.840  17.581  -3.012  1.00 20.00     0.155 C 
HETATM    3  C3  UNL     1     -34.610  16.577  -0.879  1.00 20.00     0.023 C 
HETATM    4  C4  UNL     1     -33.743  17.295  -4.508  1.00 20.00     0.089 C 
HETATM    5  C5  UNL     1     -35.804  15.836  -4.247  1.00 20.00     0.016 C 
HETATM    6  C6  UNL     1     -35.038  15.329  -2.974  1.00 20.00     0.030 C 
HETATM    7  C7  UNL     1     -34.390  15.950  -4.897  1.00 20.00     0.002 C 
HETATM    8  C8  UNL     1     -33.987  14.707  -3.995  1.00 20.00    -0.036 C 
HETATM    9  C9  UNL     1     -34.390  13.336  -4.571  1.00 20.00     0.016 C 
HETATM   10  C10 UNL     1     -32.522  14.612  -3.550  1.00 20.00     0.016 C 
HETATM   11  O11 UNL     1     -33.401  18.610  -2.511  1.00 20.00    -0.293 OA
ENDROOT
TORSDOF 0
ENDMDL
MODEL 3
REMARK VINA RESULT:      -4.8      1.572      2.557
REMARK  0 active torsions:
REMARK  status: ('A' for Active; 'I' for Inactive)
ROOT
HETATM    1  C1  UNL     1     -34.421  14.161  -4.827  1.00 20.00    -0.017 C 
HETATM    2  C2  UNL     1     -34.219  15.174  -5.914  1.00 20.00     0.155 C 
HETATM    3  C3  UNL     1     -34.901  12.940  -5.081  1.00 20.00     0.023 C 
HETATM    4  C4  UNL     1     -33.729  16.537  -5.434  1.00 20.00     0.089 C 
HETATM    5  C5  UNL     1     -32.679  15.337  -3.459  1.00 20.00     0.016 C 
HETATM    6  C6  UNL     1     -34.058  14.588  -3.437  1.00 20.00     0.030 C 
HETATM    7  C7  UNL     1     -33.505  16.583  -3.909  1.00 20.00     0.002 C 
HETATM    8  C8  UNL     1     -34.684  15.993  -3.024  1.00 20.00    -0.036 C 
HETATM    9  C9  UNL     1     -34.586  16.318  -1.521  1.00 20.00     0.016 C 
HETATM   10  C10 UNL     1     -36.118  16.300  -3.473  1.00 20.00     0.016 C 
HETATM   11  O11 UNL     1     -34.434  14.934  -7.097  1.00 20.00    -0.293 OA
ENDROOT
TORSDOF 0
ENDMDL
MODEL 4
REMARK VINA RESULT:      -4.8      0.863      2.590
REMARK  0 active torsions:
REMARK  status: ('A' for Active; 'I' for Inactive)
ROOT
HETATM    1  C1  UNL     1     -33.456  14.325  -3.811  1.00 20.00    -0.017 C 
HETATM    2  C2  UNL     1     -34.822  13.896  -4.259  1.00 20.00     0.155 C 
HETATM    3  C3  UNL     1     -32.553  13.448  -3.363  1.00 20.00     0.023 C 
HETATM    4  C4  UNL     1     -35.746  15.039  -4.673  1.00 20.00     0.089 C 
HETATM    5  C5  UNL     1     -33.661  16.362  -5.261  1.00 20.00     0.016 C 
HETATM    6  C6  UNL     1     -33.155  15.792  -3.889  1.00 20.00     0.030 C 
HETATM    7  C7  UNL     1     -35.063  16.418  -4.576  1.00 20.00     0.002 C 
HETATM    8  C8  UNL     1     -34.279  16.703  -3.225  1.00 20.00    -0.036 C 
HETATM    9  C9  UNL     1     -33.868  18.174  -3.018  1.00 20.00     0.016 C 
HETATM   10  C10 UNL     1     -34.926  16.214  -1.924  1.00 20.00     0.016 C 
HETATM   11  O11 UNL     1     -35.176  12.723  -4.288  1.00 20.00    -0.293 OA
ENDROOT
TORSDOF 0
ENDMDL
MODEL 5
REMARK VINA RESULT:      -4.7      1.524      3.131
REMARK  0 active torsions:
REMARK  status: ('A' for Active; 'I' for Inactive)
ROOT
HETATM    1  C1  UNL     1     -34.120  15.288  -3.898  1.00 20.00    -0.017 C 
HETATM    2  C2  UNL     1     -33.908  13.824  -4.148  1.00 20.00     0.155 C 
HETATM    3  C3  UNL     1     -33.581  15.908  -2.845  1.00 20.00     0.023 C 
HETATM    4  C4  UNL     1     -34.656  13.268  -5.357  1.00 20.00     0.089 C 
HETATM    5  C5  UNL     1     -34.563  15.604  -6.346  1.00 20.00     0.016 C 
HETATM    6  C6  UNL     1     -34.972  16.020  -4.890  1.00 20.00     0.030 C 
HETATM    7  C7  UNL     1     -35.461  14.350  -6.104  1.00 20.00     0.002 C 
HETATM    8  C8  UNL     1     -36.356  15.293  -5.193  1.00 20.00    -0.036 C 
HETATM    9  C9  UNL     1     -37.374  16.155  -5.965  1.00 20.00     0.016 C 
HETATM   10  C10 UNL     1     -37.096  14.637  -4.022  1.00 20.00     0.016 C 
HETATM   11  O11 UNL     1     -33.196  13.123  -3.437  1.00 20.00    -0.293 OA
ENDROOT
TORSDOF 0
ENDMDL
MODEL 6
REMARK VINA RESULT:      -4.6      1.858      3.426
REMARK  0 active torsions:
REMARK  status: ('A' for Active; 'I' for Inactive)
ROOT
HETATM    1  C1  UNL     1     -33.608  14.808  -3.716  1.00 20.00    -0.017 C 
HETATM    2  C2  UNL     1     -34.594  15.488  -2.814  1.00 20.00     0.155 C 
HETATM    3  C3  UNL     1     -32.294  14.842  -3.477  1.00 20.00     0.023 C 
HETATM    4  C4  UNL     1     -36.046  15.406  -3.278  1.00 20.00     0.089 C 
HETATM    5  C5  UNL     1     -35.425  13.253  -4.470  1.00 20.00     0.016 C 
HETATM    6  C6  UNL     1     -34.171  14.090  -4.905  1.00 20.00     0.030 C 
HETATM    7  C7  UNL     1     -36.207  14.600  -4.582  1.00 20.00     0.002 C 
HETATM    8  C8  UNL     1     -35.195  14.971  -5.749  1.00 20.00    -0.036 C 
HETATM    9  C9  UNL     1     -35.558  14.383  -7.127  1.00 20.00     0.016 C 
HETATM   10  C10 UNL     1     -34.871  16.456  -5.948  1.00 20.00     0.016 C 
HETATM   11  O11 UNL     1     -34.266  16.070  -1.786  1.00 20.00    -0.293 OA
ENDROOT
TORSDOF 0
ENDMDL
MODEL 7
REMARK VINA RESULT:      -4.5      1.419      1.844
REMARK  0 active torsions:
REMARK  status: ('A' for Active; 'I' for Inactive)
ROOT
HETATM    1  C1  UNL     1     -35.397  14.656  -5.778  1.00 20.00    -0.017 C 
HETATM    2  C2  UNL     1     -34.869  13.686  -4.763  1.00 20.00     0.155 C 
HETATM    3  C3  UNL     1     -35.544  14.322  -7.063  1.00 20.00     0.023 C 
HETATM    4  C4  UNL     1     -34.700  14.259  -3.358  1.00 20.00     0.089 C 
HETATM    5  C5  UNL     1     -36.548  15.903  -3.930  1.00 20.00     0.016 C 
HETATM    6  C6  UNL     1     -35.749  16.024  -5.276  1.00 20.00     0.030 C 
HETATM    7  C7  UNL     1     -35.147  15.731  -3.262  1.00 20.00     0.002 C 
HETATM    8  C8  UNL     1     -34.599  16.692  -4.401  1.00 20.00    -0.036 C 
HETATM    9  C9  UNL     1     -34.798  18.196  -4.126  1.00 20.00     0.016 C 
HETATM   10  C10 UNL     1     -33.146  16.490  -4.848  1.00 20.00     0.016 C 
HETATM   11  O11 UNL     1     -34.587  12.524  -5.036  1.00 20.00    -0.293 OA
ENDROOT
TORSDOF 0
ENDMDL
MODEL 8
REMARK VINA RESULT:      -4.5      2.209      3.744
REMARK  0 active torsions:
REMARK  status: ('A' for Active; 'I' for Inactive)
ROOT
HETATM    1  C1  UNL     1     -33.673  17.193  -4.516  1.00 20.00    -0.017 C 
HETATM    2  C2  UNL     1     -33.815  17.650  -3.094  1.00 20.00     0.155 C 
HETATM    3  C3  UNL     1     -33.533  18.058  -5.524  1.00 20.00     0.023 C 
HETATM    4  C4  UNL     1     -34.036  16.530  -2.082  1.00 20.00     0.089 C 
HETATM    5  C5  UNL     1     -32.801  14.994  -3.682  1.00 20.00     0.016 C 
HETATM    6  C6  UNL     1     -33.700  15.712  -4.749  1.00 20.00     0.030 C 
HETATM    7  C7  UNL     1     -34.034  15.133  -2.735  1.00 20.00     0.002 C 
HETATM    8  C8  UNL     1     -34.925  14.983  -4.041  1.00 20.00    -0.036 C 
HETATM    9  C9  UNL     1     -35.155  13.530  -4.500  1.00 20.00     0.016 C 
HETATM   10  C10 UNL     1     -36.284  15.692  -4.045  1.00 20.00     0.016 C 
HETATM   11  O11 UNL     1     -33.764  18.830  -2.766  1.00 20.00    -0.293 OA
ENDROOT
TORSDOF 0
ENDMDL
MODEL 9
REMARK VINA RESULT:      -4.5      1.871      3.383
REMARK  0 active torsions:
REMARK  status: ('A' for Active; 'I' for Inactive)
ROOT
HETATM    1  C1  UNL     1     -34.588  15.238  -5.836  1.00 20.00    -0.017 C 
HETATM    2  C2  UNL     1     -33.722  15.860  -4.781  1.00 20.00     0.155 C 
HETATM    3  C3  UNL     1     -34.301  15.344  -7.136  1.00 20.00     0.023 C 
HETATM    4  C4  UNL     1     -34.239  15.700  -3.354  1.00 20.00     0.089 C 
HETATM    5  C5  UNL     1     -35.409  13.587  -4.135  1.00 20.00     0.016 C 
HETATM    6  C6  UNL     1     -35.798  14.494  -5.356  1.00 20.00     0.030 C 
HETATM    7  C7  UNL     1     -35.549  14.889  -3.286  1.00 20.00     0.002 C 
HETATM    8  C8  UNL     1     -36.677  15.319  -4.317  1.00 20.00    -0.036 C 
HETATM    9  C9  UNL     1     -38.068  14.716  -4.038  1.00 20.00     0.016 C 
HETATM   10  C10 UNL     1     -36.863  16.821  -4.565  1.00 20.00     0.016 C 
HETATM   11  O11 UNL     1     -32.682  16.456  -5.038  1.00 20.00    -0.293 OA
ENDROOT
TORSDOF 0
ENDMDL
