MODEL 1
REMARK VINA RESULT:      -4.4      0.000      0.000
REMARK  1 active torsions:
REMARK  status: ('A' for Active; 'I' for Inactive)
REMARK    1  A    between atoms: C4_4  and  C6_6 
REMARK       I    between atoms: C4_4  and  N8_8 
ROOT
HETATM    1  C1  UNL     1     -35.195   4.985   6.033  1.00 20.00     0.135 A 
HETATM    2  C2  UNL     1     -34.879   4.897   4.698  1.00 20.00     0.120 A 
HETATM    3  C3  UNL     1     -33.635   6.390   5.721  1.00 20.00     0.216 A 
HETATM    4  C4  UNL     1     -33.190   6.110   3.308  1.00 20.00     0.228 C 
HETATM    5  N7  UNL     1     -34.418   5.915   6.663  1.00 20.00    -0.254 NA
HETATM    6  N8  UNL     1     -33.868   5.807   4.492  1.00 20.00    -0.286 N 
HETATM    7  O9  UNL     1     -33.491   5.518   2.280  1.00 20.00    -0.273 OA
ENDROOT
BRANCH   4   8
HETATM    8  C6  UNL     1     -32.129   7.160   3.417  1.00 20.00     0.099 C 
HETATM    9  C5  UNL     1     -32.108   8.018   2.171  1.00 20.00     0.014 C 
ENDBRANCH   4   8
TORSDOF 1
ENDMDL
MODEL 2
REMARK VINA RESULT:      -4.1     11.579     12.092
REMARK  1 active torsions:
REMARK  status: ('A' for Active; 'I' for Inactive)
REMARK    1  A    between atoms: C4_4  and  C6_6 
REMARK       I    between atoms: C4_4  and  N8_8 
ROOT
HETATM    1  C1  UNL     1     -34.969  13.161  -4.754  1.00 20.00     0.135 A 
HETATM    2  C2  UNL     1     -35.731  14.211  -4.299  1.00 20.00     0.120 A 
HETATM    3  C3  UNL     1     -33.743  14.199  -3.366  1.00 20.00     0.216 A 
HETATM    4  C4  UNL     1     -35.240  16.029  -2.653  1.00 20.00     0.228 C 
HETATM    5  N7  UNL     1     -33.734  13.160  -4.171  1.00 20.00    -0.254 NA
HETATM    6  N8  UNL     1     -34.939  14.886  -3.399  1.00 20.00    -0.286 N 
HETATM    7  O9  UNL     1     -36.341  16.548  -2.773  1.00 20.00    -0.273 OA
ENDROOT
BRANCH   4   8
HETATM    8  C6  UNL     1     -34.149  16.523  -1.752  1.00 20.00     0.099 C 
HETATM    9  C5  UNL     1     -34.716  16.908  -0.403  1.00 20.00     0.014 C 
ENDBRANCH   4   8
TORSDOF 1
ENDMDL
MODEL 3
REMARK VINA RESULT:      -3.9     11.709     12.661
REMARK  1 active torsions:
REMARK  status: ('A' for Active; 'I' for Inactive)
REMARK    1  A    between atoms: C4_4  and  C6_6 
REMARK       I    between atoms: C4_4  and  N8_8 
ROOT
HETATM    1  C1  UNL     1     -34.793  13.441  -5.658  1.00 20.00     0.135 A 
HETATM    2  C2  UNL     1     -34.473  14.777  -5.618  1.00 20.00     0.120 A 
HETATM    3  C3  UNL     1     -34.417  13.877  -3.615  1.00 20.00     0.216 A 
HETATM    4  C4  UNL     1     -33.865  16.283  -3.714  1.00 20.00     0.228 C 
HETATM    5  N7  UNL     1     -34.755  12.887  -4.410  1.00 20.00    -0.254 NA
HETATM    6  N8  UNL     1     -34.229  15.064  -4.294  1.00 20.00    -0.286 N 
HETATM    7  O9  UNL     1     -33.728  17.266  -4.428  1.00 20.00    -0.273 OA
ENDROOT
BRANCH   4   8
HETATM    8  C6  UNL     1     -33.671  16.263  -2.229  1.00 20.00     0.099 C 
HETATM    9  C5  UNL     1     -34.908  16.785  -1.531  1.00 20.00     0.014 C 
ENDBRANCH   4   8
TORSDOF 1
ENDMDL
MODEL 4
REMARK VINA RESULT:      -3.8     12.064     13.276
REMARK  1 active torsions:
REMARK  status: ('A' for Active; 'I' for Inactive)
REMARK    1  A    between atoms: C4_4  and  C6_6 
REMARK       I    between atoms: C4_4  and  N8_8 
ROOT
HETATM    1  C1  UNL     1     -34.814  14.851  -7.278  1.00 20.00     0.135 A 
HETATM    2  C2  UNL     1     -34.767  14.049  -6.163  1.00 20.00     0.120 A 
HETATM    3  C3  UNL     1     -34.084  16.087  -5.715  1.00 20.00     0.216 A 
HETATM    4  C4  UNL     1     -34.059  14.516  -3.810  1.00 20.00     0.228 C 
HETATM    5  N7  UNL     1     -34.389  16.117  -6.993  1.00 20.00    -0.254 NA
HETATM    6  N8  UNL     1     -34.293  14.848  -5.147  1.00 20.00    -0.286 N 
HETATM    7  O9  UNL     1     -34.287  13.377  -3.428  1.00 20.00    -0.273 OA
ENDROOT
BRANCH   4   8
HETATM    8  C6  UNL     1     -33.536  15.625  -2.949  1.00 20.00     0.099 C 
HETATM    9  C5  UNL     1     -34.598  16.074  -1.969  1.00 20.00     0.014 C 
ENDBRANCH   4   8
TORSDOF 1
ENDMDL
MODEL 5
REMARK VINA RESULT:      -3.8     11.687     13.459
REMARK  1 active torsions:
REMARK  status: ('A' for Active; 'I' for Inactive)
REMARK    1  A    between atoms: C4_4  and  C6_6 
REMARK       I    between atoms: C4_4  and  N8_8 
ROOT
HETATM    1  C1  UNL     1     -34.079  13.358  -3.557  1.00 20.00     0.135 A 
HETATM    2  C2  UNL     1     -33.558  14.608  -3.792  1.00 20.00     0.120 A 
HETATM    3  C3  UNL     1     -34.783  13.919  -5.479  1.00 20.00     0.216 A 
HETATM    4  C4  UNL     1     -33.771  16.155  -5.746  1.00 20.00     0.228 C 
HETATM    5  N7  UNL     1     -34.840  12.935  -4.609  1.00 20.00    -0.254 NA
HETATM    6  N8  UNL     1     -34.013  14.974  -5.039  1.00 20.00    -0.286 N 
HETATM    7  O9  UNL     1     -33.068  17.020  -5.243  1.00 20.00    -0.273 OA
ENDROOT
BRANCH   4   8
HETATM    8  C6  UNL     1     -34.418  16.248  -7.094  1.00 20.00     0.099 C 
HETATM    9  C5  UNL     1     -34.550  17.696  -7.514  1.00 20.00     0.014 C 
ENDBRANCH   4   8
TORSDOF 1
ENDMDL
MODEL 6
REMARK VINA RESULT:      -3.7     10.321     10.789
REMARK  1 active torsions:
REMARK  status: ('A' for Active; 'I' for Inactive)
REMARK    1  A    between atoms: C4_4  and  C6_6 
REMARK       I    between atoms: C4_4  and  N8_8 
ROOT
HETATM    1  C1  UNL     1     -40.859   4.680  -0.778  1.00 20.00     0.135 A 
HETATM    2  C2  UNL     1     -41.744   4.698  -1.829  1.00 20.00     0.120 A 
HETATM    3  C3  UNL     1     -41.170   6.731  -1.228  1.00 20.00     0.216 A 
HETATM    4  C4  UNL     1     -42.762   6.590  -3.111  1.00 20.00     0.228 C 
HETATM    5  N7  UNL     1     -40.505   5.947  -0.409  1.00 20.00    -0.254 NA
HETATM    6  N8  UNL     1     -41.948   6.027  -2.124  1.00 20.00    -0.286 N 
HETATM    7  O9  UNL     1     -43.404   5.854  -3.847  1.00 20.00    -0.273 OA
ENDROOT
BRANCH   4   8
HETATM    8  C6  UNL     1     -42.765   8.086  -3.174  1.00 20.00     0.099 C 
HETATM    9  C5  UNL     1     -42.400   8.554  -4.566  1.00 20.00     0.014 C 
ENDBRANCH   4   8
TORSDOF 1
ENDMDL
MODEL 7
REMARK VINA RESULT:      -3.7      1.639      1.965
REMARK  1 active torsions:
REMARK  status: ('A' for Active; 'I' for Inactive)
REMARK    1  A    between atoms: C4_4  and  C6_6 
REMARK       I    between atoms: C4_4  and  N8_8 
ROOT
HETATM    1  C1  UNL     1     -34.875   5.319   5.474  1.00 20.00     0.135 A 
HETATM    2  C2  UNL     1     -33.754   6.115   5.486  1.00 20.00     0.120 A 
HETATM    3  C3  UNL     1     -34.376   5.635   3.435  1.00 20.00     0.216 A 
HETATM    4  C4  UNL     1     -32.369   7.061   3.630  1.00 20.00     0.228 C 
HETATM    5  N7  UNL     1     -35.257   5.025   4.196  1.00 20.00    -0.254 NA
HETATM    6  N8  UNL     1     -33.427   6.321   4.165  1.00 20.00    -0.286 N 
HETATM    7  O9  UNL     1     -31.594   7.628   4.388  1.00 20.00    -0.273 OA
ENDROOT
BRANCH   4   8
HETATM    8  C6  UNL     1     -32.288   7.090   2.135  1.00 20.00     0.099 C 
HETATM    9  C5  UNL     1     -31.970   8.489   1.654  1.00 20.00     0.014 C 
ENDBRANCH   4   8
TORSDOF 1
ENDMDL
MODEL 8
REMARK VINA RESULT:      -3.6      1.865      4.088
REMARK  1 active torsions:
REMARK  status: ('A' for Active; 'I' for Inactive)
REMARK    1  A    between atoms: C4_4  and  C6_6 
REMARK       I    between atoms: C4_4  and  N8_8 
ROOT
HETATM    1  C1  UNL     1     -31.805   7.378   3.062  1.00 20.00     0.135 A 
HETATM    2  C2  UNL     1     -32.309   7.421   4.340  1.00 20.00     0.120 A 
HETATM    3  C3  UNL     1     -33.365   5.940   3.110  1.00 20.00     0.216 A 
HETATM    4  C4  UNL     1     -34.155   6.141   5.441  1.00 20.00     0.228 C 
HETATM    5  N7  UNL     1     -32.465   6.455   2.303  1.00 20.00    -0.254 NA
HETATM    6  N8  UNL     1     -33.322   6.489   4.374  1.00 20.00    -0.286 N 
HETATM    7  O9  UNL     1     -34.014   6.703   6.518  1.00 20.00    -0.273 OA
ENDROOT
BRANCH   4   8
HETATM    8  C6  UNL     1     -35.169   5.077   5.152  1.00 20.00     0.099 C 
HETATM    9  C5  UNL     1     -34.785   3.785   5.839  1.00 20.00     0.014 C 
ENDBRANCH   4   8
TORSDOF 1
ENDMDL
MODEL 9
REMARK VINA RESULT:      -3.6     11.992     12.734
REMARK  1 active torsions:
REMARK  status: ('A' for Active; 'I' for Inactive)
REMARK    1  A    between atoms: C4_4  and  C6_6 
REMARK       I    between atoms: C4_4  and  N8_8 
ROOT
HETATM    1  C1  UNL     1     -34.501  18.153  -1.614  1.00 20.00     0.135 A 
HETATM    2  C2  UNL     1     -33.840  17.880  -2.788  1.00 20.00     0.120 A 
HETATM    3  C3  UNL     1     -34.490  16.038  -1.785  1.00 20.00     0.216 A 
HETATM    4  C4  UNL     1     -33.282  15.717  -3.915  1.00 20.00     0.228 C 
HETATM    5  N7  UNL     1     -34.904  17.004  -0.996  1.00 20.00    -0.254 NA
HETATM    6  N8  UNL     1     -33.831  16.508  -2.902  1.00 20.00    -0.286 N 
HETATM    7  O9  UNL     1     -32.722  16.258  -4.858  1.00 20.00    -0.273 OA
ENDROOT
BRANCH   4   8
HETATM    8  C6  UNL     1     -33.442  14.238  -3.742  1.00 20.00     0.099 C 
HETATM    9  C5  UNL     1     -34.414  13.692  -4.765  1.00 20.00     0.014 C 
ENDBRANCH   4   8
TORSDOF 1
ENDMDL
