MODEL 1
REMARK VINA RESULT:      -5.0      0.000      0.000
REMARK  0 active torsions:
REMARK  status: ('A' for Active; 'I' for Inactive)
ROOT
HETATM    1  C1  UNL     1     -34.776  14.131  -5.805  1.00 20.00    -0.024 C 
HETATM    2  C2  UNL     1     -34.392  15.420  -5.706  1.00 20.00    -0.083 C 
HETATM    3  C3  UNL     1     -34.756  13.222  -4.594  1.00 20.00     0.033 C 
HETATM    4  C4  UNL     1     -32.940  14.785  -3.744  1.00 20.00     0.015 C 
HETATM    5  C5  UNL     1     -33.922  15.857  -4.342  1.00 20.00     0.022 C 
HETATM    6  C6  UNL     1     -34.247  14.013  -3.369  1.00 20.00    -0.002 C 
HETATM    7  C7  UNL     1     -34.908  15.446  -3.157  1.00 20.00    -0.036 C 
HETATM    8  C8  UNL     1     -34.393  16.403  -6.825  1.00 20.00     0.043 C 
HETATM    9  C9  UNL     1     -36.418  15.571  -3.398  1.00 20.00     0.016 C 
HETATM   10  C10 UNL     1     -34.601  16.114  -1.802  1.00 20.00     0.016 C 
ENDROOT
TORSDOF 0
ENDMDL
MODEL 2
REMARK VINA RESULT:      -4.7      1.146      3.333
REMARK  0 active torsions:
REMARK  status: ('A' for Active; 'I' for Inactive)
ROOT
HETATM    1  C1  UNL     1     -33.981  17.482  -3.117  1.00 20.00    -0.024 C 
HETATM    2  C2  UNL     1     -34.227  16.489  -2.239  1.00 20.00    -0.083 C 
HETATM    3  C3  UNL     1     -33.649  17.172  -4.562  1.00 20.00     0.033 C 
HETATM    4  C4  UNL     1     -32.802  14.957  -3.648  1.00 20.00     0.015 C 
HETATM    5  C5  UNL     1     -34.112  15.089  -2.788  1.00 20.00     0.022 C 
HETATM    6  C6  UNL     1     -33.647  15.643  -4.770  1.00 20.00    -0.002 C 
HETATM    7  C7  UNL     1     -34.896  14.867  -4.159  1.00 20.00    -0.036 C 
HETATM    8  C8  UNL     1     -34.582  16.680  -0.805  1.00 20.00     0.043 C 
HETATM    9  C9  UNL     1     -36.277  15.517  -4.314  1.00 20.00     0.016 C 
HETATM   10  C10 UNL     1     -35.028  13.394  -4.595  1.00 20.00     0.016 C 
ENDROOT
TORSDOF 0
ENDMDL
MODEL 3
REMARK VINA RESULT:      -4.5      1.281      2.393
REMARK  0 active torsions:
REMARK  status: ('A' for Active; 'I' for Inactive)
ROOT
HETATM    1  C1  UNL     1     -34.891  13.770  -3.808  1.00 20.00    -0.024 C 
HETATM    2  C2  UNL     1     -35.782  14.752  -4.052  1.00 20.00    -0.083 C 
HETATM    3  C3  UNL     1     -33.409  14.074  -3.723  1.00 20.00     0.033 C 
HETATM    4  C4  UNL     1     -33.965  16.040  -5.236  1.00 20.00     0.015 C 
HETATM    5  C5  UNL     1     -35.198  16.126  -4.264  1.00 20.00     0.022 C 
HETATM    6  C6  UNL     1     -33.182  15.582  -3.962  1.00 20.00    -0.002 C 
HETATM    7  C7  UNL     1     -34.142  16.557  -3.149  1.00 20.00    -0.036 C 
HETATM    8  C8  UNL     1     -37.258  14.569  -4.135  1.00 20.00     0.043 C 
HETATM    9  C9  UNL     1     -34.445  16.195  -1.689  1.00 20.00     0.016 C 
HETATM   10  C10 UNL     1     -33.742  18.046  -3.180  1.00 20.00     0.016 C 
ENDROOT
TORSDOF 0
ENDMDL
MODEL 4
REMARK VINA RESULT:      -4.4      1.215      2.388
REMARK  0 active torsions:
REMARK  status: ('A' for Active; 'I' for Inactive)
ROOT
HETATM    1  C1  UNL     1     -36.356  15.522  -5.600  1.00 20.00    -0.024 C 
HETATM    2  C2  UNL     1     -35.424  14.784  -6.237  1.00 20.00    -0.083 C 
HETATM    3  C3  UNL     1     -36.324  15.675  -4.094  1.00 20.00     0.033 C 
HETATM    4  C4  UNL     1     -35.120  13.437  -4.126  1.00 20.00     0.015 C 
HETATM    5  C5  UNL     1     -34.404  14.116  -5.351  1.00 20.00     0.022 C 
HETATM    6  C6  UNL     1     -35.131  14.880  -3.523  1.00 20.00    -0.002 C 
HETATM    7  C7  UNL     1     -33.744  15.092  -4.276  1.00 20.00    -0.036 C 
HETATM    8  C8  UNL     1     -35.349  14.585  -7.711  1.00 20.00     0.043 C 
HETATM    9  C9  UNL     1     -33.390  16.518  -4.717  1.00 20.00     0.016 C 
HETATM   10  C10 UNL     1     -32.511  14.516  -3.552  1.00 20.00     0.016 C 
ENDROOT
TORSDOF 0
ENDMDL
MODEL 5
REMARK VINA RESULT:      -4.4      1.017      3.230
REMARK  0 active torsions:
REMARK  status: ('A' for Active; 'I' for Inactive)
ROOT
HETATM    1  C1  UNL     1     -33.866  14.308  -3.245  1.00 20.00    -0.024 C 
HETATM    2  C2  UNL     1     -34.575  15.419  -2.964  1.00 20.00    -0.083 C 
HETATM    3  C3  UNL     1     -34.198  13.465  -4.459  1.00 20.00     0.033 C 
HETATM    4  C4  UNL     1     -36.539  14.416  -4.188  1.00 20.00     0.015 C 
HETATM    5  C5  UNL     1     -35.712  15.724  -3.905  1.00 20.00     0.022 C 
HETATM    6  C6  UNL     1     -35.396  14.091  -5.204  1.00 20.00    -0.002 C 
HETATM    7  C7  UNL     1     -35.307  15.662  -5.447  1.00 20.00    -0.036 C 
HETATM    8  C8  UNL     1     -34.322  16.329  -1.811  1.00 20.00     0.043 C 
HETATM    9  C9  UNL     1     -33.947  16.238  -5.860  1.00 20.00     0.016 C 
HETATM   10  C10 UNL     1     -36.362  16.235  -6.414  1.00 20.00     0.016 C 
ENDROOT
TORSDOF 0
ENDMDL
MODEL 6
REMARK VINA RESULT:      -4.4      1.013      3.289
REMARK  0 active torsions:
REMARK  status: ('A' for Active; 'I' for Inactive)
ROOT
HETATM    1  C1  UNL     1     -34.032  15.509  -2.906  1.00 20.00    -0.024 C 
HETATM    2  C2  UNL     1     -35.266  15.839  -3.336  1.00 20.00    -0.083 C 
HETATM    3  C3  UNL     1     -33.238  14.419  -3.595  1.00 20.00     0.033 C 
HETATM    4  C4  UNL     1     -35.516  13.504  -4.257  1.00 20.00     0.015 C 
HETATM    5  C5  UNL     1     -35.789  15.034  -4.498  1.00 20.00     0.022 C 
HETATM    6  C6  UNL     1     -34.071  13.836  -4.757  1.00 20.00    -0.002 C 
HETATM    7  C7  UNL     1     -34.760  14.908  -5.710  1.00 20.00    -0.036 C 
HETATM    8  C8  UNL     1     -36.123  16.905  -2.746  1.00 20.00     0.043 C 
HETATM    9  C9  UNL     1     -33.939  16.147  -6.091  1.00 20.00     0.016 C 
HETATM   10  C10 UNL     1     -35.361  14.337  -7.011  1.00 20.00     0.016 C 
ENDROOT
TORSDOF 0
ENDMDL
MODEL 7
REMARK VINA RESULT:      -4.4      1.307      3.157
REMARK  0 active torsions:
REMARK  status: ('A' for Active; 'I' for Inactive)
ROOT
HETATM    1  C1  UNL     1     -33.689  17.696  -2.867  1.00 20.00    -0.024 C 
HETATM    2  C2  UNL     1     -33.996  17.409  -4.148  1.00 20.00    -0.083 C 
HETATM    3  C3  UNL     1     -34.087  16.758  -1.747  1.00 20.00     0.033 C 
HETATM    4  C4  UNL     1     -35.952  16.048  -3.322  1.00 20.00     0.015 C 
HETATM    5  C5  UNL     1     -34.777  16.138  -4.363  1.00 20.00     0.022 C 
HETATM    6  C6  UNL     1     -34.844  15.549  -2.337  1.00 20.00    -0.002 C 
HETATM    7  C7  UNL     1     -34.167  14.871  -3.608  1.00 20.00    -0.036 C 
HETATM    8  C8  UNL     1     -33.636  18.248  -5.325  1.00 20.00     0.043 C 
HETATM    9  C9  UNL     1     -32.642  14.706  -3.592  1.00 20.00     0.016 C 
HETATM   10  C10 UNL     1     -34.772  13.517  -4.028  1.00 20.00     0.016 C 
ENDROOT
TORSDOF 0
ENDMDL
MODEL 8
REMARK VINA RESULT:      -4.3     11.460     12.965
REMARK  0 active torsions:
REMARK  status: ('A' for Active; 'I' for Inactive)
ROOT
HETATM    1  C1  UNL     1     -41.168   7.011  -1.214  1.00 20.00    -0.024 C 
HETATM    2  C2  UNL     1     -42.352   6.835  -1.835  1.00 20.00    -0.083 C 
HETATM    3  C3  UNL     1     -40.772   6.138  -0.041  1.00 20.00     0.033 C 
HETATM    4  C4  UNL     1     -43.277   5.876   0.307  1.00 20.00     0.015 C 
HETATM    5  C5  UNL     1     -43.236   5.757  -1.261  1.00 20.00     0.022 C 
HETATM    6  C6  UNL     1     -41.904   5.129   0.251  1.00 20.00    -0.002 C 
HETATM    7  C7  UNL     1     -42.487   4.369  -1.020  1.00 20.00    -0.036 C 
HETATM    8  C8  UNL     1     -42.831   7.620  -3.007  1.00 20.00     0.043 C 
HETATM    9  C9  UNL     1     -41.487   3.895  -2.082  1.00 20.00     0.016 C 
HETATM   10  C10 UNL     1     -43.417   3.181  -0.702  1.00 20.00     0.016 C 
ENDROOT
TORSDOF 0
ENDMDL
MODEL 9
REMARK VINA RESULT:      -4.3      1.510      2.913
REMARK  0 active torsions:
REMARK  status: ('A' for Active; 'I' for Inactive)
ROOT
HETATM    1  C1  UNL     1     -35.522  14.545  -3.633  1.00 20.00    -0.024 C 
HETATM    2  C2  UNL     1     -34.197  14.656  -3.412  1.00 20.00    -0.083 C 
HETATM    3  C3  UNL     1     -36.467  15.665  -3.252  1.00 20.00     0.033 C 
HETATM    4  C4  UNL     1     -34.696  16.256  -1.527  1.00 20.00     0.015 C 
HETATM    5  C5  UNL     1     -33.752  15.931  -2.742  1.00 20.00     0.022 C 
HETATM    6  C6  UNL     1     -35.662  16.821  -2.619  1.00 20.00    -0.002 C 
HETATM    7  C7  UNL     1     -34.348  17.252  -3.408  1.00 20.00    -0.036 C 
HETATM    8  C8  UNL     1     -33.179  13.627  -3.765  1.00 20.00     0.043 C 
HETATM    9  C9  UNL     1     -34.431  17.314  -4.939  1.00 20.00     0.016 C 
HETATM   10  C10 UNL     1     -33.699  18.566  -2.929  1.00 20.00     0.016 C 
ENDROOT
TORSDOF 0
ENDMDL
