MODEL 1
REMARK VINA RESULT:      -3.3      0.000      0.000
REMARK  1 active torsions:
REMARK  status: ('A' for Active; 'I' for Inactive)
REMARK    1  A    between atoms: C3_3  and  N6_6 
ROOT
HETATM    1  C1  UNL     1     -34.483  14.776  -3.148  1.00 20.00     0.123 C 
HETATM    2  C2  UNL     1     -34.182  16.909  -4.634  1.00 20.00     0.123 C 
HETATM    3  C3  UNL     1     -33.661  16.041  -3.469  1.00 20.00     0.242 C 
HETATM    4  S7  UNL     1     -34.430  13.516  -4.467  1.00 20.00    -0.084 SA
HETATM    5  S8  UNL     1     -34.067  16.092  -6.260  1.00 20.00    -0.084 SA
HETATM    6  S9  UNL     1     -35.368  14.543  -5.965  1.00 20.00    -0.025 SA
ENDROOT
BRANCH   3   7
HETATM    7  N6  UNL     1     -33.642  16.866  -2.252  1.00 20.00     0.086 N 
HETATM    8  C4  UNL     1     -34.658  16.402  -1.314  1.00 20.00     0.310 C 
HETATM    9  C5  UNL     1     -33.856  18.270  -2.593  1.00 20.00     0.310 C 
ENDBRANCH   3   7
TORSDOF 1
ENDMDL
MODEL 2
REMARK VINA RESULT:      -3.2      0.942      1.955
REMARK  1 active torsions:
REMARK  status: ('A' for Active; 'I' for Inactive)
REMARK    1  A    between atoms: C3_3  and  N6_6 
ROOT
HETATM    1  C1  UNL     1     -35.252  16.643  -4.230  1.00 20.00     0.123 C 
HETATM    2  C2  UNL     1     -33.760  14.578  -3.630  1.00 20.00     0.123 C 
HETATM    3  C3  UNL     1     -34.693  15.706  -3.140  1.00 20.00     0.242 C 
HETATM    4  S7  UNL     1     -36.406  15.821  -5.380  1.00 20.00    -0.084 SA
HETATM    5  S8  UNL     1     -34.605  13.328  -4.655  1.00 20.00    -0.084 SA
HETATM    6  S9  UNL     1     -35.129  14.485  -6.255  1.00 20.00    -0.025 SA
ENDROOT
BRANCH   3   7
HETATM    7  N6  UNL     1     -33.944  16.543  -2.191  1.00 20.00     0.086 N 
HETATM    8  C4  UNL     1     -34.627  16.576  -0.902  1.00 20.00     0.310 C 
HETATM    9  C5  UNL     1     -33.785  17.892  -2.726  1.00 20.00     0.310 C 
ENDBRANCH   3   7
TORSDOF 1
ENDMDL
MODEL 3
REMARK VINA RESULT:      -3.2      0.908      1.948
REMARK  1 active torsions:
REMARK  status: ('A' for Active; 'I' for Inactive)
REMARK    1  A    between atoms: C3_3  and  N6_6 
ROOT
HETATM    1  C1  UNL     1     -33.400  16.423  -4.427  1.00 20.00     0.123 C 
HETATM    2  C2  UNL     1     -35.212  15.256  -2.944  1.00 20.00     0.123 C 
HETATM    3  C3  UNL     1     -34.467  16.554  -3.321  1.00 20.00     0.242 C 
HETATM    4  S7  UNL     1     -34.093  16.025  -6.067  1.00 20.00    -0.084 SA
HETATM    5  S8  UNL     1     -36.280  14.615  -4.276  1.00 20.00    -0.084 SA
HETATM    6  S9  UNL     1     -34.861  14.171  -5.678  1.00 20.00    -0.025 SA
ENDROOT
BRANCH   3   7
HETATM    7  N6  UNL     1     -33.787  17.060  -2.120  1.00 20.00     0.086 N 
HETATM    8  C4  UNL     1     -34.525  16.670  -0.923  1.00 20.00     0.310 C 
HETATM    9  C5  UNL     1     -33.650  18.511  -2.193  1.00 20.00     0.310 C 
ENDBRANCH   3   7
TORSDOF 1
ENDMDL
MODEL 4
REMARK VINA RESULT:      -3.2      2.841      4.137
REMARK  1 active torsions:
REMARK  status: ('A' for Active; 'I' for Inactive)
REMARK    1  A    between atoms: C3_3  and  N6_6 
ROOT
HETATM    1  C1  UNL     1     -34.270  16.486  -5.328  1.00 20.00     0.123 C 
HETATM    2  C2  UNL     1     -34.580  15.289  -3.021  1.00 20.00     0.123 C 
HETATM    3  C3  UNL     1     -33.904  15.303  -4.409  1.00 20.00     0.242 C 
HETATM    4  S7  UNL     1     -33.669  18.097  -4.719  1.00 20.00    -0.084 SA
HETATM    5  S8  UNL     1     -34.043  16.652  -1.935  1.00 20.00    -0.084 SA
HETATM    6  S9  UNL     1     -34.757  18.245  -2.996  1.00 20.00    -0.025 SA
ENDROOT
BRANCH   3   7
HETATM    7  N6  UNL     1     -34.281  14.070  -5.117  1.00 20.00     0.086 N 
HETATM    8  C4  UNL     1     -34.920  14.396  -6.388  1.00 20.00     0.310 C 
HETATM    9  C5  UNL     1     -35.168  13.263  -4.284  1.00 20.00     0.310 C 
ENDBRANCH   3   7
TORSDOF 1
ENDMDL
MODEL 5
REMARK VINA RESULT:      -3.1      2.686      3.637
REMARK  1 active torsions:
REMARK  status: ('A' for Active; 'I' for Inactive)
REMARK    1  A    between atoms: C3_3  and  N6_6 
ROOT
HETATM    1  C1  UNL     1     -35.002  16.175  -2.210  1.00 20.00     0.123 C 
HETATM    2  C2  UNL     1     -33.479  16.201  -4.338  1.00 20.00     0.123 C 
HETATM    3  C3  UNL     1     -34.696  15.596  -3.606  1.00 20.00     0.242 C 
HETATM    4  S7  UNL     1     -35.547  17.916  -2.244  1.00 20.00    -0.084 SA
HETATM    5  S8  UNL     1     -33.708  17.947  -4.813  1.00 20.00    -0.084 SA
HETATM    6  S9  UNL     1     -33.847  18.797  -2.961  1.00 20.00    -0.025 SA
ENDROOT
BRANCH   3   7
HETATM    7  N6  UNL     1     -34.461  14.154  -3.436  1.00 20.00     0.086 N 
HETATM    8  C4  UNL     1     -33.050  13.847  -3.642  1.00 20.00     0.310 C 
HETATM    9  C5  UNL     1     -35.296  13.396  -4.362  1.00 20.00     0.310 C 
ENDBRANCH   3   7
TORSDOF 1
ENDMDL
MODEL 6
REMARK VINA RESULT:      -3.1      2.940      3.877
REMARK  1 active torsions:
REMARK  status: ('A' for Active; 'I' for Inactive)
REMARK    1  A    between atoms: C3_3  and  N6_6 
ROOT
HETATM    1  C1  UNL     1     -34.305  15.195  -3.076  1.00 20.00     0.123 C 
HETATM    2  C2  UNL     1     -33.815  16.883  -5.015  1.00 20.00     0.123 C 
HETATM    3  C3  UNL     1     -34.576  15.631  -4.531  1.00 20.00     0.242 C 
HETATM    4  S7  UNL     1     -34.920  16.380  -1.832  1.00 20.00    -0.084 SA
HETATM    5  S8  UNL     1     -34.327  18.418  -4.172  1.00 20.00    -0.084 SA
HETATM    6  S9  UNL     1     -33.732  17.985  -2.266  1.00 20.00    -0.025 SA
ENDROOT
BRANCH   3   7
HETATM    7  N6  UNL     1     -34.204  14.503  -5.398  1.00 20.00     0.086 N 
HETATM    8  C4  UNL     1     -34.699  14.725  -6.752  1.00 20.00     0.310 C 
HETATM    9  C5  UNL     1     -34.730  13.255  -4.853  1.00 20.00     0.310 C 
ENDBRANCH   3   7
TORSDOF 1
ENDMDL
MODEL 7
REMARK VINA RESULT:      -3.0      3.051      4.187
REMARK  1 active torsions:
REMARK  status: ('A' for Active; 'I' for Inactive)
REMARK    1  A    between atoms: C3_3  and  N6_6 
ROOT
HETATM    1  C1  UNL     1     -35.615  16.386  -4.997  1.00 20.00     0.123 C 
HETATM    2  C2  UNL     1     -34.467  15.158  -2.992  1.00 20.00     0.123 C 
HETATM    3  C3  UNL     1     -34.414  15.570  -4.478  1.00 20.00     0.242 C 
HETATM    4  S7  UNL     1     -35.740  18.051  -4.261  1.00 20.00    -0.084 SA
HETATM    5  S8  UNL     1     -34.354  16.568  -1.840  1.00 20.00    -0.084 SA
HETATM    6  S9  UNL     1     -36.086  17.543  -2.311  1.00 20.00    -0.025 SA
ENDROOT
BRANCH   3   7
HETATM    7  N6  UNL     1     -34.336  14.348  -5.292  1.00 20.00     0.086 N 
HETATM    8  C4  UNL     1     -35.004  14.554  -6.573  1.00 20.00     0.310 C 
HETATM    9  C5  UNL     1     -34.932  13.226  -4.573  1.00 20.00     0.310 C 
ENDBRANCH   3   7
TORSDOF 1
ENDMDL
MODEL 8
REMARK VINA RESULT:      -3.0      3.124      3.966
REMARK  1 active torsions:
REMARK  status: ('A' for Active; 'I' for Inactive)
REMARK    1  A    between atoms: C3_3  and  N6_6 
ROOT
HETATM    1  C1  UNL     1     -33.845  15.952  -2.761  1.00 20.00     0.123 C 
HETATM    2  C2  UNL     1     -35.893  16.264  -4.361  1.00 20.00     0.123 C 
HETATM    3  C3  UNL     1     -34.881  15.303  -3.701  1.00 20.00     0.242 C 
HETATM    4  S7  UNL     1     -34.575  16.656  -1.244  1.00 20.00    -0.084 SA
HETATM    5  S8  UNL     1     -37.047  17.032  -3.175  1.00 20.00    -0.084 SA
HETATM    6  S9  UNL     1     -35.728  18.130  -2.066  1.00 20.00    -0.025 SA
ENDROOT
BRANCH   3   7
HETATM    7  N6  UNL     1     -34.132  14.621  -4.768  1.00 20.00     0.086 N 
HETATM    8  C4  UNL     1     -34.361  15.286  -6.046  1.00 20.00     0.310 C 
HETATM    9  C5  UNL     1     -34.523  13.216  -4.838  1.00 20.00     0.310 C 
ENDBRANCH   3   7
TORSDOF 1
ENDMDL
MODEL 9
REMARK VINA RESULT:      -3.0      3.111      4.490
REMARK  1 active torsions:
REMARK  status: ('A' for Active; 'I' for Inactive)
REMARK    1  A    between atoms: C3_3  and  N6_6 
ROOT
HETATM    1  C1  UNL     1     -34.400  16.715  -5.557  1.00 20.00     0.123 C 
HETATM    2  C2  UNL     1     -34.906  14.148  -5.513  1.00 20.00     0.123 C 
HETATM    3  C3  UNL     1     -34.158  15.323  -6.177  1.00 20.00     0.242 C 
HETATM    4  S7  UNL     1     -33.731  16.889  -3.868  1.00 20.00    -0.084 SA
HETATM    5  S8  UNL     1     -34.343  13.790  -3.816  1.00 20.00    -0.084 SA
HETATM    6  S9  UNL     1     -34.899  15.525  -2.891  1.00 20.00    -0.025 SA
ENDROOT
BRANCH   3   7
HETATM    7  N6  UNL     1     -34.573  15.397  -7.585  1.00 20.00     0.086 N 
HETATM    8  C4  UNL     1     -34.981  16.758  -7.918  1.00 20.00     0.310 C 
HETATM    9  C5  UNL     1     -35.659  14.455  -7.839  1.00 20.00     0.310 C 
ENDBRANCH   3   7
TORSDOF 1
ENDMDL
