MODEL 1
REMARK VINA RESULT:      -5.3      0.000      0.000
REMARK  1 active torsions:
REMARK  status: ('A' for Active; 'I' for Inactive)
REMARK    1  A    between atoms: C11_11  and  C12_12 
ROOT
HETATM    1  C1  UNL     1     -34.007  18.100  -6.353  1.00 20.00     0.059 C 
HETATM    2  C12 UNL     1     -34.316  16.775  -6.872  1.00 20.00     0.133 C 
HETATM    3  N13 UNL     1     -33.759  19.168  -5.974  1.00 20.00    -0.197 NA
ENDROOT
BRANCH   2   4
HETATM    4  C11 UNL     1     -34.453  15.908  -5.617  1.00 20.00    -0.027 C 
HETATM    5  C5  UNL     1     -34.592  14.417  -6.007  1.00 20.00     0.015 C 
HETATM    6  C8  UNL     1     -34.730  13.543  -4.748  1.00 20.00    -0.013 C 
HETATM    7  C2  UNL     1     -33.483  13.725  -3.867  1.00 20.00     0.009 C 
HETATM    8  C3  UNL     1     -35.975  13.983  -3.961  1.00 20.00     0.009 C 
HETATM    9  C9  UNL     1     -33.340  15.199  -3.453  1.00 20.00    -0.013 C 
HETATM   10  C4  UNL     1     -34.592  15.630  -2.672  1.00 20.00     0.009 C 
HETATM   11  C6  UNL     1     -33.206  16.068  -4.716  1.00 20.00     0.015 C 
HETATM   12  C10 UNL     1     -35.845  15.458  -3.547  1.00 20.00    -0.013 C 
HETATM   13  C7  UNL     1     -35.704  16.327  -4.809  1.00 20.00     0.015 C 
ENDBRANCH   2   4
TORSDOF 1
ENDMDL
MODEL 2
REMARK VINA RESULT:      -5.3      0.004      2.092
REMARK  1 active torsions:
REMARK  status: ('A' for Active; 'I' for Inactive)
REMARK    1  A    between atoms: C11_11  and  C12_12 
ROOT
HETATM    1  C1  UNL     1     -34.010  18.097  -6.357  1.00 20.00     0.059 C 
HETATM    2  C12 UNL     1     -34.315  16.770  -6.874  1.00 20.00     0.133 C 
HETATM    3  N13 UNL     1     -33.766  19.167  -5.979  1.00 20.00    -0.197 NA
ENDROOT
BRANCH   2   4
HETATM    4  C11 UNL     1     -34.452  15.906  -5.618  1.00 20.00    -0.027 C 
HETATM    5  C5  UNL     1     -35.704  16.326  -4.811  1.00 20.00     0.015 C 
HETATM    6  C8  UNL     1     -35.846  15.459  -3.548  1.00 20.00    -0.013 C 
HETATM    7  C2  UNL     1     -35.977  13.983  -3.959  1.00 20.00     0.009 C 
HETATM    8  C3  UNL     1     -34.593  15.631  -2.673  1.00 20.00     0.009 C 
HETATM    9  C9  UNL     1     -34.731  13.542  -4.746  1.00 20.00    -0.013 C 
HETATM   10  C4  UNL     1     -33.484  13.724  -3.865  1.00 20.00     0.009 C 
HETATM   11  C6  UNL     1     -34.593  14.415  -6.006  1.00 20.00     0.015 C 
HETATM   12  C10 UNL     1     -33.340  15.199  -3.453  1.00 20.00    -0.013 C 
HETATM   13  C7  UNL     1     -33.206  16.067  -4.717  1.00 20.00     0.015 C 
ENDBRANCH   2   4
TORSDOF 1
ENDMDL
MODEL 3
REMARK VINA RESULT:      -5.3      0.006      2.091
REMARK  1 active torsions:
REMARK  status: ('A' for Active; 'I' for Inactive)
REMARK    1  A    between atoms: C11_11  and  C12_12 
ROOT
HETATM    1  C1  UNL     1     -34.009  18.099  -6.359  1.00 20.00     0.059 C 
HETATM    2  C12 UNL     1     -34.314  16.773  -6.877  1.00 20.00     0.133 C 
HETATM    3  N13 UNL     1     -33.766  19.169  -5.981  1.00 20.00    -0.197 NA
ENDROOT
BRANCH   2   4
HETATM    4  C11 UNL     1     -34.452  15.908  -5.621  1.00 20.00    -0.027 C 
HETATM    5  C5  UNL     1     -33.206  16.068  -4.718  1.00 20.00     0.015 C 
HETATM    6  C8  UNL     1     -33.342  15.201  -3.455  1.00 20.00    -0.013 C 
HETATM    7  C2  UNL     1     -34.594  15.634  -2.676  1.00 20.00     0.009 C 
HETATM    8  C3  UNL     1     -33.487  13.726  -3.868  1.00 20.00     0.009 C 
HETATM    9  C9  UNL     1     -35.847  15.462  -3.552  1.00 20.00    -0.013 C 
HETATM   10  C4  UNL     1     -35.979  13.987  -3.963  1.00 20.00     0.009 C 
HETATM   11  C6  UNL     1     -35.704  16.330  -4.815  1.00 20.00     0.015 C 
HETATM   12  C10 UNL     1     -34.733  13.544  -4.749  1.00 20.00    -0.013 C 
HETATM   13  C7  UNL     1     -34.594  14.417  -6.009  1.00 20.00     0.015 C 
ENDBRANCH   2   4
TORSDOF 1
ENDMDL
MODEL 4
REMARK VINA RESULT:      -5.2      1.281      1.385
REMARK  1 active torsions:
REMARK  status: ('A' for Active; 'I' for Inactive)
REMARK    1  A    between atoms: C11_11  and  C12_12 
ROOT
HETATM    1  C1  UNL     1     -35.714  16.741  -7.390  1.00 20.00     0.059 C 
HETATM    2  C12 UNL     1     -34.406  16.876  -6.765  1.00 20.00     0.133 C 
HETATM    3  N13 UNL     1     -36.745  16.656  -7.915  1.00 20.00    -0.197 NA
ENDROOT
BRANCH   2   4
HETATM    4  C11 UNL     1     -34.488  15.967  -5.535  1.00 20.00    -0.027 C 
HETATM    5  C5  UNL     1     -34.588  14.484  -5.969  1.00 20.00     0.015 C 
HETATM    6  C8  UNL     1     -34.670  13.568  -4.736  1.00 20.00    -0.013 C 
HETATM    7  C2  UNL     1     -33.411  13.763  -3.875  1.00 20.00     0.009 C 
HETATM    8  C3  UNL     1     -35.911  13.943  -3.909  1.00 20.00     0.009 C 
HETATM    9  C9  UNL     1     -33.305  15.228  -3.418  1.00 20.00    -0.013 C 
HETATM   10  C4  UNL     1     -34.554  15.594  -2.598  1.00 20.00     0.009 C 
HETATM   11  C6  UNL     1     -33.227  16.140  -4.655  1.00 20.00     0.015 C 
HETATM   12  C10 UNL     1     -35.819  15.409  -3.452  1.00 20.00    -0.013 C 
HETATM   13  C7  UNL     1     -35.734  16.320  -4.689  1.00 20.00     0.015 C 
ENDBRANCH   2   4
TORSDOF 1
ENDMDL
MODEL 5
REMARK VINA RESULT:      -5.2      1.284      2.504
REMARK  1 active torsions:
REMARK  status: ('A' for Active; 'I' for Inactive)
REMARK    1  A    between atoms: C11_11  and  C12_12 
ROOT
HETATM    1  C1  UNL     1     -35.723  16.748  -7.393  1.00 20.00     0.059 C 
HETATM    2  C12 UNL     1     -34.415  16.890  -6.769  1.00 20.00     0.133 C 
HETATM    3  N13 UNL     1     -36.755  16.658  -7.916  1.00 20.00    -0.197 NA
ENDROOT
BRANCH   2   4
HETATM    4  C11 UNL     1     -34.491  15.983  -5.538  1.00 20.00    -0.027 C 
HETATM    5  C5  UNL     1     -35.736  16.334  -4.688  1.00 20.00     0.015 C 
HETATM    6  C8  UNL     1     -35.816  15.424  -3.451  1.00 20.00    -0.013 C 
HETATM    7  C2  UNL     1     -35.907  13.958  -3.905  1.00 20.00     0.009 C 
HETATM    8  C3  UNL     1     -34.548  15.613  -2.601  1.00 20.00     0.009 C 
HETATM    9  C9  UNL     1     -34.667  13.585  -4.735  1.00 20.00    -0.013 C 
HETATM   10  C4  UNL     1     -33.405  13.783  -3.879  1.00 20.00     0.009 C 
HETATM   11  C6  UNL     1     -34.590  14.500  -5.970  1.00 20.00     0.015 C 
HETATM   12  C10 UNL     1     -33.301  15.249  -3.424  1.00 20.00    -0.013 C 
HETATM   13  C7  UNL     1     -33.228  16.159  -4.662  1.00 20.00     0.015 C 
ENDBRANCH   2   4
TORSDOF 1
ENDMDL
MODEL 6
REMARK VINA RESULT:      -5.1      2.197      3.626
REMARK  1 active torsions:
REMARK  status: ('A' for Active; 'I' for Inactive)
REMARK    1  A    between atoms: C11_11  and  C12_12 
ROOT
HETATM    1  C1  UNL     1     -38.262  14.948  -3.802  1.00 20.00     0.059 C 
HETATM    2  C12 UNL     1     -37.275  15.709  -3.049  1.00 20.00     0.133 C 
HETATM    3  N13 UNL     1     -39.074  14.356  -4.381  1.00 20.00    -0.197 NA
ENDROOT
BRANCH   2   4
HETATM    4  C11 UNL     1     -35.947  15.372  -3.732  1.00 20.00    -0.027 C 
HETATM    5  C5  UNL     1     -35.762  16.234  -5.004  1.00 20.00     0.015 C 
HETATM    6  C8  UNL     1     -34.428  15.898  -5.692  1.00 20.00    -0.013 C 
HETATM    7  C2  UNL     1     -33.272  16.174  -4.718  1.00 20.00     0.009 C 
HETATM    8  C3  UNL     1     -34.420  14.409  -6.079  1.00 20.00     0.009 C 
HETATM    9  C9  UNL     1     -33.428  15.311  -3.455  1.00 20.00    -0.013 C 
HETATM   10  C4  UNL     1     -33.424  13.825  -3.852  1.00 20.00     0.009 C 
HETATM   11  C6  UNL     1     -34.765  15.649  -2.772  1.00 20.00     0.015 C 
HETATM   12  C10 UNL     1     -34.581  13.536  -4.823  1.00 20.00    -0.013 C 
HETATM   13  C7  UNL     1     -35.915  13.879  -4.137  1.00 20.00     0.015 C 
ENDBRANCH   2   4
TORSDOF 1
ENDMDL
MODEL 7
REMARK VINA RESULT:      -5.1      2.197      3.596
REMARK  1 active torsions:
REMARK  status: ('A' for Active; 'I' for Inactive)
REMARK    1  A    between atoms: C11_11  and  C12_12 
ROOT
HETATM    1  C1  UNL     1     -38.259  14.955  -3.796  1.00 20.00     0.059 C 
HETATM    2  C12 UNL     1     -37.271  15.727  -3.055  1.00 20.00     0.133 C 
HETATM    3  N13 UNL     1     -39.072  14.353  -4.364  1.00 20.00    -0.197 NA
ENDROOT
BRANCH   2   4
HETATM    4  C11 UNL     1     -35.944  15.381  -3.735  1.00 20.00    -0.027 C 
HETATM    5  C5  UNL     1     -35.922  13.887  -4.142  1.00 20.00     0.015 C 
HETATM    6  C8  UNL     1     -34.590  13.536  -4.826  1.00 20.00    -0.013 C 
HETATM    7  C2  UNL     1     -34.420  14.407  -6.081  1.00 20.00     0.009 C 
HETATM    8  C3  UNL     1     -33.432  13.817  -3.854  1.00 20.00     0.009 C 
HETATM    9  C9  UNL     1     -34.419  15.896  -5.694  1.00 20.00    -0.013 C 
HETATM   10  C4  UNL     1     -33.262  16.165  -4.717  1.00 20.00     0.009 C 
HETATM   11  C6  UNL     1     -35.752  16.241  -5.007  1.00 20.00     0.015 C 
HETATM   12  C10 UNL     1     -33.426  15.302  -3.455  1.00 20.00    -0.013 C 
HETATM   13  C7  UNL     1     -34.762  15.649  -2.774  1.00 20.00     0.015 C 
ENDBRANCH   2   4
TORSDOF 1
ENDMDL
MODEL 8
REMARK VINA RESULT:      -5.1      2.196      3.811
REMARK  1 active torsions:
REMARK  status: ('A' for Active; 'I' for Inactive)
REMARK    1  A    between atoms: C11_11  and  C12_12 
ROOT
HETATM    1  C1  UNL     1     -38.261  14.953  -3.803  1.00 20.00     0.059 C 
HETATM    2  C12 UNL     1     -37.275  15.714  -3.050  1.00 20.00     0.133 C 
HETATM    3  N13 UNL     1     -39.073  14.360  -4.383  1.00 20.00    -0.197 NA
ENDROOT
BRANCH   2   4
HETATM    4  C11 UNL     1     -35.947  15.377  -3.732  1.00 20.00    -0.027 C 
HETATM    5  C5  UNL     1     -34.765  15.649  -2.770  1.00 20.00     0.015 C 
HETATM    6  C8  UNL     1     -33.428  15.311  -3.452  1.00 20.00    -0.013 C 
HETATM    7  C2  UNL     1     -33.426  13.827  -3.856  1.00 20.00     0.009 C 
HETATM    8  C3  UNL     1     -33.270  16.179  -4.712  1.00 20.00     0.009 C 
HETATM    9  C9  UNL     1     -34.583  13.543  -4.828  1.00 20.00    -0.013 C 
HETATM   10  C4  UNL     1     -34.419  14.419  -6.081  1.00 20.00     0.009 C 
HETATM   11  C6  UNL     1     -35.917  13.886  -4.142  1.00 20.00     0.015 C 
HETATM   12  C10 UNL     1     -34.426  15.907  -5.689  1.00 20.00    -0.013 C 
HETATM   13  C7  UNL     1     -35.760  16.242  -5.001  1.00 20.00     0.015 C 
ENDBRANCH   2   4
TORSDOF 1
ENDMDL
MODEL 9
REMARK VINA RESULT:      -5.0      2.113      3.485
REMARK  1 active torsions:
REMARK  status: ('A' for Active; 'I' for Inactive)
REMARK    1  A    between atoms: C11_11  and  C12_12 
ROOT
HETATM    1  C1  UNL     1     -34.241  16.880  -1.395  1.00 20.00     0.059 C 
HETATM    2  C12 UNL     1     -33.612  17.095  -2.691  1.00 20.00     0.133 C 
HETATM    3  N13 UNL     1     -34.720  16.733  -0.349  1.00 20.00    -0.197 NA
ENDROOT
BRANCH   2   4
HETATM    4  C11 UNL     1     -34.397  16.186  -3.640  1.00 20.00    -0.027 C 
HETATM    5  C5  UNL     1     -34.462  14.746  -3.074  1.00 20.00     0.015 C 
HETATM    6  C8  UNL     1     -35.251  13.830  -4.025  1.00 20.00    -0.013 C 
HETATM    7  C2  UNL     1     -36.678  14.378  -4.188  1.00 20.00     0.009 C 
HETATM    8  C3  UNL     1     -34.557  13.808  -5.398  1.00 20.00     0.009 C 
HETATM    9  C9  UNL     1     -36.634  15.802  -4.768  1.00 20.00    -0.013 C 
HETATM   10  C4  UNL     1     -35.934  15.770  -6.137  1.00 20.00     0.009 C 
HETATM   11  C6  UNL     1     -35.841  16.713  -3.815  1.00 20.00     0.015 C 
HETATM   12  C10 UNL     1     -34.502  15.229  -5.984  1.00 20.00    -0.013 C 
HETATM   13  C7  UNL     1     -33.715  16.142  -5.028  1.00 20.00     0.015 C 
ENDBRANCH   2   4
TORSDOF 1
ENDMDL
