MODEL 1
REMARK VINA RESULT:      -5.1      0.000      0.000
REMARK  1 active torsions:
REMARK  status: ('A' for Active; 'I' for Inactive)
REMARK    1  A    between atoms: C1_1  and  C10_10 
ROOT
HETATM    1  C2  UNL     1     -33.121  14.402  -3.726  1.00 20.00     0.009 C 
HETATM    2  C3  UNL     1     -34.143  16.626  -4.343  1.00 20.00     0.010 C 
HETATM    3  C4  UNL     1     -34.499  14.678  -5.821  1.00 20.00     0.010 C 
HETATM    4  C5  UNL     1     -35.102  15.457  -2.570  1.00 20.00     0.022 C 
HETATM    5  C6  UNL     1     -35.459  13.505  -4.050  1.00 20.00     0.022 C 
HETATM    6  C7  UNL     1     -33.724  15.730  -3.177  1.00 20.00    -0.013 C 
HETATM    7  C8  UNL     1     -34.096  13.699  -4.718  1.00 20.00    -0.013 C 
HETATM    8  C9  UNL     1     -35.225  15.757  -5.001  1.00 20.00     0.002 C 
HETATM    9  C10 UNL     1     -35.865  14.963  -3.807  1.00 20.00     0.024 C 
ENDROOT
BRANCH   9  10
HETATM   10  C1  UNL     1     -37.341  15.157  -3.684  1.00 20.00     0.132 C 
HETATM   11  C11 UNL     1     -37.826  16.572  -3.522  1.00 20.00     0.091 C 
HETATM   12  O12 UNL     1     -38.121  14.206  -3.716  1.00 20.00    -0.298 OA
ENDBRANCH   9  10
TORSDOF 1
ENDMDL
MODEL 2
REMARK VINA RESULT:      -5.1      0.735      1.902
REMARK  1 active torsions:
REMARK  status: ('A' for Active; 'I' for Inactive)
REMARK    1  A    between atoms: C1_1  and  C10_10 
ROOT
HETATM    1  C2  UNL     1     -33.088  15.914  -4.530  1.00 20.00     0.009 C 
HETATM    2  C3  UNL     1     -34.578  14.522  -6.018  1.00 20.00     0.010 C 
HETATM    3  C4  UNL     1     -33.997  13.688  -3.765  1.00 20.00     0.010 C 
HETATM    4  C5  UNL     1     -35.497  16.442  -5.071  1.00 20.00     0.022 C 
HETATM    5  C6  UNL     1     -34.915  15.608  -2.814  1.00 20.00     0.022 C 
HETATM    6  C7  UNL     1     -34.169  15.950  -5.652  1.00 20.00    -0.013 C 
HETATM    7  C8  UNL     1     -33.565  15.080  -3.303  1.00 20.00    -0.013 C 
HETATM    8  C9  UNL     1     -35.176  14.042  -4.687  1.00 20.00     0.002 C 
HETATM    9  C10 UNL     1     -35.787  15.337  -4.045  1.00 20.00     0.024 C 
ENDROOT
BRANCH   9  10
HETATM   10  C1  UNL     1     -37.242  15.218  -3.729  1.00 20.00     0.132 C 
HETATM   11  C11 UNL     1     -37.969  16.493  -3.398  1.00 20.00     0.091 C 
HETATM   12  O12 UNL     1     -37.817  14.131  -3.741  1.00 20.00    -0.298 OA
ENDBRANCH   9  10
TORSDOF 1
ENDMDL
MODEL 3
REMARK VINA RESULT:      -5.0      1.559      2.759
REMARK  1 active torsions:
REMARK  status: ('A' for Active; 'I' for Inactive)
REMARK    1  A    between atoms: C1_1  and  C10_10 
ROOT
HETATM    1  C2  UNL     1     -34.638  14.446  -5.952  1.00 20.00     0.009 C 
HETATM    2  C3  UNL     1     -33.650  13.849  -3.706  1.00 20.00     0.010 C 
HETATM    3  C4  UNL     1     -32.968  15.953  -4.810  1.00 20.00     0.010 C 
HETATM    4  C5  UNL     1     -35.873  14.546  -3.752  1.00 20.00     0.022 C 
HETATM    5  C6  UNL     1     -35.191  16.653  -4.858  1.00 20.00     0.022 C 
HETATM    6  C7  UNL     1     -34.891  13.727  -4.592  1.00 20.00    -0.013 C 
HETATM    7  C8  UNL     1     -34.180  15.920  -5.742  1.00 20.00    -0.013 C 
HETATM    8  C9  UNL     1     -33.576  15.373  -3.522  1.00 20.00     0.002 C 
HETATM    9  C10 UNL     1     -35.073  15.843  -3.562  1.00 20.00     0.024 C 
ENDROOT
BRANCH   9  10
HETATM   10  C1  UNL     1     -35.494  16.601  -2.346  1.00 20.00     0.132 C 
HETATM   11  C11 UNL     1     -34.613  16.476  -1.132  1.00 20.00     0.091 C 
HETATM   12  O12 UNL     1     -36.508  17.296  -2.338  1.00 20.00    -0.298 OA
ENDBRANCH   9  10
TORSDOF 1
ENDMDL
MODEL 4
REMARK VINA RESULT:      -5.0      1.540      2.860
REMARK  1 active torsions:
REMARK  status: ('A' for Active; 'I' for Inactive)
REMARK    1  A    between atoms: C1_1  and  C10_10 
ROOT
HETATM    1  C2  UNL     1     -35.116  16.609  -2.036  1.00 20.00     0.009 C 
HETATM    2  C3  UNL     1     -35.967  17.094  -4.363  1.00 20.00     0.010 C 
HETATM    3  C4  UNL     1     -33.539  16.816  -3.995  1.00 20.00     0.010 C 
HETATM    4  C5  UNL     1     -36.341  14.960  -3.504  1.00 20.00     0.022 C 
HETATM    5  C6  UNL     1     -33.910  14.681  -3.135  1.00 20.00     0.022 C 
HETATM    6  C7  UNL     1     -36.298  16.415  -3.033  1.00 20.00    -0.013 C 
HETATM    7  C8  UNL     1     -33.767  16.125  -2.650  1.00 20.00    -0.013 C 
HETATM    8  C9  UNL     1     -34.736  16.285  -4.800  1.00 20.00     0.002 C 
HETATM    9  C10 UNL     1     -34.985  14.850  -4.214  1.00 20.00     0.024 C 
ENDROOT
BRANCH   9  10
HETATM   10  C1  UNL     1     -34.965  13.772  -5.247  1.00 20.00     0.132 C 
HETATM   11  C11 UNL     1     -35.174  14.198  -6.675  1.00 20.00     0.091 C 
HETATM   12  O12 UNL     1     -34.785  12.593  -4.945  1.00 20.00    -0.298 OA
ENDBRANCH   9  10
TORSDOF 1
ENDMDL
MODEL 5
REMARK VINA RESULT:      -5.0      1.903      3.218
REMARK  1 active torsions:
REMARK  status: ('A' for Active; 'I' for Inactive)
REMARK    1  A    between atoms: C1_1  and  C10_10 
ROOT
HETATM    1  C2  UNL     1     -34.658  15.624  -2.522  1.00 20.00     0.009 C 
HETATM    2  C3  UNL     1     -33.385  13.923  -3.884  1.00 20.00     0.010 C 
HETATM    3  C4  UNL     1     -35.853  13.969  -4.004  1.00 20.00     0.010 C 
HETATM    4  C5  UNL     1     -33.308  16.141  -4.592  1.00 20.00     0.022 C 
HETATM    5  C6  UNL     1     -35.780  16.189  -4.712  1.00 20.00     0.022 C 
HETATM    6  C7  UNL     1     -33.336  15.333  -3.293  1.00 20.00    -0.013 C 
HETATM    7  C8  UNL     1     -35.908  15.381  -3.419  1.00 20.00    -0.013 C 
HETATM    8  C9  UNL     1     -34.572  14.055  -4.850  1.00 20.00     0.002 C 
HETATM    9  C10 UNL     1     -34.525  15.553  -5.320  1.00 20.00     0.024 C 
ENDROOT
BRANCH   9  10
HETATM   10  C1  UNL     1     -34.437  15.711  -6.802  1.00 20.00     0.132 C 
HETATM   11  C11 UNL     1     -34.502  17.115  -7.338  1.00 20.00     0.091 C 
HETATM   12  O12 UNL     1     -34.315  14.740  -7.548  1.00 20.00    -0.298 OA
ENDBRANCH   9  10
TORSDOF 1
ENDMDL
MODEL 6
REMARK VINA RESULT:      -4.9      1.678      3.187
REMARK  1 active torsions:
REMARK  status: ('A' for Active; 'I' for Inactive)
REMARK    1  A    between atoms: C1_1  and  C10_10 
ROOT
HETATM    1  C2  UNL     1     -33.322  13.717  -3.855  1.00 20.00     0.009 C 
HETATM    2  C3  UNL     1     -35.825  13.955  -4.074  1.00 20.00     0.010 C 
HETATM    3  C4  UNL     1     -34.566  15.597  -2.721  1.00 20.00     0.010 C 
HETATM    4  C5  UNL     1     -34.528  14.492  -5.934  1.00 20.00     0.022 C 
HETATM    5  C6  UNL     1     -33.266  16.135  -4.580  1.00 20.00     0.022 C 
HETATM    6  C7  UNL     1     -34.554  13.485  -4.781  1.00 20.00    -0.013 C 
HETATM    7  C8  UNL     1     -33.241  15.196  -3.372  1.00 20.00    -0.013 C 
HETATM    8  C9  UNL     1     -35.528  15.454  -3.912  1.00 20.00     0.002 C 
HETATM    9  C10 UNL     1     -34.647  15.813  -5.160  1.00 20.00     0.024 C 
ENDROOT
BRANCH   9  10
HETATM   10  C1  UNL     1     -35.213  16.915  -5.995  1.00 20.00     0.132 C 
HETATM   11  C11 UNL     1     -34.713  17.018  -7.410  1.00 20.00     0.091 C 
HETATM   12  O12 UNL     1     -36.050  17.698  -5.547  1.00 20.00    -0.298 OA
ENDBRANCH   9  10
TORSDOF 1
ENDMDL
MODEL 7
REMARK VINA RESULT:      -4.9      2.029      3.001
REMARK  1 active torsions:
REMARK  status: ('A' for Active; 'I' for Inactive)
REMARK    1  A    between atoms: C1_1  and  C10_10 
ROOT
HETATM    1  C2  UNL     1     -34.785  13.769  -5.721  1.00 20.00     0.009 C 
HETATM    2  C3  UNL     1     -35.828  16.067  -5.809  1.00 20.00     0.010 C 
HETATM    3  C4  UNL     1     -36.571  14.465  -4.080  1.00 20.00     0.010 C 
HETATM    4  C5  UNL     1     -33.642  15.908  -5.017  1.00 20.00     0.022 C 
HETATM    5  C6  UNL     1     -34.385  14.304  -3.285  1.00 20.00     0.022 C 
HETATM    6  C7  UNL     1     -34.549  15.270  -6.072  1.00 20.00    -0.013 C 
HETATM    7  C8  UNL     1     -35.324  13.601  -4.268  1.00 20.00    -0.013 C 
HETATM    8  C9  UNL     1     -35.985  15.871  -4.294  1.00 20.00     0.002 C 
HETATM    9  C10 UNL     1     -34.512  15.755  -3.762  1.00 20.00     0.024 C 
ENDROOT
BRANCH   9  10
HETATM   10  C1  UNL     1     -34.177  16.758  -2.708  1.00 20.00     0.132 C 
HETATM   11  C11 UNL     1     -34.578  16.419  -1.298  1.00 20.00     0.091 C 
HETATM   12  O12 UNL     1     -33.599  17.810  -2.979  1.00 20.00    -0.298 OA
ENDBRANCH   9  10
TORSDOF 1
ENDMDL
MODEL 8
REMARK VINA RESULT:      -4.9     10.998     12.493
REMARK  1 active torsions:
REMARK  status: ('A' for Active; 'I' for Inactive)
REMARK    1  A    between atoms: C1_1  and  C10_10 
ROOT
HETATM    1  C2  UNL     1     -40.729   6.892  -0.436  1.00 20.00     0.009 C 
HETATM    2  C3  UNL     1     -42.137   5.046   0.556  1.00 20.00     0.010 C 
HETATM    3  C4  UNL     1     -43.246   6.927  -0.602  1.00 20.00     0.010 C 
HETATM    4  C5  UNL     1     -40.938   4.560  -1.383  1.00 20.00     0.022 C 
HETATM    5  C6  UNL     1     -42.049   6.444  -2.542  1.00 20.00     0.022 C 
HETATM    6  C7  UNL     1     -40.791   5.373  -0.094  1.00 20.00    -0.013 C 
HETATM    7  C8  UNL     1     -41.948   7.333  -1.301  1.00 20.00    -0.013 C 
HETATM    8  C9  UNL     1     -43.102   5.396  -0.587  1.00 20.00     0.002 C 
HETATM    9  C10 UNL     1     -42.291   5.077  -1.893  1.00 20.00     0.024 C 
ENDROOT
BRANCH   9  10
HETATM   10  C1  UNL     1     -42.972   4.102  -2.796  1.00 20.00     0.132 C 
HETATM   11  C11 UNL     1     -43.091   2.687  -2.297  1.00 20.00     0.091 C 
HETATM   12  O12 UNL     1     -43.416   4.439  -3.892  1.00 20.00    -0.298 OA
ENDBRANCH   9  10
TORSDOF 1
ENDMDL
MODEL 9
REMARK VINA RESULT:      -4.8      1.660      2.977
REMARK  1 active torsions:
REMARK  status: ('A' for Active; 'I' for Inactive)
REMARK    1  A    between atoms: C1_1  and  C10_10 
ROOT
HETATM    1  C2  UNL     1     -33.785  17.070  -2.615  1.00 20.00     0.009 C 
HETATM    2  C3  UNL     1     -36.122  16.180  -2.959  1.00 20.00     0.010 C 
HETATM    3  C4  UNL     1     -35.060  17.518  -4.745  1.00 20.00     0.010 C 
HETATM    4  C5  UNL     1     -34.365  14.652  -3.059  1.00 20.00     0.022 C 
HETATM    5  C6  UNL     1     -33.301  15.992  -4.847  1.00 20.00     0.022 C 
HETATM    6  C7  UNL     1     -34.774  15.910  -2.289  1.00 20.00    -0.013 C 
HETATM    7  C8  UNL     1     -33.667  17.305  -4.151  1.00 20.00    -0.013 C 
HETATM    8  C9  UNL     1     -35.716  16.162  -4.441  1.00 20.00     0.002 C 
HETATM    9  C10 UNL     1     -34.527  15.139  -4.506  1.00 20.00     0.024 C 
ENDROOT
BRANCH   9  10
HETATM   10  C1  UNL     1     -34.756  14.017  -5.465  1.00 20.00     0.132 C 
HETATM   11  C11 UNL     1     -34.936  14.388  -6.911  1.00 20.00     0.091 C 
HETATM   12  O12 UNL     1     -34.792  12.846  -5.090  1.00 20.00    -0.298 OA
ENDBRANCH   9  10
TORSDOF 1
ENDMDL
