MODEL 1
REMARK VINA RESULT:      -4.2      0.000      0.000
REMARK  2 active torsions:
REMARK  status: ('A' for Active; 'I' for Inactive)
REMARK    1  A    between atoms: C2_2  and  C4_4 
REMARK    2  A    between atoms: C4_4  and  O5_5 
ROOT
HETATM    1  C1  UNL     1     -34.897   6.102   3.794  1.00 20.00     0.052 A 
HETATM    2  C2  UNL     1     -33.469   5.630   3.798  1.00 20.00     0.051 A 
HETATM    3  C3  UNL     1     -34.305   5.517   5.053  1.00 20.00     0.119 A 
HETATM    4 CL6  UNL     1     -34.027   6.597   6.413  1.00 20.00    -0.101 Cl
HETATM    5 CL7  UNL     1     -34.838   3.908   5.539  1.00 20.00    -0.101 Cl
ENDROOT
BRANCH   2   6
HETATM    6  C4  UNL     1     -32.360   6.615   3.653  1.00 20.00     0.172 C 
BRANCH   6   7
HETATM    7  O5  UNL     1     -32.589   7.440   2.512  1.00 20.00    -0.400 OA
HETATM    8  H13 UNL     1     -33.240   6.977   1.964  1.00 20.00     0.209 HD
ENDBRANCH   6   7
ENDBRANCH   2   6
TORSDOF 2
ENDMDL
MODEL 2
REMARK VINA RESULT:      -3.7      2.888      3.490
REMARK  2 active torsions:
REMARK  status: ('A' for Active; 'I' for Inactive)
REMARK    1  A    between atoms: C2_2  and  C4_4 
REMARK    2  A    between atoms: C4_4  and  O5_5 
ROOT
HETATM    1  C1  UNL     1     -33.983   6.700   5.676  1.00 20.00     0.052 A 
HETATM    2  C2  UNL     1     -33.897   5.199   5.623  1.00 20.00     0.051 A 
HETATM    3  C3  UNL     1     -33.921   5.999   4.340  1.00 20.00     0.119 A 
HETATM    4 CL6  UNL     1     -35.358   6.022   3.328  1.00 20.00    -0.101 Cl
HETATM    5 CL7  UNL     1     -32.420   6.117   3.421  1.00 20.00    -0.101 Cl
ENDROOT
BRANCH   2   6
HETATM    6  C4  UNL     1     -35.048   4.371   6.080  1.00 20.00     0.172 C 
BRANCH   6   7
HETATM    7  O5  UNL     1     -35.331   3.358   5.116  1.00 20.00    -0.400 OA
HETATM    8  H13 UNL     1     -36.205   3.004   5.338  1.00 20.00     0.209 HD
ENDBRANCH   6   7
ENDBRANCH   2   6
TORSDOF 2
ENDMDL
MODEL 3
REMARK VINA RESULT:      -3.6     11.850     12.473
REMARK  2 active torsions:
REMARK  status: ('A' for Active; 'I' for Inactive)
REMARK    1  A    between atoms: C2_2  and  C4_4 
REMARK    2  A    between atoms: C4_4  and  O5_5 
ROOT
HETATM    1  C1  UNL     1     -35.582  15.630  -3.366  1.00 20.00     0.052 A 
HETATM    2  C2  UNL     1     -34.516  14.595  -3.132  1.00 20.00     0.051 A 
HETATM    3  C3  UNL     1     -34.144  16.059  -3.197  1.00 20.00     0.119 A 
HETATM    4 CL6  UNL     1     -33.306  16.707  -4.599  1.00 20.00    -0.101 Cl
HETATM    5 CL7  UNL     1     -33.699  16.858  -1.689  1.00 20.00    -0.101 Cl
ENDROOT
BRANCH   2   6
HETATM    6  C4  UNL     1     -34.171  13.625  -4.210  1.00 20.00     0.172 C 
BRANCH   6   7
HETATM    7  O5  UNL     1     -35.130  12.568  -4.238  1.00 20.00    -0.400 OA
HETATM    8  H13 UNL     1     -35.683  12.678  -3.450  1.00 20.00     0.209 HD
ENDBRANCH   6   7
ENDBRANCH   2   6
TORSDOF 2
ENDMDL
MODEL 4
REMARK VINA RESULT:      -3.5     12.037     12.397
REMARK  2 active torsions:
REMARK  status: ('A' for Active; 'I' for Inactive)
REMARK    1  A    between atoms: C2_2  and  C4_4 
REMARK    2  A    between atoms: C4_4  and  O5_5 
ROOT
HETATM    1  C1  UNL     1     -34.382  16.112  -4.684  1.00 20.00     0.052 A 
HETATM    2  C2  UNL     1     -35.050  14.867  -4.169  1.00 20.00     0.051 A 
HETATM    3  C3  UNL     1     -33.867  15.449  -3.430  1.00 20.00     0.119 A 
HETATM    4 CL6  UNL     1     -32.295  14.663  -3.498  1.00 20.00    -0.101 Cl
HETATM    5 CL7  UNL     1     -34.177  16.251  -1.891  1.00 20.00    -0.101 Cl
ENDROOT
BRANCH   2   6
HETATM    6  C4  UNL     1     -34.970  13.602  -4.952  1.00 20.00     0.172 C 
BRANCH   6   7
HETATM    7  O5  UNL     1     -35.363  12.499  -4.136  1.00 20.00    -0.400 OA
HETATM    8  H13 UNL     1     -34.764  12.493  -3.375  1.00 20.00     0.209 HD
ENDBRANCH   6   7
ENDBRANCH   2   6
TORSDOF 2
ENDMDL
MODEL 5
REMARK VINA RESULT:      -3.5     11.867     12.564
REMARK  2 active torsions:
REMARK  status: ('A' for Active; 'I' for Inactive)
REMARK    1  A    between atoms: C2_2  and  C4_4 
REMARK    2  A    between atoms: C4_4  and  O5_5 
ROOT
HETATM    1  C1  UNL     1     -33.206  14.695  -3.768  1.00 20.00     0.052 A 
HETATM    2  C2  UNL     1     -34.547  14.865  -4.430  1.00 20.00     0.051 A 
HETATM    3  C3  UNL     1     -34.056  15.900  -3.444  1.00 20.00     0.119 A 
HETATM    4 CL6  UNL     1     -34.758  16.006  -1.836  1.00 20.00    -0.101 Cl
HETATM    5 CL7  UNL     1     -33.543  17.461  -4.084  1.00 20.00    -0.101 Cl
ENDROOT
BRANCH   2   6
HETATM    6  C4  UNL     1     -35.654  13.916  -4.122  1.00 20.00     0.172 C 
BRANCH   6   7
HETATM    7  O5  UNL     1     -35.164  12.575  -4.141  1.00 20.00    -0.400 OA
HETATM    8  H13 UNL     1     -34.212  12.628  -3.970  1.00 20.00     0.209 HD
ENDBRANCH   6   7
ENDBRANCH   2   6
TORSDOF 2
ENDMDL
MODEL 6
REMARK VINA RESULT:      -3.5     13.126     13.697
REMARK  2 active torsions:
REMARK  status: ('A' for Active; 'I' for Inactive)
REMARK    1  A    between atoms: C2_2  and  C4_4 
REMARK    2  A    between atoms: C4_4  and  O5_5 
ROOT
HETATM    1  C1  UNL     1     -34.467  14.883  -6.953  1.00 20.00     0.052 A 
HETATM    2  C2  UNL     1     -35.093  14.381  -5.681  1.00 20.00     0.051 A 
HETATM    3  C3  UNL     1     -34.595  15.806  -5.766  1.00 20.00     0.119 A 
HETATM    4 CL6  UNL     1     -33.124  16.290  -4.935  1.00 20.00    -0.101 Cl
HETATM    5 CL7  UNL     1     -35.800  17.090  -5.852  1.00 20.00    -0.101 Cl
ENDROOT
BRANCH   2   6
HETATM    6  C4  UNL     1     -34.405  13.332  -4.877  1.00 20.00     0.172 C 
BRANCH   6   7
HETATM    7  O5  UNL     1     -35.366  12.581  -4.135  1.00 20.00    -0.400 OA
HETATM    8  H13 UNL     1     -35.928  13.226  -3.681  1.00 20.00     0.209 HD
ENDBRANCH   6   7
ENDBRANCH   2   6
TORSDOF 2
ENDMDL
MODEL 7
REMARK VINA RESULT:      -3.4     12.893     13.486
REMARK  2 active torsions:
REMARK  status: ('A' for Active; 'I' for Inactive)
REMARK    1  A    between atoms: C2_2  and  C4_4 
REMARK    2  A    between atoms: C4_4  and  O5_5 
ROOT
HETATM    1  C1  UNL     1     -35.503  15.439  -4.729  1.00 20.00     0.052 A 
HETATM    2  C2  UNL     1     -34.258  14.650  -4.426  1.00 20.00     0.051 A 
HETATM    3  C3  UNL     1     -34.259  15.652  -5.558  1.00 20.00     0.119 A 
HETATM    4 CL6  UNL     1     -34.281  15.112  -7.231  1.00 20.00    -0.101 Cl
HETATM    5 CL7  UNL     1     -33.364  17.153  -5.323  1.00 20.00    -0.101 Cl
ENDROOT
BRANCH   2   6
HETATM    6  C4  UNL     1     -34.239  13.177  -4.652  1.00 20.00     0.172 C 
BRANCH   6   7
HETATM    7  O5  UNL     1     -35.413  12.585  -4.097  1.00 20.00    -0.400 OA
HETATM    8  H13 UNL     1     -35.288  11.626  -4.149  1.00 20.00     0.209 HD
ENDBRANCH   6   7
ENDBRANCH   2   6
TORSDOF 2
ENDMDL
MODEL 8
REMARK VINA RESULT:      -3.4      9.055      9.847
REMARK  2 active torsions:
REMARK  status: ('A' for Active; 'I' for Inactive)
REMARK    1  A    between atoms: C2_2  and  C4_4 
REMARK    2  A    between atoms: C4_4  and  O5_5 
ROOT
HETATM    1  C1  UNL     1     -40.766   6.538  -0.504  1.00 20.00     0.052 A 
HETATM    2  C2  UNL     1     -41.568   5.827  -1.560  1.00 20.00     0.051 A 
HETATM    3  C3  UNL     1     -42.270   6.481  -0.392  1.00 20.00     0.119 A 
HETATM    4 CL6  UNL     1     -42.965   5.505   0.894  1.00 20.00    -0.101 Cl
HETATM    5 CL7  UNL     1     -43.172   7.964  -0.704  1.00 20.00    -0.101 Cl
ENDROOT
BRANCH   2   6
HETATM    6  C4  UNL     1     -41.456   4.349  -1.710  1.00 20.00     0.172 C 
BRANCH   6   7
HETATM    7  O5  UNL     1     -40.175   3.911  -1.257  1.00 20.00    -0.400 OA
HETATM    8  H13 UNL     1     -40.127   4.129  -0.315  1.00 20.00     0.209 HD
ENDBRANCH   6   7
ENDBRANCH   2   6
TORSDOF 2
ENDMDL
MODEL 9
REMARK VINA RESULT:      -3.3      2.753      3.061
REMARK  2 active torsions:
REMARK  status: ('A' for Active; 'I' for Inactive)
REMARK    1  A    between atoms: C2_2  and  C4_4 
REMARK    2  A    between atoms: C4_4  and  O5_5 
ROOT
HETATM    1  C1  UNL     1     -34.990   4.055   4.888  1.00 20.00     0.052 A 
HETATM    2  C2  UNL     1     -35.004   5.352   5.649  1.00 20.00     0.051 A 
HETATM    3  C3  UNL     1     -34.927   5.364   4.139  1.00 20.00     0.119 A 
HETATM    4 CL6  UNL     1     -33.424   5.776   3.324  1.00 20.00    -0.101 Cl
HETATM    5 CL7  UNL     1     -36.362   5.871   3.250  1.00 20.00    -0.101 Cl
ENDROOT
BRANCH   2   6
HETATM    6  C4  UNL     1     -33.851   5.716   6.520  1.00 20.00     0.172 C 
BRANCH   6   7
HETATM    7  O5  UNL     1     -33.854   7.121   6.769  1.00 20.00    -0.400 OA
HETATM    8  H13 UNL     1     -32.993   7.333   7.158  1.00 20.00     0.209 HD
ENDBRANCH   6   7
ENDBRANCH   2   6
TORSDOF 2
ENDMDL
