MODEL 1
REMARK VINA RESULT:      -4.6      0.000      0.000
REMARK  2 active torsions:
REMARK  status: ('A' for Active; 'I' for Inactive)
REMARK    1  A    between atoms: C3_3  and  C10_10 
REMARK    2  A    between atoms: C5_5  and  C10_10 
ROOT
HETATM    1  C1  UNL     1     -33.237  16.080  -4.854  1.00 20.00    -0.023 C 
HETATM    2  C2  UNL     1     -34.337  15.550  -5.408  1.00 20.00    -0.079 C 
HETATM    3  C4  UNL     1     -33.024  15.592  -3.459  1.00 20.00     0.033 C 
HETATM    4  C5  UNL     1     -34.403  15.013  -3.086  1.00 20.00     0.007 C 
HETATM    5  C6  UNL     1     -35.041  14.602  -4.454  1.00 20.00    -0.021 C 
HETATM    6  C7  UNL     1     -34.804  15.791  -6.801  1.00 20.00     0.044 C 
HETATM    7  C8  UNL     1     -34.661  13.148  -4.796  1.00 20.00     0.020 C 
HETATM    8  C9  UNL     1     -36.568  14.735  -4.491  1.00 20.00     0.020 C 
ENDROOT
BRANCH   4   9
HETATM    9  C10 UNL     1     -35.200  16.053  -2.284  1.00 20.00     0.075 C 
BRANCH   9  10
HETATM   10  C3  UNL     1     -34.407  16.630  -1.140  1.00 20.00     0.231 C 
HETATM   11  O11 UNL     1     -34.858  16.875  -0.026  1.00 20.00    -0.307 OA
ENDBRANCH   9  10
ENDBRANCH   4   9
TORSDOF 2
ENDMDL
MODEL 2
REMARK VINA RESULT:      -4.5      1.153      1.820
REMARK  2 active torsions:
REMARK  status: ('A' for Active; 'I' for Inactive)
REMARK    1  A    between atoms: C3_3  and  C10_10 
REMARK    2  A    between atoms: C5_5  and  C10_10 
ROOT
HETATM    1  C1  UNL     1     -34.315  13.517  -4.952  1.00 20.00    -0.023 C 
HETATM    2  C2  UNL     1     -35.187  14.386  -5.482  1.00 20.00    -0.079 C 
HETATM    3  C4  UNL     1     -34.244  13.634  -3.465  1.00 20.00     0.033 C 
HETATM    4  C5  UNL     1     -34.889  15.008  -3.199  1.00 20.00     0.007 C 
HETATM    5  C6  UNL     1     -35.854  15.231  -4.411  1.00 20.00    -0.021 C 
HETATM    6  C7  UNL     1     -35.529  14.492  -6.927  1.00 20.00     0.044 C 
HETATM    7  C8  UNL     1     -37.245  14.653  -4.089  1.00 20.00     0.020 C 
HETATM    8  C9  UNL     1     -36.011  16.702  -4.816  1.00 20.00     0.020 C 
ENDROOT
BRANCH   4   9
HETATM    9  C10 UNL     1     -33.792  16.071  -3.039  1.00 20.00     0.075 C 
BRANCH   9  10
HETATM   10  C3  UNL     1     -33.904  16.822  -1.738  1.00 20.00     0.231 C 
HETATM   11  O11 UNL     1     -34.546  16.447  -0.763  1.00 20.00    -0.307 OA
ENDBRANCH   9  10
ENDBRANCH   4   9
TORSDOF 2
ENDMDL
MODEL 3
REMARK VINA RESULT:      -4.4     11.481     12.630
REMARK  2 active torsions:
REMARK  status: ('A' for Active; 'I' for Inactive)
REMARK    1  A    between atoms: C3_3  and  C10_10 
REMARK    2  A    between atoms: C5_5  and  C10_10 
ROOT
HETATM    1  C1  UNL     1     -34.079   5.749   6.113  1.00 20.00    -0.023 C 
HETATM    2  C2  UNL     1     -34.539   4.946   5.143  1.00 20.00    -0.079 C 
HETATM    3  C4  UNL     1     -33.766   7.117   5.604  1.00 20.00     0.033 C 
HETATM    4  C5  UNL     1     -33.695   6.906   4.079  1.00 20.00     0.007 C 
HETATM    5  C6  UNL     1     -34.614   5.668   3.810  1.00 20.00    -0.021 C 
HETATM    6  C7  UNL     1     -34.988   3.538   5.328  1.00 20.00     0.044 C 
HETATM    7  C8  UNL     1     -36.060   6.132   3.553  1.00 20.00     0.020 C 
HETATM    8  C9  UNL     1     -34.157   4.802   2.629  1.00 20.00     0.020 C 
ENDROOT
BRANCH   4   9
HETATM    9  C10 UNL     1     -32.231   6.733   3.649  1.00 20.00     0.075 C 
BRANCH   9  10
HETATM   10  C3  UNL     1     -31.835   7.690   2.554  1.00 20.00     0.231 C 
HETATM   11  O11 UNL     1     -32.519   8.627   2.159  1.00 20.00    -0.307 OA
ENDBRANCH   9  10
ENDBRANCH   4   9
TORSDOF 2
ENDMDL
MODEL 4
REMARK VINA RESULT:      -4.3      0.954      2.585
REMARK  2 active torsions:
REMARK  status: ('A' for Active; 'I' for Inactive)
REMARK    1  A    between atoms: C3_3  and  C10_10 
REMARK    2  A    between atoms: C5_5  and  C10_10 
ROOT
HETATM    1  C1  UNL     1     -36.268  15.127  -3.453  1.00 20.00    -0.023 C 
HETATM    2  C2  UNL     1     -35.146  14.592  -3.955  1.00 20.00    -0.079 C 
HETATM    3  C4  UNL     1     -36.090  16.565  -3.096  1.00 20.00     0.033 C 
HETATM    4  C5  UNL     1     -34.557  16.719  -3.052  1.00 20.00     0.007 C 
HETATM    5  C6  UNL     1     -34.023  15.611  -4.019  1.00 20.00    -0.021 C 
HETATM    6  C7  UNL     1     -35.003  13.196  -4.453  1.00 20.00     0.044 C 
HETATM    7  C8  UNL     1     -33.914  16.170  -5.451  1.00 20.00     0.020 C 
HETATM    8  C9  UNL     1     -32.662  15.034  -3.610  1.00 20.00     0.020 C 
ENDROOT
BRANCH   4   9
HETATM    9  C10 UNL     1     -34.067  16.604  -1.601  1.00 20.00     0.075 C 
BRANCH   9  10
HETATM   10  C3  UNL     1     -34.942  17.362  -0.636  1.00 20.00     0.231 C 
HETATM   11  O11 UNL     1     -35.060  17.105   0.557  1.00 20.00    -0.307 OA
ENDBRANCH   9  10
ENDBRANCH   4   9
TORSDOF 2
ENDMDL
MODEL 5
REMARK VINA RESULT:      -4.2      2.218      3.604
REMARK  2 active torsions:
REMARK  status: ('A' for Active; 'I' for Inactive)
REMARK    1  A    between atoms: C3_3  and  C10_10 
REMARK    2  A    between atoms: C5_5  and  C10_10 
ROOT
HETATM    1  C1  UNL     1     -34.835  13.700  -5.100  1.00 20.00    -0.023 C 
HETATM    2  C2  UNL     1     -33.999  14.220  -4.191  1.00 20.00    -0.079 C 
HETATM    3  C4  UNL     1     -35.805  14.713  -5.610  1.00 20.00     0.033 C 
HETATM    4  C5  UNL     1     -35.718  15.832  -4.554  1.00 20.00     0.007 C 
HETATM    5  C6  UNL     1     -34.281  15.692  -3.951  1.00 20.00    -0.021 C 
HETATM    6  C7  UNL     1     -32.884  13.490  -3.525  1.00 20.00     0.044 C 
HETATM    7  C8  UNL     1     -33.286  16.547  -4.759  1.00 20.00     0.020 C 
HETATM    8  C9  UNL     1     -34.188  16.091  -2.473  1.00 20.00     0.020 C 
ENDROOT
BRANCH   4   9
HETATM    9  C10 UNL     1     -36.864  15.678  -3.543  1.00 20.00     0.075 C 
BRANCH   9  10
HETATM   10  C3  UNL     1     -38.131  15.171  -4.182  1.00 20.00     0.231 C 
HETATM   11  O11 UNL     1     -38.719  14.144  -3.859  1.00 20.00    -0.307 OA
ENDBRANCH   9  10
ENDBRANCH   4   9
TORSDOF 2
ENDMDL
MODEL 6
REMARK VINA RESULT:      -4.1      2.770      4.351
REMARK  2 active torsions:
REMARK  status: ('A' for Active; 'I' for Inactive)
REMARK    1  A    between atoms: C3_3  and  C10_10 
REMARK    2  A    between atoms: C5_5  and  C10_10 
ROOT
HETATM    1  C1  UNL     1     -36.210  15.195  -3.078  1.00 20.00    -0.023 C 
HETATM    2  C2  UNL     1     -34.930  15.579  -2.974  1.00 20.00    -0.079 C 
HETATM    3  C4  UNL     1     -36.446  14.365  -4.296  1.00 20.00     0.033 C 
HETATM    4  C5  UNL     1     -35.202  14.659  -5.157  1.00 20.00     0.007 C 
HETATM    5  C6  UNL     1     -34.093  15.050  -4.125  1.00 20.00    -0.021 C 
HETATM    6  C7  UNL     1     -34.355  16.372  -1.852  1.00 20.00     0.044 C 
HETATM    7  C8  UNL     1     -33.329  13.791  -3.672  1.00 20.00     0.020 C 
HETATM    8  C9  UNL     1     -33.084  16.075  -4.657  1.00 20.00     0.020 C 
ENDROOT
BRANCH   4   9
HETATM    9  C10 UNL     1     -35.536  15.743  -6.193  1.00 20.00     0.075 C 
BRANCH   9  10
HETATM   10  C3  UNL     1     -36.846  15.489  -6.891  1.00 20.00     0.231 C 
HETATM   11  O11 UNL     1     -36.984  14.800  -7.896  1.00 20.00    -0.307 OA
ENDBRANCH   9  10
ENDBRANCH   4   9
TORSDOF 2
ENDMDL
MODEL 7
REMARK VINA RESULT:      -4.1      2.343      3.825
REMARK  2 active torsions:
REMARK  status: ('A' for Active; 'I' for Inactive)
REMARK    1  A    between atoms: C3_3  and  C10_10 
REMARK    2  A    between atoms: C5_5  and  C10_10 
ROOT
HETATM    1  C1  UNL     1     -34.641  16.145  -2.383  1.00 20.00    -0.023 C 
HETATM    2  C2  UNL     1     -35.280  17.062  -3.124  1.00 20.00    -0.079 C 
HETATM    3  C4  UNL     1     -33.478  15.554  -3.108  1.00 20.00     0.033 C 
HETATM    4  C5  UNL     1     -33.760  15.936  -4.575  1.00 20.00     0.007 C 
HETATM    5  C6  UNL     1     -34.628  17.235  -4.483  1.00 20.00    -0.021 C 
HETATM    6  C7  UNL     1     -36.448  17.871  -2.677  1.00 20.00     0.044 C 
HETATM    7  C8  UNL     1     -33.716  18.477  -4.464  1.00 20.00     0.020 C 
HETATM    8  C9  UNL     1     -35.642  17.385  -5.624  1.00 20.00     0.020 C 
ENDROOT
BRANCH   4   9
HETATM    9  C10 UNL     1     -34.430  14.757  -5.296  1.00 20.00     0.075 C 
BRANCH   9  10
HETATM   10  C3  UNL     1     -34.195  13.444  -4.595  1.00 20.00     0.231 C 
HETATM   11  O11 UNL     1     -35.052  12.591  -4.395  1.00 20.00    -0.307 OA
ENDBRANCH   9  10
ENDBRANCH   4   9
TORSDOF 2
ENDMDL
MODEL 8
REMARK VINA RESULT:      -4.0      2.481      3.901
REMARK  2 active torsions:
REMARK  status: ('A' for Active; 'I' for Inactive)
REMARK    1  A    between atoms: C3_3  and  C10_10 
REMARK    2  A    between atoms: C5_5  and  C10_10 
ROOT
HETATM    1  C1  UNL     1     -34.820  17.331  -4.913  1.00 20.00    -0.023 C 
HETATM    2  C2  UNL     1     -34.447  17.852  -3.735  1.00 20.00    -0.079 C 
HETATM    3  C4  UNL     1     -35.649  16.102  -4.742  1.00 20.00     0.033 C 
HETATM    4  C5  UNL     1     -35.367  15.700  -3.281  1.00 20.00     0.007 C 
HETATM    5  C6  UNL     1     -34.985  17.041  -2.571  1.00 20.00    -0.021 C 
HETATM    6  C7  UNL     1     -33.658  19.102  -3.555  1.00 20.00     0.044 C 
HETATM    7  C8  UNL     1     -36.251  17.718  -2.010  1.00 20.00     0.020 C 
HETATM    8  C9  UNL     1     -33.970  16.873  -1.433  1.00 20.00     0.020 C 
ENDROOT
BRANCH   4   9
HETATM    9  C10 UNL     1     -34.281  14.614  -3.244  1.00 20.00     0.075 C 
BRANCH   9  10
HETATM   10  C3  UNL     1     -34.371  13.670  -4.415  1.00 20.00     0.231 C 
HETATM   11  O11 UNL     1     -35.005  12.621  -4.424  1.00 20.00    -0.307 OA
ENDBRANCH   9  10
ENDBRANCH   4   9
TORSDOF 2
ENDMDL
MODEL 9
REMARK VINA RESULT:      -4.0      2.319      3.459
REMARK  2 active torsions:
REMARK  status: ('A' for Active; 'I' for Inactive)
REMARK    1  A    between atoms: C3_3  and  C10_10 
REMARK    2  A    between atoms: C5_5  and  C10_10 
ROOT
HETATM    1  C1  UNL     1     -35.553  15.287  -5.915  1.00 20.00    -0.023 C 
HETATM    2  C2  UNL     1     -35.645  14.970  -4.616  1.00 20.00    -0.079 C 
HETATM    3  C4  UNL     1     -34.171  15.706  -6.291  1.00 20.00     0.033 C 
HETATM    4  C5  UNL     1     -33.524  16.014  -4.926  1.00 20.00     0.007 C 
HETATM    5  C6  UNL     1     -34.311  15.123  -3.908  1.00 20.00    -0.021 C 
HETATM    6  C7  UNL     1     -36.870  14.468  -3.934  1.00 20.00     0.044 C 
HETATM    7  C8  UNL     1     -33.633  13.746  -3.779  1.00 20.00     0.020 C 
HETATM    8  C9  UNL     1     -34.438  15.743  -2.511  1.00 20.00     0.020 C 
ENDROOT
BRANCH   4   9
HETATM    9  C10 UNL     1     -33.588  17.524  -4.653  1.00 20.00     0.075 C 
BRANCH   9  10
HETATM   10  C3  UNL     1     -33.624  18.337  -5.921  1.00 20.00     0.231 C 
HETATM   11  O11 UNL     1     -34.408  19.253  -6.146  1.00 20.00    -0.307 OA
ENDBRANCH   9  10
ENDBRANCH   4   9
TORSDOF 2
ENDMDL
