MODEL 1
REMARK VINA RESULT:      -4.0      0.000      0.000
REMARK  1 active torsions:
REMARK  status: ('A' for Active; 'I' for Inactive)
REMARK    1  A    between atoms: C5_5  and  C6_6 
ROOT
HETATM    1  C1  UNL     1     -33.909   6.829   6.495  1.00 20.00     0.014 C 
HETATM    2  C2  UNL     1     -34.176   6.148   5.542  1.00 20.00    -0.091 C 
HETATM    3  C4  UNL     1     -34.767   3.869   4.835  1.00 20.00     0.046 C 
HETATM    4  C6  UNL     1     -34.501   5.307   4.375  1.00 20.00     0.095 C 
HETATM    5 CL7  UNL     1     -36.018   5.952   3.664  1.00 20.00    -0.105 Cl
ENDROOT
BRANCH   4   6
HETATM    6  C5  UNL     1     -33.364   5.319   3.332  1.00 20.00     0.034 C 
HETATM    7  C3  UNL     1     -32.719   6.678   3.069  1.00 20.00     0.008 C 
ENDBRANCH   4   6
TORSDOF 1
ENDMDL
MODEL 2
REMARK VINA RESULT:      -3.8      1.374      2.740
REMARK  1 active torsions:
REMARK  status: ('A' for Active; 'I' for Inactive)
REMARK    1  A    between atoms: C5_5  and  C6_6 
ROOT
HETATM    1  C1  UNL     1     -32.451   6.162   3.354  1.00 20.00     0.014 C 
HETATM    2  C2  UNL     1     -33.414   5.773   3.956  1.00 20.00    -0.091 C 
HETATM    3  C4  UNL     1     -35.872   5.763   3.973  1.00 20.00     0.046 C 
HETATM    4  C6  UNL     1     -34.601   5.298   4.693  1.00 20.00     0.095 C 
HETATM    5 CL7  UNL     1     -34.566   3.503   4.655  1.00 20.00    -0.105 Cl
ENDROOT
BRANCH   4   6
HETATM    6  C5  UNL     1     -34.607   5.811   6.148  1.00 20.00     0.034 C 
HETATM    7  C3  UNL     1     -33.677   6.986   6.443  1.00 20.00     0.008 C 
ENDBRANCH   4   6
TORSDOF 1
ENDMDL
MODEL 3
REMARK VINA RESULT:      -3.6      1.288      1.757
REMARK  1 active torsions:
REMARK  status: ('A' for Active; 'I' for Inactive)
REMARK    1  A    between atoms: C5_5  and  C6_6 
ROOT
HETATM    1  C1  UNL     1     -34.876   4.065   5.962  1.00 20.00     0.014 C 
HETATM    2  C2  UNL     1     -34.781   4.762   4.989  1.00 20.00    -0.091 C 
HETATM    3  C4  UNL     1     -34.079   4.794   2.633  1.00 20.00     0.046 C 
HETATM    4  C6  UNL     1     -34.661   5.614   3.791  1.00 20.00     0.095 C 
HETATM    5 CL7  UNL     1     -36.321   6.122   3.332  1.00 20.00    -0.105 Cl
ENDROOT
BRANCH   4   6
HETATM    6  C5  UNL     1     -33.770   6.846   4.058  1.00 20.00     0.034 C 
HETATM    7  C3  UNL     1     -32.375   6.803   3.437  1.00 20.00     0.008 C 
ENDBRANCH   4   6
TORSDOF 1
ENDMDL
MODEL 4
REMARK VINA RESULT:      -3.5      1.655      2.568
REMARK  1 active torsions:
REMARK  status: ('A' for Active; 'I' for Inactive)
REMARK    1  A    between atoms: C5_5  and  C6_6 
ROOT
HETATM    1  C1  UNL     1     -33.667   7.180   6.632  1.00 20.00     0.014 C 
HETATM    2  C2  UNL     1     -33.858   6.515   5.651  1.00 20.00    -0.091 C 
HETATM    3  C4  UNL     1     -35.306   6.257   3.681  1.00 20.00     0.046 C 
HETATM    4  C6  UNL     1     -34.099   5.700   4.445  1.00 20.00     0.095 C 
HETATM    5 CL7  UNL     1     -32.652   5.866   3.395  1.00 20.00    -0.105 Cl
ENDROOT
BRANCH   4   6
HETATM    6  C5  UNL     1     -34.345   4.218   4.801  1.00 20.00     0.034 C 
HETATM    7  C3  UNL     1     -35.182   3.967   6.053  1.00 20.00     0.008 C 
ENDBRANCH   4   6
TORSDOF 1
ENDMDL
MODEL 5
REMARK VINA RESULT:      -3.5      0.842      2.877
REMARK  1 active torsions:
REMARK  status: ('A' for Active; 'I' for Inactive)
REMARK    1  A    between atoms: C5_5  and  C6_6 
ROOT
HETATM    1  C1  UNL     1     -32.185   6.391   3.014  1.00 20.00     0.014 C 
HETATM    2  C2  UNL     1     -33.090   6.112   3.752  1.00 20.00    -0.091 C 
HETATM    3  C4  UNL     1     -34.181   6.718   5.870  1.00 20.00     0.046 C 
HETATM    4  C6  UNL     1     -34.200   5.773   4.663  1.00 20.00     0.095 C 
HETATM    5 CL7  UNL     1     -35.728   6.052   3.764  1.00 20.00    -0.105 Cl
ENDROOT
BRANCH   4   6
HETATM    6  C5  UNL     1     -34.111   4.309   5.145  1.00 20.00     0.034 C 
HETATM    7  C3  UNL     1     -35.108   3.906   6.229  1.00 20.00     0.008 C 
ENDBRANCH   4   6
TORSDOF 1
ENDMDL
MODEL 6
REMARK VINA RESULT:      -3.5     11.949     12.689
REMARK  1 active torsions:
REMARK  status: ('A' for Active; 'I' for Inactive)
REMARK    1  A    between atoms: C5_5  and  C6_6 
ROOT
HETATM    1  C1  UNL     1     -34.422  16.606  -1.156  1.00 20.00     0.014 C 
HETATM    2  C2  UNL     1     -34.227  16.134  -2.243  1.00 20.00    -0.091 C 
HETATM    3  C4  UNL     1     -33.792  16.691  -4.598  1.00 20.00     0.046 C 
HETATM    4  C6  UNL     1     -33.990  15.560  -3.581  1.00 20.00     0.095 C 
HETATM    5 CL7  UNL     1     -32.462  14.621  -3.492  1.00 20.00    -0.105 Cl
ENDROOT
BRANCH   4   6
HETATM    6  C5  UNL     1     -35.158  14.656  -4.026  1.00 20.00     0.034 C 
HETATM    7  C3  UNL     1     -34.767  13.276  -4.550  1.00 20.00     0.008 C 
ENDBRANCH   4   6
TORSDOF 1
ENDMDL
MODEL 7
REMARK VINA RESULT:      -3.5     11.657     12.627
REMARK  1 active torsions:
REMARK  status: ('A' for Active; 'I' for Inactive)
REMARK    1  A    between atoms: C5_5  and  C6_6 
ROOT
HETATM    1  C1  UNL     1     -34.581  16.259  -1.628  1.00 20.00     0.014 C 
HETATM    2  C2  UNL     1     -34.524  15.621  -2.645  1.00 20.00    -0.091 C 
HETATM    3  C4  UNL     1     -33.398  13.731  -3.739  1.00 20.00     0.046 C 
HETATM    4  C6  UNL     1     -34.448  14.837  -3.891  1.00 20.00     0.095 C 
HETATM    5 CL7  UNL     1     -36.047  14.056  -4.125  1.00 20.00    -0.105 Cl
ENDROOT
BRANCH   4   6
HETATM    6  C5  UNL     1     -34.096  15.728  -5.102  1.00 20.00     0.034 C 
HETATM    7  C3  UNL     1     -34.424  15.143  -6.474  1.00 20.00     0.008 C 
ENDBRANCH   4   6
TORSDOF 1
ENDMDL
MODEL 8
REMARK VINA RESULT:      -3.4      9.572     10.394
REMARK  1 active torsions:
REMARK  status: ('A' for Active; 'I' for Inactive)
REMARK    1  A    between atoms: C5_5  and  C6_6 
ROOT
HETATM    1  C1  UNL     1     -41.532   2.190  -3.460  1.00 20.00     0.014 C 
HETATM    2  C2  UNL     1     -41.744   3.118  -2.726  1.00 20.00    -0.091 C 
HETATM    3  C4  UNL     1     -42.492   5.458  -2.654  1.00 20.00     0.046 C 
HETATM    4  C6  UNL     1     -42.003   4.260  -1.831  1.00 20.00     0.095 C 
HETATM    5 CL7  UNL     1     -43.327   3.773  -0.720  1.00 20.00    -0.105 Cl
ENDROOT
BRANCH   4   6
HETATM    6  C5  UNL     1     -40.742   4.655  -1.034  1.00 20.00     0.034 C 
HETATM    7  C3  UNL     1     -40.782   6.026  -0.363  1.00 20.00     0.008 C 
ENDBRANCH   4   6
TORSDOF 1
ENDMDL
MODEL 9
REMARK VINA RESULT:      -3.4      1.738      2.366
REMARK  1 active torsions:
REMARK  status: ('A' for Active; 'I' for Inactive)
REMARK    1  A    between atoms: C5_5  and  C6_6 
ROOT
HETATM    1  C1  UNL     1     -34.934   3.800   5.595  1.00 20.00     0.014 C 
HETATM    2  C2  UNL     1     -34.486   4.842   5.200  1.00 20.00    -0.091 C 
HETATM    3  C4  UNL     1     -35.019   6.872   3.921  1.00 20.00     0.046 C 
HETATM    4  C6  UNL     1     -33.941   6.123   4.711  1.00 20.00     0.095 C 
HETATM    5 CL7  UNL     1     -33.526   7.108   6.154  1.00 20.00    -0.105 Cl
ENDROOT
BRANCH   4   6
HETATM    6  C5  UNL     1     -32.697   5.908   3.824  1.00 20.00     0.034 C 
HETATM    7  C3  UNL     1     -32.240   7.121   3.017  1.00 20.00     0.008 C 
ENDBRANCH   4   6
TORSDOF 1
ENDMDL
