MODEL 1
REMARK VINA RESULT:      -5.0      0.000      0.000
REMARK  0 active torsions:
REMARK  status: ('A' for Active; 'I' for Inactive)
ROOT
HETATM    1  C1  UNL     1     -34.650  14.873  -5.921  1.00 20.00    -0.080 C 
HETATM    2  C2  UNL     1     -34.320  15.042  -7.205  1.00 20.00     0.015 C 
HETATM    3  C3  UNL     1     -34.836  13.526  -5.253  1.00 20.00     0.039 C 
HETATM    4  C4  UNL     1     -36.617  14.578  -3.866  1.00 20.00     0.007 C 
HETATM    5  C5  UNL     1     -36.395  15.927  -4.580  1.00 20.00     0.015 C 
HETATM    6  C6  UNL     1     -35.191  13.975  -3.816  1.00 20.00    -0.002 C 
HETATM    7  C7  UNL     1     -34.865  15.939  -4.842  1.00 20.00    -0.014 C 
HETATM    8  C8  UNL     1     -34.287  15.217  -3.587  1.00 20.00    -0.033 C 
HETATM    9  C9  UNL     1     -34.320  17.329  -5.127  1.00 20.00     0.021 C 
HETATM   10  C10 UNL     1     -34.536  15.926  -2.240  1.00 20.00     0.016 C 
HETATM   11  C11 UNL     1     -32.772  14.920  -3.642  1.00 20.00     0.016 C 
ENDROOT
TORSDOF 0
ENDMDL
MODEL 2
REMARK VINA RESULT:      -4.9      1.067      2.668
REMARK  0 active torsions:
REMARK  status: ('A' for Active; 'I' for Inactive)
ROOT
HETATM    1  C1  UNL     1     -34.544  15.149  -5.710  1.00 20.00    -0.080 C 
HETATM    2  C2  UNL     1     -35.079  14.749  -6.868  1.00 20.00     0.015 C 
HETATM    3  C3  UNL     1     -33.411  16.146  -5.587  1.00 20.00     0.039 C 
HETATM    4  C4  UNL     1     -32.625  14.852  -3.610  1.00 20.00     0.007 C 
HETATM    5  C5  UNL     1     -33.792  13.859  -3.780  1.00 20.00     0.015 C 
HETATM    6  C6  UNL     1     -33.252  16.199  -4.050  1.00 20.00    -0.002 C 
HETATM    7  C7  UNL     1     -34.951  14.759  -4.285  1.00 20.00    -0.014 C 
HETATM    8  C8  UNL     1     -34.711  16.100  -3.527  1.00 20.00    -0.033 C 
HETATM    9  C9  UNL     1     -36.320  14.124  -4.108  1.00 20.00     0.021 C 
HETATM   10  C10 UNL     1     -34.815  16.021  -1.990  1.00 20.00     0.016 C 
HETATM   11  C11 UNL     1     -35.622  17.270  -3.960  1.00 20.00     0.016 C 
ENDROOT
TORSDOF 0
ENDMDL
MODEL 3
REMARK VINA RESULT:      -4.8      0.677      3.251
REMARK  0 active torsions:
REMARK  status: ('A' for Active; 'I' for Inactive)
ROOT
HETATM    1  C1  UNL     1     -34.904  15.931  -2.662  1.00 20.00    -0.080 C 
HETATM    2  C2  UNL     1     -34.468  16.324  -1.460  1.00 20.00     0.015 C 
HETATM    3  C3  UNL     1     -36.284  16.225  -3.212  1.00 20.00     0.039 C 
HETATM    4  C4  UNL     1     -36.188  14.011  -4.348  1.00 20.00     0.007 C 
HETATM    5  C5  UNL     1     -34.786  13.755  -3.758  1.00 20.00     0.015 C 
HETATM    6  C6  UNL     1     -36.184  15.541  -4.595  1.00 20.00    -0.002 C 
HETATM    7  C7  UNL     1     -34.143  15.167  -3.751  1.00 20.00    -0.014 C 
HETATM    8  C8  UNL     1     -34.723  15.825  -5.040  1.00 20.00    -0.033 C 
HETATM    9  C9  UNL     1     -32.628  15.132  -3.638  1.00 20.00     0.021 C 
HETATM   10  C10 UNL     1     -34.334  15.141  -6.366  1.00 20.00     0.016 C 
HETATM   11  C11 UNL     1     -34.393  17.324  -5.215  1.00 20.00     0.016 C 
ENDROOT
TORSDOF 0
ENDMDL
MODEL 4
REMARK VINA RESULT:      -4.6      1.058      2.704
REMARK  0 active torsions:
REMARK  status: ('A' for Active; 'I' for Inactive)
ROOT
HETATM    1  C1  UNL     1     -35.852  16.328  -4.500  1.00 20.00    -0.080 C 
HETATM    2  C2  UNL     1     -36.693  16.915  -5.358  1.00 20.00     0.015 C 
HETATM    3  C3  UNL     1     -36.181  16.018  -3.054  1.00 20.00     0.039 C 
HETATM    4  C4  UNL     1     -33.792  16.481  -2.523  1.00 20.00     0.007 C 
HETATM    5  C5  UNL     1     -33.509  16.794  -4.006  1.00 20.00     0.015 C 
HETATM    6  C6  UNL     1     -34.857  15.358  -2.604  1.00 20.00    -0.002 C 
HETATM    7  C7  UNL     1     -34.436  15.803  -4.758  1.00 20.00    -0.014 C 
HETATM    8  C8  UNL     1     -34.414  14.538  -3.847  1.00 20.00    -0.033 C 
HETATM    9  C9  UNL     1     -34.033  15.592  -6.209  1.00 20.00     0.021 C 
HETATM   10  C10 UNL     1     -33.039  13.860  -3.686  1.00 20.00     0.016 C 
HETATM   11  C11 UNL     1     -35.400  13.421  -4.254  1.00 20.00     0.016 C 
ENDROOT
TORSDOF 0
ENDMDL
MODEL 5
REMARK VINA RESULT:      -4.6      0.979      3.288
REMARK  0 active torsions:
REMARK  status: ('A' for Active; 'I' for Inactive)
ROOT
HETATM    1  C1  UNL     1     -34.585  15.907  -3.238  1.00 20.00    -0.080 C 
HETATM    2  C2  UNL     1     -34.761  16.032  -1.919  1.00 20.00     0.015 C 
HETATM    3  C3  UNL     1     -33.254  16.065  -3.944  1.00 20.00     0.039 C 
HETATM    4  C4  UNL     1     -34.509  17.034  -5.865  1.00 20.00     0.007 C 
HETATM    5  C5  UNL     1     -35.838  16.859  -5.103  1.00 20.00     0.015 C 
HETATM    6  C6  UNL     1     -33.683  15.805  -5.407  1.00 20.00    -0.002 C 
HETATM    7  C7  UNL     1     -35.618  15.543  -4.309  1.00 20.00    -0.014 C 
HETATM    8  C8  UNL     1     -34.753  14.685  -5.282  1.00 20.00    -0.033 C 
HETATM    9  C9  UNL     1     -36.915  14.911  -3.830  1.00 20.00     0.021 C 
HETATM   10  C10 UNL     1     -35.426  14.317  -6.620  1.00 20.00     0.016 C 
HETATM   11  C11 UNL     1     -34.220  13.362  -4.690  1.00 20.00     0.016 C 
ENDROOT
TORSDOF 0
ENDMDL
MODEL 6
REMARK VINA RESULT:      -4.6      1.272      2.384
REMARK  0 active torsions:
REMARK  status: ('A' for Active; 'I' for Inactive)
ROOT
HETATM    1  C1  UNL     1     -34.525  14.240  -4.292  1.00 20.00    -0.080 C 
HETATM    2  C2  UNL     1     -34.756  13.085  -4.923  1.00 20.00     0.015 C 
HETATM    3  C3  UNL     1     -33.317  14.517  -3.423  1.00 20.00     0.039 C 
HETATM    4  C4  UNL     1     -34.793  15.932  -2.002  1.00 20.00     0.007 C 
HETATM    5  C5  UNL     1     -35.996  15.615  -2.913  1.00 20.00     0.015 C 
HETATM    6  C6  UNL     1     -33.607  15.975  -2.998  1.00 20.00    -0.002 C 
HETATM    7  C7  UNL     1     -35.355  15.528  -4.324  1.00 20.00    -0.014 C 
HETATM    8  C8  UNL     1     -34.234  16.609  -4.270  1.00 20.00    -0.033 C 
HETATM    9  C9  UNL     1     -36.368  15.667  -5.449  1.00 20.00     0.021 C 
HETATM   10  C10 UNL     1     -34.719  18.059  -4.066  1.00 20.00     0.016 C 
HETATM   11  C11 UNL     1     -33.293  16.639  -5.494  1.00 20.00     0.016 C 
ENDROOT
TORSDOF 0
ENDMDL
MODEL 7
REMARK VINA RESULT:      -4.6      1.070      2.830
REMARK  0 active torsions:
REMARK  status: ('A' for Active; 'I' for Inactive)
ROOT
HETATM    1  C1  UNL     1     -33.906  14.245  -4.281  1.00 20.00    -0.080 C 
HETATM    2  C2  UNL     1     -33.159  13.381  -3.585  1.00 20.00     0.015 C 
HETATM    3  C3  UNL     1     -34.722  13.883  -5.504  1.00 20.00     0.039 C 
HETATM    4  C4  UNL     1     -34.206  16.151  -6.391  1.00 20.00     0.007 C 
HETATM    5  C5  UNL     1     -33.378  16.471  -5.130  1.00 20.00     0.015 C 
HETATM    6  C6  UNL     1     -35.345  15.258  -5.840  1.00 20.00    -0.002 C 
HETATM    7  C7  UNL     1     -34.151  15.732  -4.005  1.00 20.00    -0.014 C 
HETATM    8  C8  UNL     1     -35.639  15.877  -4.446  1.00 20.00    -0.033 C 
HETATM    9  C9  UNL     1     -33.810  16.240  -2.614  1.00 20.00     0.021 C 
HETATM   10  C10 UNL     1     -36.174  17.322  -4.509  1.00 20.00     0.016 C 
HETATM   11  C11 UNL     1     -36.654  15.079  -3.598  1.00 20.00     0.016 C 
ENDROOT
TORSDOF 0
ENDMDL
MODEL 8
REMARK VINA RESULT:      -4.5      1.071      2.775
REMARK  0 active torsions:
REMARK  status: ('A' for Active; 'I' for Inactive)
ROOT
HETATM    1  C1  UNL     1     -33.932  17.292  -3.980  1.00 20.00    -0.080 C 
HETATM    2  C2  UNL     1     -33.627  18.460  -3.404  1.00 20.00     0.015 C 
HETATM    3  C3  UNL     1     -33.530  16.898  -5.386  1.00 20.00     0.039 C 
HETATM    4  C4  UNL     1     -35.685  15.661  -5.543  1.00 20.00     0.007 C 
HETATM    5  C5  UNL     1     -36.054  16.095  -4.110  1.00 20.00     0.015 C 
HETATM    6  C6  UNL     1     -34.148  15.483  -5.466  1.00 20.00    -0.002 C 
HETATM    7  C7  UNL     1     -34.685  16.100  -3.380  1.00 20.00    -0.014 C 
HETATM    8  C8  UNL     1     -33.929  14.906  -4.040  1.00 20.00    -0.033 C 
HETATM    9  C9  UNL     1     -34.815  16.057  -1.867  1.00 20.00     0.021 C 
HETATM   10  C10 UNL     1     -34.568  13.518  -3.827  1.00 20.00     0.016 C 
HETATM   11  C11 UNL     1     -32.446  14.764  -3.634  1.00 20.00     0.016 C 
ENDROOT
TORSDOF 0
ENDMDL
MODEL 9
REMARK VINA RESULT:      -4.5      1.183      3.242
REMARK  0 active torsions:
REMARK  status: ('A' for Active; 'I' for Inactive)
ROOT
HETATM    1  C1  UNL     1     -35.077  16.953  -3.283  1.00 20.00    -0.080 C 
HETATM    2  C2  UNL     1     -35.546  18.180  -3.034  1.00 20.00     0.015 C 
HETATM    3  C3  UNL     1     -34.740  15.931  -2.218  1.00 20.00     0.039 C 
HETATM    4  C4  UNL     1     -32.898  15.149  -3.700  1.00 20.00     0.007 C 
HETATM    5  C5  UNL     1     -33.276  16.212  -4.752  1.00 20.00     0.015 C 
HETATM    6  C6  UNL     1     -34.271  14.752  -3.102  1.00 20.00    -0.002 C 
HETATM    7  C7  UNL     1     -34.822  16.286  -4.638  1.00 20.00    -0.014 C 
HETATM    8  C8  UNL     1     -35.223  14.812  -4.328  1.00 20.00    -0.033 C 
HETATM    9  C9  UNL     1     -35.480  16.919  -5.853  1.00 20.00     0.021 C 
HETATM   10  C10 UNL     1     -34.883  13.786  -5.428  1.00 20.00     0.016 C 
HETATM   11  C11 UNL     1     -36.714  14.597  -3.984  1.00 20.00     0.016 C 
ENDROOT
TORSDOF 0
ENDMDL
