MODEL 1
REMARK VINA RESULT:      -4.2      0.000      0.000
REMARK  2 active torsions:
REMARK  status: ('A' for Active; 'I' for Inactive)
REMARK    1  A    between atoms: C1_1  and  C7_7 
REMARK    2  A    between atoms: C7_7  and  S10_10 
ROOT
HETATM    1  C1  UNL     1     -35.078  15.022  -3.561  1.00 20.00     0.009 A 
HETATM    2  C2  UNL     1     -34.068  14.064  -3.755  1.00 20.00     0.068 A 
HETATM    3  C3  UNL     1     -36.223  14.365  -3.929  1.00 20.00     0.084 A 
HETATM    4  C4  UNL     1     -32.621  14.210  -3.521  1.00 20.00     0.073 C 
HETATM    5  C5  UNL     1     -37.641  14.743  -3.983  1.00 20.00     0.079 C 
HETATM    6  N8  UNL     1     -34.549  12.903  -4.210  1.00 20.00    -0.133 NA
HETATM    7  O9  UNL     1     -35.920  13.101  -4.318  1.00 20.00    -0.217 OA
ENDROOT
BRANCH   1   8
HETATM    8  C7  UNL     1     -34.941  16.435  -3.065  1.00 20.00     0.116 C 
BRANCH   8   9
HETATM    9  S10 UNL     1     -34.740  16.511  -1.269  1.00 20.00    -0.169 SA
HETATM   10  C6  UNL     1     -33.511  17.835  -1.192  1.00 20.00     0.090 C 
ENDBRANCH   8   9
ENDBRANCH   1   8
TORSDOF 2
ENDMDL
MODEL 2
REMARK VINA RESULT:      -4.1      0.766      2.572
REMARK  2 active torsions:
REMARK  status: ('A' for Active; 'I' for Inactive)
REMARK    1  A    between atoms: C1_1  and  C7_7 
REMARK    2  A    between atoms: C7_7  and  S10_10 
ROOT
HETATM    1  C1  UNL     1     -34.749  15.057  -3.566  1.00 20.00     0.009 A 
HETATM    2  C2  UNL     1     -35.769  14.189  -3.990  1.00 20.00     0.068 A 
HETATM    3  C3  UNL     1     -33.606  14.317  -3.724  1.00 20.00     0.084 A 
HETATM    4  C4  UNL     1     -37.218  14.447  -4.040  1.00 20.00     0.073 C 
HETATM    5  C5  UNL     1     -32.181  14.580  -3.484  1.00 20.00     0.079 C 
HETATM    6  N8  UNL     1     -35.296  13.002  -4.380  1.00 20.00    -0.133 NA
HETATM    7  O9  UNL     1     -33.920  13.090  -4.210  1.00 20.00    -0.217 OA
ENDROOT
BRANCH   1   8
HETATM    8  C7  UNL     1     -34.874  16.467  -3.057  1.00 20.00     0.116 C 
BRANCH   8   9
HETATM    9  S10 UNL     1     -34.667  16.565  -1.263  1.00 20.00    -0.169 SA
HETATM   10  C6  UNL     1     -33.537  17.975  -1.199  1.00 20.00     0.090 C 
ENDBRANCH   8   9
ENDBRANCH   1   8
TORSDOF 2
ENDMDL
MODEL 3
REMARK VINA RESULT:      -3.9      1.601      3.066
REMARK  2 active torsions:
REMARK  status: ('A' for Active; 'I' for Inactive)
REMARK    1  A    between atoms: C1_1  and  C7_7 
REMARK    2  A    between atoms: C7_7  and  S10_10 
ROOT
HETATM    1  C1  UNL     1     -34.897  15.065  -3.627  1.00 20.00     0.009 A 
HETATM    2  C2  UNL     1     -35.932  14.191  -4.001  1.00 20.00     0.068 A 
HETATM    3  C3  UNL     1     -33.767  14.298  -3.740  1.00 20.00     0.084 A 
HETATM    4  C4  UNL     1     -37.377  14.470  -4.069  1.00 20.00     0.073 C 
HETATM    5  C5  UNL     1     -32.338  14.550  -3.513  1.00 20.00     0.079 C 
HETATM    6  N8  UNL     1     -35.479  12.975  -4.320  1.00 20.00    -0.133 NA
HETATM    7  O9  UNL     1     -34.102  13.050  -4.153  1.00 20.00    -0.217 OA
ENDROOT
BRANCH   1   8
HETATM    8  C7  UNL     1     -34.998  16.504  -3.203  1.00 20.00     0.116 C 
BRANCH   8   9
HETATM    9  S10 UNL     1     -35.254  17.613  -4.609  1.00 20.00    -0.169 SA
HETATM   10  C6  UNL     1     -33.548  17.689  -5.205  1.00 20.00     0.090 C 
ENDBRANCH   8   9
ENDBRANCH   1   8
TORSDOF 2
ENDMDL
MODEL 4
REMARK VINA RESULT:      -3.8      1.263      2.661
REMARK  2 active torsions:
REMARK  status: ('A' for Active; 'I' for Inactive)
REMARK    1  A    between atoms: C1_1  and  C7_7 
REMARK    2  A    between atoms: C7_7  and  S10_10 
ROOT
HETATM    1  C1  UNL     1     -35.470  15.474  -3.323  1.00 20.00     0.009 A 
HETATM    2  C2  UNL     1     -36.863  15.400  -3.499  1.00 20.00     0.068 A 
HETATM    3  C3  UNL     1     -35.026  14.243  -3.729  1.00 20.00     0.084 A 
HETATM    4  C4  UNL     1     -37.870  16.439  -3.224  1.00 20.00     0.073 C 
HETATM    5  C5  UNL     1     -33.699  13.618  -3.818  1.00 20.00     0.079 C 
HETATM    6  N8  UNL     1     -37.252  14.214  -3.976  1.00 20.00    -0.133 NA
HETATM    7  O9  UNL     1     -36.079  13.483  -4.121  1.00 20.00    -0.217 OA
ENDROOT
BRANCH   1   8
HETATM    8  C7  UNL     1     -34.655  16.629  -2.812  1.00 20.00     0.116 C 
BRANCH   8   9
HETATM    9  S10 UNL     1     -34.614  16.687  -1.004  1.00 20.00    -0.169 SA
HETATM   10  C6  UNL     1     -33.429  18.038  -0.806  1.00 20.00     0.090 C 
ENDBRANCH   8   9
ENDBRANCH   1   8
TORSDOF 2
ENDMDL
MODEL 5
REMARK VINA RESULT:      -3.7      2.743      3.865
REMARK  2 active torsions:
REMARK  status: ('A' for Active; 'I' for Inactive)
REMARK    1  A    between atoms: C1_1  and  C7_7 
REMARK    2  A    between atoms: C7_7  and  S10_10 
ROOT
HETATM    1  C1  UNL     1     -34.884  15.175  -4.321  1.00 20.00     0.009 A 
HETATM    2  C2  UNL     1     -34.189  15.550  -5.484  1.00 20.00     0.068 A 
HETATM    3  C3  UNL     1     -34.328  15.959  -3.344  1.00 20.00     0.084 A 
HETATM    4  C4  UNL     1     -34.364  15.034  -6.852  1.00 20.00     0.073 C 
HETATM    5  C5  UNL     1     -34.558  16.104  -1.901  1.00 20.00     0.079 C 
HETATM    6  N8  UNL     1     -33.273  16.493  -5.246  1.00 20.00    -0.133 NA
HETATM    7  O9  UNL     1     -33.367  16.750  -3.884  1.00 20.00    -0.217 OA
ENDROOT
BRANCH   1   8
HETATM    8  C7  UNL     1     -35.979  14.156  -4.176  1.00 20.00     0.116 C 
BRANCH   8   9
HETATM    9  S10 UNL     1     -37.600  14.925  -3.940  1.00 20.00    -0.169 SA
HETATM   10  C6  UNL     1     -37.936  15.374  -5.659  1.00 20.00     0.090 C 
ENDBRANCH   8   9
ENDBRANCH   1   8
TORSDOF 2
ENDMDL
MODEL 6
REMARK VINA RESULT:      -3.6      2.374      2.609
REMARK  2 active torsions:
REMARK  status: ('A' for Active; 'I' for Inactive)
REMARK    1  A    between atoms: C1_1  and  C7_7 
REMARK    2  A    between atoms: C7_7  and  S10_10 
ROOT
HETATM    1  C1  UNL     1     -34.938  15.435  -4.858  1.00 20.00     0.009 A 
HETATM    2  C2  UNL     1     -34.612  14.870  -3.613  1.00 20.00     0.068 A 
HETATM    3  C3  UNL     1     -34.934  14.364  -5.712  1.00 20.00     0.084 A 
HETATM    4  C4  UNL     1     -34.470  15.552  -2.315  1.00 20.00     0.073 C 
HETATM    5  C5  UNL     1     -35.185  14.207  -7.151  1.00 20.00     0.079 C 
HETATM    6  N8  UNL     1     -34.420  13.550  -3.690  1.00 20.00    -0.133 NA
HETATM    7  O9  UNL     1     -34.627  13.234  -5.027  1.00 20.00    -0.217 OA
ENDROOT
BRANCH   1   8
HETATM    8  C7  UNL     1     -35.226  16.875  -5.182  1.00 20.00     0.116 C 
BRANCH   8   9
HETATM    9  S10 UNL     1     -33.714  17.817  -5.502  1.00 20.00    -0.169 SA
HETATM   10  C6  UNL     1     -33.722  18.848  -4.017  1.00 20.00     0.090 C 
ENDBRANCH   8   9
ENDBRANCH   1   8
TORSDOF 2
ENDMDL
MODEL 7
REMARK VINA RESULT:      -3.6      3.247      4.463
REMARK  2 active torsions:
REMARK  status: ('A' for Active; 'I' for Inactive)
REMARK    1  A    between atoms: C1_1  and  C7_7 
REMARK    2  A    between atoms: C7_7  and  S10_10 
ROOT
HETATM    1  C1  UNL     1     -34.088  16.325  -3.003  1.00 20.00     0.009 A 
HETATM    2  C2  UNL     1     -34.231  17.166  -1.886  1.00 20.00     0.068 A 
HETATM    3  C3  UNL     1     -33.707  17.179  -4.005  1.00 20.00     0.084 A 
HETATM    4  C4  UNL     1     -34.627  16.797  -0.516  1.00 20.00     0.073 C 
HETATM    5  C5  UNL     1     -33.385  17.000  -5.427  1.00 20.00     0.079 C 
HETATM    6  N8  UNL     1     -33.961  18.442  -2.173  1.00 20.00    -0.133 NA
HETATM    7  O9  UNL     1     -33.628  18.444  -3.522  1.00 20.00    -0.217 OA
ENDROOT
BRANCH   1   8
HETATM    8  C7  UNL     1     -34.300  14.839  -3.085  1.00 20.00     0.116 C 
BRANCH   8   9
HETATM    9  S10 UNL     1     -35.773  14.413  -4.045  1.00 20.00    -0.169 SA
HETATM   10  C6  UNL     1     -34.958  13.606  -5.443  1.00 20.00     0.090 C 
ENDBRANCH   8   9
ENDBRANCH   1   8
TORSDOF 2
ENDMDL
MODEL 8
REMARK VINA RESULT:      -3.6      2.526      3.048
REMARK  2 active torsions:
REMARK  status: ('A' for Active; 'I' for Inactive)
REMARK    1  A    between atoms: C1_1  and  C7_7 
REMARK    2  A    between atoms: C7_7  and  S10_10 
ROOT
HETATM    1  C1  UNL     1     -33.961  15.766  -4.765  1.00 20.00     0.009 A 
HETATM    2  C2  UNL     1     -34.329  14.581  -5.425  1.00 20.00     0.068 A 
HETATM    3  C3  UNL     1     -33.894  16.692  -5.773  1.00 20.00     0.084 A 
HETATM    4  C4  UNL     1     -34.550  13.247  -4.841  1.00 20.00     0.073 C 
HETATM    5  C5  UNL     1     -33.573  18.124  -5.821  1.00 20.00     0.079 C 
HETATM    6  N8  UNL     1     -34.477  14.758  -6.741  1.00 20.00    -0.133 NA
HETATM    7  O9  UNL     1     -34.200  16.103  -6.956  1.00 20.00    -0.217 OA
ENDROOT
BRANCH   1   8
HETATM    8  C7  UNL     1     -33.702  15.976  -3.299  1.00 20.00     0.116 C 
BRANCH   8   9
HETATM    9  S10 UNL     1     -35.234  16.166  -2.355  1.00 20.00    -0.169 SA
HETATM   10  C6  UNL     1     -34.518  16.717  -0.789  1.00 20.00     0.090 C 
ENDBRANCH   8   9
ENDBRANCH   1   8
TORSDOF 2
ENDMDL
MODEL 9
REMARK VINA RESULT:      -3.6      2.746      3.841
REMARK  2 active torsions:
REMARK  status: ('A' for Active; 'I' for Inactive)
REMARK    1  A    between atoms: C1_1  and  C7_7 
REMARK    2  A    between atoms: C7_7  and  S10_10 
ROOT
HETATM    1  C1  UNL     1     -34.920  15.112  -4.442  1.00 20.00     0.009 A 
HETATM    2  C2  UNL     1     -34.282  15.936  -3.499  1.00 20.00     0.068 A 
HETATM    3  C3  UNL     1     -34.294  15.423  -5.621  1.00 20.00     0.084 A 
HETATM    4  C4  UNL     1     -34.543  16.032  -2.052  1.00 20.00     0.073 C 
HETATM    5  C5  UNL     1     -34.442  14.957  -7.006  1.00 20.00     0.079 C 
HETATM    6  N8  UNL     1     -33.334  16.699  -4.050  1.00 20.00    -0.133 NA
HETATM    7  O9  UNL     1     -33.346  16.368  -5.400  1.00 20.00    -0.217 OA
ENDROOT
BRANCH   1   8
HETATM    8  C7  UNL     1     -36.028  14.121  -4.217  1.00 20.00     0.116 C 
BRANCH   8   9
HETATM    9  S10 UNL     1     -37.623  14.931  -3.948  1.00 20.00    -0.169 SA
HETATM   10  C6  UNL     1     -38.014  15.334  -5.667  1.00 20.00     0.090 C 
ENDBRANCH   8   9
ENDBRANCH   1   8
TORSDOF 2
ENDMDL
