MODEL 1
REMARK VINA RESULT:      -4.4      0.000      0.000
REMARK  2 active torsions:
REMARK  status: ('A' for Active; 'I' for Inactive)
REMARK    1  A    between atoms: C3_3  and  C9_9 
REMARK    2  A    between atoms: C4_4  and  C10_10 
ROOT
HETATM    1  C1  UNL     1     -35.446  13.624  -4.270  1.00 20.00     0.009 A 
HETATM    2  C2  UNL     1     -34.359  14.016  -3.609  1.00 20.00     0.009 A 
HETATM    3  C3  UNL     1     -36.260  14.808  -4.669  1.00 20.00     0.076 A 
HETATM    4  C4  UNL     1     -34.336  15.504  -3.501  1.00 20.00     0.076 A 
HETATM    5  C5  UNL     1     -37.639  14.796  -4.015  1.00 20.00     0.050 C 
HETATM    6  C6  UNL     1     -34.400  15.967  -2.047  1.00 20.00     0.050 C 
HETATM    7  O11 UNL     1     -35.535  15.959  -4.173  1.00 20.00    -0.362 OA
ENDROOT
BRANCH   3   8
HETATM    8  C9  UNL     1     -36.371  14.935  -6.187  1.00 20.00     0.037 C 
HETATM    9  C7  UNL     1     -35.209  14.304  -6.881  1.00 20.00     0.008 C 
ENDBRANCH   3   8
BRANCH   4  10
HETATM   10  C10 UNL     1     -33.131  16.107  -4.218  1.00 20.00     0.037 C 
HETATM   11  C8  UNL     1     -33.520  17.270  -5.070  1.00 20.00     0.008 C 
ENDBRANCH   4  10
TORSDOF 2
ENDMDL
MODEL 2
REMARK VINA RESULT:      -4.4     10.778     12.184
REMARK  2 active torsions:
REMARK  status: ('A' for Active; 'I' for Inactive)
REMARK    1  A    between atoms: C3_3  and  C9_9 
REMARK    2  A    between atoms: C4_4  and  C10_10 
ROOT
HETATM    1  C1  UNL     1     -40.679   5.999  -0.407  1.00 20.00     0.009 A 
HETATM    2  C2  UNL     1     -41.003   7.237  -0.772  1.00 20.00     0.009 A 
HETATM    3  C3  UNL     1     -41.761   5.049  -0.797  1.00 20.00     0.076 A 
HETATM    4  C4  UNL     1     -42.336   7.242  -1.443  1.00 20.00     0.076 A 
HETATM    5  C5  UNL     1     -42.392   4.378   0.420  1.00 20.00     0.050 C 
HETATM    6  C6  UNL     1     -43.358   8.068  -0.667  1.00 20.00     0.050 C 
HETATM    7  O11 UNL     1     -42.773   5.862  -1.439  1.00 20.00    -0.362 OA
ENDROOT
BRANCH   3   8
HETATM    8  C9  UNL     1     -41.272   4.014  -1.806  1.00 20.00     0.037 C 
HETATM    9  C7  UNL     1     -42.344   3.637  -2.775  1.00 20.00     0.008 C 
ENDBRANCH   3   8
BRANCH   4  10
HETATM   10  C10 UNL     1     -42.239   7.706  -2.894  1.00 20.00     0.037 C 
HETATM   11  C8  UNL     1     -43.332   7.130  -3.733  1.00 20.00     0.008 C 
ENDBRANCH   4  10
TORSDOF 2
ENDMDL
MODEL 3
REMARK VINA RESULT:      -4.3      1.386      3.653
REMARK  2 active torsions:
REMARK  status: ('A' for Active; 'I' for Inactive)
REMARK    1  A    between atoms: C3_3  and  C9_9 
REMARK    2  A    between atoms: C4_4  and  C10_10 
ROOT
HETATM    1  C1  UNL     1     -34.504  13.524  -4.023  1.00 20.00     0.009 A 
HETATM    2  C2  UNL     1     -35.108  13.450  -5.206  1.00 20.00     0.009 A 
HETATM    3  C3  UNL     1     -34.150  14.941  -3.716  1.00 20.00     0.076 A 
HETATM    4  C4  UNL     1     -35.220  14.809  -5.811  1.00 20.00     0.076 A 
HETATM    5  C5  UNL     1     -32.641  15.136  -3.594  1.00 20.00     0.050 C 
HETATM    6  C6  UNL     1     -34.443  14.913  -7.121  1.00 20.00     0.050 C 
HETATM    7  O11 UNL     1     -34.614  15.708  -4.853  1.00 20.00    -0.362 OA
ENDROOT
BRANCH   3   8
HETATM    8  C9  UNL     1     -34.874  15.450  -2.472  1.00 20.00     0.037 C 
HETATM    9  C7  UNL     1     -34.142  16.584  -1.832  1.00 20.00     0.008 C 
ENDBRANCH   3   8
BRANCH   4  10
HETATM   10  C10 UNL     1     -36.676  15.227  -6.000  1.00 20.00     0.037 C 
HETATM   11  C8  UNL     1     -36.930  16.600  -5.471  1.00 20.00     0.008 C 
ENDBRANCH   4  10
TORSDOF 2
ENDMDL
MODEL 4
REMARK VINA RESULT:      -4.3      1.360      2.786
REMARK  2 active torsions:
REMARK  status: ('A' for Active; 'I' for Inactive)
REMARK    1  A    between atoms: C3_3  and  C9_9 
REMARK    2  A    between atoms: C4_4  and  C10_10 
ROOT
HETATM    1  C1  UNL     1     -33.592  16.541  -5.649  1.00 20.00     0.009 A 
HETATM    2  C2  UNL     1     -33.178  16.154  -4.445  1.00 20.00     0.009 A 
HETATM    3  C3  UNL     1     -34.800  15.763  -6.051  1.00 20.00     0.076 A 
HETATM    4  C4  UNL     1     -34.068  15.080  -3.918  1.00 20.00     0.076 A 
HETATM    5  C5  UNL     1     -34.545  14.921  -7.297  1.00 20.00     0.050 C 
HETATM    6  C6  UNL     1     -33.312  13.770  -3.707  1.00 20.00     0.050 C 
HETATM    7  O11 UNL     1     -35.064  14.866  -4.946  1.00 20.00    -0.362 OA
ENDROOT
BRANCH   3   8
HETATM    8  C9  UNL     1     -36.019  16.664  -6.234  1.00 20.00     0.037 C 
HETATM    9  C7  UNL     1     -37.243  16.068  -5.619  1.00 20.00     0.008 C 
ENDBRANCH   3   8
BRANCH   4  10
HETATM   10  C10 UNL     1     -34.786  15.512  -2.642  1.00 20.00     0.037 C 
HETATM   11  C8  UNL     1     -34.017  16.558  -1.903  1.00 20.00     0.008 C 
ENDBRANCH   4  10
TORSDOF 2
ENDMDL
MODEL 5
REMARK VINA RESULT:      -4.3      1.329      3.494
REMARK  2 active torsions:
REMARK  status: ('A' for Active; 'I' for Inactive)
REMARK    1  A    between atoms: C3_3  and  C9_9 
REMARK    2  A    between atoms: C4_4  and  C10_10 
ROOT
HETATM    1  C1  UNL     1     -35.466  14.887  -3.943  1.00 20.00     0.009 A 
HETATM    2  C2  UNL     1     -35.891  15.303  -5.134  1.00 20.00     0.009 A 
HETATM    3  C3  UNL     1     -33.993  15.091  -3.824  1.00 20.00     0.076 A 
HETATM    4  C4  UNL     1     -34.746  15.830  -5.931  1.00 20.00     0.076 A 
HETATM    5  C5  UNL     1     -33.248  13.771  -3.653  1.00 20.00     0.050 C 
HETATM    6  C6  UNL     1     -34.515  15.012  -7.200  1.00 20.00     0.050 C 
HETATM    7  O11 UNL     1     -33.584  15.681  -5.081  1.00 20.00    -0.362 OA
ENDROOT
BRANCH   3   8
HETATM    8  C9  UNL     1     -33.645  16.069  -2.705  1.00 20.00     0.037 C 
HETATM    9  C7  UNL     1     -34.752  16.187  -1.709  1.00 20.00     0.008 C 
ENDBRANCH   3   8
BRANCH   4  10
HETATM   10  C10 UNL     1     -34.913  17.312  -6.254  1.00 20.00     0.037 C 
HETATM   11  C8  UNL     1     -33.695  18.097  -5.890  1.00 20.00     0.008 C 
ENDBRANCH   4  10
TORSDOF 2
ENDMDL
MODEL 6
REMARK VINA RESULT:      -4.2      1.392      2.907
REMARK  2 active torsions:
REMARK  status: ('A' for Active; 'I' for Inactive)
REMARK    1  A    between atoms: C3_3  and  C9_9 
REMARK    2  A    between atoms: C4_4  and  C10_10 
ROOT
HETATM    1  C1  UNL     1     -35.865  15.625  -4.766  1.00 20.00     0.009 A 
HETATM    2  C2  UNL     1     -35.603  16.696  -4.020  1.00 20.00     0.009 A 
HETATM    3  C3  UNL     1     -34.592  14.984  -5.207  1.00 20.00     0.076 A 
HETATM    4  C4  UNL     1     -34.128  16.880  -3.887  1.00 20.00     0.076 A 
HETATM    5  C5  UNL     1     -34.443  15.005  -6.726  1.00 20.00     0.050 C 
HETATM    6  C6  UNL     1     -33.663  18.197  -4.504  1.00 20.00     0.050 C 
HETATM    7  O11 UNL     1     -33.535  15.795  -4.639  1.00 20.00    -0.362 OA
ENDROOT
BRANCH   3   8
HETATM    8  C9  UNL     1     -34.451  13.566  -4.659  1.00 20.00     0.037 C 
HETATM    9  C7  UNL     1     -33.269  13.439  -3.754  1.00 20.00     0.008 C 
ENDBRANCH   3   8
BRANCH   4  10
HETATM   10  C10 UNL     1     -33.671  16.759  -2.436  1.00 20.00     0.037 C 
HETATM   11  C8  UNL     1     -34.787  16.334  -1.538  1.00 20.00     0.008 C 
ENDBRANCH   4  10
TORSDOF 2
ENDMDL
MODEL 7
REMARK VINA RESULT:      -4.2      1.353      3.237
REMARK  2 active torsions:
REMARK  status: ('A' for Active; 'I' for Inactive)
REMARK    1  A    between atoms: C3_3  and  C9_9 
REMARK    2  A    between atoms: C4_4  and  C10_10 
ROOT
HETATM    1  C1  UNL     1     -33.211  16.166  -4.124  1.00 20.00     0.009 A 
HETATM    2  C2  UNL     1     -33.310  16.673  -5.351  1.00 20.00     0.009 A 
HETATM    3  C3  UNL     1     -34.432  15.373  -3.796  1.00 20.00     0.076 A 
HETATM    4  C4  UNL     1     -34.607  16.270  -5.968  1.00 20.00     0.076 A 
HETATM    5  C5  UNL     1     -35.195  15.968  -2.616  1.00 20.00     0.050 C 
HETATM    6  C6  UNL     1     -35.489  17.478  -6.272  1.00 20.00     0.050 C 
HETATM    7  O11 UNL     1     -35.275  15.462  -4.970  1.00 20.00    -0.362 OA
ENDROOT
BRANCH   3   8
HETATM    8  C9  UNL     1     -34.105  13.901  -3.556  1.00 20.00     0.037 C 
HETATM    9  C7  UNL     1     -34.981  13.002  -4.366  1.00 20.00     0.008 C 
ENDBRANCH   3   8
BRANCH   4  10
HETATM   10  C10 UNL     1     -34.400  15.412  -7.214  1.00 20.00     0.037 C 
HETATM   11  C8  UNL     1     -35.616  14.609  -7.540  1.00 20.00     0.008 C 
ENDBRANCH   4  10
TORSDOF 2
ENDMDL
MODEL 8
REMARK VINA RESULT:      -4.2      1.017      3.842
REMARK  2 active torsions:
REMARK  status: ('A' for Active; 'I' for Inactive)
REMARK    1  A    between atoms: C3_3  and  C9_9 
REMARK    2  A    between atoms: C4_4  and  C10_10 
ROOT
HETATM    1  C1  UNL     1     -33.238  15.727  -3.331  1.00 20.00     0.009 A 
HETATM    2  C2  UNL     1     -33.568  14.592  -3.941  1.00 20.00     0.009 A 
HETATM    3  C3  UNL     1     -34.239  16.789  -3.643  1.00 20.00     0.076 A 
HETATM    4  C4  UNL     1     -34.826  14.778  -4.723  1.00 20.00     0.076 A 
HETATM    5  C5  UNL     1     -33.612  17.955  -4.401  1.00 20.00     0.050 C 
HETATM    6  C6  UNL     1     -34.599  14.571  -6.218  1.00 20.00     0.050 C 
HETATM    7  O11 UNL     1     -35.210  16.157  -4.511  1.00 20.00    -0.362 OA
ENDROOT
BRANCH   3   8
HETATM    8  C9  UNL     1     -34.964  17.272  -2.390  1.00 20.00     0.037 C 
HETATM    9  C7  UNL     1     -34.589  16.466  -1.189  1.00 20.00     0.008 C 
ENDBRANCH   3   8
BRANCH   4  10
HETATM   10  C10 UNL     1     -35.951  13.885  -4.207  1.00 20.00     0.037 C 
HETATM   11  C8  UNL     1     -37.205  14.661  -3.966  1.00 20.00     0.008 C 
ENDBRANCH   4  10
TORSDOF 2
ENDMDL
MODEL 9
REMARK VINA RESULT:      -4.2      1.344      2.735
REMARK  2 active torsions:
REMARK  status: ('A' for Active; 'I' for Inactive)
REMARK    1  A    between atoms: C3_3  and  C9_9 
REMARK    2  A    between atoms: C4_4  and  C10_10 
ROOT
HETATM    1  C1  UNL     1     -33.297  15.959  -4.429  1.00 20.00     0.009 A 
HETATM    2  C2  UNL     1     -33.737  16.916  -3.616  1.00 20.00     0.009 A 
HETATM    3  C3  UNL     1     -34.130  14.731  -4.273  1.00 20.00     0.076 A 
HETATM    4  C4  UNL     1     -34.910  16.426  -2.835  1.00 20.00     0.076 A 
HETATM    5  C5  UNL     1     -33.312  13.551  -3.757  1.00 20.00     0.050 C 
HETATM    6  C6  UNL     1     -34.623  16.405  -1.336  1.00 20.00     0.050 C 
HETATM    7  O11 UNL     1     -35.123  15.063  -3.273  1.00 20.00    -0.362 OA
ENDROOT
BRANCH   3   8
HETATM    8  C9  UNL     1     -34.859  14.372  -5.566  1.00 20.00     0.037 C 
HETATM    9  C7  UNL     1     -34.355  15.169  -6.724  1.00 20.00     0.008 C 
ENDBRANCH   3   8
BRANCH   4  10
HETATM   10  C10 UNL     1     -36.172  17.228  -3.143  1.00 20.00     0.037 C 
HETATM   11  C8  UNL     1     -37.332  16.337  -3.445  1.00 20.00     0.008 C 
ENDBRANCH   4  10
TORSDOF 2
ENDMDL
