MODEL 1
REMARK VINA RESULT:      -4.5      0.000      0.000
REMARK  1 active torsions:
REMARK  status: ('A' for Active; 'I' for Inactive)
REMARK    1  A    between atoms: C5_5  and  C7_7 
ROOT
HETATM    1  C1  UNL     1     -34.135   6.339   6.214  1.00 20.00     0.010 C 
HETATM    2  C2  UNL     1     -33.763   6.513   4.711  1.00 20.00    -0.004 A 
HETATM    3  C3  UNL     1     -34.875   4.968   6.161  1.00 20.00    -0.004 A 
HETATM    4  C4  UNL     1     -33.548   5.131   4.123  1.00 20.00    -0.000 A 
HETATM    5  C5  UNL     1     -34.843   5.840   3.885  1.00 20.00    -0.000 A 
HETATM    6  C6  UNL     1     -34.254   4.149   5.045  1.00 20.00    -0.000 A 
HETATM    7  C7  UNL     1     -35.550   4.858   4.808  1.00 20.00    -0.000 A 
ENDROOT
TORSDOF 1
ENDMDL
MODEL 2
REMARK VINA RESULT:      -4.5      0.013      2.059
REMARK  1 active torsions:
REMARK  status: ('A' for Active; 'I' for Inactive)
REMARK    1  A    between atoms: C5_5  and  C7_7 
ROOT
HETATM    1  C1  UNL     1     -34.145   6.333   6.220  1.00 20.00     0.010 C 
HETATM    2  C2  UNL     1     -34.882   4.962   6.152  1.00 20.00    -0.004 A 
HETATM    3  C3  UNL     1     -33.763   6.519   4.720  1.00 20.00    -0.004 A 
HETATM    4  C4  UNL     1     -35.548   4.860   4.793  1.00 20.00    -0.000 A 
HETATM    5  C5  UNL     1     -34.253   4.151   5.034  1.00 20.00    -0.000 A 
HETATM    6  C6  UNL     1     -34.837   5.849   3.883  1.00 20.00    -0.000 A 
HETATM    7  C7  UNL     1     -33.541   5.141   4.124  1.00 20.00    -0.000 A 
ENDROOT
TORSDOF 1
ENDMDL
MODEL 3
REMARK VINA RESULT:      -4.3      0.678      1.962
REMARK  1 active torsions:
REMARK  status: ('A' for Active; 'I' for Inactive)
REMARK    1  A    between atoms: C5_5  and  C7_7 
ROOT
HETATM    1  C1  UNL     1     -35.192   5.399   3.792  1.00 20.00     0.010 C 
HETATM    2  C2  UNL     1     -34.117   6.296   4.475  1.00 20.00    -0.004 A 
HETATM    3  C3  UNL     1     -35.419   4.336   4.910  1.00 20.00    -0.004 A 
HETATM    4  C4  UNL     1     -34.366   6.261   5.972  1.00 20.00    -0.000 A 
HETATM    5  C5  UNL     1     -33.284   5.412   5.384  1.00 20.00    -0.000 A 
HETATM    6  C6  UNL     1     -35.194   5.016   6.248  1.00 20.00    -0.000 A 
HETATM    7  C7  UNL     1     -34.112   4.166   5.660  1.00 20.00    -0.000 A 
ENDROOT
TORSDOF 1
ENDMDL
MODEL 4
REMARK VINA RESULT:      -4.3      0.691      2.328
REMARK  1 active torsions:
REMARK  status: ('A' for Active; 'I' for Inactive)
REMARK    1  A    between atoms: C5_5  and  C7_7 
ROOT
HETATM    1  C1  UNL     1     -35.183   5.406   3.825  1.00 20.00     0.010 C 
HETATM    2  C2  UNL     1     -35.423   4.324   4.921  1.00 20.00    -0.004 A 
HETATM    3  C3  UNL     1     -34.115   6.292   4.536  1.00 20.00    -0.004 A 
HETATM    4  C4  UNL     1     -34.123   4.141   5.683  1.00 20.00    -0.000 A 
HETATM    5  C5  UNL     1     -35.212   4.979   6.273  1.00 20.00    -0.000 A 
HETATM    6  C6  UNL     1     -33.292   5.390   5.438  1.00 20.00    -0.000 A 
HETATM    7  C7  UNL     1     -34.381   6.230   6.028  1.00 20.00    -0.000 A 
ENDROOT
TORSDOF 1
ENDMDL
MODEL 5
REMARK VINA RESULT:      -3.8      8.335      9.505
REMARK  1 active torsions:
REMARK  status: ('A' for Active; 'I' for Inactive)
REMARK    1  A    between atoms: C5_5  and  C7_7 
ROOT
HETATM    1  C1  UNL     1     -43.053   5.974   0.111  1.00 20.00     0.010 C 
HETATM    2  C2  UNL     1     -41.761   5.104   0.154  1.00 20.00    -0.004 A 
HETATM    3  C3  UNL     1     -42.643   7.031  -0.959  1.00 20.00    -0.004 A 
HETATM    4  C4  UNL     1     -41.136   5.133  -1.229  1.00 20.00    -0.000 A 
HETATM    5  C5  UNL     1     -40.582   6.009  -0.150  1.00 20.00    -0.000 A 
HETATM    6  C6  UNL     1     -41.696   6.358  -1.936  1.00 20.00    -0.000 A 
HETATM    7  C7  UNL     1     -41.143   7.234  -0.857  1.00 20.00    -0.000 A 
ENDROOT
TORSDOF 1
ENDMDL
MODEL 6
REMARK VINA RESULT:      -3.7      8.357      9.418
REMARK  1 active torsions:
REMARK  status: ('A' for Active; 'I' for Inactive)
REMARK    1  A    between atoms: C5_5  and  C7_7 
ROOT
HETATM    1  C1  UNL     1     -43.093   6.071   0.047  1.00 20.00     0.010 C 
HETATM    2  C2  UNL     1     -42.634   7.091  -1.038  1.00 20.00    -0.004 A 
HETATM    3  C3  UNL     1     -41.809   5.195   0.166  1.00 20.00    -0.004 A 
HETATM    4  C4  UNL     1     -41.138   7.289  -0.886  1.00 20.00    -0.000 A 
HETATM    5  C5  UNL     1     -41.657   6.383  -1.957  1.00 20.00    -0.000 A 
HETATM    6  C6  UNL     1     -40.613   6.084  -0.121  1.00 20.00    -0.000 A 
HETATM    7  C7  UNL     1     -41.132   5.177  -1.191  1.00 20.00    -0.000 A 
ENDROOT
TORSDOF 1
ENDMDL
MODEL 7
REMARK VINA RESULT:      -3.7      8.437      9.586
REMARK  1 active torsions:
REMARK  status: ('A' for Active; 'I' for Inactive)
REMARK    1  A    between atoms: C5_5  and  C7_7 
ROOT
HETATM    1  C1  UNL     1     -41.929   6.499  -2.282  1.00 20.00     0.010 C 
HETATM    2  C2  UNL     1     -41.500   6.889  -0.836  1.00 20.00    -0.004 A 
HETATM    3  C3  UNL     1     -41.911   4.945  -2.169  1.00 20.00    -0.004 A 
HETATM    4  C4  UNL     1     -42.013   5.816   0.105  1.00 20.00    -0.000 A 
HETATM    5  C5  UNL     1     -40.578   5.802  -0.317  1.00 20.00    -0.000 A 
HETATM    6  C6  UNL     1     -42.275   4.580  -0.742  1.00 20.00    -0.000 A 
HETATM    7  C7  UNL     1     -40.840   4.566  -1.164  1.00 20.00    -0.000 A 
ENDROOT
TORSDOF 1
ENDMDL
MODEL 8
REMARK VINA RESULT:      -3.7      8.416      9.555
REMARK  1 active torsions:
REMARK  status: ('A' for Active; 'I' for Inactive)
REMARK    1  A    between atoms: C5_5  and  C7_7 
ROOT
HETATM    1  C1  UNL     1     -41.912   6.554  -2.259  1.00 20.00     0.010 C 
HETATM    2  C2  UNL     1     -41.938   5.001  -2.138  1.00 20.00    -0.004 A 
HETATM    3  C3  UNL     1     -41.448   6.938  -0.821  1.00 20.00    -0.004 A 
HETATM    4  C4  UNL     1     -40.863   4.594  -1.148  1.00 20.00    -0.000 A 
HETATM    5  C5  UNL     1     -42.290   4.653  -0.703  1.00 20.00    -0.000 A 
HETATM    6  C6  UNL     1     -40.551   5.825  -0.311  1.00 20.00    -0.000 A 
HETATM    7  C7  UNL     1     -41.978   5.885   0.134  1.00 20.00    -0.000 A 
ENDROOT
TORSDOF 1
ENDMDL
MODEL 9
REMARK VINA RESULT:      -3.7      8.363      9.588
REMARK  1 active torsions:
REMARK  status: ('A' for Active; 'I' for Inactive)
REMARK    1  A    between atoms: C5_5  and  C7_7 
ROOT
HETATM    1  C1  UNL     1     -41.601   4.777  -1.949  1.00 20.00     0.010 C 
HETATM    2  C2  UNL     1     -41.280   4.715  -0.425  1.00 20.00    -0.004 A 
HETATM    3  C3  UNL     1     -41.944   6.290  -2.101  1.00 20.00    -0.004 A 
HETATM    4  C4  UNL     1     -40.697   6.056  -0.019  1.00 20.00    -0.000 A 
HETATM    5  C5  UNL     1     -42.134   5.759   0.271  1.00 20.00    -0.000 A 
HETATM    6  C6  UNL     1     -41.118   7.057  -1.084  1.00 20.00    -0.000 A 
HETATM    7  C7  UNL     1     -42.556   6.760  -0.794  1.00 20.00    -0.000 A 
ENDROOT
TORSDOF 1
ENDMDL
