MODEL 1
REMARK VINA RESULT:      -4.6      0.000      0.000
REMARK  2 active torsions:
REMARK  status: ('A' for Active; 'I' for Inactive)
REMARK    1  A    between atoms: C1_1  and  C6_6 
REMARK    2  A    between atoms: C7_7  and  C9_9 
ROOT
HETATM    1  C2  UNL     1     -35.714  15.182  -4.662  1.00 20.00     0.015 C 
HETATM    2  C3  UNL     1     -33.323  15.723  -3.950  1.00 20.00     0.015 C 
HETATM    3  C4  UNL     1     -36.185  15.458  -3.233  1.00 20.00     0.005 C 
HETATM    4  C5  UNL     1     -33.823  15.987  -2.530  1.00 20.00     0.005 C 
HETATM    5  C6  UNL     1     -34.238  14.811  -4.760  1.00 20.00     0.087 C 
HETATM    6  C7  UNL     1     -35.286  16.445  -2.478  1.00 20.00    -0.015 C 
ENDROOT
BRANCH   5   7
HETATM    7  C1  UNL     1     -34.044  13.378  -4.290  1.00 20.00     0.177 C 
HETATM    8  O10 UNL     1     -32.925  13.131  -3.763  1.00 20.00    -0.648 OA
HETATM    9  O11 UNL     1     -35.032  12.617  -4.490  1.00 20.00    -0.648 OA
ENDBRANCH   5   7
BRANCH   6  10
HETATM   10  C9  UNL     1     -35.451  17.876  -2.998  1.00 20.00     0.000 C 
HETATM   11  C8  UNL     1     -34.535  18.826  -2.298  1.00 20.00     0.005 C 
ENDBRANCH   6  10
TORSDOF 2
ENDMDL
MODEL 2
REMARK VINA RESULT:      -4.5      1.487      2.654
REMARK  2 active torsions:
REMARK  status: ('A' for Active; 'I' for Inactive)
REMARK    1  A    between atoms: C1_1  and  C6_6 
REMARK    2  A    between atoms: C7_7  and  C9_9 
ROOT
HETATM    1  C2  UNL     1     -33.684  15.732  -3.340  1.00 20.00     0.015 C 
HETATM    2  C3  UNL     1     -35.836  15.204  -4.608  1.00 20.00     0.015 C 
HETATM    3  C4  UNL     1     -33.046  16.203  -4.648  1.00 20.00     0.005 C 
HETATM    4  C5  UNL     1     -35.169  15.676  -5.901  1.00 20.00     0.005 C 
HETATM    5  C6  UNL     1     -34.844  14.762  -3.537  1.00 20.00     0.087 C 
HETATM    6  C7  UNL     1     -34.069  16.718  -5.669  1.00 20.00    -0.015 C 
ENDROOT
BRANCH   5   7
HETATM    7  C1  UNL     1     -34.301  13.391  -3.907  1.00 20.00     0.177 C 
HETATM    8  O10 UNL     1     -35.131  12.609  -4.446  1.00 20.00    -0.648 OA
HETATM    9  O11 UNL     1     -33.083  13.210  -3.625  1.00 20.00    -0.648 OA
ENDBRANCH   5   7
BRANCH   6  10
HETATM   10  C9  UNL     1     -34.648  18.074  -5.257  1.00 20.00     0.000 C 
HETATM   11  C8  UNL     1     -33.575  19.090  -5.042  1.00 20.00     0.005 C 
ENDBRANCH   6  10
TORSDOF 2
ENDMDL
MODEL 3
REMARK VINA RESULT:      -4.5     11.412     12.666
REMARK  2 active torsions:
REMARK  status: ('A' for Active; 'I' for Inactive)
REMARK    1  A    between atoms: C1_1  and  C6_6 
REMARK    2  A    between atoms: C7_7  and  C9_9 
ROOT
HETATM    1  C2  UNL     1     -33.838   6.708   5.346  1.00 20.00     0.015 C 
HETATM    2  C3  UNL     1     -35.123   5.585   3.447  1.00 20.00     0.015 C 
HETATM    3  C4  UNL     1     -32.534   6.472   4.583  1.00 20.00     0.005 C 
HETATM    4  C5  UNL     1     -33.802   5.359   2.710  1.00 20.00     0.005 C 
HETATM    5  C6  UNL     1     -34.960   5.752   4.954  1.00 20.00     0.087 C 
HETATM    6  C7  UNL     1     -32.727   6.393   3.063  1.00 20.00    -0.015 C 
ENDROOT
BRANCH   5   7
HETATM    7  C1  UNL     1     -34.703   4.388   5.574  1.00 20.00     0.177 C 
HETATM    8  O10 UNL     1     -35.140   3.406   4.916  1.00 20.00    -0.648 OA
HETATM    9  O11 UNL     1     -34.082   4.415   6.674  1.00 20.00    -0.648 OA
ENDBRANCH   5   7
BRANCH   6  10
HETATM   10  C9  UNL     1     -33.039   7.765   2.458  1.00 20.00     0.000 C 
HETATM   11  C8  UNL     1     -31.881   8.302   1.683  1.00 20.00     0.005 C 
ENDBRANCH   6  10
TORSDOF 2
ENDMDL
MODEL 4
REMARK VINA RESULT:      -4.4      1.543      2.124
REMARK  2 active torsions:
REMARK  status: ('A' for Active; 'I' for Inactive)
REMARK    1  A    between atoms: C1_1  and  C6_6 
REMARK    2  A    between atoms: C7_7  and  C9_9 
ROOT
HETATM    1  C2  UNL     1     -35.744  14.805  -3.671  1.00 20.00     0.015 C 
HETATM    2  C3  UNL     1     -34.653  16.487  -5.252  1.00 20.00     0.015 C 
HETATM    3  C4  UNL     1     -34.432  14.715  -2.888  1.00 20.00     0.005 C 
HETATM    4  C5  UNL     1     -33.355  16.371  -4.452  1.00 20.00     0.005 C 
HETATM    5  C6  UNL     1     -35.567  15.273  -5.111  1.00 20.00     0.087 C 
HETATM    6  C7  UNL     1     -33.580  15.986  -2.986  1.00 20.00    -0.015 C 
ENDROOT
BRANCH   5   7
HETATM    7  C1  UNL     1     -35.004  14.136  -5.949  1.00 20.00     0.177 C 
HETATM    8  O10 UNL     1     -35.000  13.005  -5.389  1.00 20.00    -0.648 OA
HETATM    9  O11 UNL     1     -34.611  14.471  -7.101  1.00 20.00    -0.648 OA
ENDBRANCH   5   7
BRANCH   6  10
HETATM   10  C9  UNL     1     -34.186  17.140  -2.182  1.00 20.00     0.000 C 
HETATM   11  C8  UNL     1     -34.532  16.720  -0.791  1.00 20.00     0.005 C 
ENDBRANCH   6  10
TORSDOF 2
ENDMDL
MODEL 5
REMARK VINA RESULT:      -4.4      2.027      2.308
REMARK  2 active torsions:
REMARK  status: ('A' for Active; 'I' for Inactive)
REMARK    1  A    between atoms: C1_1  and  C6_6 
REMARK    2  A    between atoms: C7_7  and  C9_9 
ROOT
HETATM    1  C2  UNL     1     -35.812  16.592  -4.330  1.00 20.00     0.015 C 
HETATM    2  C3  UNL     1     -33.343  16.382  -4.947  1.00 20.00     0.015 C 
HETATM    3  C4  UNL     1     -35.606  15.561  -3.219  1.00 20.00     0.005 C 
HETATM    4  C5  UNL     1     -33.170  15.350  -3.832  1.00 20.00     0.005 C 
HETATM    5  C6  UNL     1     -34.779  16.504  -5.449  1.00 20.00     0.087 C 
HETATM    6  C7  UNL     1     -34.169  15.527  -2.683  1.00 20.00    -0.015 C 
ENDROOT
BRANCH   5   7
HETATM    7  C1  UNL     1     -35.092  15.308  -6.334  1.00 20.00     0.177 C 
HETATM    8  O10 UNL     1     -34.145  14.918  -7.069  1.00 20.00    -0.648 OA
HETATM    9  O11 UNL     1     -36.266  14.857  -6.219  1.00 20.00    -0.648 OA
ENDBRANCH   5   7
BRANCH   6  10
HETATM   10  C9  UNL     1     -33.849  16.764  -1.838  1.00 20.00     0.000 C 
HETATM   11  C8  UNL     1     -34.648  16.791  -0.576  1.00 20.00     0.005 C 
ENDBRANCH   6  10
TORSDOF 2
ENDMDL
MODEL 6
REMARK VINA RESULT:      -4.4      2.129      2.644
REMARK  2 active torsions:
REMARK  status: ('A' for Active; 'I' for Inactive)
REMARK    1  A    between atoms: C1_1  and  C6_6 
REMARK    2  A    between atoms: C7_7  and  C9_9 
ROOT
HETATM    1  C2  UNL     1     -33.738  17.630  -4.336  1.00 20.00     0.015 C 
HETATM    2  C3  UNL     1     -33.212  15.186  -3.821  1.00 20.00     0.015 C 
HETATM    3  C4  UNL     1     -35.023  17.510  -3.516  1.00 20.00     0.005 C 
HETATM    4  C5  UNL     1     -34.506  15.095  -3.012  1.00 20.00     0.005 C 
HETATM    5  C6  UNL     1     -33.222  16.297  -4.866  1.00 20.00     0.087 C 
HETATM    6  C7  UNL     1     -34.945  16.440  -2.420  1.00 20.00    -0.015 C 
ENDROOT
BRANCH   5   7
HETATM    7  C1  UNL     1     -34.076  15.855  -6.044  1.00 20.00     0.177 C 
HETATM    8  O10 UNL     1     -34.316  14.618  -6.102  1.00 20.00    -0.648 OA
HETATM    9  O11 UNL     1     -34.437  16.788  -6.816  1.00 20.00    -0.648 OA
ENDBRANCH   5   7
BRANCH   6  10
HETATM   10  C9  UNL     1     -34.039  16.874  -1.265  1.00 20.00     0.000 C 
HETATM   11  C8  UNL     1     -34.822  17.146  -0.022  1.00 20.00     0.005 C 
ENDBRANCH   6  10
TORSDOF 2
ENDMDL
MODEL 7
REMARK VINA RESULT:      -4.3      2.432      3.875
REMARK  2 active torsions:
REMARK  status: ('A' for Active; 'I' for Inactive)
REMARK    1  A    between atoms: C1_1  and  C6_6 
REMARK    2  A    between atoms: C7_7  and  C9_9 
ROOT
HETATM    1  C2  UNL     1     -34.503  14.449  -3.307  1.00 20.00     0.015 C 
HETATM    2  C3  UNL     1     -33.190  16.247  -4.557  1.00 20.00     0.015 C 
HETATM    3  C4  UNL     1     -35.749  14.820  -4.114  1.00 20.00     0.005 C 
HETATM    4  C5  UNL     1     -34.454  16.599  -5.343  1.00 20.00     0.005 C 
HETATM    5  C6  UNL     1     -33.473  15.570  -3.219  1.00 20.00     0.087 C 
HETATM    6  C7  UNL     1     -35.425  15.421  -5.487  1.00 20.00    -0.015 C 
ENDROOT
BRANCH   5   7
HETATM    7  C1  UNL     1     -33.950  16.620  -2.229  1.00 20.00     0.177 C 
HETATM    8  O10 UNL     1     -33.640  17.809  -2.512  1.00 20.00    -0.648 OA
HETATM    9  O11 UNL     1     -34.597  16.164  -1.245  1.00 20.00    -0.648 OA
ENDBRANCH   5   7
BRANCH   6  10
HETATM   10  C9  UNL     1     -34.894  14.364  -6.459  1.00 20.00     0.000 C 
HETATM   11  C8  UNL     1     -35.546  14.469  -7.799  1.00 20.00     0.005 C 
ENDBRANCH   6  10
TORSDOF 2
ENDMDL
MODEL 8
REMARK VINA RESULT:      -4.2      1.179      1.577
REMARK  2 active torsions:
REMARK  status: ('A' for Active; 'I' for Inactive)
REMARK    1  A    between atoms: C1_1  and  C6_6 
REMARK    2  A    between atoms: C7_7  and  C9_9 
ROOT
HETATM    1  C2  UNL     1     -36.136  16.274  -3.907  1.00 20.00     0.015 C 
HETATM    2  C3  UNL     1     -33.879  15.275  -4.558  1.00 20.00     0.015 C 
HETATM    3  C4  UNL     1     -35.634  16.434  -2.471  1.00 20.00     0.005 C 
HETATM    4  C5  UNL     1     -33.407  15.442  -3.113  1.00 20.00     0.005 C 
HETATM    5  C6  UNL     1     -35.396  15.202  -4.700  1.00 20.00     0.087 C 
HETATM    6  C7  UNL     1     -34.111  16.587  -2.376  1.00 20.00    -0.015 C 
ENDROOT
BRANCH   5   7
HETATM    7  C1  UNL     1     -35.865  13.827  -4.254  1.00 20.00     0.177 C 
HETATM    8  O10 UNL     1     -35.007  12.908  -4.347  1.00 20.00    -0.648 OA
HETATM    9  O11 UNL     1     -37.060  13.782  -3.847  1.00 20.00    -0.648 OA
ENDBRANCH   5   7
BRANCH   6  10
HETATM   10  C9  UNL     1     -33.646  17.957  -2.878  1.00 20.00     0.000 C 
HETATM   11  C8  UNL     1     -33.410  18.907  -1.750  1.00 20.00     0.005 C 
ENDBRANCH   6  10
TORSDOF 2
ENDMDL
MODEL 9
REMARK VINA RESULT:      -4.2      1.407      1.618
REMARK  2 active torsions:
REMARK  status: ('A' for Active; 'I' for Inactive)
REMARK    1  A    between atoms: C1_1  and  C6_6 
REMARK    2  A    between atoms: C7_7  and  C9_9 
ROOT
HETATM    1  C2  UNL     1     -34.450  16.257  -5.282  1.00 20.00     0.015 C 
HETATM    2  C3  UNL     1     -33.604  14.690  -3.453  1.00 20.00     0.015 C 
HETATM    3  C4  UNL     1     -35.572  16.716  -4.349  1.00 20.00     0.005 C 
HETATM    4  C5  UNL     1     -34.739  15.165  -2.545  1.00 20.00     0.005 C 
HETATM    5  C6  UNL     1     -33.891  14.880  -4.939  1.00 20.00     0.087 C 
HETATM    6  C7  UNL     1     -35.214  16.587  -2.863  1.00 20.00    -0.015 C 
ENDROOT
BRANCH   5   7
HETATM    7  C1  UNL     1     -34.870  13.809  -5.391  1.00 20.00     0.177 C 
HETATM    8  O10 UNL     1     -34.925  12.784  -4.657  1.00 20.00    -0.648 OA
HETATM    9  O11 UNL     1     -35.505  14.083  -6.448  1.00 20.00    -0.648 OA
ENDBRANCH   5   7
BRANCH   6  10
HETATM   10  C9  UNL     1     -34.187  17.638  -2.433  1.00 20.00     0.000 C 
HETATM   11  C8  UNL     1     -33.802  17.478  -0.999  1.00 20.00     0.005 C 
ENDBRANCH   6  10
TORSDOF 2
ENDMDL
