MODEL 1
REMARK VINA RESULT:      -6.0      0.000      0.000
REMARK  1 active torsions:
REMARK  status: ('A' for Active; 'I' for Inactive)
REMARK    1  A    between atoms: C4_4  and  C7_7 
ROOT
HETATM    1  C1  UNL     1     -33.321   5.962   2.309  1.00 20.00     0.015 A 
HETATM    2  C2  UNL     1     -34.214   5.061   2.892  1.00 20.00     0.008 A 
HETATM    3  C3  UNL     1     -32.953   7.056   4.451  1.00 20.00     0.022 A 
HETATM    4  C4  UNL     1     -32.695   6.953   3.083  1.00 20.00     0.002 A 
HETATM    5  C5  UNL     1     -34.454   5.164   4.253  1.00 20.00    -0.052 A 
HETATM    6  C6  UNL     1     -33.830   6.151   5.024  1.00 20.00    -0.051 A 
HETATM    7  C8  UNL     1     -35.388   4.346   5.089  1.00 20.00     0.039 C 
HETATM    8  C9  UNL     1     -34.290   6.087   6.446  1.00 20.00     0.039 C 
HETATM    9  C10 UNL     1     -34.883   4.670   6.502  1.00 20.00     0.009 C 
ENDROOT
BRANCH   4  10
HETATM   10  C7  UNL     1     -31.774   7.885   2.450  1.00 20.00     0.269 C 
HETATM   11  O11 UNL     1     -32.117   8.674   1.565  1.00 20.00    -0.301 OA
ENDBRANCH   4  10
TORSDOF 1
ENDMDL
MODEL 2
REMARK VINA RESULT:      -5.2     11.411     12.632
REMARK  1 active torsions:
REMARK  status: ('A' for Active; 'I' for Inactive)
REMARK    1  A    between atoms: C4_4  and  C7_7 
ROOT
HETATM    1  C1  UNL     1     -33.716  15.887  -5.001  1.00 20.00     0.015 A 
HETATM    2  C2  UNL     1     -33.532  17.139  -4.409  1.00 20.00     0.008 A 
HETATM    3  C3  UNL     1     -34.504  14.956  -2.895  1.00 20.00     0.022 A 
HETATM    4  C4  UNL     1     -34.199  14.803  -4.249  1.00 20.00     0.002 A 
HETATM    5  C5  UNL     1     -33.851  17.283  -3.068  1.00 20.00    -0.052 A 
HETATM    6  C6  UNL     1     -34.332  16.203  -2.319  1.00 20.00    -0.051 A 
HETATM    7  C8  UNL     1     -33.705  18.502  -2.213  1.00 20.00     0.039 C 
HETATM    8  C9  UNL     1     -34.551  16.599  -0.893  1.00 20.00     0.039 C 
HETATM    9  C10 UNL     1     -34.589  18.130  -1.013  1.00 20.00     0.009 C 
ENDROOT
BRANCH   4  10
HETATM   10  C7  UNL     1     -34.375  13.508  -4.887  1.00 20.00     0.269 C 
HETATM   11  O11 UNL     1     -35.080  12.614  -4.411  1.00 20.00    -0.301 OA
ENDBRANCH   4  10
TORSDOF 1
ENDMDL
MODEL 3
REMARK VINA RESULT:      -4.7     11.404     12.165
REMARK  1 active torsions:
REMARK  status: ('A' for Active; 'I' for Inactive)
REMARK    1  A    between atoms: C4_4  and  C7_7 
ROOT
HETATM    1  C1  UNL     1     -35.997  14.882  -3.853  1.00 20.00     0.015 A 
HETATM    2  C2  UNL     1     -36.541  15.953  -3.140  1.00 20.00     0.008 A 
HETATM    3  C3  UNL     1     -33.809  15.275  -2.864  1.00 20.00     0.022 A 
HETATM    4  C4  UNL     1     -34.640  14.546  -3.717  1.00 20.00     0.002 A 
HETATM    5  C5  UNL     1     -35.711  16.661  -2.287  1.00 20.00    -0.052 A 
HETATM    6  C6  UNL     1     -34.359  16.326  -2.151  1.00 20.00    -0.051 A 
HETATM    7  C8  UNL     1     -36.050  17.858  -1.454  1.00 20.00     0.039 C 
HETATM    8  C9  UNL     1     -33.668  17.268  -1.216  1.00 20.00     0.039 C 
HETATM    9  C10 UNL     1     -34.865  17.884  -0.477  1.00 20.00     0.009 C 
ENDROOT
BRANCH   4  10
HETATM   10  C7  UNL     1     -34.096  13.432  -4.477  1.00 20.00     0.269 C 
HETATM   11  O11 UNL     1     -34.792  12.513  -4.918  1.00 20.00    -0.301 OA
ENDBRANCH   4  10
TORSDOF 1
ENDMDL
MODEL 4
REMARK VINA RESULT:      -4.6     11.385     12.634
REMARK  1 active torsions:
REMARK  status: ('A' for Active; 'I' for Inactive)
REMARK    1  A    between atoms: C4_4  and  C7_7 
ROOT
HETATM    1  C1  UNL     1     -33.702  17.432  -3.276  1.00 20.00     0.015 A 
HETATM    2  C2  UNL     1     -33.764  16.915  -4.572  1.00 20.00     0.008 A 
HETATM    3  C3  UNL     1     -34.721  15.416  -2.372  1.00 20.00     0.022 A 
HETATM    4  C4  UNL     1     -34.178  16.689  -2.184  1.00 20.00     0.002 A 
HETATM    5  C5  UNL     1     -34.293  15.646  -4.746  1.00 20.00    -0.052 A 
HETATM    6  C6  UNL     1     -34.766  14.905  -3.658  1.00 20.00    -0.051 A 
HETATM    7  C8  UNL     1     -34.496  14.901  -6.028  1.00 20.00     0.039 C 
HETATM    8  C9  UNL     1     -35.332  13.596  -4.110  1.00 20.00     0.039 C 
HETATM    9  C10 UNL     1     -34.709  13.471  -5.509  1.00 20.00     0.009 C 
ENDROOT
BRANCH   4  10
HETATM   10  C7  UNL     1     -34.110  17.253  -0.845  1.00 20.00     0.269 C 
HETATM   11  O11 UNL     1     -34.873  16.919   0.066  1.00 20.00    -0.301 OA
ENDBRANCH   4  10
TORSDOF 1
ENDMDL
MODEL 5
REMARK VINA RESULT:      -4.5     11.616     12.993
REMARK  1 active torsions:
REMARK  status: ('A' for Active; 'I' for Inactive)
REMARK    1  A    between atoms: C4_4  and  C7_7 
ROOT
HETATM    1  C1  UNL     1     -34.716  14.158  -4.756  1.00 20.00     0.015 A 
HETATM    2  C2  UNL     1     -34.777  14.410  -3.384  1.00 20.00     0.008 A 
HETATM    3  C3  UNL     1     -34.109  16.472  -5.201  1.00 20.00     0.022 A 
HETATM    4  C4  UNL     1     -34.384  15.182  -5.659  1.00 20.00     0.002 A 
HETATM    5  C5  UNL     1     -34.490  15.691  -2.939  1.00 20.00    -0.052 A 
HETATM    6  C6  UNL     1     -34.160  16.711  -3.839  1.00 20.00    -0.051 A 
HETATM    7  C8  UNL     1     -34.525  16.208  -1.536  1.00 20.00     0.039 C 
HETATM    8  C9  UNL     1     -33.945  18.006  -3.121  1.00 20.00     0.039 C 
HETATM    9  C10 UNL     1     -33.730  17.514  -1.681  1.00 20.00     0.009 C 
ENDROOT
BRANCH   4  10
HETATM   10  C7  UNL     1     -34.334  14.896  -7.084  1.00 20.00     0.269 C 
HETATM   11  O11 UNL     1     -35.285  14.416  -7.708  1.00 20.00    -0.301 OA
ENDBRANCH   4  10
TORSDOF 1
ENDMDL
MODEL 6
REMARK VINA RESULT:      -4.5     10.118     11.366
REMARK  1 active torsions:
REMARK  status: ('A' for Active; 'I' for Inactive)
REMARK    1  A    between atoms: C4_4  and  C7_7 
ROOT
HETATM    1  C1  UNL     1     -41.546   3.136  -2.553  1.00 20.00     0.015 A 
HETATM    2  C2  UNL     1     -40.916   3.983  -1.638  1.00 20.00     0.008 A 
HETATM    3  C3  UNL     1     -43.164   4.866  -3.110  1.00 20.00     0.022 A 
HETATM    4  C4  UNL     1     -42.663   3.574  -3.283  1.00 20.00     0.002 A 
HETATM    5  C5  UNL     1     -41.414   5.267  -1.483  1.00 20.00    -0.052 A 
HETATM    6  C6  UNL     1     -42.526   5.704  -2.211  1.00 20.00    -0.051 A 
HETATM    7  C8  UNL     1     -40.937   6.333  -0.548  1.00 20.00     0.039 C 
HETATM    8  C9  UNL     1     -42.898   7.101  -1.830  1.00 20.00     0.039 C 
HETATM    9  C10 UNL     1     -41.604   7.578  -1.151  1.00 20.00     0.009 C 
ENDROOT
BRANCH   4  10
HETATM   10  C7  UNL     1     -43.306   2.671  -4.224  1.00 20.00     0.269 C 
HETATM   11  O11 UNL     1     -42.784   2.321  -5.286  1.00 20.00    -0.301 OA
ENDBRANCH   4  10
TORSDOF 1
ENDMDL
MODEL 7
REMARK VINA RESULT:      -4.5     11.906     14.525
REMARK  1 active torsions:
REMARK  status: ('A' for Active; 'I' for Inactive)
REMARK    1  A    between atoms: C4_4  and  C7_7 
ROOT
HETATM    1  C1  UNL     1     -33.458  15.802  -4.007  1.00 20.00     0.015 A 
HETATM    2  C2  UNL     1     -33.408  17.113  -4.487  1.00 20.00     0.008 A 
HETATM    3  C3  UNL     1     -34.502  15.038  -6.067  1.00 20.00     0.022 A 
HETATM    4  C4  UNL     1     -34.001  14.772  -4.791  1.00 20.00     0.002 A 
HETATM    5  C5  UNL     1     -33.896  17.364  -5.759  1.00 20.00    -0.052 A 
HETATM    6  C6  UNL     1     -34.437  16.337  -6.541  1.00 20.00    -0.051 A 
HETATM    7  C8  UNL     1     -33.985  18.678  -6.469  1.00 20.00     0.039 C 
HETATM    8  C9  UNL     1     -34.940  16.869  -7.846  1.00 20.00     0.039 C 
HETATM    9  C10 UNL     1     -34.208  18.218  -7.918  1.00 20.00     0.009 C 
ENDROOT
BRANCH   4  10
HETATM   10  C7  UNL     1     -34.048  13.417  -4.266  1.00 20.00     0.269 C 
HETATM   11  O11 UNL     1     -35.016  12.667  -4.424  1.00 20.00    -0.301 OA
ENDBRANCH   4  10
TORSDOF 1
ENDMDL
MODEL 8
REMARK VINA RESULT:      -4.5     11.588     12.948
REMARK  1 active torsions:
REMARK  status: ('A' for Active; 'I' for Inactive)
REMARK    1  A    between atoms: C4_4  and  C7_7 
ROOT
HETATM    1  C1  UNL     1     -33.885  18.879  -0.901  1.00 20.00     0.015 A 
HETATM    2  C2  UNL     1     -33.551  18.678  -2.242  1.00 20.00     0.008 A 
HETATM    3  C3  UNL     1     -34.675  16.586  -0.707  1.00 20.00     0.022 A 
HETATM    4  C4  UNL     1     -34.444  17.840  -0.139  1.00 20.00     0.002 A 
HETATM    5  C5  UNL     1     -33.772  17.426  -2.793  1.00 20.00    -0.052 A 
HETATM    6  C6  UNL     1     -34.329  16.391  -2.033  1.00 20.00    -0.051 A 
HETATM    7  C8  UNL     1     -33.533  16.983  -4.202  1.00 20.00     0.039 C 
HETATM    8  C9  UNL     1     -34.515  15.160  -2.863  1.00 20.00     0.039 C 
HETATM    9  C10 UNL     1     -33.579  15.456  -4.045  1.00 20.00     0.009 C 
ENDROOT
BRANCH   4  10
HETATM   10  C7  UNL     1     -34.791  18.077   1.254  1.00 20.00     0.269 C 
HETATM   11  O11 UNL     1     -35.401  17.255   1.945  1.00 20.00    -0.301 OA
ENDBRANCH   4  10
TORSDOF 1
ENDMDL
MODEL 9
REMARK VINA RESULT:      -4.5     12.163     14.621
REMARK  1 active torsions:
REMARK  status: ('A' for Active; 'I' for Inactive)
REMARK    1  A    between atoms: C4_4  and  C7_7 
ROOT
HETATM    1  C1  UNL     1     -34.807  14.415  -6.655  1.00 20.00     0.015 A 
HETATM    2  C2  UNL     1     -34.911  15.481  -7.552  1.00 20.00     0.008 A 
HETATM    3  C3  UNL     1     -33.853  15.876  -4.959  1.00 20.00     0.022 A 
HETATM    4  C4  UNL     1     -34.281  14.612  -5.368  1.00 20.00     0.002 A 
HETATM    5  C5  UNL     1     -34.495  16.734  -7.133  1.00 20.00    -0.052 A 
HETATM    6  C6  UNL     1     -33.972  16.929  -5.850  1.00 20.00    -0.051 A 
HETATM    7  C8  UNL     1     -34.473  18.008  -7.917  1.00 20.00     0.039 C 
HETATM    8  C9  UNL     1     -33.549  18.351  -5.657  1.00 20.00     0.039 C 
HETATM    9  C10 UNL     1     -34.314  19.044  -6.795  1.00 20.00     0.009 C 
ENDROOT
BRANCH   4  10
HETATM   10  C7  UNL     1     -34.176  13.484  -4.454  1.00 20.00     0.269 C 
HETATM   11  O11 UNL     1     -35.052  12.622  -4.346  1.00 20.00    -0.301 OA
ENDBRANCH   4  10
TORSDOF 1
ENDMDL
