MODEL 1
REMARK VINA RESULT:      -4.6      0.000      0.000
REMARK  0 active torsions:
REMARK  status: ('A' for Active; 'I' for Inactive)
ROOT
HETATM    1  C1  UNL     1     -34.518  15.563  -2.700  1.00 20.00    -0.017 C 
HETATM    2  C2  UNL     1     -35.532  14.786  -3.479  1.00 20.00     0.159 C 
HETATM    3  C3  UNL     1     -34.758  16.275  -1.601  1.00 20.00     0.023 C 
HETATM    4  C4  UNL     1     -33.290  15.990  -4.811  1.00 20.00     0.010 C 
HETATM    5  C5  UNL     1     -34.361  15.185  -5.589  1.00 20.00     0.013 C 
HETATM    6  C6  UNL     1     -33.453  13.826  -3.850  1.00 20.00     0.022 C 
HETATM    7  C7  UNL     1     -33.229  15.287  -3.440  1.00 20.00     0.022 C 
HETATM    8  C8  UNL     1     -34.771  14.094  -4.590  1.00 20.00     0.061 C 
HETATM    9  O9  UNL     1     -36.732  14.763  -3.284  1.00 20.00    -0.292 OA
ENDROOT
TORSDOF 0
ENDMDL
MODEL 2
REMARK VINA RESULT:      -4.6      1.686      3.285
REMARK  0 active torsions:
REMARK  status: ('A' for Active; 'I' for Inactive)
ROOT
HETATM    1  C1  UNL     1     -34.263  14.909  -5.716  1.00 20.00    -0.017 C 
HETATM    2  C2  UNL     1     -33.499  15.830  -4.820  1.00 20.00     0.159 C 
HETATM    3  C3  UNL     1     -34.422  15.054  -7.029  1.00 20.00     0.023 C 
HETATM    4  C4  UNL     1     -35.790  14.411  -3.828  1.00 20.00     0.010 C 
HETATM    5  C5  UNL     1     -34.980  15.378  -2.927  1.00 20.00     0.013 C 
HETATM    6  C6  UNL     1     -33.517  13.728  -3.839  1.00 20.00     0.022 C 
HETATM    7  C7  UNL     1     -34.728  13.819  -4.776  1.00 20.00     0.022 C 
HETATM    8  C8  UNL     1     -33.542  15.210  -3.439  1.00 20.00     0.061 C 
HETATM    9  O9  UNL     1     -32.991  16.890  -5.134  1.00 20.00    -0.292 OA
ENDROOT
TORSDOF 0
ENDMDL
MODEL 3
REMARK VINA RESULT:      -4.6      1.537      2.937
REMARK  0 active torsions:
REMARK  status: ('A' for Active; 'I' for Inactive)
ROOT
HETATM    1  C1  UNL     1     -34.914  14.733  -5.767  1.00 20.00    -0.017 C 
HETATM    2  C2  UNL     1     -34.704  13.726  -4.682  1.00 20.00     0.159 C 
HETATM    3  C3  UNL     1     -35.269  14.465  -7.022  1.00 20.00     0.023 C 
HETATM    4  C4  UNL     1     -33.173  16.155  -4.722  1.00 20.00     0.010 C 
HETATM    5  C5  UNL     1     -32.976  15.088  -3.616  1.00 20.00     0.013 C 
HETATM    6  C6  UNL     1     -35.269  15.743  -3.687  1.00 20.00     0.022 C 
HETATM    7  C7  UNL     1     -34.673  16.051  -5.067  1.00 20.00     0.022 C 
HETATM    8  C8  UNL     1     -34.387  14.514  -3.429  1.00 20.00     0.061 C 
HETATM    9  O9  UNL     1     -34.733  12.515  -4.803  1.00 20.00    -0.292 OA
ENDROOT
TORSDOF 0
ENDMDL
MODEL 4
REMARK VINA RESULT:      -4.3      1.846      2.625
REMARK  0 active torsions:
REMARK  status: ('A' for Active; 'I' for Inactive)
ROOT
HETATM    1  C1  UNL     1     -33.880  14.893  -4.727  1.00 20.00    -0.017 C 
HETATM    2  C2  UNL     1     -34.722  13.748  -5.193  1.00 20.00     0.159 C 
HETATM    3  C3  UNL     1     -33.075  14.887  -3.667  1.00 20.00     0.023 C 
HETATM    4  C4  UNL     1     -35.600  16.453  -5.592  1.00 20.00     0.010 C 
HETATM    5  C5  UNL     1     -36.452  15.245  -6.057  1.00 20.00     0.013 C 
HETATM    6  C6  UNL     1     -34.275  15.101  -7.024  1.00 20.00     0.022 C 
HETATM    7  C7  UNL     1     -34.148  15.963  -5.761  1.00 20.00     0.022 C 
HETATM    8  C8  UNL     1     -35.395  14.211  -6.469  1.00 20.00     0.061 C 
HETATM    9  O9  UNL     1     -34.872  12.681  -4.627  1.00 20.00    -0.292 OA
ENDROOT
TORSDOF 0
ENDMDL
MODEL 5
REMARK VINA RESULT:      -4.3     11.769     12.608
REMARK  0 active torsions:
REMARK  status: ('A' for Active; 'I' for Inactive)
ROOT
HETATM    1  C1  UNL     1     -34.625   5.065   5.096  1.00 20.00    -0.017 C 
HETATM    2  C2  UNL     1     -33.928   6.338   5.459  1.00 20.00     0.159 C 
HETATM    3  C3  UNL     1     -35.020   4.122   5.949  1.00 20.00     0.023 C 
HETATM    4  C4  UNL     1     -33.391   5.053   2.946  1.00 20.00     0.010 C 
HETATM    5  C5  UNL     1     -32.681   6.369   3.355  1.00 20.00     0.013 C 
HETATM    6  C6  UNL     1     -35.045   6.678   3.454  1.00 20.00     0.022 C 
HETATM    7  C7  UNL     1     -34.784   5.173   3.597  1.00 20.00     0.022 C 
HETATM    8  C8  UNL     1     -33.755   7.108   4.166  1.00 20.00     0.061 C 
HETATM    9  O9  UNL     1     -33.536   6.659   6.565  1.00 20.00    -0.292 OA
ENDROOT
TORSDOF 0
ENDMDL
MODEL 6
REMARK VINA RESULT:      -4.3     11.769     12.921
REMARK  0 active torsions:
REMARK  status: ('A' for Active; 'I' for Inactive)
ROOT
HETATM    1  C1  UNL     1     -41.703   4.327  -1.995  1.00 20.00    -0.017 C 
HETATM    2  C2  UNL     1     -42.485   5.518  -2.449  1.00 20.00     0.159 C 
HETATM    3  C3  UNL     1     -41.548   3.192  -2.673  1.00 20.00     0.023 C 
HETATM    4  C4  UNL     1     -42.302   4.880   0.346  1.00 20.00     0.010 C 
HETATM    5  C5  UNL     1     -43.109   6.104  -0.158  1.00 20.00     0.013 C 
HETATM    6  C6  UNL     1     -40.866   6.249  -0.957  1.00 20.00     0.022 C 
HETATM    7  C7  UNL     1     -41.141   4.768  -0.663  1.00 20.00     0.022 C 
HETATM    8  C8  UNL     1     -42.306   6.574  -1.378  1.00 20.00     0.061 C 
HETATM    9  O9  UNL     1     -43.168   5.597  -3.452  1.00 20.00    -0.292 OA
ENDROOT
TORSDOF 0
ENDMDL
MODEL 7
REMARK VINA RESULT:      -4.3      1.125      1.232
REMARK  0 active torsions:
REMARK  status: ('A' for Active; 'I' for Inactive)
ROOT
HETATM    1  C1  UNL     1     -35.636  15.605  -3.469  1.00 20.00    -0.017 C 
HETATM    2  C2  UNL     1     -36.369  14.365  -3.871  1.00 20.00     0.159 C 
HETATM    3  C3  UNL     1     -36.167  16.660  -2.857  1.00 20.00     0.023 C 
HETATM    4  C4  UNL     1     -34.144  15.303  -5.425  1.00 20.00     0.010 C 
HETATM    5  C5  UNL     1     -34.929  14.026  -5.818  1.00 20.00     0.013 C 
HETATM    6  C6  UNL     1     -34.135  13.813  -3.578  1.00 20.00     0.022 C 
HETATM    7  C7  UNL     1     -34.212  15.315  -3.885  1.00 20.00     0.022 C 
HETATM    8  C8  UNL     1     -35.331  13.433  -4.461  1.00 20.00     0.061 C 
HETATM    9  O9  UNL     1     -37.567  14.172  -3.786  1.00 20.00    -0.292 OA
ENDROOT
TORSDOF 0
ENDMDL
MODEL 8
REMARK VINA RESULT:      -4.2      1.787      2.593
REMARK  0 active torsions:
REMARK  status: ('A' for Active; 'I' for Inactive)
ROOT
HETATM    1  C1  UNL     1     -34.521  15.678  -3.336  1.00 20.00    -0.017 C 
HETATM    2  C2  UNL     1     -33.878  15.878  -4.672  1.00 20.00     0.159 C 
HETATM    3  C3  UNL     1     -34.094  16.185  -2.182  1.00 20.00     0.023 C 
HETATM    4  C4  UNL     1     -35.259  13.430  -4.077  1.00 20.00     0.010 C 
HETATM    5  C5  UNL     1     -34.576  13.666  -5.448  1.00 20.00     0.013 C 
HETATM    6  C6  UNL     1     -36.127  15.428  -5.019  1.00 20.00     0.022 C 
HETATM    7  C7  UNL     1     -35.735  14.836  -3.659  1.00 20.00     0.022 C 
HETATM    8  C8  UNL     1     -34.764  15.173  -5.677  1.00 20.00     0.061 C 
HETATM    9  O9  UNL     1     -32.827  16.449  -4.891  1.00 20.00    -0.292 OA
ENDROOT
TORSDOF 0
ENDMDL
MODEL 9
REMARK VINA RESULT:      -4.1     11.340     12.494
REMARK  0 active torsions:
REMARK  status: ('A' for Active; 'I' for Inactive)
ROOT
HETATM    1  C1  UNL     1     -42.117   6.135  -2.227  1.00 20.00    -0.017 C 
HETATM    2  C2  UNL     1     -41.340   6.655  -1.060  1.00 20.00     0.159 C 
HETATM    3  C3  UNL     1     -42.583   6.863  -3.239  1.00 20.00     0.023 C 
HETATM    4  C4  UNL     1     -43.086   4.396  -0.750  1.00 20.00     0.010 C 
HETATM    5  C5  UNL     1     -42.271   4.963   0.440  1.00 20.00     0.013 C 
HETATM    6  C6  UNL     1     -40.789   4.421  -1.349  1.00 20.00     0.022 C 
HETATM    7  C7  UNL     1     -42.175   4.647  -1.969  1.00 20.00     0.022 C 
HETATM    8  C8  UNL     1     -40.974   5.447  -0.223  1.00 20.00     0.061 C 
HETATM    9  O9  UNL     1     -41.099   7.822  -0.812  1.00 20.00    -0.292 OA
ENDROOT
TORSDOF 0
ENDMDL
