MODEL 1
REMARK VINA RESULT:      -4.8      0.000      0.000
REMARK  1 active torsions:
REMARK  status: ('A' for Active; 'I' for Inactive)
REMARK    1  A    between atoms: C6_6  and  C10_10 
ROOT
HETATM    1  C1  UNL     1     -33.468  17.008  -2.352  1.00 20.00     0.053 A 
HETATM    2  C2  UNL     1     -34.513  16.612  -1.605  1.00 20.00    -0.075 A 
HETATM    3  C3  UNL     1     -33.612  16.340  -3.665  1.00 20.00     0.159 A 
HETATM    4  C4  UNL     1     -36.188  16.067  -3.496  1.00 20.00     0.029 A 
HETATM    5  C5  UNL     1     -35.438  15.667  -2.256  1.00 20.00     0.032 A 
HETATM    6  C6  UNL     1     -34.816  15.445  -3.637  1.00 20.00     0.035 A 
HETATM    7  C7  UNL     1     -34.778  17.061  -0.210  1.00 20.00     0.044 C 
HETATM    8  O11 UNL     1     -32.877  16.483  -4.627  1.00 20.00    -0.292 OA
ENDROOT
BRANCH   6   9
HETATM    9  C10 UNL     1     -34.716  14.048  -4.173  1.00 20.00    -0.006 C 
HETATM   10  C8  UNL     1     -34.937  14.010  -5.693  1.00 20.00     0.011 C 
HETATM   11  C9  UNL     1     -33.361  13.409  -3.834  1.00 20.00     0.011 C 
ENDBRANCH   6   9
TORSDOF 1
ENDMDL
MODEL 2
REMARK VINA RESULT:      -4.6      1.677      4.016
REMARK  1 active torsions:
REMARK  status: ('A' for Active; 'I' for Inactive)
REMARK    1  A    between atoms: C6_6  and  C10_10 
ROOT
HETATM    1  C1  UNL     1     -36.281  15.329  -3.412  1.00 20.00     0.053 A 
HETATM    2  C2  UNL     1     -35.148  14.639  -3.631  1.00 20.00    -0.075 A 
HETATM    3  C3  UNL     1     -35.875  16.630  -2.831  1.00 20.00     0.159 A 
HETATM    4  C4  UNL     1     -33.504  16.617  -3.888  1.00 20.00     0.029 A 
HETATM    5  C5  UNL     1     -33.902  15.321  -3.237  1.00 20.00     0.032 A 
HETATM    6  C6  UNL     1     -34.384  16.653  -2.658  1.00 20.00     0.035 A 
HETATM    7  C7  UNL     1     -35.087  13.277  -4.230  1.00 20.00     0.044 C 
HETATM    8  O11 UNL     1     -36.621  17.547  -2.535  1.00 20.00    -0.292 OA
ENDROOT
BRANCH   6   9
HETATM    9  C10 UNL     1     -33.793  17.141  -1.369  1.00 20.00    -0.006 C 
HETATM   10  C8  UNL     1     -33.407  18.626  -1.454  1.00 20.00     0.011 C 
HETATM   11  C9  UNL     1     -34.756  16.926  -0.191  1.00 20.00     0.011 C 
ENDBRANCH   6   9
TORSDOF 1
ENDMDL
MODEL 3
REMARK VINA RESULT:      -4.6      1.851      2.924
REMARK  1 active torsions:
REMARK  status: ('A' for Active; 'I' for Inactive)
REMARK    1  A    between atoms: C6_6  and  C10_10 
ROOT
HETATM    1  C1  UNL     1     -34.642  14.284  -3.159  1.00 20.00     0.053 A 
HETATM    2  C2  UNL     1     -34.488  15.611  -3.015  1.00 20.00    -0.075 A 
HETATM    3  C3  UNL     1     -34.633  14.016  -4.616  1.00 20.00     0.159 A 
HETATM    4  C4  UNL     1     -33.251  16.126  -5.225  1.00 20.00     0.029 A 
HETATM    5  C5  UNL     1     -34.383  16.380  -4.269  1.00 20.00     0.032 A 
HETATM    6  C6  UNL     1     -34.520  15.314  -5.359  1.00 20.00     0.035 A 
HETATM    7  C7  UNL     1     -34.420  16.321  -1.707  1.00 20.00     0.044 C 
HETATM    8  O11 UNL     1     -34.707  12.920  -5.143  1.00 20.00    -0.292 OA
ENDROOT
BRANCH   6   9
HETATM    9  C10 UNL     1     -35.420  15.582  -6.529  1.00 20.00    -0.006 C 
HETATM   10  C8  UNL     1     -34.922  14.873  -7.798  1.00 20.00     0.011 C 
HETATM   11  C9  UNL     1     -36.867  15.156  -6.236  1.00 20.00     0.011 C 
ENDBRANCH   6   9
TORSDOF 1
ENDMDL
MODEL 4
REMARK VINA RESULT:      -4.5      1.859      2.709
REMARK  1 active torsions:
REMARK  status: ('A' for Active; 'I' for Inactive)
REMARK    1  A    between atoms: C6_6  and  C10_10 
ROOT
HETATM    1  C1  UNL     1     -36.051  15.927  -2.864  1.00 20.00     0.053 A 
HETATM    2  C2  UNL     1     -34.815  16.098  -2.364  1.00 20.00    -0.075 A 
HETATM    3  C3  UNL     1     -35.879  15.431  -4.249  1.00 20.00     0.159 A 
HETATM    4  C4  UNL     1     -33.538  14.392  -3.828  1.00 20.00     0.029 A 
HETATM    5  C5  UNL     1     -33.707  15.785  -3.286  1.00 20.00     0.032 A 
HETATM    6  C6  UNL     1     -34.416  15.370  -4.577  1.00 20.00     0.035 A 
HETATM    7  C7  UNL     1     -34.515  16.568  -0.983  1.00 20.00     0.044 C 
HETATM    8  O11 UNL     1     -36.775  15.119  -5.014  1.00 20.00    -0.292 OA
ENDROOT
BRANCH   6   9
HETATM    9  C10 UNL     1     -33.924  15.917  -5.884  1.00 20.00    -0.006 C 
HETATM   10  C8  UNL     1     -34.294  14.994  -7.056  1.00 20.00     0.011 C 
HETATM   11  C9  UNL     1     -34.473  17.328  -6.147  1.00 20.00     0.011 C 
ENDBRANCH   6   9
TORSDOF 1
ENDMDL
MODEL 5
REMARK VINA RESULT:      -4.5      1.279      4.069
REMARK  1 active torsions:
REMARK  status: ('A' for Active; 'I' for Inactive)
REMARK    1  A    between atoms: C6_6  and  C10_10 
ROOT
HETATM    1  C1  UNL     1     -34.067  15.844  -6.562  1.00 20.00     0.053 A 
HETATM    2  C2  UNL     1     -35.028  14.905  -6.628  1.00 20.00    -0.075 A 
HETATM    3  C3  UNL     1     -33.788  16.058  -5.124  1.00 20.00     0.159 A 
HETATM    4  C4  UNL     1     -34.581  13.700  -4.386  1.00 20.00     0.029 A 
HETATM    5  C5  UNL     1     -35.516  14.402  -5.331  1.00 20.00     0.032 A 
HETATM    6  C6  UNL     1     -34.712  15.205  -4.306  1.00 20.00     0.035 A 
HETATM    7  C7  UNL     1     -35.601  14.365  -7.893  1.00 20.00     0.044 C 
HETATM    8  O11 UNL     1     -32.946  16.807  -4.661  1.00 20.00    -0.292 OA
ENDROOT
BRANCH   6   9
HETATM    9  C10 UNL     1     -35.425  15.799  -3.127  1.00 20.00    -0.006 C 
HETATM   10  C8  UNL     1     -34.473  16.008  -1.940  1.00 20.00     0.011 C 
HETATM   11  C9  UNL     1     -36.098  17.132  -3.489  1.00 20.00     0.011 C 
ENDBRANCH   6   9
TORSDOF 1
ENDMDL
MODEL 6
REMARK VINA RESULT:      -4.2      1.987      4.021
REMARK  1 active torsions:
REMARK  status: ('A' for Active; 'I' for Inactive)
REMARK    1  A    between atoms: C6_6  and  C10_10 
ROOT
HETATM    1  C1  UNL     1     -34.875  14.237  -6.665  1.00 20.00     0.053 A 
HETATM    2  C2  UNL     1     -34.994  15.574  -6.591  1.00 20.00    -0.075 A 
HETATM    3  C3  UNL     1     -34.913  13.735  -5.272  1.00 20.00     0.159 A 
HETATM    4  C4  UNL     1     -36.254  15.753  -4.342  1.00 20.00     0.029 A 
HETATM    5  C5  UNL     1     -35.101  16.130  -5.230  1.00 20.00     0.032 A 
HETATM    6  C6  UNL     1     -35.007  14.897  -4.327  1.00 20.00     0.035 A 
HETATM    7  C7  UNL     1     -35.025  16.489  -7.766  1.00 20.00     0.044 C 
HETATM    8  O11 UNL     1     -34.874  12.566  -4.930  1.00 20.00    -0.292 OA
ENDROOT
BRANCH   6   9
HETATM    9  C10 UNL     1     -34.119  14.947  -3.119  1.00 20.00    -0.006 C 
HETATM   10  C8  UNL     1     -32.636  15.018  -3.512  1.00 20.00     0.011 C 
HETATM   11  C9  UNL     1     -34.469  16.137  -2.212  1.00 20.00     0.011 C 
ENDBRANCH   6   9
TORSDOF 1
ENDMDL
MODEL 7
REMARK VINA RESULT:      -4.2      2.584      3.886
REMARK  1 active torsions:
REMARK  status: ('A' for Active; 'I' for Inactive)
REMARK    1  A    between atoms: C6_6  and  C10_10 
ROOT
HETATM    1  C1  UNL     1     -35.050  14.391  -3.358  1.00 20.00     0.053 A 
HETATM    2  C2  UNL     1     -34.037  14.783  -4.150  1.00 20.00    -0.075 A 
HETATM    3  C3  UNL     1     -36.273  14.427  -4.192  1.00 20.00     0.159 A 
HETATM    4  C4  UNL     1     -35.021  14.108  -6.443  1.00 20.00     0.029 A 
HETATM    5  C5  UNL     1     -34.410  15.137  -5.532  1.00 20.00     0.032 A 
HETATM    6  C6  UNL     1     -35.927  14.938  -5.560  1.00 20.00     0.035 A 
HETATM    7  C7  UNL     1     -32.613  14.874  -3.724  1.00 20.00     0.044 C 
HETATM    8  O11 UNL     1     -37.392  14.099  -3.838  1.00 20.00    -0.292 OA
ENDROOT
BRANCH   6   9
HETATM    9  C10 UNL     1     -36.786  15.987  -6.202  1.00 20.00    -0.006 C 
HETATM   10  C8  UNL     1     -37.969  15.362  -6.957  1.00 20.00     0.011 C 
HETATM   11  C9  UNL     1     -37.310  16.995  -5.168  1.00 20.00     0.011 C 
ENDBRANCH   6   9
TORSDOF 1
ENDMDL
MODEL 8
REMARK VINA RESULT:      -4.2      2.115      3.598
REMARK  1 active torsions:
REMARK  status: ('A' for Active; 'I' for Inactive)
REMARK    1  A    between atoms: C6_6  and  C10_10 
ROOT
HETATM    1  C1  UNL     1     -33.404  17.462  -5.352  1.00 20.00     0.053 A 
HETATM    2  C2  UNL     1     -34.273  17.523  -6.377  1.00 20.00    -0.075 A 
HETATM    3  C3  UNL     1     -33.505  16.092  -4.798  1.00 20.00     0.159 A 
HETATM    4  C4  UNL     1     -34.347  15.017  -7.005  1.00 20.00     0.029 A 
HETATM    5  C5  UNL     1     -35.046  16.293  -6.629  1.00 20.00     0.032 A 
HETATM    6  C6  UNL     1     -34.563  15.331  -5.541  1.00 20.00     0.035 A 
HETATM    7  C7  UNL     1     -34.486  18.718  -7.239  1.00 20.00     0.044 C 
HETATM    8  O11 UNL     1     -32.840  15.640  -3.882  1.00 20.00    -0.292 OA
ENDROOT
BRANCH   6   9
HETATM    9  C10 UNL     1     -35.575  14.529  -4.779  1.00 20.00    -0.006 C 
HETATM   10  C8  UNL     1     -35.024  13.148  -4.392  1.00 20.00     0.011 C 
HETATM   11  C9  UNL     1     -36.045  15.267  -3.516  1.00 20.00     0.011 C 
ENDBRANCH   6   9
TORSDOF 1
ENDMDL
MODEL 9
REMARK VINA RESULT:      -4.1      1.929      2.915
REMARK  1 active torsions:
REMARK  status: ('A' for Active; 'I' for Inactive)
REMARK    1  A    between atoms: C6_6  and  C10_10 
ROOT
HETATM    1  C1  UNL     1     -37.381  16.314  -3.446  1.00 20.00     0.053 A 
HETATM    2  C2  UNL     1     -36.577  17.334  -3.098  1.00 20.00    -0.075 A 
HETATM    3  C3  UNL     1     -36.517  15.116  -3.552  1.00 20.00     0.159 A 
HETATM    4  C4  UNL     1     -34.705  15.999  -1.919  1.00 20.00     0.029 A 
HETATM    5  C5  UNL     1     -35.149  16.997  -2.951  1.00 20.00     0.032 A 
HETATM    6  C6  UNL     1     -35.092  15.507  -3.296  1.00 20.00     0.035 A 
HETATM    7  C7  UNL     1     -37.034  18.731  -2.860  1.00 20.00     0.044 C 
HETATM    8  O11 UNL     1     -36.890  13.984  -3.809  1.00 20.00    -0.292 OA
ENDROOT
BRANCH   6   9
HETATM    9  C10 UNL     1     -34.009  15.013  -4.209  1.00 20.00    -0.006 C 
HETATM   10  C8  UNL     1     -33.494  13.631  -3.778  1.00 20.00     0.011 C 
HETATM   11  C9  UNL     1     -34.488  14.952  -5.668  1.00 20.00     0.011 C 
ENDBRANCH   6   9
TORSDOF 1
ENDMDL
