MODEL 1
REMARK VINA RESULT:      -3.7      0.000      0.000
REMARK  2 active torsions:
REMARK  status: ('A' for Active; 'I' for Inactive)
REMARK    1  A    between atoms: C1_1  and  C2_2 
REMARK    2  A    between atoms: C1_1  and  C3_3 
ROOT
HETATM    1  C1  UNL     1     -34.822   4.807   5.030  1.00 20.00     0.168 C 
HETATM    2  O4  UNL     1     -35.145   3.625   4.927  1.00 20.00    -0.294 OA
ENDROOT
BRANCH   1   3
HETATM    3  C2  UNL     1     -34.561   5.419   6.382  1.00 20.00     0.301 C 
HETATM    4  F5  UNL     1     -34.255   6.740   6.275  1.00 20.00    -0.248 F 
ENDBRANCH   1   3
BRANCH   1   5
HETATM    5  C3  UNL     1     -34.656   5.734   3.848  1.00 20.00     0.195 C 
HETATM    6 CL6  UNL     1     -32.942   6.024   3.515  1.00 20.00    -0.122 Cl
ENDBRANCH   1   5
TORSDOF 2
ENDMDL
MODEL 2
REMARK VINA RESULT:      -3.7      2.031      2.510
REMARK  2 active torsions:
REMARK  status: ('A' for Active; 'I' for Inactive)
REMARK    1  A    between atoms: C1_1  and  C2_2 
REMARK    2  A    between atoms: C1_1  and  C3_3 
ROOT
HETATM    1  C1  UNL     1     -34.919   4.697   5.034  1.00 20.00     0.168 C 
HETATM    2  O4  UNL     1     -35.127   3.507   4.807  1.00 20.00    -0.294 OA
ENDROOT
BRANCH   1   3
HETATM    3  C2  UNL     1     -34.785   5.684   3.903  1.00 20.00     0.301 C 
HETATM    4  F5  UNL     1     -34.315   5.083   2.777  1.00 20.00    -0.248 F 
ENDBRANCH   1   3
BRANCH   1   5
HETATM    5  C3  UNL     1     -34.786   5.272   6.425  1.00 20.00     0.195 C 
HETATM    6 CL6  UNL     1     -33.823   6.758   6.399  1.00 20.00    -0.122 Cl
ENDBRANCH   1   5
TORSDOF 2
ENDMDL
MODEL 3
REMARK VINA RESULT:      -3.6      2.115      2.151
REMARK  2 active torsions:
REMARK  status: ('A' for Active; 'I' for Inactive)
REMARK    1  A    between atoms: C1_1  and  C2_2 
REMARK    2  A    between atoms: C1_1  and  C3_3 
ROOT
HETATM    1  C1  UNL     1     -34.334   5.710   5.490  1.00 20.00     0.168 C 
HETATM    2  O4  UNL     1     -34.008   6.518   6.358  1.00 20.00    -0.294 OA
ENDROOT
BRANCH   1   3
HETATM    3  C2  UNL     1     -34.840   4.340   5.865  1.00 20.00     0.301 C 
HETATM    4  F5  UNL     1     -35.153   3.612   4.761  1.00 20.00    -0.248 F 
ENDBRANCH   1   3
BRANCH   1   5
HETATM    5  C3  UNL     1     -34.266   6.000   4.009  1.00 20.00     0.195 C 
HETATM    6 CL6  UNL     1     -32.587   6.200   3.486  1.00 20.00    -0.122 Cl
ENDBRANCH   1   5
TORSDOF 2
ENDMDL
MODEL 4
REMARK VINA RESULT:      -3.5      2.608      2.996
REMARK  2 active torsions:
REMARK  status: ('A' for Active; 'I' for Inactive)
REMARK    1  A    between atoms: C1_1  and  C2_2 
REMARK    2  A    between atoms: C1_1  and  C3_3 
ROOT
HETATM    1  C1  UNL     1     -34.070   5.892   4.037  1.00 20.00     0.168 C 
HETATM    2  O4  UNL     1     -34.878   5.333   3.298  1.00 20.00    -0.294 OA
ENDROOT
BRANCH   1   3
HETATM    3  C2  UNL     1     -32.881   6.621   3.464  1.00 20.00     0.301 C 
HETATM    4  F5  UNL     1     -31.841   5.773   3.246  1.00 20.00    -0.248 F 
ENDBRANCH   1   3
BRANCH   1   5
HETATM    5  C3  UNL     1     -34.183   5.906   5.543  1.00 20.00     0.195 C 
HETATM    6 CL6  UNL     1     -35.057   4.478   6.119  1.00 20.00    -0.122 Cl
ENDBRANCH   1   5
TORSDOF 2
ENDMDL
MODEL 5
REMARK VINA RESULT:      -3.5      2.164      2.208
REMARK  2 active torsions:
REMARK  status: ('A' for Active; 'I' for Inactive)
REMARK    1  A    between atoms: C1_1  and  C2_2 
REMARK    2  A    between atoms: C1_1  and  C3_3 
ROOT
HETATM    1  C1  UNL     1     -34.896   5.242   4.550  1.00 20.00     0.168 C 
HETATM    2  O4  UNL     1     -35.771   5.399   3.700  1.00 20.00    -0.294 OA
ENDROOT
BRANCH   1   3
HETATM    3  C2  UNL     1     -34.865   4.000   5.403  1.00 20.00     0.301 C 
HETATM    4  F5  UNL     1     -35.594   4.165   6.540  1.00 20.00    -0.248 F 
ENDBRANCH   1   3
BRANCH   1   5
HETATM    5  C3  UNL     1     -33.797   6.245   4.814  1.00 20.00     0.195 C 
HETATM    6 CL6  UNL     1     -33.839   6.793   6.497  1.00 20.00    -0.122 Cl
ENDBRANCH   1   5
TORSDOF 2
ENDMDL
MODEL 6
REMARK VINA RESULT:      -3.5      1.349      1.403
REMARK  2 active torsions:
REMARK  status: ('A' for Active; 'I' for Inactive)
REMARK    1  A    between atoms: C1_1  and  C2_2 
REMARK    2  A    between atoms: C1_1  and  C3_3 
ROOT
HETATM    1  C1  UNL     1     -34.588   5.541   4.438  1.00 20.00     0.168 C 
HETATM    2  O4  UNL     1     -35.295   5.366   3.447  1.00 20.00    -0.294 OA
ENDROOT
BRANCH   1   3
HETATM    3  C2  UNL     1     -34.902   4.848   5.739  1.00 20.00     0.301 C 
HETATM    4  F5  UNL     1     -34.874   5.721   6.781  1.00 20.00    -0.248 F 
ENDBRANCH   1   3
BRANCH   1   5
HETATM    5  C3  UNL     1     -33.372   6.438   4.450  1.00 20.00     0.195 C 
HETATM    6 CL6  UNL     1     -32.334   6.104   3.055  1.00 20.00    -0.122 Cl
ENDBRANCH   1   5
TORSDOF 2
ENDMDL
MODEL 7
REMARK VINA RESULT:      -3.5      2.706      3.087
REMARK  2 active torsions:
REMARK  status: ('A' for Active; 'I' for Inactive)
REMARK    1  A    between atoms: C1_1  and  C2_2 
REMARK    2  A    between atoms: C1_1  and  C3_3 
ROOT
HETATM    1  C1  UNL     1     -33.844   6.008   4.420  1.00 20.00     0.168 C 
HETATM    2  O4  UNL     1     -32.833   6.645   4.127  1.00 20.00    -0.294 OA
ENDROOT
BRANCH   1   3
HETATM    3  C2  UNL     1     -34.676   5.352   3.348  1.00 20.00     0.301 C 
HETATM    4  F5  UNL     1     -35.988   5.689   3.468  1.00 20.00    -0.248 F 
ENDBRANCH   1   3
BRANCH   1   5
HETATM    5  C3  UNL     1     -34.335   5.822   5.836  1.00 20.00     0.195 C 
HETATM    6 CL6  UNL     1     -34.976   4.188   6.068  1.00 20.00    -0.122 Cl
ENDBRANCH   1   5
TORSDOF 2
ENDMDL
MODEL 8
REMARK VINA RESULT:      -3.5      2.762      3.064
REMARK  2 active torsions:
REMARK  status: ('A' for Active; 'I' for Inactive)
REMARK    1  A    between atoms: C1_1  and  C2_2 
REMARK    2  A    between atoms: C1_1  and  C3_3 
ROOT
HETATM    1  C1  UNL     1     -33.877   6.120   4.514  1.00 20.00     0.168 C 
HETATM    2  O4  UNL     1     -33.670   6.619   5.619  1.00 20.00    -0.294 OA
ENDROOT
BRANCH   1   3
HETATM    3  C2  UNL     1     -33.031   6.502   3.326  1.00 20.00     0.301 C 
HETATM    4  F5  UNL     1     -31.865   5.802   3.308  1.00 20.00    -0.248 F 
ENDBRANCH   1   3
BRANCH   1   5
HETATM    5  C3  UNL     1     -34.965   5.106   4.244  1.00 20.00     0.195 C 
HETATM    6 CL6  UNL     1     -35.022   3.891   5.530  1.00 20.00    -0.122 Cl
ENDBRANCH   1   5
TORSDOF 2
ENDMDL
MODEL 9
REMARK VINA RESULT:      -3.5      2.377      2.409
REMARK  2 active torsions:
REMARK  status: ('A' for Active; 'I' for Inactive)
REMARK    1  A    between atoms: C1_1  and  C2_2 
REMARK    2  A    between atoms: C1_1  and  C3_3 
ROOT
HETATM    1  C1  UNL     1     -33.883   6.172   4.896  1.00 20.00     0.168 C 
HETATM    2  O4  UNL     1     -32.997   6.682   4.212  1.00 20.00    -0.294 OA
ENDROOT
BRANCH   1   3
HETATM    3  C2  UNL     1     -34.028   6.525   6.355  1.00 20.00     0.301 C 
HETATM    4  F5  UNL     1     -32.962   7.244   6.796  1.00 20.00    -0.248 F 
ENDBRANCH   1   3
BRANCH   1   5
HETATM    5  C3  UNL     1     -34.883   5.174   4.361  1.00 20.00     0.195 C 
HETATM    6 CL6  UNL     1     -35.061   3.807   5.473  1.00 20.00    -0.122 Cl
ENDBRANCH   1   5
TORSDOF 2
ENDMDL
