MODEL 1
REMARK VINA RESULT:      -4.7      0.000      0.000
REMARK  4 active torsions:
REMARK  status: ('A' for Active; 'I' for Inactive)
REMARK    1  A    between atoms: C1_1  and  C7_7 
REMARK    2  A    between atoms: C1_1  and  C8_8 
REMARK    3  A    between atoms: C7_7  and  C9_9 
REMARK    4  A    between atoms: C8_8  and  C10_10 
ROOT
HETATM    1  C1  UNL     1     -32.535   6.550   3.470  1.00 20.00     0.131 C 
HETATM    2  O11 UNL     1     -32.112   5.485   3.017  1.00 20.00    -0.298 OA
ENDROOT
BRANCH   1   3
HETATM    3  C7  UNL     1     -31.884   7.884   3.125  1.00 20.00     0.082 C 
BRANCH   3   4
HETATM    4  C9  UNL     1     -32.470   8.542   1.868  1.00 20.00    -0.016 C 
HETATM    5  C3  UNL     1     -32.763  10.026   2.101  1.00 20.00     0.010 C 
HETATM    6  C4  UNL     1     -31.501   8.382   0.694  1.00 20.00     0.010 C 
ENDBRANCH   3   4
ENDBRANCH   1   3
BRANCH   1   7
HETATM    7  C8  UNL     1     -33.723   6.600   4.434  1.00 20.00     0.054 C 
HETATM    8  C2  UNL     1     -33.246   6.933   5.849  1.00 20.00     0.018 C 
BRANCH   7   9
HETATM    9  C10 UNL     1     -34.558   5.302   4.322  1.00 20.00    -0.012 C 
HETATM   10  C5  UNL     1     -35.888   5.555   3.604  1.00 20.00     0.010 C 
HETATM   11  C6  UNL     1     -34.820   4.621   5.670  1.00 20.00     0.010 C 
ENDBRANCH   7   9
ENDBRANCH   1   7
TORSDOF 4
ENDMDL
MODEL 2
REMARK VINA RESULT:      -4.5     10.845     12.221
REMARK  4 active torsions:
REMARK  status: ('A' for Active; 'I' for Inactive)
REMARK    1  A    between atoms: C1_1  and  C7_7 
REMARK    2  A    between atoms: C1_1  and  C8_8 
REMARK    3  A    between atoms: C7_7  and  C9_9 
REMARK    4  A    between atoms: C8_8  and  C10_10 
ROOT
HETATM    1  C1  UNL     1     -33.860  15.138  -3.617  1.00 20.00     0.131 C 
HETATM    2  O11 UNL     1     -32.639  14.995  -3.548  1.00 20.00    -0.298 OA
ENDROOT
BRANCH   1   3
HETATM    3  C7  UNL     1     -34.670  15.694  -2.452  1.00 20.00     0.082 C 
BRANCH   3   4
HETATM    4  C9  UNL     1     -33.930  16.780  -1.658  1.00 20.00    -0.016 C 
HETATM    5  C3  UNL     1     -33.839  18.086  -2.451  1.00 20.00     0.010 C 
HETATM    6  C4  UNL     1     -34.641  17.031  -0.326  1.00 20.00     0.010 C 
ENDBRANCH   3   4
ENDBRANCH   1   3
BRANCH   1   7
HETATM    7  C8  UNL     1     -34.649  14.737  -4.866  1.00 20.00     0.054 C 
HETATM    8  C2  UNL     1     -34.726  13.214  -4.981  1.00 20.00     0.018 C 
BRANCH   7   9
HETATM    9  C10 UNL     1     -34.076  15.452  -6.113  1.00 20.00    -0.012 C 
HETATM   10  C5  UNL     1     -34.270  16.969  -6.025  1.00 20.00     0.010 C 
HETATM   11  C6  UNL     1     -34.650  14.935  -7.436  1.00 20.00     0.010 C 
ENDBRANCH   7   9
ENDBRANCH   1   7
TORSDOF 4
ENDMDL
MODEL 3
REMARK VINA RESULT:      -4.5     10.692     11.887
REMARK  4 active torsions:
REMARK  status: ('A' for Active; 'I' for Inactive)
REMARK    1  A    between atoms: C1_1  and  C7_7 
REMARK    2  A    between atoms: C1_1  and  C8_8 
REMARK    3  A    between atoms: C7_7  and  C9_9 
REMARK    4  A    between atoms: C8_8  and  C10_10 
ROOT
HETATM    1  C1  UNL     1     -35.016  14.380  -3.745  1.00 20.00     0.131 C 
HETATM    2  O11 UNL     1     -34.123  13.584  -3.451  1.00 20.00    -0.298 OA
ENDROOT
BRANCH   1   3
HETATM    3  C7  UNL     1     -35.676  14.373  -5.119  1.00 20.00     0.082 C 
BRANCH   3   4
HETATM    4  C9  UNL     1     -34.680  14.553  -6.275  1.00 20.00    -0.016 C 
HETATM    5  C3  UNL     1     -35.373  14.415  -7.632  1.00 20.00     0.010 C 
HETATM    6  C4  UNL     1     -34.003  15.921  -6.174  1.00 20.00     0.010 C 
ENDBRANCH   3   4
ENDBRANCH   1   3
BRANCH   1   7
HETATM    7  C8  UNL     1     -35.499  15.449  -2.762  1.00 20.00     0.054 C 
HETATM    8  C2  UNL     1     -36.520  16.368  -3.435  1.00 20.00     0.018 C 
BRANCH   7   9
HETATM    9  C10 UNL     1     -34.291  16.179  -2.128  1.00 20.00    -0.012 C 
HETATM   10  C5  UNL     1     -34.610  16.656  -0.708  1.00 20.00     0.010 C 
HETATM   11  C6  UNL     1     -33.775  17.354  -2.964  1.00 20.00     0.010 C 
ENDBRANCH   7   9
ENDBRANCH   1   7
TORSDOF 4
ENDMDL
MODEL 4
REMARK VINA RESULT:      -4.4     10.519     12.081
REMARK  4 active torsions:
REMARK  status: ('A' for Active; 'I' for Inactive)
REMARK    1  A    between atoms: C1_1  and  C7_7 
REMARK    2  A    between atoms: C1_1  and  C8_8 
REMARK    3  A    between atoms: C7_7  and  C9_9 
REMARK    4  A    between atoms: C8_8  and  C10_10 
ROOT
HETATM    1  C1  UNL     1     -35.068  13.940  -4.177  1.00 20.00     0.131 C 
HETATM    2  O11 UNL     1     -35.074  12.713  -4.286  1.00 20.00    -0.298 OA
ENDROOT
BRANCH   1   3
HETATM    3  C7  UNL     1     -34.150  14.654  -3.192  1.00 20.00     0.082 C 
BRANCH   3   4
HETATM    4  C9  UNL     1     -34.591  16.091  -2.879  1.00 20.00    -0.016 C 
HETATM    5  C3  UNL     1     -34.610  16.351  -1.371  1.00 20.00     0.010 C 
HETATM    6  C4  UNL     1     -33.655  17.087  -3.566  1.00 20.00     0.010 C 
ENDBRANCH   3   4
ENDBRANCH   1   3
BRANCH   1   7
HETATM    7  C8  UNL     1     -36.005  14.827  -5.001  1.00 20.00     0.054 C 
HETATM    8  C2  UNL     1     -37.448  14.667  -4.521  1.00 20.00     0.018 C 
BRANCH   7   9
HETATM    9  C10 UNL     1     -35.794  14.570  -6.512  1.00 20.00    -0.012 C 
HETATM   10  C5  UNL     1     -34.422  15.067  -6.976  1.00 20.00     0.010 C 
HETATM   11  C6  UNL     1     -36.889  15.174  -7.398  1.00 20.00     0.010 C 
ENDBRANCH   7   9
ENDBRANCH   1   7
TORSDOF 4
ENDMDL
MODEL 5
REMARK VINA RESULT:      -4.4      0.794      4.517
REMARK  4 active torsions:
REMARK  status: ('A' for Active; 'I' for Inactive)
REMARK    1  A    between atoms: C1_1  and  C7_7 
REMARK    2  A    between atoms: C1_1  and  C8_8 
REMARK    3  A    between atoms: C7_7  and  C9_9 
REMARK    4  A    between atoms: C8_8  and  C10_10 
ROOT
HETATM    1  C1  UNL     1     -32.583   6.322   3.091  1.00 20.00     0.131 C 
HETATM    2  O11 UNL     1     -32.239   5.221   2.660  1.00 20.00    -0.298 OA
ENDROOT
BRANCH   1   3
HETATM    3  C7  UNL     1     -33.890   6.513   3.852  1.00 20.00     0.082 C 
BRANCH   3   4
HETATM    4  C9  UNL     1     -34.025   5.591   5.072  1.00 20.00    -0.016 C 
HETATM    5  C3  UNL     1     -34.104   6.396   6.372  1.00 20.00     0.010 C 
HETATM    6  C4  UNL     1     -35.271   4.714   4.929  1.00 20.00     0.010 C 
ENDBRANCH   3   4
ENDBRANCH   1   3
BRANCH   1   7
HETATM    7  C8  UNL     1     -31.738   7.577   2.863  1.00 20.00     0.054 C 
HETATM    8  C2  UNL     1     -31.447   8.272   4.194  1.00 20.00     0.018 C 
BRANCH   7   9
HETATM    9  C10 UNL     1     -32.397   8.480   1.793  1.00 20.00    -0.012 C 
HETATM   10  C5  UNL     1     -31.553   8.539   0.516  1.00 20.00     0.010 C 
HETATM   11  C6  UNL     1     -32.692   9.901   2.284  1.00 20.00     0.010 C 
ENDBRANCH   7   9
ENDBRANCH   1   7
TORSDOF 4
ENDMDL
MODEL 6
REMARK VINA RESULT:      -4.4     10.745     12.037
REMARK  4 active torsions:
REMARK  status: ('A' for Active; 'I' for Inactive)
REMARK    1  A    between atoms: C1_1  and  C7_7 
REMARK    2  A    between atoms: C1_1  and  C8_8 
REMARK    3  A    between atoms: C7_7  and  C9_9 
REMARK    4  A    between atoms: C8_8  and  C10_10 
ROOT
HETATM    1  C1  UNL     1     -34.065  14.593  -3.862  1.00 20.00     0.131 C 
HETATM    2  O11 UNL     1     -34.279  13.473  -3.396  1.00 20.00    -0.298 OA
ENDROOT
BRANCH   1   3
HETATM    3  C7  UNL     1     -33.814  15.800  -2.965  1.00 20.00     0.082 C 
BRANCH   3   4
HETATM    4  C9  UNL     1     -35.017  16.166  -2.084  1.00 20.00    -0.016 C 
HETATM    5  C3  UNL     1     -34.568  16.662  -0.707  1.00 20.00     0.010 C 
HETATM    6  C4  UNL     1     -35.862  17.240  -2.772  1.00 20.00     0.010 C 
ENDBRANCH   3   4
ENDBRANCH   1   3
BRANCH   1   7
HETATM    7  C8  UNL     1     -34.068  14.854  -5.370  1.00 20.00     0.054 C 
HETATM    8  C2  UNL     1     -33.730  16.317  -5.658  1.00 20.00     0.018 C 
BRANCH   7   9
HETATM    9  C10 UNL     1     -35.396  14.362  -5.995  1.00 20.00    -0.012 C 
HETATM   10  C5  UNL     1     -35.346  14.417  -7.525  1.00 20.00     0.010 C 
HETATM   11  C6  UNL     1     -36.630  15.116  -5.491  1.00 20.00     0.010 C 
ENDBRANCH   7   9
ENDBRANCH   1   7
TORSDOF 4
ENDMDL
MODEL 7
REMARK VINA RESULT:      -4.4     10.471     11.656
REMARK  4 active torsions:
REMARK  status: ('A' for Active; 'I' for Inactive)
REMARK    1  A    between atoms: C1_1  and  C7_7 
REMARK    2  A    between atoms: C1_1  and  C8_8 
REMARK    3  A    between atoms: C7_7  and  C9_9 
REMARK    4  A    between atoms: C8_8  and  C10_10 
ROOT
HETATM    1  C1  UNL     1     -33.554  16.104  -3.553  1.00 20.00     0.131 C 
HETATM    2  O11 UNL     1     -32.893  16.495  -4.515  1.00 20.00    -0.298 OA
ENDROOT
BRANCH   1   3
HETATM    3  C7  UNL     1     -33.606  16.884  -2.245  1.00 20.00     0.082 C 
BRANCH   3   4
HETATM    4  C9  UNL     1     -34.942  16.741  -1.501  1.00 20.00    -0.016 C 
HETATM    5  C3  UNL     1     -34.793  17.083  -0.017  1.00 20.00     0.010 C 
HETATM    6  C4  UNL     1     -35.996  17.648  -2.140  1.00 20.00     0.010 C 
ENDBRANCH   3   4
ENDBRANCH   1   3
BRANCH   1   7
HETATM    7  C8  UNL     1     -34.341  14.792  -3.595  1.00 20.00     0.054 C 
HETATM    8  C2  UNL     1     -33.390  13.605  -3.760  1.00 20.00     0.018 C 
BRANCH   7   9
HETATM    9  C10 UNL     1     -35.463  14.874  -4.658  1.00 20.00    -0.012 C 
HETATM   10  C5  UNL     1     -36.818  14.469  -4.070  1.00 20.00     0.010 C 
HETATM   11  C6  UNL     1     -35.179  14.050  -5.917  1.00 20.00     0.010 C 
ENDBRANCH   7   9
ENDBRANCH   1   7
TORSDOF 4
ENDMDL
MODEL 8
REMARK VINA RESULT:      -4.4     10.725     11.955
REMARK  4 active torsions:
REMARK  status: ('A' for Active; 'I' for Inactive)
REMARK    1  A    between atoms: C1_1  and  C7_7 
REMARK    2  A    between atoms: C1_1  and  C8_8 
REMARK    3  A    between atoms: C7_7  and  C9_9 
REMARK    4  A    between atoms: C8_8  and  C10_10 
ROOT
HETATM    1  C1  UNL     1     -34.791  13.798  -4.855  1.00 20.00     0.131 C 
HETATM    2  O11 UNL     1     -34.972  12.693  -4.343  1.00 20.00    -0.298 OA
ENDROOT
BRANCH   1   3
HETATM    3  C7  UNL     1     -35.021  14.040  -6.343  1.00 20.00     0.082 C 
BRANCH   3   4
HETATM    4  C9  UNL     1     -35.635  15.413  -6.650  1.00 20.00    -0.016 C 
HETATM    5  C3  UNL     1     -34.718  16.244  -7.551  1.00 20.00     0.010 C 
HETATM    6  C4  UNL     1     -37.000  15.239  -7.318  1.00 20.00     0.010 C 
ENDBRANCH   3   4
ENDBRANCH   1   3
BRANCH   1   7
HETATM    7  C8  UNL     1     -34.295  14.994  -4.039  1.00 20.00     0.054 C 
HETATM    8  C2  UNL     1     -32.813  14.826  -3.697  1.00 20.00     0.018 C 
BRANCH   7   9
HETATM    9  C10 UNL     1     -35.217  15.230  -2.819  1.00 20.00    -0.012 C 
HETATM   10  C5  UNL     1     -36.607  15.703  -3.255  1.00 20.00     0.010 C 
HETATM   11  C6  UNL     1     -34.638  16.205  -1.790  1.00 20.00     0.010 C 
ENDBRANCH   7   9
ENDBRANCH   1   7
TORSDOF 4
ENDMDL
MODEL 9
REMARK VINA RESULT:      -4.4     10.761     12.423
REMARK  4 active torsions:
REMARK  status: ('A' for Active; 'I' for Inactive)
REMARK    1  A    between atoms: C1_1  and  C7_7 
REMARK    2  A    between atoms: C1_1  and  C8_8 
REMARK    3  A    between atoms: C7_7  and  C9_9 
REMARK    4  A    between atoms: C8_8  and  C10_10 
ROOT
HETATM    1  C1  UNL     1     -35.324  13.919  -4.703  1.00 20.00     0.131 C 
HETATM    2  O11 UNL     1     -34.820  12.803  -4.573  1.00 20.00    -0.298 OA
ENDROOT
BRANCH   1   3
HETATM    3  C7  UNL     1     -35.594  14.822  -3.505  1.00 20.00     0.082 C 
BRANCH   3   4
HETATM    4  C9  UNL     1     -34.316  15.304  -2.805  1.00 20.00    -0.016 C 
HETATM    5  C3  UNL     1     -33.390  16.037  -3.778  1.00 20.00     0.010 C 
HETATM    6  C4  UNL     1     -34.675  16.225  -1.637  1.00 20.00     0.010 C 
ENDBRANCH   3   4
ENDBRANCH   1   3
BRANCH   1   7
HETATM    7  C8  UNL     1     -35.742  14.461  -6.072  1.00 20.00     0.054 C 
HETATM    8  C2  UNL     1     -34.511  14.711  -6.944  1.00 20.00     0.018 C 
BRANCH   7   9
HETATM    9  C10 UNL     1     -36.673  15.685  -5.902  1.00 20.00    -0.012 C 
HETATM   10  C5  UNL     1     -38.051  15.427  -6.519  1.00 20.00     0.010 C 
HETATM   11  C6  UNL     1     -36.090  16.985  -6.466  1.00 20.00     0.010 C 
ENDBRANCH   7   9
ENDBRANCH   1   7
TORSDOF 4
ENDMDL
