MODEL 1
REMARK VINA RESULT:      -5.0      0.000      0.000
REMARK  1 active torsions:
REMARK  status: ('A' for Active; 'I' for Inactive)
REMARK    1  A    between atoms: C8_8  and  O9_9 
ROOT
HETATM    1  C1  UNL     1     -34.973  14.526  -6.884  1.00 20.00     0.015 C 
HETATM    2  C2  UNL     1     -34.946  14.222  -5.724  1.00 20.00    -0.079 C 
HETATM    3  C3  UNL     1     -33.747  16.134  -2.783  1.00 20.00     0.000 C 
HETATM    4  C4  UNL     1     -32.863  15.223  -3.630  1.00 20.00     0.004 C 
HETATM    5  C5  UNL     1     -35.173  16.198  -3.321  1.00 20.00     0.004 C 
HETATM    6  C6  UNL     1     -33.468  13.827  -3.775  1.00 20.00     0.051 C 
HETATM    7  C7  UNL     1     -35.784  14.804  -3.466  1.00 20.00     0.051 C 
HETATM    8  C8  UNL     1     -34.913  13.850  -4.298  1.00 20.00     0.120 C 
ENDROOT
BRANCH   8   9
HETATM    9  O9  UNL     1     -35.455  12.532  -4.188  1.00 20.00    -0.378 OA
HETATM   10  H21 UNL     1     -35.017  12.000  -4.868  1.00 20.00     0.211 HD
ENDBRANCH   8   9
TORSDOF 1
ENDMDL
MODEL 2
REMARK VINA RESULT:      -4.7      1.775      3.418
REMARK  1 active torsions:
REMARK  status: ('A' for Active; 'I' for Inactive)
REMARK    1  A    between atoms: C8_8  and  O9_9 
ROOT
HETATM    1  C1  UNL     1     -34.077  16.508  -1.827  1.00 20.00     0.015 C 
HETATM    2  C2  UNL     1     -33.701  15.894  -2.787  1.00 20.00    -0.079 C 
HETATM    3  C3  UNL     1     -35.637  14.400  -5.572  1.00 20.00     0.000 C 
HETATM    4  C4  UNL     1     -35.312  13.674  -4.270  1.00 20.00     0.004 C 
HETATM    5  C5  UNL     1     -35.108  15.831  -5.570  1.00 20.00     0.004 C 
HETATM    6  C6  UNL     1     -33.816  13.715  -3.961  1.00 20.00     0.051 C 
HETATM    7  C7  UNL     1     -33.611  15.878  -5.263  1.00 20.00     0.051 C 
HETATM    8  C8  UNL     1     -33.240  15.140  -3.967  1.00 20.00     0.120 C 
ENDROOT
BRANCH   8   9
HETATM    9  O9  UNL     1     -31.816  15.053  -3.888  1.00 20.00    -0.378 OA
HETATM   10  H21 UNL     1     -31.540  15.697  -3.220  1.00 20.00     0.211 HD
ENDBRANCH   8   9
TORSDOF 1
ENDMDL
MODEL 3
REMARK VINA RESULT:      -4.7      1.124      2.217
REMARK  1 active torsions:
REMARK  status: ('A' for Active; 'I' for Inactive)
REMARK    1  A    between atoms: C8_8  and  O9_9 
ROOT
HETATM    1  C1  UNL     1     -37.497  14.943  -3.810  1.00 20.00     0.015 C 
HETATM    2  C2  UNL     1     -36.404  14.503  -4.039  1.00 20.00    -0.079 C 
HETATM    3  C3  UNL     1     -33.251  16.261  -4.880  1.00 20.00     0.000 C 
HETATM    4  C4  UNL     1     -34.276  15.803  -5.913  1.00 20.00     0.004 C 
HETATM    5  C5  UNL     1     -33.703  15.950  -3.456  1.00 20.00     0.004 C 
HETATM    6  C6  UNL     1     -34.618  14.322  -5.748  1.00 20.00     0.051 C 
HETATM    7  C7  UNL     1     -34.044  14.469  -3.285  1.00 20.00     0.051 C 
HETATM    8  C8  UNL     1     -35.061  13.964  -4.320  1.00 20.00     0.120 C 
ENDROOT
BRANCH   8   9
HETATM    9  O9  UNL     1     -35.142  12.541  -4.216  1.00 20.00    -0.378 OA
HETATM   10  H21 UNL     1     -35.912  12.272  -4.739  1.00 20.00     0.211 HD
ENDBRANCH   8   9
TORSDOF 1
ENDMDL
MODEL 4
REMARK VINA RESULT:      -4.4      2.137      3.552
REMARK  1 active torsions:
REMARK  status: ('A' for Active; 'I' for Inactive)
REMARK    1  A    between atoms: C8_8  and  O9_9 
ROOT
HETATM    1  C1  UNL     1     -34.503  16.565  -0.970  1.00 20.00     0.015 C 
HETATM    2  C2  UNL     1     -34.312  16.418  -2.146  1.00 20.00    -0.079 C 
HETATM    3  C3  UNL     1     -34.835  13.446  -4.298  1.00 20.00     0.000 C 
HETATM    4  C4  UNL     1     -33.542  13.739  -3.543  1.00 20.00     0.004 C 
HETATM    5  C5  UNL     1     -35.903  14.501  -4.023  1.00 20.00     0.004 C 
HETATM    6  C6  UNL     1     -33.024  15.146  -3.838  1.00 20.00     0.051 C 
HETATM    7  C7  UNL     1     -35.390  15.911  -4.318  1.00 20.00     0.051 C 
HETATM    8  C8  UNL     1     -34.077  16.238  -3.590  1.00 20.00     0.120 C 
ENDROOT
BRANCH   8   9
HETATM    9  O9  UNL     1     -33.574  17.475  -4.098  1.00 20.00    -0.378 OA
HETATM   10  H21 UNL     1     -32.725  17.626  -3.659  1.00 20.00     0.211 HD
ENDBRANCH   8   9
TORSDOF 1
ENDMDL
MODEL 5
REMARK VINA RESULT:      -4.4     11.774     12.824
REMARK  1 active torsions:
REMARK  status: ('A' for Active; 'I' for Inactive)
REMARK    1  A    between atoms: C8_8  and  O9_9 
ROOT
HETATM    1  C1  UNL     1     -31.932   5.830   3.083  1.00 20.00     0.015 C 
HETATM    2  C2  UNL     1     -32.978   6.108   3.601  1.00 20.00    -0.079 C 
HETATM    3  C3  UNL     1     -35.008   4.209   6.052  1.00 20.00     0.000 C 
HETATM    4  C4  UNL     1     -35.142   4.068   4.539  1.00 20.00     0.004 C 
HETATM    5  C5  UNL     1     -33.906   5.193   6.434  1.00 20.00     0.004 C 
HETATM    6  C6  UNL     1     -35.345   5.423   3.862  1.00 20.00     0.051 C 
HETATM    7  C7  UNL     1     -34.106   6.552   5.761  1.00 20.00     0.051 C 
HETATM    8  C8  UNL     1     -34.264   6.449   4.237  1.00 20.00     0.120 C 
ENDROOT
BRANCH   8   9
HETATM    9  O9  UNL     1     -34.661   7.728   3.737  1.00 20.00    -0.378 OA
HETATM   10  H21 UNL     1     -35.630   7.729   3.732  1.00 20.00     0.211 HD
ENDBRANCH   8   9
TORSDOF 1
ENDMDL
MODEL 6
REMARK VINA RESULT:      -4.4      2.037      3.623
REMARK  1 active torsions:
REMARK  status: ('A' for Active; 'I' for Inactive)
REMARK    1  A    between atoms: C8_8  and  O9_9 
ROOT
HETATM    1  C1  UNL     1     -34.553  16.875  -0.529  1.00 20.00     0.015 C 
HETATM    2  C2  UNL     1     -34.899  16.430  -1.588  1.00 20.00    -0.079 C 
HETATM    3  C3  UNL     1     -33.051  16.173  -4.790  1.00 20.00     0.000 C 
HETATM    4  C4  UNL     1     -33.886  17.382  -4.379  1.00 20.00     0.004 C 
HETATM    5  C5  UNL     1     -33.031  15.103  -3.703  1.00 20.00     0.004 C 
HETATM    6  C6  UNL     1     -35.302  16.976  -3.972  1.00 20.00     0.051 C 
HETATM    7  C7  UNL     1     -34.445  14.691  -3.293  1.00 20.00     0.051 C 
HETATM    8  C8  UNL     1     -35.325  15.884  -2.890  1.00 20.00     0.120 C 
ENDROOT
BRANCH   8   9
HETATM    9  O9  UNL     1     -36.670  15.424  -2.740  1.00 20.00    -0.378 OA
HETATM   10  H21 UNL     1     -36.944  15.097  -3.609  1.00 20.00     0.211 HD
ENDBRANCH   8   9
TORSDOF 1
ENDMDL
MODEL 7
REMARK VINA RESULT:      -4.3      1.046      2.846
REMARK  1 active torsions:
REMARK  status: ('A' for Active; 'I' for Inactive)
REMARK    1  A    between atoms: C8_8  and  O9_9 
ROOT
HETATM    1  C1  UNL     1     -32.603  14.407  -3.506  1.00 20.00     0.015 C 
HETATM    2  C2  UNL     1     -33.698  14.166  -3.933  1.00 20.00    -0.079 C 
HETATM    3  C3  UNL     1     -36.089  16.344  -5.742  1.00 20.00     0.000 C 
HETATM    4  C4  UNL     1     -36.030  16.216  -4.223  1.00 20.00     0.004 C 
HETATM    5  C5  UNL     1     -35.015  15.502  -6.424  1.00 20.00     0.004 C 
HETATM    6  C6  UNL     1     -36.100  14.755  -3.778  1.00 20.00     0.051 C 
HETATM    7  C7  UNL     1     -35.082  14.040  -5.984  1.00 20.00     0.051 C 
HETATM    8  C8  UNL     1     -35.043  13.870  -4.457  1.00 20.00     0.120 C 
ENDROOT
BRANCH   8   9
HETATM    9  O9  UNL     1     -35.331  12.504  -4.148  1.00 20.00    -0.378 OA
HETATM   10  H21 UNL     1     -36.189  12.308  -4.553  1.00 20.00     0.211 HD
ENDBRANCH   8   9
TORSDOF 1
ENDMDL
MODEL 8
REMARK VINA RESULT:      -4.3      1.634      2.335
REMARK  1 active torsions:
REMARK  status: ('A' for Active; 'I' for Inactive)
REMARK    1  A    between atoms: C8_8  and  O9_9 
ROOT
HETATM    1  C1  UNL     1     -36.194  16.679  -5.749  1.00 20.00     0.015 C 
HETATM    2  C2  UNL     1     -36.079  15.936  -4.814  1.00 20.00    -0.079 C 
HETATM    3  C3  UNL     1     -33.177  13.910  -3.715  1.00 20.00     0.000 C 
HETATM    4  C4  UNL     1     -34.236  13.424  -4.700  1.00 20.00     0.004 C 
HETATM    5  C5  UNL     1     -33.432  15.347  -3.273  1.00 20.00     0.004 C 
HETATM    6  C6  UNL     1     -35.647  13.591  -4.138  1.00 20.00     0.051 C 
HETATM    7  C7  UNL     1     -34.843  15.520  -2.707  1.00 20.00     0.051 C 
HETATM    8  C8  UNL     1     -35.938  15.024  -3.664  1.00 20.00     0.120 C 
ENDROOT
BRANCH   8   9
HETATM    9  O9  UNL     1     -37.183  15.024  -2.963  1.00 20.00    -0.378 OA
HETATM   10  H21 UNL     1     -37.349  15.942  -2.701  1.00 20.00     0.211 HD
ENDBRANCH   8   9
TORSDOF 1
ENDMDL
MODEL 9
REMARK VINA RESULT:      -4.2     11.240     12.322
REMARK  1 active torsions:
REMARK  status: ('A' for Active; 'I' for Inactive)
REMARK    1  A    between atoms: C8_8  and  O9_9 
ROOT
HETATM    1  C1  UNL     1     -43.308   4.460   0.814  1.00 20.00     0.015 C 
HETATM    2  C2  UNL     1     -42.492   4.699  -0.032  1.00 20.00    -0.079 C 
HETATM    3  C3  UNL     1     -42.308   7.507  -2.445  1.00 20.00     0.000 C 
HETATM    4  C4  UNL     1     -43.038   6.194  -2.714  1.00 20.00     0.004 C 
HETATM    5  C5  UNL     1     -41.702   7.541  -1.045  1.00 20.00     0.004 C 
HETATM    6  C6  UNL     1     -42.134   4.987  -2.468  1.00 20.00     0.051 C 
HETATM    7  C7  UNL     1     -40.795   6.336  -0.794  1.00 20.00     0.051 C 
HETATM    8  C8  UNL     1     -41.490   4.994  -1.072  1.00 20.00     0.120 C 
ENDROOT
BRANCH   8   9
HETATM    9  O9  UNL     1     -40.506   3.958  -1.023  1.00 20.00    -0.378 OA
HETATM   10  H21 UNL     1     -40.676   3.460  -0.211  1.00 20.00     0.211 HD
ENDBRANCH   8   9
TORSDOF 1
ENDMDL
