MODEL 1
REMARK VINA RESULT:      -4.8      0.000      0.000
REMARK  0 active torsions:
REMARK  status: ('A' for Active; 'I' for Inactive)
ROOT
HETATM    1  C1  UNL     1     -34.630  13.658  -4.633  1.00 20.00     0.128 C 
HETATM    2  C2  UNL     1     -34.047  14.380  -3.440  1.00 20.00     0.087 C 
HETATM    3  C3  UNL     1     -34.471  14.342  -5.970  1.00 20.00     0.087 C 
HETATM    4  C4  UNL     1     -34.529  16.540  -4.693  1.00 20.00     0.018 C 
HETATM    5  C5  UNL     1     -34.601  15.810  -3.324  1.00 20.00    -0.041 C 
HETATM    6  C6  UNL     1     -35.039  15.771  -5.941  1.00 20.00    -0.041 C 
HETATM    7  C7  UNL     1     -36.030  15.781  -2.752  1.00 20.00     0.015 C 
HETATM    8  C8  UNL     1     -33.728  16.593  -2.318  1.00 20.00     0.015 C 
HETATM    9  C9  UNL     1     -36.577  15.733  -6.015  1.00 20.00     0.015 C 
HETATM   10  C10 UNL     1     -34.547  16.520  -7.199  1.00 20.00     0.015 C 
HETATM   11  O11 UNL     1     -35.132  12.540  -4.531  1.00 20.00    -0.298 OA
ENDROOT
TORSDOF 0
ENDMDL
MODEL 2
REMARK VINA RESULT:      -4.8      0.996      3.316
REMARK  0 active torsions:
REMARK  status: ('A' for Active; 'I' for Inactive)
ROOT
HETATM    1  C1  UNL     1     -35.182  13.681  -4.586  1.00 20.00     0.128 C 
HETATM    2  C2  UNL     1     -35.976  14.544  -5.540  1.00 20.00     0.087 C 
HETATM    3  C3  UNL     1     -34.863  14.292  -3.242  1.00 20.00     0.087 C 
HETATM    4  C4  UNL     1     -34.876  16.545  -4.421  1.00 20.00     0.018 C 
HETATM    5  C5  UNL     1     -35.292  15.901  -5.772  1.00 20.00    -0.041 C 
HETATM    6  C6  UNL     1     -34.141  15.641  -3.395  1.00 20.00    -0.041 C 
HETATM    7  C7  UNL     1     -34.100  15.738  -6.733  1.00 20.00     0.015 C 
HETATM    8  C8  UNL     1     -36.301  16.846  -6.461  1.00 20.00     0.015 C 
HETATM    9  C9  UNL     1     -32.664  15.415  -3.769  1.00 20.00     0.015 C 
HETATM   10  C10 UNL     1     -34.153  16.362  -2.028  1.00 20.00     0.015 C 
HETATM   11  O11 UNL     1     -34.882  12.520  -4.859  1.00 20.00    -0.298 OA
ENDROOT
TORSDOF 0
ENDMDL
MODEL 3
REMARK VINA RESULT:      -4.7      1.367      1.748
REMARK  0 active torsions:
REMARK  status: ('A' for Active; 'I' for Inactive)
ROOT
HETATM    1  C1  UNL     1     -36.262  14.341  -4.373  1.00 20.00     0.128 C 
HETATM    2  C2  UNL     1     -34.933  13.886  -3.814  1.00 20.00     0.087 C 
HETATM    3  C3  UNL     1     -36.223  15.002  -5.731  1.00 20.00     0.087 C 
HETATM    4  C4  UNL     1     -33.890  15.805  -5.116  1.00 20.00     0.018 C 
HETATM    5  C5  UNL     1     -33.920  15.042  -3.764  1.00 20.00    -0.041 C 
HETATM    6  C6  UNL     1     -35.254  16.196  -5.747  1.00 20.00    -0.041 C 
HETATM    7  C7  UNL     1     -34.231  15.971  -2.576  1.00 20.00     0.015 C 
HETATM    8  C8  UNL     1     -32.514  14.450  -3.518  1.00 20.00     0.015 C 
HETATM    9  C9  UNL     1     -35.893  17.410  -5.048  1.00 20.00     0.015 C 
HETATM   10  C10 UNL     1     -35.002  16.603  -7.216  1.00 20.00     0.015 C 
HETATM   11  O11 UNL     1     -37.322  14.113  -3.792  1.00 20.00    -0.298 OA
ENDROOT
TORSDOF 0
ENDMDL
MODEL 4
REMARK VINA RESULT:      -4.7      1.280      3.582
REMARK  0 active torsions:
REMARK  status: ('A' for Active; 'I' for Inactive)
ROOT
HETATM    1  C1  UNL     1     -36.990  14.968  -4.127  1.00 20.00     0.128 C 
HETATM    2  C2  UNL     1     -36.921  15.679  -5.460  1.00 20.00     0.087 C 
HETATM    3  C3  UNL     1     -35.998  15.417  -3.081  1.00 20.00     0.087 C 
HETATM    4  C4  UNL     1     -34.439  15.988  -5.007  1.00 20.00     0.018 C 
HETATM    5  C5  UNL     1     -35.509  15.604  -6.064  1.00 20.00    -0.041 C 
HETATM    6  C6  UNL     1     -34.554  15.334  -3.604  1.00 20.00    -0.041 C 
HETATM    7  C7  UNL     1     -35.262  14.209  -6.667  1.00 20.00     0.015 C 
HETATM    8  C8  UNL     1     -35.420  16.620  -7.225  1.00 20.00     0.015 C 
HETATM    9  C9  UNL     1     -34.070  13.872  -3.599  1.00 20.00     0.015 C 
HETATM   10  C10 UNL     1     -33.636  16.115  -2.636  1.00 20.00     0.015 C 
HETATM   11  O11 UNL     1     -37.856  14.130  -3.884  1.00 20.00    -0.298 OA
ENDROOT
TORSDOF 0
ENDMDL
MODEL 5
REMARK VINA RESULT:      -4.6      2.052      3.963
REMARK  0 active torsions:
REMARK  status: ('A' for Active; 'I' for Inactive)
ROOT
HETATM    1  C1  UNL     1     -33.655  16.914  -5.415  1.00 20.00     0.128 C 
HETATM    2  C2  UNL     1     -34.206  16.390  -6.722  1.00 20.00     0.087 C 
HETATM    3  C3  UNL     1     -33.008  15.895  -4.508  1.00 20.00     0.087 C 
HETATM    4  C4  UNL     1     -34.614  14.195  -5.506  1.00 20.00     0.018 C 
HETATM    5  C5  UNL     1     -35.201  15.241  -6.492  1.00 20.00    -0.041 C 
HETATM    6  C6  UNL     1     -33.962  14.729  -4.202  1.00 20.00    -0.041 C 
HETATM    7  C7  UNL     1     -36.555  15.799  -6.013  1.00 20.00     0.015 C 
HETATM    8  C8  UNL     1     -35.455  14.536  -7.842  1.00 20.00     0.015 C 
HETATM    9  C9  UNL     1     -35.010  15.158  -3.159  1.00 20.00     0.015 C 
HETATM   10  C10 UNL     1     -33.144  13.579  -3.572  1.00 20.00     0.015 C 
HETATM   11  O11 UNL     1     -33.663  18.114  -5.143  1.00 20.00    -0.298 OA
ENDROOT
TORSDOF 0
ENDMDL
MODEL 6
REMARK VINA RESULT:      -4.6      1.104      3.087
REMARK  0 active torsions:
REMARK  status: ('A' for Active; 'I' for Inactive)
ROOT
HETATM    1  C1  UNL     1     -34.744  13.780  -4.941  1.00 20.00     0.128 C 
HETATM    2  C2  UNL     1     -34.467  14.609  -6.174  1.00 20.00     0.087 C 
HETATM    3  C3  UNL     1     -36.043  14.064  -4.225  1.00 20.00     0.087 C 
HETATM    4  C4  UNL     1     -35.820  16.453  -5.066  1.00 20.00     0.018 C 
HETATM    5  C5  UNL     1     -34.534  16.114  -5.867  1.00 20.00    -0.041 C 
HETATM    6  C6  UNL     1     -36.165  15.551  -3.851  1.00 20.00    -0.041 C 
HETATM    7  C7  UNL     1     -33.255  16.564  -5.136  1.00 20.00     0.015 C 
HETATM    8  C8  UNL     1     -34.586  16.885  -7.204  1.00 20.00     0.015 C 
HETATM    9  C9  UNL     1     -35.290  15.863  -2.623  1.00 20.00     0.015 C 
HETATM   10  C10 UNL     1     -37.628  15.836  -3.444  1.00 20.00     0.015 C 
HETATM   11  O11 UNL     1     -33.994  12.872  -4.588  1.00 20.00    -0.298 OA
ENDROOT
TORSDOF 0
ENDMDL
MODEL 7
REMARK VINA RESULT:      -4.6      2.307      4.014
REMARK  0 active torsions:
REMARK  status: ('A' for Active; 'I' for Inactive)
ROOT
HETATM    1  C1  UNL     1     -33.533  17.349  -4.208  1.00 20.00     0.128 C 
HETATM    2  C2  UNL     1     -33.365  15.908  -4.632  1.00 20.00     0.087 C 
HETATM    3  C3  UNL     1     -33.682  17.595  -2.725  1.00 20.00     0.087 C 
HETATM    4  C4  UNL     1     -34.758  15.296  -2.595  1.00 20.00     0.018 C 
HETATM    5  C5  UNL     1     -34.513  15.031  -4.105  1.00 20.00    -0.041 C 
HETATM    6  C6  UNL     1     -34.840  16.776  -2.133  1.00 20.00    -0.041 C 
HETATM    7  C7  UNL     1     -35.781  15.251  -4.951  1.00 20.00     0.015 C 
HETATM    8  C8  UNL     1     -34.111  13.548  -4.271  1.00 20.00     0.015 C 
HETATM    9  C9  UNL     1     -36.189  17.426  -2.491  1.00 20.00     0.015 C 
HETATM   10  C10 UNL     1     -34.723  16.803  -0.593  1.00 20.00     0.015 C 
HETATM   11  O11 UNL     1     -33.471  18.274  -5.016  1.00 20.00    -0.298 OA
ENDROOT
TORSDOF 0
ENDMDL
MODEL 8
REMARK VINA RESULT:      -4.5      1.253      3.367
REMARK  0 active torsions:
REMARK  status: ('A' for Active; 'I' for Inactive)
ROOT
HETATM    1  C1  UNL     1     -34.193  13.908  -4.023  1.00 20.00     0.128 C 
HETATM    2  C2  UNL     1     -35.032  13.715  -5.265  1.00 20.00     0.087 C 
HETATM    3  C3  UNL     1     -34.719  14.898  -3.010  1.00 20.00     0.087 C 
HETATM    4  C4  UNL     1     -35.770  16.130  -4.970  1.00 20.00     0.018 C 
HETATM    5  C5  UNL     1     -35.294  15.051  -5.980  1.00 20.00    -0.041 C 
HETATM    6  C6  UNL     1     -34.970  16.274  -3.648  1.00 20.00    -0.041 C 
HETATM    7  C7  UNL     1     -34.040  15.492  -6.758  1.00 20.00     0.015 C 
HETATM    8  C8  UNL     1     -36.418  14.838  -7.018  1.00 20.00     0.015 C 
HETATM    9  C9  UNL     1     -33.637  17.018  -3.850  1.00 20.00     0.015 C 
HETATM   10  C10 UNL     1     -35.813  17.122  -2.669  1.00 20.00     0.015 C 
HETATM   11  O11 UNL     1     -33.182  13.240  -3.813  1.00 20.00    -0.298 OA
ENDROOT
TORSDOF 0
ENDMDL
MODEL 9
REMARK VINA RESULT:      -4.4      1.558      3.438
REMARK  0 active torsions:
REMARK  status: ('A' for Active; 'I' for Inactive)
ROOT
HETATM    1  C1  UNL     1     -37.093  15.027  -4.208  1.00 20.00     0.128 C 
HETATM    2  C2  UNL     1     -36.461  14.736  -5.550  1.00 20.00     0.087 C 
HETATM    3  C3  UNL     1     -36.765  16.366  -3.593  1.00 20.00     0.087 C 
HETATM    4  C4  UNL     1     -34.535  16.218  -4.805  1.00 20.00     0.018 C 
HETATM    5  C5  UNL     1     -34.932  14.885  -5.495  1.00 20.00    -0.041 C 
HETATM    6  C6  UNL     1     -35.246  16.572  -3.471  1.00 20.00    -0.041 C 
HETATM    7  C7  UNL     1     -34.303  13.660  -4.805  1.00 20.00     0.015 C 
HETATM    8  C8  UNL     1     -34.391  14.916  -6.941  1.00 20.00     0.015 C 
HETATM    9  C9  UNL     1     -34.693  15.764  -2.282  1.00 20.00     0.015 C 
HETATM   10  C10 UNL     1     -34.976  18.063  -3.166  1.00 20.00     0.015 C 
HETATM   11  O11 UNL     1     -37.891  14.251  -3.685  1.00 20.00    -0.298 OA
ENDROOT
TORSDOF 0
ENDMDL
