MODEL 1
REMARK VINA RESULT:      -3.3      0.000      0.000
REMARK  3 active torsions:
REMARK  status: ('A' for Active; 'I' for Inactive)
REMARK    1  A    between atoms: C3_3  and  C4_4 
REMARK    2  A    between atoms: C3_3  and  S7_7 
REMARK    3  A    between atoms: C4_4  and  S8_8 
ROOT
HETATM    1  C1  UNL     1     -34.108  13.618  -4.159  1.00 20.00     0.133 C 
HETATM    2  N5  UNL     1     -34.893  12.820  -4.465  1.00 20.00    -0.184 NA
HETATM    3  S7  UNL     1     -32.956  14.771  -3.714  1.00 20.00    -0.050 SA
ENDROOT
BRANCH   3   4
HETATM    4  C3  UNL     1     -34.045  16.226  -3.666  1.00 20.00     0.101 C 
BRANCH   4   5
HETATM    5  C4  UNL     1     -35.167  16.008  -2.660  1.00 20.00     0.101 C 
BRANCH   5   6
HETATM    6  S8  UNL     1     -36.720  16.710  -3.292  1.00 20.00    -0.050 SA
HETATM    7  C2  UNL     1     -37.546  15.263  -3.576  1.00 20.00     0.133 C 
HETATM    8  N6  UNL     1     -38.119  14.275  -3.773  1.00 20.00    -0.184 NA
ENDBRANCH   5   6
ENDBRANCH   4   5
ENDBRANCH   3   4
TORSDOF 3
ENDMDL
MODEL 2
REMARK VINA RESULT:      -3.3      0.535      3.429
REMARK  3 active torsions:
REMARK  status: ('A' for Active; 'I' for Inactive)
REMARK    1  A    between atoms: C3_3  and  C4_4 
REMARK    2  A    between atoms: C3_3  and  S7_7 
REMARK    3  A    between atoms: C4_4  and  S8_8 
ROOT
HETATM    1  C1  UNL     1     -37.561  15.326  -3.601  1.00 20.00     0.133 C 
HETATM    2  N5  UNL     1     -38.042  14.280  -3.743  1.00 20.00    -0.184 NA
HETATM    3  S7  UNL     1     -36.870  16.854  -3.389  1.00 20.00    -0.050 SA
ENDROOT
BRANCH   3   4
HETATM    4  C3  UNL     1     -35.238  16.507  -4.112  1.00 20.00     0.101 C 
BRANCH   4   5
HETATM    5  C4  UNL     1     -34.265  16.073  -3.024  1.00 20.00     0.101 C 
BRANCH   5   6
HETATM    6  S8  UNL     1     -33.076  14.871  -3.692  1.00 20.00    -0.050 SA
HETATM    7  C2  UNL     1     -34.168  13.648  -4.104  1.00 20.00     0.133 C 
HETATM    8  N6  UNL     1     -34.911  12.805  -4.390  1.00 20.00    -0.184 NA
ENDBRANCH   5   6
ENDBRANCH   4   5
ENDBRANCH   3   4
TORSDOF 3
ENDMDL
MODEL 3
REMARK VINA RESULT:      -3.2      1.693      1.730
REMARK  3 active torsions:
REMARK  status: ('A' for Active; 'I' for Inactive)
REMARK    1  A    between atoms: C3_3  and  C4_4 
REMARK    2  A    between atoms: C3_3  and  S7_7 
REMARK    3  A    between atoms: C4_4  and  S8_8 
ROOT
HETATM    1  C1  UNL     1     -34.833  13.578  -5.320  1.00 20.00     0.133 C 
HETATM    2  N5  UNL     1     -34.907  12.774  -4.487  1.00 20.00    -0.184 NA
HETATM    3  S7  UNL     1     -34.717  14.741  -6.541  1.00 20.00    -0.050 SA
ENDROOT
BRANCH   3   4
HETATM    4  C3  UNL     1     -35.805  15.999  -5.809  1.00 20.00     0.101 C 
BRANCH   4   5
HETATM    5  C4  UNL     1     -35.321  16.363  -4.412  1.00 20.00     0.101 C 
BRANCH   5   6
HETATM    6  S8  UNL     1     -36.738  16.700  -3.326  1.00 20.00    -0.050 SA
HETATM    7  C2  UNL     1     -37.598  15.270  -3.592  1.00 20.00     0.133 C 
HETATM    8  N6  UNL     1     -38.193  14.291  -3.770  1.00 20.00    -0.184 NA
ENDBRANCH   5   6
ENDBRANCH   4   5
ENDBRANCH   3   4
TORSDOF 3
ENDMDL
MODEL 4
REMARK VINA RESULT:      -3.2      2.357      3.218
REMARK  3 active torsions:
REMARK  status: ('A' for Active; 'I' for Inactive)
REMARK    1  A    between atoms: C3_3  and  C4_4 
REMARK    2  A    between atoms: C3_3  and  S7_7 
REMARK    3  A    between atoms: C4_4  and  S8_8 
ROOT
HETATM    1  C1  UNL     1     -36.410  14.105  -4.255  1.00 20.00     0.133 C 
HETATM    2  N5  UNL     1     -37.438  14.351  -3.778  1.00 20.00    -0.184 NA
HETATM    3  S7  UNL     1     -34.918  13.744  -4.962  1.00 20.00    -0.050 SA
ENDROOT
BRANCH   3   4
HETATM    4  C3  UNL     1     -33.869  13.974  -3.495  1.00 20.00     0.101 C 
BRANCH   4   5
HETATM    5  C4  UNL     1     -32.885  15.112  -3.726  1.00 20.00     0.101 C 
BRANCH   5   6
HETATM    6  S8  UNL     1     -33.731  16.713  -3.567  1.00 20.00    -0.050 SA
HETATM    7  C2  UNL     1     -34.265  16.551  -1.972  1.00 20.00     0.133 C 
HETATM    8  N6  UNL     1     -34.635  16.447  -0.878  1.00 20.00    -0.184 NA
ENDBRANCH   5   6
ENDBRANCH   4   5
ENDBRANCH   3   4
TORSDOF 3
ENDMDL
MODEL 5
REMARK VINA RESULT:      -3.2     11.401     12.160
REMARK  3 active torsions:
REMARK  status: ('A' for Active; 'I' for Inactive)
REMARK    1  A    between atoms: C3_3  and  C4_4 
REMARK    2  A    between atoms: C3_3  and  S7_7 
REMARK    3  A    between atoms: C4_4  and  S8_8 
ROOT
HETATM    1  C1  UNL     1     -32.206   7.706   2.347  1.00 20.00     0.133 C 
HETATM    2  N5  UNL     1     -32.068   8.703   1.770  1.00 20.00    -0.184 NA
HETATM    3  S7  UNL     1     -32.394   6.250   3.184  1.00 20.00    -0.050 SA
ENDROOT
BRANCH   3   4
HETATM    4  C3  UNL     1     -34.098   6.501   3.767  1.00 20.00     0.101 C 
BRANCH   4   5
HETATM    5  C4  UNL     1     -34.822   5.165   3.860  1.00 20.00     0.101 C 
BRANCH   5   6
HETATM    6  S8  UNL     1     -34.856   4.589   5.584  1.00 20.00    -0.050 SA
HETATM    7  C2  UNL     1     -34.287   5.997   6.324  1.00 20.00     0.133 C 
HETATM    8  N6  UNL     1     -33.897   6.960   6.840  1.00 20.00    -0.184 NA
ENDBRANCH   5   6
ENDBRANCH   4   5
ENDBRANCH   3   4
TORSDOF 3
ENDMDL
MODEL 6
REMARK VINA RESULT:      -3.2      2.141      2.769
REMARK  3 active torsions:
REMARK  status: ('A' for Active; 'I' for Inactive)
REMARK    1  A    between atoms: C3_3  and  C4_4 
REMARK    2  A    between atoms: C3_3  and  S7_7 
REMARK    3  A    between atoms: C4_4  and  S8_8 
ROOT
HETATM    1  C1  UNL     1     -34.101  16.038  -2.285  1.00 20.00     0.133 C 
HETATM    2  N5  UNL     1     -34.554  16.422  -1.288  1.00 20.00    -0.184 NA
HETATM    3  S7  UNL     1     -33.437  15.491  -3.739  1.00 20.00    -0.050 SA
ENDROOT
BRANCH   3   4
HETATM    4  C3  UNL     1     -34.005  13.766  -3.656  1.00 20.00     0.101 C 
BRANCH   4   5
HETATM    5  C4  UNL     1     -34.803  13.416  -4.905  1.00 20.00     0.101 C 
BRANCH   5   6
HETATM    6  S8  UNL     1     -35.834  14.827  -5.405  1.00 20.00    -0.050 SA
HETATM    7  C2  UNL     1     -37.131  14.568  -4.353  1.00 20.00     0.133 C 
HETATM    8  N6  UNL     1     -38.025  14.397  -3.634  1.00 20.00    -0.184 NA
ENDBRANCH   5   6
ENDBRANCH   4   5
ENDBRANCH   3   4
TORSDOF 3
ENDMDL
MODEL 7
REMARK VINA RESULT:      -3.2     11.402     12.379
REMARK  3 active torsions:
REMARK  status: ('A' for Active; 'I' for Inactive)
REMARK    1  A    between atoms: C3_3  and  C4_4 
REMARK    2  A    between atoms: C3_3  and  S7_7 
REMARK    3  A    between atoms: C4_4  and  S8_8 
ROOT
HETATM    1  C1  UNL     1     -34.194   6.123   6.367  1.00 20.00     0.133 C 
HETATM    2  N5  UNL     1     -33.717   7.082   6.811  1.00 20.00    -0.184 NA
HETATM    3  S7  UNL     1     -34.891   4.720   5.732  1.00 20.00    -0.050 SA
ENDROOT
BRANCH   3   4
HETATM    4  C3  UNL     1     -34.806   5.159   3.970  1.00 20.00     0.101 C 
BRANCH   4   5
HETATM    5  C4  UNL     1     -34.112   6.504   3.798  1.00 20.00     0.101 C 
BRANCH   5   6
HETATM    6  S8  UNL     1     -32.409   6.258   3.210  1.00 20.00    -0.050 SA
HETATM    7  C2  UNL     1     -32.227   7.713   2.370  1.00 20.00     0.133 C 
HETATM    8  N6  UNL     1     -32.095   8.709   1.791  1.00 20.00    -0.184 NA
ENDBRANCH   5   6
ENDBRANCH   4   5
ENDBRANCH   3   4
TORSDOF 3
ENDMDL
MODEL 8
REMARK VINA RESULT:      -3.2      2.191      2.745
REMARK  3 active torsions:
REMARK  status: ('A' for Active; 'I' for Inactive)
REMARK    1  A    between atoms: C3_3  and  C4_4 
REMARK    2  A    between atoms: C3_3  and  S7_7 
REMARK    3  A    between atoms: C4_4  and  S8_8 
ROOT
HETATM    1  C1  UNL     1     -34.144  15.811  -6.659  1.00 20.00     0.133 C 
HETATM    2  N5  UNL     1     -34.413  15.039  -7.481  1.00 20.00    -0.184 NA
HETATM    3  S7  UNL     1     -33.758  16.947  -5.468  1.00 20.00    -0.050 SA
ENDROOT
BRANCH   3   4
HETATM    4  C3  UNL     1     -33.115  15.802  -4.211  1.00 20.00     0.101 C 
BRANCH   4   5
HETATM    5  C4  UNL     1     -33.962  15.882  -2.948  1.00 20.00     0.101 C 
BRANCH   5   6
HETATM    6  S8  UNL     1     -35.642  15.274  -3.281  1.00 20.00    -0.050 SA
HETATM    7  C2  UNL     1     -35.233  13.780  -3.958  1.00 20.00     0.133 C 
HETATM    8  N6  UNL     1     -34.961  12.754  -4.423  1.00 20.00    -0.184 NA
ENDBRANCH   5   6
ENDBRANCH   4   5
ENDBRANCH   3   4
TORSDOF 3
ENDMDL
MODEL 9
REMARK VINA RESULT:      -3.2      2.175      3.153
REMARK  3 active torsions:
REMARK  status: ('A' for Active; 'I' for Inactive)
REMARK    1  A    between atoms: C3_3  and  C4_4 
REMARK    2  A    between atoms: C3_3  and  S7_7 
REMARK    3  A    between atoms: C4_4  and  S8_8 
ROOT
HETATM    1  C1  UNL     1     -35.251  13.780  -3.960  1.00 20.00     0.133 C 
HETATM    2  N5  UNL     1     -34.967  12.752  -4.415  1.00 20.00    -0.184 NA
HETATM    3  S7  UNL     1     -35.678  15.276  -3.299  1.00 20.00    -0.050 SA
ENDROOT
BRANCH   3   4
HETATM    4  C3  UNL     1     -34.006  15.888  -2.934  1.00 20.00     0.101 C 
BRANCH   4   5
HETATM    5  C4  UNL     1     -33.126  15.783  -4.172  1.00 20.00     0.101 C 
BRANCH   5   6
HETATM    6  S8  UNL     1     -33.705  16.938  -5.451  1.00 20.00    -0.050 SA
HETATM    7  C2  UNL     1     -34.117  15.806  -6.636  1.00 20.00     0.133 C 
HETATM    8  N6  UNL     1     -34.403  15.036  -7.454  1.00 20.00    -0.184 NA
ENDBRANCH   5   6
ENDBRANCH   4   5
ENDBRANCH   3   4
TORSDOF 3
ENDMDL
