MODEL 1
REMARK VINA RESULT:      -4.3      0.000      0.000
REMARK  0 active torsions:
REMARK  status: ('A' for Active; 'I' for Inactive)
ROOT
HETATM    1  C1  UNL     1     -35.512  15.466  -3.104  1.00 20.00    -0.018 C 
HETATM    2  C2  UNL     1     -34.334  15.727  -2.513  1.00 20.00    -0.025 C 
HETATM    3  C3  UNL     1     -34.560  13.621  -4.266  1.00 20.00     0.135 C 
HETATM    4  C4  UNL     1     -33.176  13.845  -3.657  1.00 20.00     0.087 C 
HETATM    5  C5  UNL     1     -33.964  15.789  -4.801  1.00 20.00     0.025 C 
HETATM    6  C6  UNL     1     -35.222  14.972  -4.496  1.00 20.00     0.078 C 
HETATM    7  C7  UNL     1     -33.241  15.385  -3.508  1.00 20.00     0.016 C 
HETATM    8  O8  UNL     1     -35.066  12.534  -4.489  1.00 20.00    -0.297 OA
ENDROOT
TORSDOF 0
ENDMDL
MODEL 2
REMARK VINA RESULT:      -4.1      1.236      2.253
REMARK  0 active torsions:
REMARK  status: ('A' for Active; 'I' for Inactive)
ROOT
HETATM    1  C1  UNL     1     -34.574  14.593  -5.814  1.00 20.00    -0.018 C 
HETATM    2  C2  UNL     1     -33.885  15.557  -5.181  1.00 20.00    -0.025 C 
HETATM    3  C3  UNL     1     -35.944  14.266  -3.896  1.00 20.00     0.135 C 
HETATM    4  C4  UNL     1     -35.212  15.338  -3.088  1.00 20.00     0.087 C 
HETATM    5  C5  UNL     1     -33.716  13.648  -3.877  1.00 20.00     0.025 C 
HETATM    6  C6  UNL     1     -34.941  13.551  -4.791  1.00 20.00     0.078 C 
HETATM    7  C7  UNL     1     -33.806  15.173  -3.717  1.00 20.00     0.016 C 
HETATM    8  O8  UNL     1     -37.144  14.050  -3.860  1.00 20.00    -0.297 OA
ENDROOT
TORSDOF 0
ENDMDL
MODEL 3
REMARK VINA RESULT:      -4.1      0.761      2.012
REMARK  0 active torsions:
REMARK  status: ('A' for Active; 'I' for Inactive)
ROOT
HETATM    1  C1  UNL     1     -32.915  14.985  -3.718  1.00 20.00    -0.018 C 
HETATM    2  C2  UNL     1     -33.289  16.042  -4.460  1.00 20.00    -0.025 C 
HETATM    3  C3  UNL     1     -34.753  13.716  -4.541  1.00 20.00     0.135 C 
HETATM    4  C4  UNL     1     -35.266  14.866  -5.408  1.00 20.00     0.087 C 
HETATM    5  C5  UNL     1     -35.094  15.499  -3.110  1.00 20.00     0.025 C 
HETATM    6  C6  UNL     1     -34.168  14.289  -3.258  1.00 20.00     0.078 C 
HETATM    7  C7  UNL     1     -34.804  16.045  -4.516  1.00 20.00     0.016 C 
HETATM    8  O8  UNL     1     -34.770  12.536  -4.850  1.00 20.00    -0.297 OA
ENDROOT
TORSDOF 0
ENDMDL
MODEL 4
REMARK VINA RESULT:      -4.1      1.859      2.681
REMARK  0 active torsions:
REMARK  status: ('A' for Active; 'I' for Inactive)
ROOT
HETATM    1  C1  UNL     1     -34.736  15.471  -2.828  1.00 20.00    -0.018 C 
HETATM    2  C2  UNL     1     -35.571  14.674  -3.517  1.00 20.00    -0.025 C 
HETATM    3  C3  UNL     1     -33.467  15.898  -4.795  1.00 20.00     0.135 C 
HETATM    4  C4  UNL     1     -34.351  15.000  -5.661  1.00 20.00     0.087 C 
HETATM    5  C5  UNL     1     -33.437  13.812  -3.799  1.00 20.00     0.025 C 
HETATM    6  C6  UNL     1     -33.358  15.290  -3.404  1.00 20.00     0.078 C 
HETATM    7  C7  UNL     1     -34.751  13.967  -4.578  1.00 20.00     0.016 C 
HETATM    8  O8  UNL     1     -32.968  16.953  -5.151  1.00 20.00    -0.297 OA
ENDROOT
TORSDOF 0
ENDMDL
MODEL 5
REMARK VINA RESULT:      -4.0      1.872      2.683
REMARK  0 active torsions:
REMARK  status: ('A' for Active; 'I' for Inactive)
ROOT
HETATM    1  C1  UNL     1     -34.979  14.214  -5.675  1.00 20.00    -0.018 C 
HETATM    2  C2  UNL     1     -34.529  13.231  -4.877  1.00 20.00    -0.025 C 
HETATM    3  C3  UNL     1     -33.551  15.785  -4.601  1.00 20.00     0.135 C 
HETATM    4  C4  UNL     1     -32.987  14.740  -3.637  1.00 20.00     0.087 C 
HETATM    5  C5  UNL     1     -35.368  14.889  -3.490  1.00 20.00     0.025 C 
HETATM    6  C6  UNL     1     -35.019  15.479  -4.859  1.00 20.00     0.078 C 
HETATM    7  C7  UNL     1     -34.245  13.843  -3.519  1.00 20.00     0.016 C 
HETATM    8  O8  UNL     1     -32.912  16.690  -5.113  1.00 20.00    -0.297 OA
ENDROOT
TORSDOF 0
ENDMDL
MODEL 6
REMARK VINA RESULT:      -4.0      1.166      1.471
REMARK  0 active torsions:
REMARK  status: ('A' for Active; 'I' for Inactive)
ROOT
HETATM    1  C1  UNL     1     -34.806  16.027  -1.760  1.00 20.00    -0.018 C 
HETATM    2  C2  UNL     1     -33.788  16.833  -2.105  1.00 20.00    -0.025 C 
HETATM    3  C3  UNL     1     -34.193  14.472  -3.453  1.00 20.00     0.135 C 
HETATM    4  C4  UNL     1     -33.017  15.326  -3.928  1.00 20.00     0.087 C 
HETATM    5  C5  UNL     1     -35.078  16.534  -4.008  1.00 20.00     0.025 C 
HETATM    6  C6  UNL     1     -35.327  15.390  -3.020  1.00 20.00     0.078 C 
HETATM    7  C7  UNL     1     -33.608  16.721  -3.607  1.00 20.00     0.016 C 
HETATM    8  O8  UNL     1     -34.201  13.253  -3.390  1.00 20.00    -0.297 OA
ENDROOT
TORSDOF 0
ENDMDL
MODEL 7
REMARK VINA RESULT:      -4.0      0.988      2.207
REMARK  0 active torsions:
REMARK  status: ('A' for Active; 'I' for Inactive)
ROOT
HETATM    1  C1  UNL     1     -33.455  16.094  -4.579  1.00 20.00    -0.018 C 
HETATM    2  C2  UNL     1     -34.766  16.142  -4.870  1.00 20.00    -0.025 C 
HETATM    3  C3  UNL     1     -33.698  13.901  -3.689  1.00 20.00     0.135 C 
HETATM    4  C4  UNL     1     -35.201  13.865  -3.967  1.00 20.00     0.087 C 
HETATM    5  C5  UNL     1     -34.600  15.727  -2.595  1.00 20.00     0.025 C 
HETATM    6  C6  UNL     1     -33.303  15.318  -3.299  1.00 20.00     0.078 C 
HETATM    7  C7  UNL     1     -35.500  15.374  -3.788  1.00 20.00     0.016 C 
HETATM    8  O8  UNL     1     -32.935  12.956  -3.805  1.00 20.00    -0.297 OA
ENDROOT
TORSDOF 0
ENDMDL
MODEL 8
REMARK VINA RESULT:      -4.0     11.849     12.686
REMARK  0 active torsions:
REMARK  status: ('A' for Active; 'I' for Inactive)
ROOT
HETATM    1  C1  UNL     1     -33.445   6.070   3.456  1.00 20.00    -0.018 C 
HETATM    2  C2  UNL     1     -33.713   4.756   3.378  1.00 20.00    -0.025 C 
HETATM    3  C3  UNL     1     -34.219   6.129   5.705  1.00 20.00     0.135 C 
HETATM    4  C4  UNL     1     -34.570   4.641   5.711  1.00 20.00     0.087 C 
HETATM    5  C5  UNL     1     -35.695   5.809   3.955  1.00 20.00     0.025 C 
HETATM    6  C6  UNL     1     -34.503   6.698   4.322  1.00 20.00     0.078 C 
HETATM    7  C7  UNL     1     -34.949   4.493   4.216  1.00 20.00     0.016 C 
HETATM    8  O8  UNL     1     -33.746   6.747   6.645  1.00 20.00    -0.297 OA
ENDROOT
TORSDOF 0
ENDMDL
MODEL 9
REMARK VINA RESULT:      -3.9     11.961     12.764
REMARK  0 active torsions:
REMARK  status: ('A' for Active; 'I' for Inactive)
ROOT
HETATM    1  C1  UNL     1     -34.491   3.809   4.448  1.00 20.00    -0.018 C 
HETATM    2  C2  UNL     1     -34.769   4.206   5.701  1.00 20.00    -0.025 C 
HETATM    3  C3  UNL     1     -33.387   5.869   4.003  1.00 20.00     0.135 C 
HETATM    4  C4  UNL     1     -33.667   6.417   5.404  1.00 20.00     0.087 C 
HETATM    5  C5  UNL     1     -35.681   5.793   4.278  1.00 20.00     0.025 C 
HETATM    6  C6  UNL     1     -34.571   5.022   3.560  1.00 20.00     0.078 C 
HETATM    7  C7  UNL     1     -35.017   5.701   5.659  1.00 20.00     0.016 C 
HETATM    8  O8  UNL     1     -32.362   6.049   3.366  1.00 20.00    -0.297 OA
ENDROOT
TORSDOF 0
ENDMDL
