MODEL 1
REMARK VINA RESULT:      -5.1      0.000      0.000
REMARK  1 active torsions:
REMARK  status: ('A' for Active; 'I' for Inactive)
REMARK    1  A    between atoms: C6_6  and  C9_9 
ROOT
HETATM    1  C1  UNL     1     -34.746  13.671  -4.078  1.00 20.00     0.127 C 
HETATM    2  C2  UNL     1     -33.375  14.146  -3.643  1.00 20.00     0.079 C 
HETATM    3  C3  UNL     1     -35.888  14.660  -3.959  1.00 20.00     0.079 C 
HETATM    4  C4  UNL     1     -33.251  15.648  -3.867  1.00 20.00     0.012 C 
HETATM    5  C5  UNL     1     -35.599  15.647  -2.837  1.00 20.00     0.012 C 
HETATM    6  C6  UNL     1     -34.311  16.453  -3.090  1.00 20.00    -0.010 C 
HETATM    7  O10 UNL     1     -34.925  12.533  -4.507  1.00 20.00    -0.298 OA
ENDROOT
BRANCH   6   8
HETATM    8  C9  UNL     1     -33.750  16.978  -1.768  1.00 20.00    -0.019 C 
HETATM    9  C7  UNL     1     -33.456  18.473  -1.867  1.00 20.00     0.010 C 
HETATM   10  C8  UNL     1     -34.721  16.697  -0.623  1.00 20.00     0.010 C 
ENDBRANCH   6   8
TORSDOF 1
ENDMDL
MODEL 2
REMARK VINA RESULT:      -5.1     11.707     12.606
REMARK  1 active torsions:
REMARK  status: ('A' for Active; 'I' for Inactive)
REMARK    1  A    between atoms: C6_6  and  C9_9 
ROOT
HETATM    1  C1  UNL     1     -35.007   4.784   5.916  1.00 20.00     0.127 C 
HETATM    2  C2  UNL     1     -35.066   4.454   4.439  1.00 20.00     0.079 C 
HETATM    3  C3  UNL     1     -34.382   6.108   6.303  1.00 20.00     0.079 C 
HETATM    4  C4  UNL     1     -35.177   5.737   3.626  1.00 20.00     0.012 C 
HETATM    5  C5  UNL     1     -33.358   6.519   5.254  1.00 20.00     0.012 C 
HETATM    6  C6  UNL     1     -33.991   6.693   3.861  1.00 20.00    -0.010 C 
HETATM    7  O10 UNL     1     -35.445   4.009   6.766  1.00 20.00    -0.298 OA
ENDROOT
BRANCH   6   8
HETATM    8  C9  UNL     1     -32.926   6.534   2.775  1.00 20.00    -0.019 C 
HETATM    9  C7  UNL     1     -32.236   7.869   2.502  1.00 20.00     0.010 C 
HETATM   10  C8  UNL     1     -31.904   5.473   3.176  1.00 20.00     0.010 C 
ENDBRANCH   6   8
TORSDOF 1
ENDMDL
MODEL 3
REMARK VINA RESULT:      -4.8      1.077      2.158
REMARK  1 active torsions:
REMARK  status: ('A' for Active; 'I' for Inactive)
REMARK    1  A    between atoms: C6_6  and  C9_9 
ROOT
HETATM    1  C1  UNL     1     -34.698  13.619  -3.963  1.00 20.00     0.127 C 
HETATM    2  C2  UNL     1     -35.640  14.765  -3.657  1.00 20.00     0.079 C 
HETATM    3  C3  UNL     1     -33.229  13.835  -3.663  1.00 20.00     0.079 C 
HETATM    4  C4  UNL     1     -35.103  15.579  -2.487  1.00 20.00     0.012 C 
HETATM    5  C5  UNL     1     -32.896  15.317  -3.764  1.00 20.00     0.012 C 
HETATM    6  C6  UNL     1     -33.704  16.164  -2.763  1.00 20.00    -0.010 C 
HETATM    7  O10 UNL     1     -35.107  12.560  -4.437  1.00 20.00    -0.298 OA
ENDROOT
BRANCH   6   8
HETATM    8  C9  UNL     1     -33.794  17.611  -3.248  1.00 20.00    -0.019 C 
HETATM    9  C7  UNL     1     -33.643  17.678  -4.767  1.00 20.00     0.010 C 
HETATM   10  C8  UNL     1     -35.114  18.243  -2.812  1.00 20.00     0.010 C 
ENDBRANCH   6   8
TORSDOF 1
ENDMDL
MODEL 4
REMARK VINA RESULT:      -4.4      2.372      4.086
REMARK  1 active torsions:
REMARK  status: ('A' for Active; 'I' for Inactive)
REMARK    1  A    between atoms: C6_6  and  C9_9 
ROOT
HETATM    1  C1  UNL     1     -33.722  17.868  -2.991  1.00 20.00     0.127 C 
HETATM    2  C2  UNL     1     -33.714  17.136  -4.317  1.00 20.00     0.079 C 
HETATM    3  C3  UNL     1     -33.957  17.038  -1.746  1.00 20.00     0.079 C 
HETATM    4  C4  UNL     1     -33.219  15.709  -4.118  1.00 20.00     0.012 C 
HETATM    5  C5  UNL     1     -34.789  15.812  -2.095  1.00 20.00     0.012 C 
HETATM    6  C6  UNL     1     -34.090  14.911  -3.130  1.00 20.00    -0.010 C 
HETATM    7  O10 UNL     1     -33.548  19.085  -2.928  1.00 20.00    -0.298 OA
ENDROOT
BRANCH   6   8
HETATM    8  C9  UNL     1     -35.122  14.056  -3.866  1.00 20.00    -0.019 C 
HETATM    9  C7  UNL     1     -36.488  14.740  -3.860  1.00 20.00     0.010 C 
HETATM   10  C8  UNL     1     -34.667  13.778  -5.296  1.00 20.00     0.010 C 
ENDBRANCH   6   8
TORSDOF 1
ENDMDL
MODEL 5
REMARK VINA RESULT:      -4.4      1.284      1.851
REMARK  1 active torsions:
REMARK  status: ('A' for Active; 'I' for Inactive)
REMARK    1  A    between atoms: C6_6  and  C9_9 
ROOT
HETATM    1  C1  UNL     1     -34.483  13.603  -4.809  1.00 20.00     0.127 C 
HETATM    2  C2  UNL     1     -34.052  14.007  -3.415  1.00 20.00     0.079 C 
HETATM    3  C3  UNL     1     -34.499  14.685  -5.868  1.00 20.00     0.079 C 
HETATM    4  C4  UNL     1     -33.059  15.160  -3.494  1.00 20.00     0.012 C 
HETATM    5  C5  UNL     1     -34.743  16.039  -5.215  1.00 20.00     0.012 C 
HETATM    6  C6  UNL     1     -33.644  16.400  -4.198  1.00 20.00    -0.010 C 
HETATM    7  O10 UNL     1     -34.808  12.445  -5.070  1.00 20.00    -0.298 OA
ENDROOT
BRANCH   6   8
HETATM    8  C9  UNL     1     -34.176  17.415  -3.185  1.00 20.00    -0.019 C 
HETATM    9  C7  UNL     1     -33.736  17.042  -1.771  1.00 20.00     0.010 C 
HETATM   10  C8  UNL     1     -33.705  18.823  -3.540  1.00 20.00     0.010 C 
ENDBRANCH   6   8
TORSDOF 1
ENDMDL
MODEL 6
REMARK VINA RESULT:      -4.3      2.440      4.299
REMARK  1 active torsions:
REMARK  status: ('A' for Active; 'I' for Inactive)
REMARK    1  A    between atoms: C6_6  and  C9_9 
ROOT
HETATM    1  C1  UNL     1     -33.698  17.932  -2.273  1.00 20.00     0.127 C 
HETATM    2  C2  UNL     1     -34.164  16.734  -1.472  1.00 20.00     0.079 C 
HETATM    3  C3  UNL     1     -33.755  17.816  -3.782  1.00 20.00     0.079 C 
HETATM    4  C4  UNL     1     -35.236  15.978  -2.246  1.00 20.00     0.012 C 
HETATM    5  C5  UNL     1     -33.612  16.357  -4.192  1.00 20.00     0.012 C 
HETATM    6  C6  UNL     1     -34.739  15.479  -3.616  1.00 20.00    -0.010 C 
HETATM    7  O10 UNL     1     -33.290  18.954  -1.723  1.00 20.00    -0.298 OA
ENDROOT
BRANCH   6   8
HETATM    8  C9  UNL     1     -34.286  14.020  -3.545  1.00 20.00    -0.019 C 
HETATM    9  C7  UNL     1     -34.854  13.225  -4.718  1.00 20.00     0.010 C 
HETATM   10  C8  UNL     1     -32.761  13.932  -3.524  1.00 20.00     0.010 C 
ENDBRANCH   6   8
TORSDOF 1
ENDMDL
MODEL 7
REMARK VINA RESULT:      -4.2      1.217      2.255
REMARK  1 active torsions:
REMARK  status: ('A' for Active; 'I' for Inactive)
REMARK    1  A    between atoms: C6_6  and  C9_9 
ROOT
HETATM    1  C1  UNL     1     -34.655  14.738  -5.150  1.00 20.00     0.127 C 
HETATM    2  C2  UNL     1     -35.791  15.623  -4.681  1.00 20.00     0.079 C 
HETATM    3  C3  UNL     1     -33.594  14.380  -4.130  1.00 20.00     0.079 C 
HETATM    4  C4  UNL     1     -36.054  15.387  -3.199  1.00 20.00     0.012 C 
HETATM    5  C5  UNL     1     -33.495  15.480  -3.083  1.00 20.00     0.012 C 
HETATM    6  C6  UNL     1     -34.820  15.680  -2.324  1.00 20.00    -0.010 C 
HETATM    7  O10 UNL     1     -34.596  14.329  -6.309  1.00 20.00    -0.298 OA
ENDROOT
BRANCH   6   8
HETATM    8  C9  UNL     1     -34.881  17.088  -1.731  1.00 20.00    -0.019 C 
HETATM    9  C7  UNL     1     -34.733  17.037  -0.212  1.00 20.00     0.010 C 
HETATM   10  C8  UNL     1     -33.801  17.976  -2.346  1.00 20.00     0.010 C 
ENDBRANCH   6   8
TORSDOF 1
ENDMDL
MODEL 8
REMARK VINA RESULT:      -4.2      2.445      4.076
REMARK  1 active torsions:
REMARK  status: ('A' for Active; 'I' for Inactive)
REMARK    1  A    between atoms: C6_6  and  C9_9 
ROOT
HETATM    1  C1  UNL     1     -34.595  15.758  -2.479  1.00 20.00     0.127 C 
HETATM    2  C2  UNL     1     -33.423  15.281  -3.311  1.00 20.00     0.079 C 
HETATM    3  C3  UNL     1     -35.977  15.598  -3.079  1.00 20.00     0.079 C 
HETATM    4  C4  UNL     1     -33.856  14.121  -4.199  1.00 20.00     0.012 C 
HETATM    5  C5  UNL     1     -35.885  15.635  -4.598  1.00 20.00     0.012 C 
HETATM    6  C6  UNL     1     -35.003  14.502  -5.155  1.00 20.00    -0.010 C 
HETATM    7  O10 UNL     1     -34.433  16.256  -1.366  1.00 20.00    -0.298 OA
ENDROOT
BRANCH   6   8
HETATM    8  C9  UNL     1     -34.472  14.879  -6.538  1.00 20.00    -0.019 C 
HETATM    9  C7  UNL     1     -35.438  14.418  -7.627  1.00 20.00     0.010 C 
HETATM   10  C8  UNL     1     -34.237  16.385  -6.631  1.00 20.00     0.010 C 
ENDBRANCH   6   8
TORSDOF 1
ENDMDL
MODEL 9
REMARK VINA RESULT:      -4.1      2.287      3.939
REMARK  1 active torsions:
REMARK  status: ('A' for Active; 'I' for Inactive)
REMARK    1  A    between atoms: C6_6  and  C9_9 
ROOT
HETATM    1  C1  UNL     1     -33.457  13.729  -3.912  1.00 20.00     0.127 C 
HETATM    2  C2  UNL     1     -34.729  13.320  -4.624  1.00 20.00     0.079 C 
HETATM    3  C3  UNL     1     -33.159  15.212  -3.828  1.00 20.00     0.079 C 
HETATM    4  C4  UNL     1     -35.782  14.411  -4.471  1.00 20.00     0.012 C 
HETATM    5  C5  UNL     1     -33.791  15.931  -5.011  1.00 20.00     0.012 C 
HETATM    6  C6  UNL     1     -35.322  15.765  -5.043  1.00 20.00    -0.010 C 
HETATM    7  O10 UNL     1     -32.697  12.894  -3.424  1.00 20.00    -0.298 OA
ENDROOT
BRANCH   6   8
HETATM    8  C9  UNL     1     -35.846  15.975  -6.464  1.00 20.00    -0.019 C 
HETATM    9  C7  UNL     1     -34.816  15.505  -7.489  1.00 20.00     0.010 C 
HETATM   10  C8  UNL     1     -37.171  15.243  -6.660  1.00 20.00     0.010 C 
ENDBRANCH   6   8
TORSDOF 1
ENDMDL
