MODEL 1
REMARK VINA RESULT:      -3.8      0.000      0.000
REMARK  2 active torsions:
REMARK  status: ('A' for Active; 'I' for Inactive)
REMARK    1  A    between atoms: C2_2  and  C4_4 
REMARK    2  A    between atoms: C3_3  and  C4_4 
ROOT
HETATM    1  C4  UNL     1     -34.147   6.317   4.650  1.00 20.00     0.127 C 
HETATM    2 CL7  UNL     1     -33.930   6.661   6.392  1.00 20.00    -0.121 Cl
ENDROOT
BRANCH   1   3
HETATM    3  C2  UNL     1     -32.785   6.227   3.970  1.00 20.00     0.164 A 
HETATM    4  C1  UNL     1     -32.370   7.226   2.926  1.00 20.00     0.201 A 
HETATM    5  O5  UNL     1     -32.837   5.913   2.575  1.00 20.00    -0.380 OA
ENDBRANCH   1   3
BRANCH   1   6
HETATM    6  C3  UNL     1     -35.019   5.076   4.451  1.00 20.00     0.137 C 
HETATM    7 CL6  UNL     1     -35.000   3.958   5.838  1.00 20.00    -0.129 Cl
ENDBRANCH   1   6
TORSDOF 2
ENDMDL
MODEL 2
REMARK VINA RESULT:      -3.4      1.321      2.351
REMARK  2 active torsions:
REMARK  status: ('A' for Active; 'I' for Inactive)
REMARK    1  A    between atoms: C2_2  and  C4_4 
REMARK    2  A    between atoms: C3_3  and  C4_4 
ROOT
HETATM    1  C4  UNL     1     -34.009   5.403   5.133  1.00 20.00     0.127 C 
HETATM    2 CL7  UNL     1     -35.272   4.247   4.612  1.00 20.00    -0.121 Cl
ENDROOT
BRANCH   1   3
HETATM    3  C2  UNL     1     -33.741   6.408   4.018  1.00 20.00     0.164 A 
HETATM    4  C1  UNL     1     -32.865   6.056   2.849  1.00 20.00     0.201 A 
HETATM    5  O5  UNL     1     -32.386   6.861   3.939  1.00 20.00    -0.380 OA
ENDBRANCH   1   3
BRANCH   1   6
HETATM    6  C3  UNL     1     -34.389   6.048   6.468  1.00 20.00     0.137 C 
HETATM    7 CL6  UNL     1     -33.331   7.403   6.935  1.00 20.00    -0.129 Cl
ENDBRANCH   1   6
TORSDOF 2
ENDMDL
MODEL 3
REMARK VINA RESULT:      -3.3      2.175      3.239
REMARK  2 active torsions:
REMARK  status: ('A' for Active; 'I' for Inactive)
REMARK    1  A    between atoms: C2_2  and  C4_4 
REMARK    2  A    between atoms: C3_3  and  C4_4 
ROOT
HETATM    1  C4  UNL     1     -33.695   6.066   5.344  1.00 20.00     0.127 C 
HETATM    2 CL7  UNL     1     -33.564   7.253   6.677  1.00 20.00    -0.121 Cl
ENDROOT
BRANCH   1   3
HETATM    3  C2  UNL     1     -34.984   5.266   5.493  1.00 20.00     0.164 A 
HETATM    4  C1  UNL     1     -34.954   3.784   5.746  1.00 20.00     0.201 A 
HETATM    5  O5  UNL     1     -35.225   4.325   4.442  1.00 20.00    -0.380 OA
ENDBRANCH   1   3
BRANCH   1   6
HETATM    6  C3  UNL     1     -33.555   6.763   3.988  1.00 20.00     0.137 C 
HETATM    7 CL6  UNL     1     -32.205   6.147   3.003  1.00 20.00    -0.129 Cl
ENDBRANCH   1   6
TORSDOF 2
ENDMDL
MODEL 4
REMARK VINA RESULT:      -3.3      2.794      3.851
REMARK  2 active torsions:
REMARK  status: ('A' for Active; 'I' for Inactive)
REMARK    1  A    between atoms: C2_2  and  C4_4 
REMARK    2  A    between atoms: C3_3  and  C4_4 
ROOT
HETATM    1  C4  UNL     1     -33.612   6.309   3.941  1.00 20.00     0.127 C 
HETATM    2 CL7  UNL     1     -34.413   5.255   2.737  1.00 20.00    -0.121 Cl
ENDROOT
BRANCH   1   3
HETATM    3  C2  UNL     1     -33.618   5.627   5.305  1.00 20.00     0.164 A 
HETATM    4  C1  UNL     1     -34.908   5.283   5.996  1.00 20.00     0.201 A 
HETATM    5  O5  UNL     1     -34.132   6.433   6.371  1.00 20.00    -0.380 OA
ENDBRANCH   1   3
BRANCH   1   6
HETATM    6  C3  UNL     1     -32.217   6.713   3.459  1.00 20.00     0.137 C 
HETATM    7 CL6  UNL     1     -32.227   8.046   2.278  1.00 20.00    -0.129 Cl
ENDBRANCH   1   6
TORSDOF 2
ENDMDL
MODEL 5
REMARK VINA RESULT:      -3.2      1.547      1.784
REMARK  2 active torsions:
REMARK  status: ('A' for Active; 'I' for Inactive)
REMARK    1  A    between atoms: C2_2  and  C4_4 
REMARK    2  A    between atoms: C3_3  and  C4_4 
ROOT
HETATM    1  C4  UNL     1     -33.845   5.837   4.284  1.00 20.00     0.127 C 
HETATM    2 CL7  UNL     1     -35.349   5.509   3.371  1.00 20.00    -0.121 Cl
ENDROOT
BRANCH   1   3
HETATM    3  C2  UNL     1     -33.203   7.121   3.771  1.00 20.00     0.164 A 
HETATM    4  C1  UNL     1     -32.299   7.111   2.569  1.00 20.00     0.201 A 
HETATM    5  O5  UNL     1     -31.779   7.169   3.908  1.00 20.00    -0.380 OA
ENDBRANCH   1   3
BRANCH   1   6
HETATM    6  C3  UNL     1     -34.121   5.844   5.789  1.00 20.00     0.137 C 
HETATM    7 CL6  UNL     1     -35.118   4.474   6.340  1.00 20.00    -0.129 Cl
ENDBRANCH   1   6
TORSDOF 2
ENDMDL
MODEL 6
REMARK VINA RESULT:      -3.2     11.743     12.555
REMARK  2 active torsions:
REMARK  status: ('A' for Active; 'I' for Inactive)
REMARK    1  A    between atoms: C2_2  and  C4_4 
REMARK    2  A    between atoms: C3_3  and  C4_4 
ROOT
HETATM    1  C4  UNL     1     -33.997  15.672  -3.979  1.00 20.00     0.127 C 
HETATM    2 CL7  UNL     1     -33.397  16.648  -5.354  1.00 20.00    -0.121 Cl
ENDROOT
BRANCH   1   3
HETATM    3  C2  UNL     1     -33.597  14.214  -4.170  1.00 20.00     0.164 A 
HETATM    4  C1  UNL     1     -34.538  13.225  -4.800  1.00 20.00     0.201 A 
HETATM    5  O5  UNL     1     -34.341  13.284  -3.377  1.00 20.00    -0.380 OA
ENDBRANCH   1   3
BRANCH   1   6
HETATM    6  C3  UNL     1     -33.531  16.272  -2.651  1.00 20.00     0.137 C 
HETATM    7 CL6  UNL     1     -34.766  16.218  -1.368  1.00 20.00    -0.129 Cl
ENDBRANCH   1   6
TORSDOF 2
ENDMDL
MODEL 7
REMARK VINA RESULT:      -3.1     11.713     12.225
REMARK  2 active torsions:
REMARK  status: ('A' for Active; 'I' for Inactive)
REMARK    1  A    between atoms: C2_2  and  C4_4 
REMARK    2  A    between atoms: C3_3  and  C4_4 
ROOT
HETATM    1  C4  UNL     1     -34.805  15.263  -3.137  1.00 20.00     0.127 C 
HETATM    2 CL7  UNL     1     -36.185  16.121  -3.887  1.00 20.00    -0.121 Cl
ENDROOT
BRANCH   1   3
HETATM    3  C2  UNL     1     -34.022  14.513  -4.208  1.00 20.00     0.164 A 
HETATM    4  C1  UNL     1     -34.514  13.202  -4.755  1.00 20.00     0.201 A 
HETATM    5  O5  UNL     1     -33.465  13.268  -3.775  1.00 20.00    -0.380 OA
ENDBRANCH   1   3
BRANCH   1   6
HETATM    6  C3  UNL     1     -33.954  16.233  -2.314  1.00 20.00     0.137 C 
HETATM    7 CL6  UNL     1     -34.623  16.581  -0.700  1.00 20.00    -0.129 Cl
ENDBRANCH   1   6
TORSDOF 2
ENDMDL
MODEL 8
REMARK VINA RESULT:      -3.0     11.970     12.843
REMARK  2 active torsions:
REMARK  status: ('A' for Active; 'I' for Inactive)
REMARK    1  A    between atoms: C2_2  and  C4_4 
REMARK    2  A    between atoms: C3_3  and  C4_4 
ROOT
HETATM    1  C4  UNL     1     -34.475  15.774  -3.252  1.00 20.00     0.127 C 
HETATM    2 CL7  UNL     1     -34.725  16.128  -1.516  1.00 20.00    -0.121 Cl
ENDROOT
BRANCH   1   3
HETATM    3  C2  UNL     1     -33.527  16.805  -3.855  1.00 20.00     0.164 A 
HETATM    4  C1  UNL     1     -33.776  17.385  -5.220  1.00 20.00     0.201 A 
HETATM    5  O5  UNL     1     -32.804  16.348  -5.003  1.00 20.00    -0.380 OA
ENDBRANCH   1   3
BRANCH   1   6
HETATM    6  C3  UNL     1     -34.018  14.327  -3.445  1.00 20.00     0.137 C 
HETATM    7 CL6  UNL     1     -35.221  13.299  -4.263  1.00 20.00    -0.129 Cl
ENDBRANCH   1   6
TORSDOF 2
ENDMDL
MODEL 9
REMARK VINA RESULT:      -3.0      2.598      3.687
REMARK  2 active torsions:
REMARK  status: ('A' for Active; 'I' for Inactive)
REMARK    1  A    between atoms: C2_2  and  C4_4 
REMARK    2  A    between atoms: C3_3  and  C4_4 
ROOT
HETATM    1  C4  UNL     1     -34.550   5.921   3.964  1.00 20.00     0.127 C 
HETATM    2 CL7  UNL     1     -34.246   5.009   2.455  1.00 20.00    -0.121 Cl
ENDROOT
BRANCH   1   3
HETATM    3  C2  UNL     1     -35.283   5.033   4.963  1.00 20.00     0.164 A 
HETATM    4  C1  UNL     1     -34.530   4.166   5.932  1.00 20.00     0.201 A 
HETATM    5  O5  UNL     1     -35.123   3.629   4.739  1.00 20.00    -0.380 OA
ENDBRANCH   1   3
BRANCH   1   6
HETATM    6  C3  UNL     1     -33.247   6.514   4.505  1.00 20.00     0.137 C 
HETATM    7 CL6  UNL     1     -32.043   6.870   3.241  1.00 20.00    -0.129 Cl
ENDBRANCH   1   6
TORSDOF 2
ENDMDL
