MODEL 1
REMARK VINA RESULT:      -4.4      0.000      0.000
REMARK  1 active torsions:
REMARK  status: ('A' for Active; 'I' for Inactive)
REMARK    1  A    between atoms: C3_3  and  C6_6 
ROOT
HETATM    1  C1  UNL     1     -33.821   6.577   5.792  1.00 20.00     0.100 C 
HETATM    2  C2  UNL     1     -33.230   6.110   3.346  1.00 20.00     0.169 A 
HETATM    3  C3  UNL     1     -34.137   5.940   4.547  1.00 20.00     0.174 A 
HETATM    4  C4  UNL     1     -31.977   6.913   3.371  1.00 20.00     0.044 C 
HETATM    5  N7  UNL     1     -33.564   7.091   6.799  1.00 20.00    -0.194 NA
HETATM    6  O8  UNL     1     -34.429   6.876   3.495  1.00 20.00    -0.354 OA
ENDROOT
BRANCH   3   7
HETATM    7  C6  UNL     1     -35.081   4.782   4.590  1.00 20.00     0.052 C 
HETATM    8  C5  UNL     1     -35.005   4.013   5.882  1.00 20.00     0.009 C 
ENDBRANCH   3   7
TORSDOF 1
ENDMDL
MODEL 2
REMARK VINA RESULT:      -4.0     11.927     12.702
REMARK  1 active torsions:
REMARK  status: ('A' for Active; 'I' for Inactive)
REMARK    1  A    between atoms: C3_3  and  C6_6 
ROOT
HETATM    1  C1  UNL     1     -36.569  14.277  -4.060  1.00 20.00     0.100 C 
HETATM    2  C2  UNL     1     -34.653  14.187  -5.754  1.00 20.00     0.169 A 
HETATM    3  C3  UNL     1     -35.166  14.162  -4.329  1.00 20.00     0.174 A 
HETATM    4  C4  UNL     1     -35.537  14.339  -6.942  1.00 20.00     0.044 C 
HETATM    5  N7  UNL     1     -37.705  14.370  -3.843  1.00 20.00    -0.194 NA
HETATM    6  O8  UNL     1     -34.826  12.959  -5.040  1.00 20.00    -0.354 OA
ENDROOT
BRANCH   3   7
HETATM    7  C6  UNL     1     -34.226  14.477  -3.211  1.00 20.00     0.052 C 
HETATM    8  C5  UNL     1     -34.624  15.707  -2.441  1.00 20.00     0.009 C 
ENDBRANCH   3   7
TORSDOF 1
ENDMDL
MODEL 3
REMARK VINA RESULT:      -3.9     12.206     13.176
REMARK  1 active torsions:
REMARK  status: ('A' for Active; 'I' for Inactive)
REMARK    1  A    between atoms: C3_3  and  C6_6 
ROOT
HETATM    1  C1  UNL     1     -33.643  14.340  -3.809  1.00 20.00     0.100 C 
HETATM    2  C2  UNL     1     -33.948  16.380  -5.324  1.00 20.00     0.169 A 
HETATM    3  C3  UNL     1     -33.626  15.763  -3.978  1.00 20.00     0.174 A 
HETATM    4  C4  UNL     1     -34.304  15.582  -6.528  1.00 20.00     0.044 C 
HETATM    5  N7  UNL     1     -33.656  13.188  -3.673  1.00 20.00    -0.194 NA
HETATM    6  O8  UNL     1     -32.598  16.211  -4.878  1.00 20.00    -0.354 OA
ENDROOT
BRANCH   3   7
HETATM    7  C6  UNL     1     -33.744  16.601  -2.746  1.00 20.00     0.052 C 
HETATM    8  C5  UNL     1     -34.783  16.086  -1.785  1.00 20.00     0.009 C 
ENDBRANCH   3   7
TORSDOF 1
ENDMDL
MODEL 4
REMARK VINA RESULT:      -3.8     12.634     13.696
REMARK  1 active torsions:
REMARK  status: ('A' for Active; 'I' for Inactive)
REMARK    1  A    between atoms: C3_3  and  C6_6 
ROOT
HETATM    1  C1  UNL     1     -34.695  13.736  -4.990  1.00 20.00     0.100 C 
HETATM    2  C2  UNL     1     -33.790  16.108  -4.672  1.00 20.00     0.169 A 
HETATM    3  C3  UNL     1     -34.412  15.030  -5.536  1.00 20.00     0.174 A 
HETATM    4  C4  UNL     1     -33.429  15.907  -3.243  1.00 20.00     0.044 C 
HETATM    5  N7  UNL     1     -34.924  12.688  -4.547  1.00 20.00    -0.194 NA
HETATM    6  O8  UNL     1     -35.196  16.076  -4.938  1.00 20.00    -0.354 OA
ENDROOT
BRANCH   3   7
HETATM    7  C6  UNL     1     -34.310  15.139  -7.023  1.00 20.00     0.052 C 
HETATM    8  C5  UNL     1     -35.473  14.505  -7.737  1.00 20.00     0.009 C 
ENDBRANCH   3   7
TORSDOF 1
ENDMDL
MODEL 5
REMARK VINA RESULT:      -3.6     12.480     13.032
REMARK  1 active torsions:
REMARK  status: ('A' for Active; 'I' for Inactive)
REMARK    1  A    between atoms: C3_3  and  C6_6 
ROOT
HETATM    1  C1  UNL     1     -36.604  14.551  -3.961  1.00 20.00     0.100 C 
HETATM    2  C2  UNL     1     -34.338  15.540  -3.302  1.00 20.00     0.169 A 
HETATM    3  C3  UNL     1     -35.234  14.816  -4.286  1.00 20.00     0.174 A 
HETATM    4  C4  UNL     1     -34.796  16.005  -1.964  1.00 20.00     0.044 C 
HETATM    5  N7  UNL     1     -37.714  14.336  -3.697  1.00 20.00    -0.194 NA
HETATM    6  O8  UNL     1     -34.946  16.220  -4.405  1.00 20.00    -0.354 OA
ENDROOT
BRANCH   3   7
HETATM    7  C6  UNL     1     -34.612  13.988  -5.364  1.00 20.00     0.052 C 
HETATM    8  C5  UNL     1     -35.074  14.380  -6.742  1.00 20.00     0.009 C 
ENDBRANCH   3   7
TORSDOF 1
ENDMDL
MODEL 6
REMARK VINA RESULT:      -3.6     11.988     12.953
REMARK  1 active torsions:
REMARK  status: ('A' for Active; 'I' for Inactive)
REMARK    1  A    between atoms: C3_3  and  C6_6 
ROOT
HETATM    1  C1  UNL     1     -34.930  14.454  -5.955  1.00 20.00     0.100 C 
HETATM    2  C2  UNL     1     -34.459  13.782  -3.531  1.00 20.00     0.169 A 
HETATM    3  C3  UNL     1     -35.422  14.088  -4.660  1.00 20.00     0.174 A 
HETATM    4  C4  UNL     1     -32.979  13.847  -3.676  1.00 20.00     0.044 C 
HETATM    5  N7  UNL     1     -34.531  14.750  -7.004  1.00 20.00    -0.194 NA
HETATM    6  O8  UNL     1     -35.083  12.741  -4.290  1.00 20.00    -0.354 OA
ENDROOT
BRANCH   3   7
HETATM    7  C6  UNL     1     -36.833  14.458  -4.334  1.00 20.00     0.052 C 
HETATM    8  C5  UNL     1     -37.233  15.795  -4.896  1.00 20.00     0.009 C 
ENDBRANCH   3   7
TORSDOF 1
ENDMDL
MODEL 7
REMARK VINA RESULT:      -3.5     12.278     12.878
REMARK  1 active torsions:
REMARK  status: ('A' for Active; 'I' for Inactive)
REMARK    1  A    between atoms: C3_3  and  C6_6 
ROOT
HETATM    1  C1  UNL     1     -33.720  16.139  -4.254  1.00 20.00     0.100 C 
HETATM    2  C2  UNL     1     -35.001  13.996  -3.694  1.00 20.00     0.169 A 
HETATM    3  C3  UNL     1     -34.622  15.431  -3.394  1.00 20.00     0.174 A 
HETATM    4  C4  UNL     1     -34.474  13.234  -4.858  1.00 20.00     0.044 C 
HETATM    5  N7  UNL     1     -32.989  16.711  -4.949  1.00 20.00    -0.194 NA
HETATM    6  O8  UNL     1     -35.860  15.087  -4.039  1.00 20.00    -0.354 OA
ENDROOT
BRANCH   3   7
HETATM    7  C6  UNL     1     -34.802  15.958  -2.006  1.00 20.00     0.052 C 
HETATM    8  C5  UNL     1     -33.778  16.997  -1.638  1.00 20.00     0.009 C 
ENDBRANCH   3   7
TORSDOF 1
ENDMDL
MODEL 8
REMARK VINA RESULT:      -3.5     12.016     12.647
REMARK  1 active torsions:
REMARK  status: ('A' for Active; 'I' for Inactive)
REMARK    1  A    between atoms: C3_3  and  C6_6 
ROOT
HETATM    1  C1  UNL     1     -35.546  15.494  -3.127  1.00 20.00     0.100 C 
HETATM    2  C2  UNL     1     -33.838  16.692  -1.644  1.00 20.00     0.169 A 
HETATM    3  C3  UNL     1     -34.197  15.920  -2.897  1.00 20.00     0.174 A 
HETATM    4  C4  UNL     1     -34.825  17.044  -0.588  1.00 20.00     0.044 C 
HETATM    5  N7  UNL     1     -36.638  15.150  -3.313  1.00 20.00    -0.194 NA
HETATM    6  O8  UNL     1     -34.050  17.350  -2.897  1.00 20.00    -0.354 OA
ENDROOT
BRANCH   3   7
HETATM    7  C6  UNL     1     -33.117  15.212  -3.651  1.00 20.00     0.052 C 
HETATM    8  C5  UNL     1     -33.375  13.736  -3.796  1.00 20.00     0.009 C 
ENDBRANCH   3   7
TORSDOF 1
ENDMDL
MODEL 9
REMARK VINA RESULT:      -3.5     12.269     13.030
REMARK  1 active torsions:
REMARK  status: ('A' for Active; 'I' for Inactive)
REMARK    1  A    between atoms: C3_3  and  C6_6 
ROOT
HETATM    1  C1  UNL     1     -35.366  15.517  -3.266  1.00 20.00     0.100 C 
HETATM    2  C2  UNL     1     -33.288  16.404  -4.468  1.00 20.00     0.169 A 
HETATM    3  C3  UNL     1     -34.071  16.125  -3.201  1.00 20.00     0.174 A 
HETATM    4  C4  UNL     1     -33.795  16.087  -5.831  1.00 20.00     0.044 C 
HETATM    5  N7  UNL     1     -36.416  15.025  -3.320  1.00 20.00    -0.194 NA
HETATM    6  O8  UNL     1     -33.018  15.257  -3.655  1.00 20.00    -0.354 OA
ENDROOT
BRANCH   3   7
HETATM    7  C6  UNL     1     -33.727  16.874  -1.953  1.00 20.00     0.052 C 
HETATM    8  C5  UNL     1     -34.678  16.592  -0.821  1.00 20.00     0.009 C 
ENDBRANCH   3   7
TORSDOF 1
ENDMDL
