MODEL 1
REMARK VINA RESULT:      -3.6      0.000      0.000
REMARK  1 active torsions:
REMARK  status: ('A' for Active; 'I' for Inactive)
REMARK    1  A    between atoms: C1_1  and  C3_3 
ROOT
HETATM    1  C1  UNL     1     -34.433   5.701   3.657  1.00 20.00     0.000 C 
HETATM    2  C2  UNL     1     -33.214   6.187   3.903  1.00 20.00     0.081 C 
HETATM    3 CL4  UNL     1     -32.347   7.148   2.781  1.00 20.00    -0.097 Cl
ENDROOT
BRANCH   1   4
HETATM    4  C3  UNL     1     -35.196   4.870   4.634  1.00 20.00     0.142 C 
HETATM    5 CL5  UNL     1     -34.729   5.301   6.293  1.00 20.00    -0.126 Cl
ENDBRANCH   1   4
TORSDOF 1
ENDMDL
MODEL 2
REMARK VINA RESULT:      -3.5      1.319      1.405
REMARK  1 active torsions:
REMARK  status: ('A' for Active; 'I' for Inactive)
REMARK    1  A    between atoms: C1_1  and  C3_3 
ROOT
HETATM    1  C1  UNL     1     -33.817   6.352   5.328  1.00 20.00     0.000 C 
HETATM    2  C2  UNL     1     -33.571   5.988   4.067  1.00 20.00     0.081 C 
HETATM    3 CL4  UNL     1     -32.641   6.936   2.986  1.00 20.00    -0.097 Cl
ENDROOT
BRANCH   1   4
HETATM    4  C3  UNL     1     -34.620   5.527   6.278  1.00 20.00     0.142 C 
HETATM    5 CL5  UNL     1     -34.960   3.937   5.562  1.00 20.00    -0.126 Cl
ENDBRANCH   1   4
TORSDOF 1
ENDMDL
MODEL 3
REMARK VINA RESULT:      -3.4      1.359      3.718
REMARK  1 active torsions:
REMARK  status: ('A' for Active; 'I' for Inactive)
REMARK    1  A    between atoms: C1_1  and  C3_3 
ROOT
HETATM    1  C1  UNL     1     -33.261   6.159   3.382  1.00 20.00     0.000 C 
HETATM    2  C2  UNL     1     -33.954   5.913   4.496  1.00 20.00     0.081 C 
HETATM    3 CL4  UNL     1     -35.370   4.949   4.521  1.00 20.00    -0.097 Cl
ENDROOT
BRANCH   1   4
HETATM    4  C3  UNL     1     -32.022   6.991   3.355  1.00 20.00     0.142 C 
HETATM    5 CL5  UNL     1     -32.111   8.170   2.029  1.00 20.00    -0.126 Cl
ENDBRANCH   1   4
TORSDOF 1
ENDMDL
MODEL 4
REMARK VINA RESULT:      -3.3      2.448      2.812
REMARK  1 active torsions:
REMARK  status: ('A' for Active; 'I' for Inactive)
REMARK    1  A    between atoms: C1_1  and  C3_3 
ROOT
HETATM    1  C1  UNL     1     -34.530   5.329   6.231  1.00 20.00     0.000 C 
HETATM    2  C2  UNL     1     -33.966   6.507   5.953  1.00 20.00     0.081 C 
HETATM    3 CL4  UNL     1     -33.296   7.529   7.153  1.00 20.00    -0.097 Cl
ENDROOT
BRANCH   1   4
HETATM    4  C3  UNL     1     -35.109   4.430   5.190  1.00 20.00     0.142 C 
HETATM    5 CL5  UNL     1     -35.316   5.321   3.667  1.00 20.00    -0.126 Cl
ENDBRANCH   1   4
TORSDOF 1
ENDMDL
MODEL 5
REMARK VINA RESULT:      -3.2      1.724      1.893
REMARK  1 active torsions:
REMARK  status: ('A' for Active; 'I' for Inactive)
REMARK    1  A    between atoms: C1_1  and  C3_3 
ROOT
HETATM    1  C1  UNL     1     -34.844   5.022   4.974  1.00 20.00     0.000 C 
HETATM    2  C2  UNL     1     -34.147   5.657   4.029  1.00 20.00     0.081 C 
HETATM    3 CL4  UNL     1     -34.274   5.280   2.363  1.00 20.00    -0.097 Cl
ENDROOT
BRANCH   1   4
HETATM    4  C3  UNL     1     -34.744   5.351   6.427  1.00 20.00     0.142 C 
HETATM    5 CL5  UNL     1     -33.848   6.868   6.645  1.00 20.00    -0.126 Cl
ENDBRANCH   1   4
TORSDOF 1
ENDMDL
MODEL 6
REMARK VINA RESULT:      -3.2      0.873      3.534
REMARK  1 active torsions:
REMARK  status: ('A' for Active; 'I' for Inactive)
REMARK    1  A    between atoms: C1_1  and  C3_3 
ROOT
HETATM    1  C1  UNL     1     -33.692   6.021   4.479  1.00 20.00     0.000 C 
HETATM    2  C2  UNL     1     -34.634   5.087   4.639  1.00 20.00     0.081 C 
HETATM    3 CL4  UNL     1     -35.209   4.595   6.176  1.00 20.00    -0.097 Cl
ENDROOT
BRANCH   1   4
HETATM    4  C3  UNL     1     -33.192   6.460   3.143  1.00 20.00     0.142 C 
HETATM    5 CL5  UNL     1     -31.715   7.427   3.336  1.00 20.00    -0.126 Cl
ENDBRANCH   1   4
TORSDOF 1
ENDMDL
MODEL 7
REMARK VINA RESULT:      -3.1      1.416      1.548
REMARK  1 active torsions:
REMARK  status: ('A' for Active; 'I' for Inactive)
REMARK    1  A    between atoms: C1_1  and  C3_3 
ROOT
HETATM    1  C1  UNL     1     -33.402   6.438   3.459  1.00 20.00     0.000 C 
HETATM    2  C2  UNL     1     -32.284   7.159   3.349  1.00 20.00     0.081 C 
HETATM    3 CL4  UNL     1     -31.817   7.944   1.900  1.00 20.00    -0.097 Cl
ENDROOT
BRANCH   1   4
HETATM    4  C3  UNL     1     -33.819   5.758   4.720  1.00 20.00     0.142 C 
HETATM    5 CL5  UNL     1     -35.372   4.931   4.479  1.00 20.00    -0.126 Cl
ENDBRANCH   1   4
TORSDOF 1
ENDMDL
MODEL 8
REMARK VINA RESULT:      -2.8      2.349      2.858
REMARK  1 active torsions:
REMARK  status: ('A' for Active; 'I' for Inactive)
REMARK    1  A    between atoms: C1_1  and  C3_3 
ROOT
HETATM    1  C1  UNL     1     -32.791   7.470   2.640  1.00 20.00     0.000 C 
HETATM    2  C2  UNL     1     -31.892   8.228   2.007  1.00 20.00     0.081 C 
HETATM    3 CL4  UNL     1     -32.315   9.614   1.094  1.00 20.00    -0.097 Cl
ENDROOT
BRANCH   1   4
HETATM    4  C3  UNL     1     -32.428   6.266   3.443  1.00 20.00     0.142 C 
HETATM    5 CL5  UNL     1     -33.817   5.749   4.422  1.00 20.00    -0.126 Cl
ENDBRANCH   1   4
TORSDOF 1
ENDMDL
MODEL 9
REMARK VINA RESULT:      -2.8      1.368      3.485
REMARK  1 active torsions:
REMARK  status: ('A' for Active; 'I' for Inactive)
REMARK    1  A    between atoms: C1_1  and  C3_3 
ROOT
HETATM    1  C1  UNL     1     -33.952   6.090   4.935  1.00 20.00     0.000 C 
HETATM    2  C2  UNL     1     -34.638   4.958   5.117  1.00 20.00     0.081 C 
HETATM    3 CL4  UNL     1     -35.292   4.495   6.631  1.00 20.00    -0.097 Cl
ENDROOT
BRANCH   1   4
HETATM    4  C3  UNL     1     -33.388   6.504   3.617  1.00 20.00     0.142 C 
HETATM    5 CL5  UNL     1     -33.909   5.372   2.352  1.00 20.00    -0.126 Cl
ENDBRANCH   1   4
TORSDOF 1
ENDMDL
