MODEL 1
REMARK VINA RESULT:      -3.7      0.000      0.000
REMARK  0 active torsions:
REMARK  status: ('A' for Active; 'I' for Inactive)
ROOT
HETATM    1  C1  UNL     1     -36.501  14.677  -3.673  1.00 20.00     0.118 C 
HETATM    2  C2  UNL     1     -34.136  14.014  -3.674  1.00 20.00     0.118 C 
HETATM    3  C3  UNL     1     -35.106  15.106  -3.571  1.00 20.00     0.288 C 
HETATM    4  N4  UNL     1     -37.607  14.335  -3.755  1.00 20.00    -0.193 NA
HETATM    5  N5  UNL     1     -33.368  13.148  -3.758  1.00 20.00    -0.193 NA
HETATM    6 CL6  UNL     1     -34.781  16.267  -4.881  1.00 20.00    -0.069 Cl
HETATM    7 CL7  UNL     1     -34.881  15.904  -1.995  1.00 20.00    -0.069 Cl
ENDROOT
TORSDOF 0
ENDMDL
MODEL 2
REMARK VINA RESULT:      -3.7      0.029      3.112
REMARK  0 active torsions:
REMARK  status: ('A' for Active; 'I' for Inactive)
ROOT
HETATM    1  C1  UNL     1     -34.164  14.016  -3.667  1.00 20.00     0.118 C 
HETATM    2  C2  UNL     1     -36.527  14.688  -3.677  1.00 20.00     0.118 C 
HETATM    3  C3  UNL     1     -35.130  15.111  -3.566  1.00 20.00     0.288 C 
HETATM    4  N4  UNL     1     -33.400  13.146  -3.746  1.00 20.00    -0.193 NA
HETATM    5  N5  UNL     1     -37.634  14.351  -3.765  1.00 20.00    -0.193 NA
HETATM    6 CL6  UNL     1     -34.910  15.905  -1.988  1.00 20.00    -0.069 Cl
HETATM    7 CL7  UNL     1     -34.793  16.273  -4.873  1.00 20.00    -0.069 Cl
ENDROOT
TORSDOF 0
ENDMDL
MODEL 3
REMARK VINA RESULT:      -3.5      2.337      2.741
REMARK  0 active torsions:
REMARK  status: ('A' for Active; 'I' for Inactive)
ROOT
HETATM    1  C1  UNL     1     -33.822  15.956  -4.923  1.00 20.00     0.118 C 
HETATM    2  C2  UNL     1     -34.511  13.717  -4.186  1.00 20.00     0.118 C 
HETATM    3  C3  UNL     1     -33.820  14.963  -3.849  1.00 20.00     0.288 C 
HETATM    4  N4  UNL     1     -33.824  16.744  -5.776  1.00 20.00    -0.193 NA
HETATM    5  N5  UNL     1     -35.058  12.729  -4.455  1.00 20.00    -0.193 NA
HETATM    6 CL6  UNL     1     -32.128  14.573  -3.452  1.00 20.00    -0.069 Cl
HETATM    7 CL7  UNL     1     -34.619  15.676  -2.426  1.00 20.00    -0.069 Cl
ENDROOT
TORSDOF 0
ENDMDL
MODEL 4
REMARK VINA RESULT:      -3.5      2.341      2.856
REMARK  0 active torsions:
REMARK  status: ('A' for Active; 'I' for Inactive)
ROOT
HETATM    1  C1  UNL     1     -34.517  13.722  -4.199  1.00 20.00     0.118 C 
HETATM    2  C2  UNL     1     -33.848  15.971  -4.926  1.00 20.00     0.118 C 
HETATM    3  C3  UNL     1     -33.835  14.970  -3.857  1.00 20.00     0.288 C 
HETATM    4  N4  UNL     1     -35.059  12.732  -4.471  1.00 20.00    -0.193 NA
HETATM    5  N5  UNL     1     -33.861  16.763  -5.775  1.00 20.00    -0.193 NA
HETATM    6 CL6  UNL     1     -34.633  15.670  -2.428  1.00 20.00    -0.069 Cl
HETATM    7 CL7  UNL     1     -32.139  14.592  -3.469  1.00 20.00    -0.069 Cl
ENDROOT
TORSDOF 0
ENDMDL
MODEL 5
REMARK VINA RESULT:      -3.5      2.205      2.869
REMARK  0 active torsions:
REMARK  status: ('A' for Active; 'I' for Inactive)
ROOT
HETATM    1  C1  UNL     1     -34.543  13.748  -4.122  1.00 20.00     0.118 C 
HETATM    2  C2  UNL     1     -34.416  15.667  -2.594  1.00 20.00     0.118 C 
HETATM    3  C3  UNL     1     -33.886  15.013  -3.791  1.00 20.00     0.288 C 
HETATM    4  N4  UNL     1     -35.066  12.745  -4.382  1.00 20.00    -0.193 NA
HETATM    5  N5  UNL     1     -34.837  16.185  -1.644  1.00 20.00    -0.193 NA
HETATM    6 CL6  UNL     1     -32.154  14.690  -3.530  1.00 20.00    -0.069 Cl
HETATM    7 CL7  UNL     1     -34.086  16.123  -5.169  1.00 20.00    -0.069 Cl
ENDROOT
TORSDOF 0
ENDMDL
MODEL 6
REMARK VINA RESULT:      -3.5      2.542      3.089
REMARK  0 active torsions:
REMARK  status: ('A' for Active; 'I' for Inactive)
ROOT
HETATM    1  C1  UNL     1     -34.828  13.722  -5.113  1.00 20.00     0.118 C 
HETATM    2  C2  UNL     1     -33.820  15.953  -5.316  1.00 20.00     0.118 C 
HETATM    3  C3  UNL     1     -34.846  15.021  -5.787  1.00 20.00     0.288 C 
HETATM    4  N4  UNL     1     -34.812  12.692  -4.578  1.00 20.00    -0.193 NA
HETATM    5  N5  UNL     1     -33.005  16.690  -4.942  1.00 20.00    -0.193 NA
HETATM    6 CL6  UNL     1     -34.597  14.750  -7.529  1.00 20.00    -0.069 Cl
HETATM    7 CL7  UNL     1     -36.441  15.766  -5.520  1.00 20.00    -0.069 Cl
ENDROOT
TORSDOF 0
ENDMDL
MODEL 7
REMARK VINA RESULT:      -3.5      2.545      3.503
REMARK  0 active torsions:
REMARK  status: ('A' for Active; 'I' for Inactive)
ROOT
HETATM    1  C1  UNL     1     -33.821  15.954  -5.312  1.00 20.00     0.118 C 
HETATM    2  C2  UNL     1     -34.849  13.731  -5.128  1.00 20.00     0.118 C 
HETATM    3  C3  UNL     1     -34.850  15.034  -5.796  1.00 20.00     0.288 C 
HETATM    4  N4  UNL     1     -33.004  16.684  -4.927  1.00 20.00    -0.193 NA
HETATM    5  N5  UNL     1     -34.847  12.699  -4.596  1.00 20.00    -0.193 NA
HETATM    6 CL6  UNL     1     -36.441  15.790  -5.540  1.00 20.00    -0.069 Cl
HETATM    7 CL7  UNL     1     -34.588  14.768  -7.537  1.00 20.00    -0.069 Cl
ENDROOT
TORSDOF 0
ENDMDL
MODEL 8
REMARK VINA RESULT:      -3.5      1.183      1.550
REMARK  0 active torsions:
REMARK  status: ('A' for Active; 'I' for Inactive)
ROOT
HETATM    1  C1  UNL     1     -36.582  14.443  -4.223  1.00 20.00     0.118 C 
HETATM    2  C2  UNL     1     -34.209  13.808  -4.200  1.00 20.00     0.118 C 
HETATM    3  C3  UNL     1     -35.255  14.631  -4.810  1.00 20.00     0.288 C 
HETATM    4  N4  UNL     1     -37.634  14.292  -3.756  1.00 20.00    -0.193 NA
HETATM    5  N5  UNL     1     -33.381  13.154  -3.716  1.00 20.00    -0.193 NA
HETATM    6 CL6  UNL     1     -35.348  14.224  -6.541  1.00 20.00    -0.069 Cl
HETATM    7 CL7  UNL     1     -34.799  16.342  -4.622  1.00 20.00    -0.069 Cl
ENDROOT
TORSDOF 0
ENDMDL
MODEL 9
REMARK VINA RESULT:      -3.4      1.882      2.236
REMARK  0 active torsions:
REMARK  status: ('A' for Active; 'I' for Inactive)
ROOT
HETATM    1  C1  UNL     1     -34.975  13.917  -4.157  1.00 20.00     0.118 C 
HETATM    2  C2  UNL     1     -33.834  16.050  -4.582  1.00 20.00     0.118 C 
HETATM    3  C3  UNL     1     -34.949  15.362  -3.929  1.00 20.00     0.288 C 
HETATM    4  N4  UNL     1     -34.995  12.770  -4.338  1.00 20.00    -0.193 NA
HETATM    5  N5  UNL     1     -32.950  16.594  -5.102  1.00 20.00    -0.193 NA
HETATM    6 CL6  UNL     1     -36.470  16.052  -4.547  1.00 20.00    -0.069 Cl
HETATM    7 CL7  UNL     1     -34.831  15.649  -2.176  1.00 20.00    -0.069 Cl
ENDROOT
TORSDOF 0
ENDMDL
