MODEL 1
REMARK VINA RESULT:      -4.8      0.000      0.000
REMARK  0 active torsions:
REMARK  status: ('A' for Active; 'I' for Inactive)
ROOT
HETATM    1  C1  UNL     1     -34.815   3.827   5.455  1.00 20.00    -0.029 C 
HETATM    2  C2  UNL     1     -34.465   4.641   6.455  1.00 20.00    -0.023 C 
HETATM    3  C3  UNL     1     -33.443   6.347   4.036  1.00 20.00     0.264 C 
HETATM    4  C4  UNL     1     -35.246   4.589   4.244  1.00 20.00     0.042 C 
HETATM    5  C5  UNL     1     -33.388   6.925   6.260  1.00 20.00     0.188 C 
HETATM    6  C6  UNL     1     -34.628   6.084   6.080  1.00 20.00     0.046 C 
HETATM    7  C7  UNL     1     -34.817   6.020   4.570  1.00 20.00     0.098 C 
HETATM    8  O8  UNL     1     -33.082   6.221   2.875  1.00 20.00    -0.265 OA
HETATM    9  O9  UNL     1     -32.645   6.816   5.040  1.00 20.00    -0.320 OA
ENDROOT
TORSDOF 0
ENDMDL
MODEL 2
REMARK VINA RESULT:      -4.7     12.037     12.637
REMARK  0 active torsions:
REMARK  status: ('A' for Active; 'I' for Inactive)
ROOT
HETATM    1  C1  UNL     1     -35.300  15.989  -2.260  1.00 20.00    -0.029 C 
HETATM    2  C2  UNL     1     -33.968  16.090  -2.308  1.00 20.00    -0.023 C 
HETATM    3  C3  UNL     1     -34.345  13.553  -4.105  1.00 20.00     0.264 C 
HETATM    4  C4  UNL     1     -35.865  15.495  -3.553  1.00 20.00     0.042 C 
HETATM    5  C5  UNL     1     -32.370  14.623  -3.617  1.00 20.00     0.188 C 
HETATM    6  C6  UNL     1     -33.429  15.699  -3.651  1.00 20.00     0.046 C 
HETATM    7  C7  UNL     1     -34.624  15.023  -4.311  1.00 20.00     0.098 C 
HETATM    8  O8  UNL     1     -35.138  12.644  -4.304  1.00 20.00    -0.265 OA
HETATM    9  O9  UNL     1     -33.065  13.372  -3.665  1.00 20.00    -0.320 OA
ENDROOT
TORSDOF 0
ENDMDL
MODEL 3
REMARK VINA RESULT:      -4.6     12.051     13.013
REMARK  0 active torsions:
REMARK  status: ('A' for Active; 'I' for Inactive)
ROOT
HETATM    1  C1  UNL     1     -33.250  16.164  -4.300  1.00 20.00    -0.029 C 
HETATM    2  C2  UNL     1     -34.428  16.600  -3.843  1.00 20.00    -0.023 C 
HETATM    3  C3  UNL     1     -35.112  13.563  -4.185  1.00 20.00     0.264 C 
HETATM    4  C4  UNL     1     -32.936  14.790  -3.803  1.00 20.00     0.042 C 
HETATM    5  C5  UNL     1     -36.486  15.207  -3.352  1.00 20.00     0.188 C 
HETATM    6  C6  UNL     1     -35.084  15.592  -2.947  1.00 20.00     0.046 C 
HETATM    7  C7  UNL     1     -34.265  14.333  -3.200  1.00 20.00     0.098 C 
HETATM    8  O8  UNL     1     -34.754  12.577  -4.813  1.00 20.00    -0.265 OA
HETATM    9  O9  UNL     1     -36.355  14.121  -4.277  1.00 20.00    -0.320 OA
ENDROOT
TORSDOF 0
ENDMDL
MODEL 4
REMARK VINA RESULT:      -4.6      1.646      3.097
REMARK  0 active torsions:
REMARK  status: ('A' for Active; 'I' for Inactive)
ROOT
HETATM    1  C1  UNL     1     -32.642   5.986   2.915  1.00 20.00    -0.029 C 
HETATM    2  C2  UNL     1     -33.593   5.048   2.898  1.00 20.00    -0.023 C 
HETATM    3  C3  UNL     1     -34.072   6.199   5.771  1.00 20.00     0.264 C 
HETATM    4  C4  UNL     1     -33.071   7.198   3.677  1.00 20.00     0.042 C 
HETATM    5  C5  UNL     1     -35.283   4.553   4.719  1.00 20.00     0.188 C 
HETATM    6  C6  UNL     1     -34.824   5.492   3.630  1.00 20.00     0.046 C 
HETATM    7  C7  UNL     1     -34.343   6.726   4.382  1.00 20.00     0.098 C 
HETATM    8  O8  UNL     1     -33.486   6.801   6.658  1.00 20.00    -0.265 OA
HETATM    9  O9  UNL     1     -34.583   4.940   5.907  1.00 20.00    -0.320 OA
ENDROOT
TORSDOF 0
ENDMDL
MODEL 5
REMARK VINA RESULT:      -4.4     11.771     13.238
REMARK  0 active torsions:
REMARK  status: ('A' for Active; 'I' for Inactive)
ROOT
HETATM    1  C1  UNL     1     -33.742  16.190  -5.541  1.00 20.00    -0.029 C 
HETATM    2  C2  UNL     1     -35.024  15.813  -5.509  1.00 20.00    -0.023 C 
HETATM    3  C3  UNL     1     -33.779  13.516  -3.780  1.00 20.00     0.264 C 
HETATM    4  C4  UNL     1     -33.042  15.886  -4.256  1.00 20.00     0.042 C 
HETATM    5  C5  UNL     1     -36.004  13.836  -4.264  1.00 20.00     0.188 C 
HETATM    6  C6  UNL     1     -35.394  15.214  -4.184  1.00 20.00     0.046 C 
HETATM    7  C7  UNL     1     -34.039  14.983  -3.528  1.00 20.00     0.098 C 
HETATM    8  O8  UNL     1     -32.718  12.940  -3.597  1.00 20.00    -0.265 OA
HETATM    9  O9  UNL     1     -34.912  12.909  -4.242  1.00 20.00    -0.320 OA
ENDROOT
TORSDOF 0
ENDMDL
MODEL 6
REMARK VINA RESULT:      -4.3     12.216     13.652
REMARK  0 active torsions:
REMARK  status: ('A' for Active; 'I' for Inactive)
ROOT
HETATM    1  C1  UNL     1     -34.131  15.475  -6.826  1.00 20.00    -0.029 C 
HETATM    2  C2  UNL     1     -35.037  14.544  -6.510  1.00 20.00    -0.023 C 
HETATM    3  C3  UNL     1     -33.294  14.454  -3.909  1.00 20.00     0.264 C 
HETATM    4  C4  UNL     1     -33.703  16.260  -5.628  1.00 20.00     0.042 C 
HETATM    5  C5  UNL     1     -35.207  13.252  -4.338  1.00 20.00     0.188 C 
HETATM    6  C6  UNL     1     -35.377  14.572  -5.049  1.00 20.00     0.046 C 
HETATM    7  C7  UNL     1     -34.280  15.453  -4.465  1.00 20.00     0.098 C 
HETATM    8  O8  UNL     1     -32.165  14.710  -3.518  1.00 20.00    -0.265 OA
HETATM    9  O9  UNL     1     -33.844  13.204  -3.897  1.00 20.00    -0.320 OA
ENDROOT
TORSDOF 0
ENDMDL
MODEL 7
REMARK VINA RESULT:      -4.3     12.375     13.020
REMARK  0 active torsions:
REMARK  status: ('A' for Active; 'I' for Inactive)
ROOT
HETATM    1  C1  UNL     1     -34.241  16.099  -2.555  1.00 20.00    -0.029 C 
HETATM    2  C2  UNL     1     -33.422  15.242  -3.172  1.00 20.00    -0.023 C 
HETATM    3  C3  UNL     1     -36.172  14.072  -4.108  1.00 20.00     0.264 C 
HETATM    4  C4  UNL     1     -35.463  16.382  -3.369  1.00 20.00     0.042 C 
HETATM    5  C5  UNL     1     -34.078  13.338  -4.708  1.00 20.00     0.188 C 
HETATM    6  C6  UNL     1     -33.955  14.829  -4.511  1.00 20.00     0.046 C 
HETATM    7  C7  UNL     1     -35.397  15.318  -4.466  1.00 20.00     0.098 C 
HETATM    8  O8  UNL     1     -37.348  14.037  -3.775  1.00 20.00    -0.265 OA
HETATM    9  O9  UNL     1     -35.372  12.971  -4.215  1.00 20.00    -0.320 OA
ENDROOT
TORSDOF 0
ENDMDL
MODEL 8
REMARK VINA RESULT:      -4.1     12.663     13.969
REMARK  0 active torsions:
REMARK  status: ('A' for Active; 'I' for Inactive)
ROOT
HETATM    1  C1  UNL     1     -36.000  14.837  -7.328  1.00 20.00    -0.029 C 
HETATM    2  C2  UNL     1     -36.944  15.430  -6.592  1.00 20.00    -0.023 C 
HETATM    3  C3  UNL     1     -35.582  13.699  -4.365  1.00 20.00     0.264 C 
HETATM    4  C4  UNL     1     -34.737  14.637  -6.554  1.00 20.00     0.042 C 
HETATM    5  C5  UNL     1     -37.313  15.188  -4.097  1.00 20.00     0.188 C 
HETATM    6  C6  UNL     1     -36.456  15.743  -5.209  1.00 20.00     0.046 C 
HETATM    7  C7  UNL     1     -35.164  14.940  -5.117  1.00 20.00     0.098 C 
HETATM    8  O8  UNL     1     -34.909  12.687  -4.233  1.00 20.00    -0.265 OA
HETATM    9  O9  UNL     1     -36.831  13.864  -3.838  1.00 20.00    -0.320 OA
ENDROOT
TORSDOF 0
ENDMDL
MODEL 9
REMARK VINA RESULT:      -4.1     12.661     13.441
REMARK  0 active torsions:
REMARK  status: ('A' for Active; 'I' for Inactive)
ROOT
HETATM    1  C1  UNL     1     -34.421  15.354  -6.348  1.00 20.00    -0.029 C 
HETATM    2  C2  UNL     1     -33.747  15.863  -5.313  1.00 20.00    -0.023 C 
HETATM    3  C3  UNL     1     -36.093  14.487  -3.759  1.00 20.00     0.264 C 
HETATM    4  C4  UNL     1     -35.042  14.036  -6.012  1.00 20.00     0.042 C 
HETATM    5  C5  UNL     1     -34.296  15.600  -2.854  1.00 20.00     0.188 C 
HETATM    6  C6  UNL     1     -33.790  14.954  -4.121  1.00 20.00     0.046 C 
HETATM    7  C7  UNL     1     -34.883  13.960  -4.493  1.00 20.00     0.098 C 
HETATM    8  O8  UNL     1     -37.244  14.111  -3.923  1.00 20.00    -0.265 OA
HETATM    9  O9  UNL     1     -35.720  15.452  -2.867  1.00 20.00    -0.320 OA
ENDROOT
TORSDOF 0
ENDMDL
