MODEL 1
REMARK VINA RESULT:      -3.7      0.000      0.000
REMARK  2 active torsions:
REMARK  status: ('A' for Active; 'I' for Inactive)
REMARK    1  A    between atoms: C1_1  and  C2_2 
REMARK    2  A    between atoms: C2_2  and  C3_3 
ROOT
HETATM    1  C1  UNL     1     -34.912   4.777   5.386  1.00 20.00     0.173 C 
HETATM    2  O4  UNL     1     -35.102   3.529   5.313  1.00 20.00    -0.648 OA
HETATM    3  O5  UNL     1     -34.835   5.517   6.405  1.00 20.00    -0.648 OA
ENDROOT
BRANCH   1   4
HETATM    4  C2  UNL     1     -34.740   5.467   4.027  1.00 20.00     0.128 C 
BRANCH   4   5
HETATM    5  C3  UNL     1     -33.714   6.586   3.952  1.00 20.00     0.125 C 
HETATM    6 CL6  UNL     1     -32.252   6.059   3.082  1.00 20.00    -0.130 Cl
ENDBRANCH   4   5
ENDBRANCH   1   4
TORSDOF 2
ENDMDL
MODEL 2
REMARK VINA RESULT:      -3.7      0.032      1.319
REMARK  2 active torsions:
REMARK  status: ('A' for Active; 'I' for Inactive)
REMARK    1  A    between atoms: C1_1  and  C2_2 
REMARK    2  A    between atoms: C2_2  and  C3_3 
ROOT
HETATM    1  C1  UNL     1     -34.883   4.757   5.381  1.00 20.00     0.173 C 
HETATM    2  O4  UNL     1     -34.824   5.523   6.386  1.00 20.00    -0.648 OA
HETATM    3  O5  UNL     1     -35.062   3.509   5.335  1.00 20.00    -0.648 OA
ENDROOT
BRANCH   1   4
HETATM    4  C2  UNL     1     -34.726   5.474   4.035  1.00 20.00     0.128 C 
BRANCH   4   5
HETATM    5  C3  UNL     1     -33.687   6.581   3.965  1.00 20.00     0.125 C 
HETATM    6 CL6  UNL     1     -32.246   6.053   3.061  1.00 20.00    -0.130 Cl
ENDBRANCH   4   5
ENDBRANCH   1   4
TORSDOF 2
ENDMDL
MODEL 3
REMARK VINA RESULT:      -3.5      2.466      2.852
REMARK  2 active torsions:
REMARK  status: ('A' for Active; 'I' for Inactive)
REMARK    1  A    between atoms: C1_1  and  C2_2 
REMARK    2  A    between atoms: C2_2  and  C3_3 
ROOT
HETATM    1  C1  UNL     1     -34.922   5.329   3.854  1.00 20.00     0.173 C 
HETATM    2  O4  UNL     1     -36.088   5.720   3.560  1.00 20.00    -0.648 OA
HETATM    3  O5  UNL     1     -33.819   5.635   3.324  1.00 20.00    -0.648 OA
ENDROOT
BRANCH   1   4
HETATM    4  C2  UNL     1     -34.865   4.355   5.037  1.00 20.00     0.128 C 
BRANCH   4   5
HETATM    5  C3  UNL     1     -34.830   4.967   6.428  1.00 20.00     0.125 C 
HETATM    6 CL6  UNL     1     -34.044   6.565   6.406  1.00 20.00    -0.130 Cl
ENDBRANCH   4   5
ENDBRANCH   1   4
TORSDOF 2
ENDMDL
MODEL 4
REMARK VINA RESULT:      -3.5     12.052     12.305
REMARK  2 active torsions:
REMARK  status: ('A' for Active; 'I' for Inactive)
REMARK    1  A    between atoms: C1_1  and  C2_2 
REMARK    2  A    between atoms: C2_2  and  C3_3 
ROOT
HETATM    1  C1  UNL     1     -34.290  13.480  -3.868  1.00 20.00     0.173 C 
HETATM    2  O4  UNL     1     -35.094  12.673  -4.417  1.00 20.00    -0.648 OA
HETATM    3  O5  UNL     1     -33.050  13.359  -3.666  1.00 20.00    -0.648 OA
ENDROOT
BRANCH   1   4
HETATM    4  C2  UNL     1     -34.933  14.791  -3.402  1.00 20.00     0.128 C 
BRANCH   4   5
HETATM    5  C3  UNL     1     -34.009  15.822  -2.774  1.00 20.00     0.125 C 
HETATM    6 CL6  UNL     1     -34.617  16.343  -1.183  1.00 20.00    -0.130 Cl
ENDBRANCH   4   5
ENDBRANCH   1   4
TORSDOF 2
ENDMDL
MODEL 5
REMARK VINA RESULT:      -3.4     12.049     12.346
REMARK  2 active torsions:
REMARK  status: ('A' for Active; 'I' for Inactive)
REMARK    1  A    between atoms: C1_1  and  C2_2 
REMARK    2  A    between atoms: C2_2  and  C3_3 
ROOT
HETATM    1  C1  UNL     1     -34.245  13.402  -3.952  1.00 20.00     0.173 C 
HETATM    2  O4  UNL     1     -33.035  13.300  -3.601  1.00 20.00    -0.648 OA
HETATM    3  O5  UNL     1     -34.934  12.637  -4.683  1.00 20.00    -0.648 OA
ENDROOT
BRANCH   1   4
HETATM    4  C2  UNL     1     -34.964  14.631  -3.383  1.00 20.00     0.128 C 
BRANCH   4   5
HETATM    5  C3  UNL     1     -34.086  15.762  -2.872  1.00 20.00     0.125 C 
HETATM    6 CL6  UNL     1     -34.627  16.320  -1.270  1.00 20.00    -0.130 Cl
ENDBRANCH   4   5
ENDBRANCH   1   4
TORSDOF 2
ENDMDL
MODEL 6
REMARK VINA RESULT:      -3.4      2.726      3.101
REMARK  2 active torsions:
REMARK  status: ('A' for Active; 'I' for Inactive)
REMARK    1  A    between atoms: C1_1  and  C2_2 
REMARK    2  A    between atoms: C2_2  and  C3_3 
ROOT
HETATM    1  C1  UNL     1     -33.169   6.155   3.812  1.00 20.00     0.173 C 
HETATM    2  O4  UNL     1     -32.189   6.089   3.015  1.00 20.00    -0.648 OA
HETATM    3  O5  UNL     1     -33.259   6.750   4.921  1.00 20.00    -0.648 OA
ENDROOT
BRANCH   1   4
HETATM    4  C2  UNL     1     -34.420   5.409   3.334  1.00 20.00     0.128 C 
BRANCH   4   5
HETATM    5  C3  UNL     1     -35.473   5.093   4.384  1.00 20.00     0.125 C 
HETATM    6 CL6  UNL     1     -34.871   3.894   5.555  1.00 20.00    -0.130 Cl
ENDBRANCH   4   5
ENDBRANCH   1   4
TORSDOF 2
ENDMDL
MODEL 7
REMARK VINA RESULT:      -3.3      3.060      3.406
REMARK  2 active torsions:
REMARK  status: ('A' for Active; 'I' for Inactive)
REMARK    1  A    between atoms: C1_1  and  C2_2 
REMARK    2  A    between atoms: C2_2  and  C3_3 
ROOT
HETATM    1  C1  UNL     1     -32.969   6.368   3.574  1.00 20.00     0.173 C 
HETATM    2  O4  UNL     1     -33.339   5.716   2.556  1.00 20.00    -0.648 OA
HETATM    3  O5  UNL     1     -31.965   7.118   3.723  1.00 20.00    -0.648 OA
ENDROOT
BRANCH   1   4
HETATM    4  C2  UNL     1     -33.898   6.223   4.785  1.00 20.00     0.128 C 
BRANCH   4   5
HETATM    5  C3  UNL     1     -35.025   5.210   4.668  1.00 20.00     0.125 C 
HETATM    6 CL6  UNL     1     -35.050   4.112   6.069  1.00 20.00    -0.130 Cl
ENDBRANCH   4   5
ENDBRANCH   1   4
TORSDOF 2
ENDMDL
MODEL 8
REMARK VINA RESULT:      -3.3     12.308     12.651
REMARK  2 active torsions:
REMARK  status: ('A' for Active; 'I' for Inactive)
REMARK    1  A    between atoms: C1_1  and  C2_2 
REMARK    2  A    between atoms: C2_2  and  C3_3 
ROOT
HETATM    1  C1  UNL     1     -34.147  13.391  -3.868  1.00 20.00     0.173 C 
HETATM    2  O4  UNL     1     -32.924  13.099  -3.739  1.00 20.00    -0.648 OA
HETATM    3  O5  UNL     1     -35.088  12.699  -4.346  1.00 20.00    -0.648 OA
ENDROOT
BRANCH   1   4
HETATM    4  C2  UNL     1     -34.520  14.784  -3.349  1.00 20.00     0.128 C 
BRANCH   4   5
HETATM    5  C3  UNL     1     -33.423  15.837  -3.362  1.00 20.00     0.125 C 
HETATM    6 CL6  UNL     1     -33.129  16.436  -5.012  1.00 20.00    -0.130 Cl
ENDBRANCH   4   5
ENDBRANCH   1   4
TORSDOF 2
ENDMDL
MODEL 9
REMARK VINA RESULT:      -3.3     12.309     12.629
REMARK  2 active torsions:
REMARK  status: ('A' for Active; 'I' for Inactive)
REMARK    1  A    between atoms: C1_1  and  C2_2 
REMARK    2  A    between atoms: C2_2  and  C3_3 
ROOT
HETATM    1  C1  UNL     1     -34.139  13.415  -3.836  1.00 20.00     0.173 C 
HETATM    2  O4  UNL     1     -35.095  12.736  -4.308  1.00 20.00    -0.648 OA
HETATM    3  O5  UNL     1     -32.915  13.121  -3.748  1.00 20.00    -0.648 OA
ENDROOT
BRANCH   1   4
HETATM    4  C2  UNL     1     -34.548  14.797  -3.313  1.00 20.00     0.128 C 
BRANCH   4   5
HETATM    5  C3  UNL     1     -33.486  15.884  -3.347  1.00 20.00     0.125 C 
HETATM    6 CL6  UNL     1     -33.184  16.436  -5.013  1.00 20.00    -0.130 Cl
ENDBRANCH   4   5
ENDBRANCH   1   4
TORSDOF 2
ENDMDL
