MODEL 1
REMARK VINA RESULT:      -4.2      0.000      0.000
REMARK  0 active torsions:
REMARK  status: ('A' for Active; 'I' for Inactive)
ROOT
HETATM    1  C1  UNL     1     -35.091   4.493   4.944  1.00 20.00    -0.021 C 
HETATM    2  C2  UNL     1     -34.253   5.146   5.774  1.00 20.00    -0.021 C 
HETATM    3  C3  UNL     1     -33.820   5.333   3.003  1.00 20.00    -0.021 C 
HETATM    4  C4  UNL     1     -32.982   5.985   3.833  1.00 20.00    -0.021 C 
HETATM    5  C5  UNL     1     -35.111   6.707   4.320  1.00 20.00     0.024 C 
HETATM    6  C6  UNL     1     -35.184   5.317   3.671  1.00 20.00     0.031 C 
HETATM    7  C7  UNL     1     -33.794   6.399   5.049  1.00 20.00     0.031 C 
ENDROOT
TORSDOF 0
ENDMDL
MODEL 2
REMARK VINA RESULT:      -4.2      0.078      2.439
REMARK  0 active torsions:
REMARK  status: ('A' for Active; 'I' for Inactive)
ROOT
HETATM    1  C1  UNL     1     -32.971   5.970   3.805  1.00 20.00    -0.021 C 
HETATM    2  C2  UNL     1     -33.821   5.376   2.943  1.00 20.00    -0.021 C 
HETATM    3  C3  UNL     1     -34.257   5.054   5.701  1.00 20.00    -0.021 C 
HETATM    4  C4  UNL     1     -35.106   4.460   4.839  1.00 20.00    -0.021 C 
HETATM    5  C5  UNL     1     -35.086   6.704   4.330  1.00 20.00     0.024 C 
HETATM    6  C6  UNL     1     -33.776   6.334   5.041  1.00 20.00     0.031 C 
HETATM    7  C7  UNL     1     -35.185   5.350   3.610  1.00 20.00     0.031 C 
ENDROOT
TORSDOF 0
ENDMDL
MODEL 3
REMARK VINA RESULT:      -4.1      0.953      2.227
REMARK  0 active torsions:
REMARK  status: ('A' for Active; 'I' for Inactive)
ROOT
HETATM    1  C1  UNL     1     -34.108   6.416   6.153  1.00 20.00    -0.021 C 
HETATM    2  C2  UNL     1     -34.896   5.400   6.558  1.00 20.00    -0.021 C 
HETATM    3  C3  UNL     1     -34.809   6.031   3.819  1.00 20.00    -0.021 C 
HETATM    4  C4  UNL     1     -35.598   5.016   4.224  1.00 20.00    -0.021 C 
HETATM    5  C5  UNL     1     -33.470   4.553   4.965  1.00 20.00     0.024 C 
HETATM    6  C6  UNL     1     -33.617   6.069   4.758  1.00 20.00     0.031 C 
HETATM    7  C7  UNL     1     -34.924   4.383   5.430  1.00 20.00     0.031 C 
ENDROOT
TORSDOF 0
ENDMDL
MODEL 4
REMARK VINA RESULT:      -4.1      0.968      2.360
REMARK  0 active torsions:
REMARK  status: ('A' for Active; 'I' for Inactive)
ROOT
HETATM    1  C1  UNL     1     -35.604   4.972   4.263  1.00 20.00    -0.021 C 
HETATM    2  C2  UNL     1     -34.817   5.981   3.838  1.00 20.00    -0.021 C 
HETATM    3  C3  UNL     1     -34.894   5.399   6.587  1.00 20.00    -0.021 C 
HETATM    4  C4  UNL     1     -34.107   6.408   6.162  1.00 20.00    -0.021 C 
HETATM    5  C5  UNL     1     -33.474   4.523   5.004  1.00 20.00     0.024 C 
HETATM    6  C6  UNL     1     -34.926   4.363   5.478  1.00 20.00     0.031 C 
HETATM    7  C7  UNL     1     -33.621   6.035   4.772  1.00 20.00     0.031 C 
ENDROOT
TORSDOF 0
ENDMDL
MODEL 5
REMARK VINA RESULT:      -3.8      8.073      9.317
REMARK  0 active torsions:
REMARK  status: ('A' for Active; 'I' for Inactive)
ROOT
HETATM    1  C1  UNL     1     -41.752   6.392  -2.136  1.00 20.00    -0.021 C 
HETATM    2  C2  UNL     1     -41.111   6.945  -1.087  1.00 20.00    -0.021 C 
HETATM    3  C3  UNL     1     -42.939   4.865  -0.604  1.00 20.00    -0.021 C 
HETATM    4  C4  UNL     1     -42.298   5.418   0.445  1.00 20.00    -0.021 C 
HETATM    5  C5  UNL     1     -40.684   4.686  -1.023  1.00 20.00     0.024 C 
HETATM    6  C6  UNL     1     -41.993   4.933  -1.789  1.00 20.00     0.031 C 
HETATM    7  C7  UNL     1     -40.928   5.850  -0.050  1.00 20.00     0.031 C 
ENDROOT
TORSDOF 0
ENDMDL
MODEL 6
REMARK VINA RESULT:      -3.8      8.043      9.247
REMARK  0 active torsions:
REMARK  status: ('A' for Active; 'I' for Inactive)
ROOT
HETATM    1  C1  UNL     1     -42.277   5.409   0.461  1.00 20.00    -0.021 C 
HETATM    2  C2  UNL     1     -42.932   4.893  -0.598  1.00 20.00    -0.021 C 
HETATM    3  C3  UNL     1     -41.077   6.959  -1.038  1.00 20.00    -0.021 C 
HETATM    4  C4  UNL     1     -41.733   6.443  -2.097  1.00 20.00    -0.021 C 
HETATM    5  C5  UNL     1     -40.683   4.693  -1.035  1.00 20.00     0.024 C 
HETATM    6  C6  UNL     1     -40.904   5.835  -0.032  1.00 20.00     0.031 C 
HETATM    7  C7  UNL     1     -41.992   4.978  -1.788  1.00 20.00     0.031 C 
ENDROOT
TORSDOF 0
ENDMDL
MODEL 7
REMARK VINA RESULT:      -3.7      8.104      9.343
REMARK  0 active torsions:
REMARK  status: ('A' for Active; 'I' for Inactive)
ROOT
HETATM    1  C1  UNL     1     -40.945   7.126  -0.828  1.00 20.00    -0.021 C 
HETATM    2  C2  UNL     1     -41.960   7.071  -1.713  1.00 20.00    -0.021 C 
HETATM    3  C3  UNL     1     -40.680   4.677  -0.981  1.00 20.00    -0.021 C 
HETATM    4  C4  UNL     1     -41.695   4.622  -1.866  1.00 20.00    -0.021 C 
HETATM    5  C5  UNL     1     -42.501   5.662   0.022  1.00 20.00     0.024 C 
HETATM    6  C6  UNL     1     -40.975   5.829  -0.037  1.00 20.00     0.031 C 
HETATM    7  C7  UNL     1     -42.660   5.739  -1.504  1.00 20.00     0.031 C 
ENDROOT
TORSDOF 0
ENDMDL
MODEL 8
REMARK VINA RESULT:      -3.7      8.061      9.108
REMARK  0 active torsions:
REMARK  status: ('A' for Active; 'I' for Inactive)
ROOT
HETATM    1  C1  UNL     1     -41.560   4.537  -1.749  1.00 20.00    -0.021 C 
HETATM    2  C2  UNL     1     -40.580   4.697  -0.838  1.00 20.00    -0.021 C 
HETATM    3  C3  UNL     1     -41.913   6.978  -1.796  1.00 20.00    -0.021 C 
HETATM    4  C4  UNL     1     -40.932   7.138  -0.886  1.00 20.00    -0.021 C 
HETATM    5  C5  UNL     1     -42.468   5.687   0.024  1.00 20.00     0.024 C 
HETATM    6  C6  UNL     1     -42.574   5.642  -1.508  1.00 20.00     0.031 C 
HETATM    7  C7  UNL     1     -40.948   5.907   0.004  1.00 20.00     0.031 C 
ENDROOT
TORSDOF 0
ENDMDL
MODEL 9
REMARK VINA RESULT:      -3.7     11.599     12.511
REMARK  0 active torsions:
REMARK  status: ('A' for Active; 'I' for Inactive)
ROOT
HETATM    1  C1  UNL     1     -33.299  13.834  -3.739  1.00 20.00    -0.021 C 
HETATM    2  C2  UNL     1     -34.622  13.582  -3.802  1.00 20.00    -0.021 C 
HETATM    3  C3  UNL     1     -33.761  15.978  -2.609  1.00 20.00    -0.021 C 
HETATM    4  C4  UNL     1     -35.083  15.726  -2.671  1.00 20.00    -0.021 C 
HETATM    5  C5  UNL     1     -34.273  15.614  -4.821  1.00 20.00     0.024 C 
HETATM    6  C6  UNL     1     -33.129  15.340  -3.833  1.00 20.00     0.031 C 
HETATM    7  C7  UNL     1     -35.323  14.923  -3.938  1.00 20.00     0.031 C 
ENDROOT
TORSDOF 0
ENDMDL
