MODEL 1
REMARK VINA RESULT:      -4.8      0.000      0.000
REMARK  2 active torsions:
REMARK  status: ('A' for Active; 'I' for Inactive)
REMARK    1  A    between atoms: C2_2  and  C4_4 
REMARK    2  A    between atoms: C5_5  and  C9_9 
ROOT
HETATM    1  C1  UNL     1     -33.560  15.105  -3.764  1.00 20.00    -0.016 C 
HETATM    2  C2  UNL     1     -34.786  14.644  -4.044  1.00 20.00    -0.024 C 
HETATM    3  C6  UNL     1     -33.293  16.074  -2.646  1.00 20.00     0.036 C 
HETATM    4  C7  UNL     1     -36.023  15.059  -3.306  1.00 20.00     0.042 C 
HETATM    5  C8  UNL     1     -35.804  16.309  -2.446  1.00 20.00     0.014 C 
HETATM    6  C9  UNL     1     -34.479  16.227  -1.676  1.00 20.00     0.017 C 
ENDROOT
BRANCH   6   7
HETATM    7  C5  UNL     1     -34.286  17.423  -0.797  1.00 20.00    -0.089 C 
HETATM    8  C3  UNL     1     -33.457  18.423  -1.129  1.00 20.00     0.014 C 
HETATM    9  C10 UNL     1     -35.076  17.440   0.480  1.00 20.00     0.043 C 
ENDBRANCH   6   7
BRANCH   2  10
HETATM   10  C4  UNL     1     -34.921  13.695  -5.152  1.00 20.00     0.265 C 
HETATM   11  O11 UNL     1     -34.815  12.485  -5.000  1.00 20.00    -0.302 OA
ENDBRANCH   2  10
TORSDOF 2
ENDMDL
MODEL 2
REMARK VINA RESULT:      -4.5      1.487      1.558
REMARK  2 active torsions:
REMARK  status: ('A' for Active; 'I' for Inactive)
REMARK    1  A    between atoms: C2_2  and  C4_4 
REMARK    2  A    between atoms: C5_5  and  C9_9 
ROOT
HETATM    1  C1  UNL     1     -33.956  16.657  -4.785  1.00 20.00    -0.016 C 
HETATM    2  C2  UNL     1     -34.403  15.394  -4.758  1.00 20.00    -0.024 C 
HETATM    3  C6  UNL     1     -33.724  17.461  -3.536  1.00 20.00     0.036 C 
HETATM    4  C7  UNL     1     -34.749  14.656  -3.500  1.00 20.00     0.042 C 
HETATM    5  C8  UNL     1     -34.878  15.587  -2.288  1.00 20.00     0.014 C 
HETATM    6  C9  UNL     1     -33.736  16.611  -2.252  1.00 20.00     0.017 C 
ENDROOT
BRANCH   6   7
HETATM    7  C5  UNL     1     -33.830  17.488  -1.043  1.00 20.00    -0.089 C 
HETATM    8  C3  UNL     1     -33.026  18.547  -0.869  1.00 20.00     0.014 C 
HETATM    9  C10 UNL     1     -34.879  17.115  -0.035  1.00 20.00     0.043 C 
ENDBRANCH   6   7
BRANCH   2  10
HETATM   10  C4  UNL     1     -34.583  14.707  -6.040  1.00 20.00     0.265 C 
HETATM   11  O11 UNL     1     -34.104  15.128  -7.086  1.00 20.00    -0.302 OA
ENDBRANCH   2  10
TORSDOF 2
ENDMDL
MODEL 3
REMARK VINA RESULT:      -4.5      2.218      2.897
REMARK  2 active torsions:
REMARK  status: ('A' for Active; 'I' for Inactive)
REMARK    1  A    between atoms: C2_2  and  C4_4 
REMARK    2  A    between atoms: C5_5  and  C9_9 
ROOT
HETATM    1  C1  UNL     1     -33.654  18.527  -2.745  1.00 20.00    -0.016 C 
HETATM    2  C2  UNL     1     -33.878  17.268  -3.142  1.00 20.00    -0.024 C 
HETATM    3  C6  UNL     1     -33.701  18.943  -1.301  1.00 20.00     0.036 C 
HETATM    4  C7  UNL     1     -34.229  16.148  -2.209  1.00 20.00     0.042 C 
HETATM    5  C8  UNL     1     -34.648  16.647  -0.821  1.00 20.00     0.014 C 
HETATM    6  C9  UNL     1     -33.708  17.753  -0.324  1.00 20.00     0.017 C 
ENDROOT
BRANCH   6   7
HETATM    7  C5  UNL     1     -34.084  18.207   1.053  1.00 20.00    -0.089 C 
HETATM    8  C3  UNL     1     -33.316  19.051   1.756  1.00 20.00     0.014 C 
HETATM    9  C10 UNL     1     -35.372  17.663   1.600  1.00 20.00     0.043 C 
ENDBRANCH   6   7
BRANCH   2  10
HETATM   10  C4  UNL     1     -33.796  16.980  -4.576  1.00 20.00     0.265 C 
HETATM   11  O11 UNL     1     -32.813  16.459  -5.088  1.00 20.00    -0.302 OA
ENDBRANCH   2  10
TORSDOF 2
ENDMDL
MODEL 4
REMARK VINA RESULT:      -4.3      0.519      1.908
REMARK  2 active torsions:
REMARK  status: ('A' for Active; 'I' for Inactive)
REMARK    1  A    between atoms: C2_2  and  C4_4 
REMARK    2  A    between atoms: C5_5  and  C9_9 
ROOT
HETATM    1  C1  UNL     1     -35.818  15.105  -3.366  1.00 20.00    -0.016 C 
HETATM    2  C2  UNL     1     -34.806  14.673  -4.131  1.00 20.00    -0.024 C 
HETATM    3  C6  UNL     1     -35.650  16.190  -2.339  1.00 20.00     0.036 C 
HETATM    4  C7  UNL     1     -33.404  15.191  -4.033  1.00 20.00     0.042 C 
HETATM    5  C8  UNL     1     -33.162  15.997  -2.751  1.00 20.00     0.014 C 
HETATM    6  C9  UNL     1     -34.324  16.961  -2.476  1.00 20.00     0.017 C 
ENDROOT
BRANCH   6   7
HETATM    7  C5  UNL     1     -34.068  17.785  -1.253  1.00 20.00    -0.089 C 
HETATM    8  C3  UNL     1     -34.534  17.431  -0.047  1.00 20.00     0.014 C 
HETATM    9  C10 UNL     1     -33.259  19.033  -1.454  1.00 20.00     0.043 C 
ENDBRANCH   6   7
BRANCH   2  10
HETATM   10  C4  UNL     1     -35.092  13.616  -5.104  1.00 20.00     0.265 C 
HETATM   11  O11 UNL     1     -34.752  12.452  -4.932  1.00 20.00    -0.302 OA
ENDBRANCH   2  10
TORSDOF 2
ENDMDL
MODEL 5
REMARK VINA RESULT:      -4.3      1.092      1.333
REMARK  2 active torsions:
REMARK  status: ('A' for Active; 'I' for Inactive)
REMARK    1  A    between atoms: C2_2  and  C4_4 
REMARK    2  A    between atoms: C5_5  and  C9_9 
ROOT
HETATM    1  C1  UNL     1     -33.814  15.964  -4.801  1.00 20.00    -0.016 C 
HETATM    2  C2  UNL     1     -34.368  14.845  -4.314  1.00 20.00    -0.024 C 
HETATM    3  C6  UNL     1     -33.573  17.183  -3.955  1.00 20.00     0.036 C 
HETATM    4  C7  UNL     1     -34.834  14.691  -2.898  1.00 20.00     0.042 C 
HETATM    5  C8  UNL     1     -34.940  16.033  -2.164  1.00 20.00     0.014 C 
HETATM    6  C9  UNL     1     -33.718  16.917  -2.445  1.00 20.00     0.017 C 
ENDROOT
BRANCH   6   7
HETATM    7  C5  UNL     1     -33.794  18.208  -1.690  1.00 20.00    -0.089 C 
HETATM    8  C3  UNL     1     -34.478  19.263  -2.155  1.00 20.00     0.014 C 
HETATM    9  C10 UNL     1     -33.061  18.252  -0.381  1.00 20.00     0.043 C 
ENDBRANCH   6   7
BRANCH   2  10
HETATM   10  C4  UNL     1     -34.545  13.717  -5.232  1.00 20.00     0.265 C 
HETATM   11  O11 UNL     1     -34.779  12.580  -4.842  1.00 20.00    -0.302 OA
ENDBRANCH   2  10
TORSDOF 2
ENDMDL
MODEL 6
REMARK VINA RESULT:      -4.3      2.823      5.081
REMARK  2 active torsions:
REMARK  status: ('A' for Active; 'I' for Inactive)
REMARK    1  A    between atoms: C2_2  and  C4_4 
REMARK    2  A    between atoms: C5_5  and  C9_9 
ROOT
HETATM    1  C1  UNL     1     -34.069  16.713  -1.928  1.00 20.00    -0.016 C 
HETATM    2  C2  UNL     1     -33.767  17.892  -2.489  1.00 20.00    -0.024 C 
HETATM    3  C6  UNL     1     -34.307  15.468  -2.736  1.00 20.00     0.036 C 
HETATM    4  C7  UNL     1     -33.664  18.111  -3.968  1.00 20.00     0.042 C 
HETATM    5  C8  UNL     1     -34.274  16.962  -4.778  1.00 20.00     0.014 C 
HETATM    6  C9  UNL     1     -33.861  15.599  -4.204  1.00 20.00     0.017 C 
ENDROOT
BRANCH   6   7
HETATM    7  C5  UNL     1     -34.415  14.474  -5.023  1.00 20.00    -0.089 C 
HETATM    8  C3  UNL     1     -34.720  13.286  -4.482  1.00 20.00     0.014 C 
HETATM    9  C10 UNL     1     -34.609  14.754  -6.485  1.00 20.00     0.043 C 
ENDBRANCH   6   7
BRANCH   2  10
HETATM   10  C4  UNL     1     -33.547  19.034  -1.598  1.00 20.00     0.265 C 
HETATM   11  O11 UNL     1     -32.465  19.263  -1.074  1.00 20.00    -0.302 OA
ENDBRANCH   2  10
TORSDOF 2
ENDMDL
MODEL 7
REMARK VINA RESULT:      -4.3      3.112      5.262
REMARK  2 active torsions:
REMARK  status: ('A' for Active; 'I' for Inactive)
REMARK    1  A    between atoms: C2_2  and  C4_4 
REMARK    2  A    between atoms: C5_5  and  C9_9 
ROOT
HETATM    1  C1  UNL     1     -34.764  17.053  -0.027  1.00 20.00    -0.016 C 
HETATM    2  C2  UNL     1     -34.040  18.171   0.121  1.00 20.00    -0.024 C 
HETATM    3  C6  UNL     1     -34.801  16.277  -1.314  1.00 20.00     0.036 C 
HETATM    4  C7  UNL     1     -33.220  18.787  -0.972  1.00 20.00     0.042 C 
HETATM    5  C8  UNL     1     -33.564  18.222  -2.355  1.00 20.00     0.014 C 
HETATM    6  C9  UNL     1     -33.704  16.695  -2.310  1.00 20.00     0.017 C 
ENDROOT
BRANCH   6   7
HETATM    7  C5  UNL     1     -33.990  16.135  -3.670  1.00 20.00    -0.089 C 
HETATM    8  C3  UNL     1     -33.324  16.543  -4.759  1.00 20.00     0.014 C 
HETATM    9  C10 UNL     1     -35.065  15.090  -3.742  1.00 20.00     0.043 C 
ENDBRANCH   6   7
BRANCH   2  10
HETATM   10  C4  UNL     1     -34.075  18.838   1.426  1.00 20.00     0.265 C 
HETATM   11  O11 UNL     1     -33.257  18.606   2.306  1.00 20.00    -0.302 OA
ENDBRANCH   2  10
TORSDOF 2
ENDMDL
MODEL 8
REMARK VINA RESULT:      -4.2     12.058     13.544
REMARK  2 active torsions:
REMARK  status: ('A' for Active; 'I' for Inactive)
REMARK    1  A    between atoms: C2_2  and  C4_4 
REMARK    2  A    between atoms: C5_5  and  C9_9 
ROOT
HETATM    1  C1  UNL     1     -41.404   2.975  -2.783  1.00 20.00    -0.016 C 
HETATM    2  C2  UNL     1     -42.525   3.094  -3.508  1.00 20.00    -0.024 C 
HETATM    3  C6  UNL     1     -40.938   4.041  -1.831  1.00 20.00     0.036 C 
HETATM    4  C7  UNL     1     -43.416   4.299  -3.477  1.00 20.00     0.042 C 
HETATM    5  C8  UNL     1     -42.747   5.510  -2.817  1.00 20.00     0.014 C 
HETATM    6  C9  UNL     1     -42.012   5.104  -1.532  1.00 20.00     0.017 C 
ENDROOT
BRANCH   6   7
HETATM    7  C5  UNL     1     -41.399   6.292  -0.858  1.00 20.00    -0.089 C 
HETATM    8  C3  UNL     1     -40.471   6.164   0.101  1.00 20.00     0.014 C 
HETATM    9  C10 UNL     1     -41.885   7.636  -1.317  1.00 20.00     0.043 C 
ENDBRANCH   6   7
BRANCH   2  10
HETATM   10  C4  UNL     1     -42.883   1.985  -4.396  1.00 20.00     0.265 C 
HETATM   11  O11 UNL     1     -42.791   2.061  -5.615  1.00 20.00    -0.302 OA
ENDBRANCH   2  10
TORSDOF 2
ENDMDL
MODEL 9
REMARK VINA RESULT:      -4.2     12.151     14.253
REMARK  2 active torsions:
REMARK  status: ('A' for Active; 'I' for Inactive)
REMARK    1  A    between atoms: C2_2  and  C4_4 
REMARK    2  A    between atoms: C5_5  and  C9_9 
ROOT
HETATM    1  C1  UNL     1     -42.784   5.940  -2.551  1.00 20.00    -0.016 C 
HETATM    2  C2  UNL     1     -41.892   6.226  -1.594  1.00 20.00    -0.024 C 
HETATM    3  C6  UNL     1     -42.956   4.555  -3.110  1.00 20.00     0.036 C 
HETATM    4  C7  UNL     1     -40.952   5.221  -1.000  1.00 20.00     0.042 C 
HETATM    5  C8  UNL     1     -40.866   3.934  -1.827  1.00 20.00     0.014 C 
HETATM    6  C9  UNL     1     -42.259   3.468  -2.272  1.00 20.00     0.017 C 
ENDROOT
BRANCH   6   7
HETATM    7  C5  UNL     1     -42.183   2.183  -3.038  1.00 20.00    -0.089 C 
HETATM    8  C3  UNL     1     -41.222   1.952  -3.944  1.00 20.00     0.014 C 
HETATM    9  C10 UNL     1     -43.246   1.168  -2.734  1.00 20.00     0.043 C 
ENDBRANCH   6   7
BRANCH   2  10
HETATM   10  C4  UNL     1     -41.821   7.611  -1.120  1.00 20.00     0.265 C 
HETATM   11  O11 UNL     1     -42.819   8.265  -0.843  1.00 20.00    -0.302 OA
ENDBRANCH   2  10
TORSDOF 2
ENDMDL
