MODEL 1
REMARK VINA RESULT:      -4.7      0.000      0.000
REMARK  1 active torsions:
REMARK  status: ('A' for Active; 'I' for Inactive)
REMARK    1  A    between atoms: C6_6  and  C10_10 
ROOT
HETATM    1  C1  UNL     1     -34.496  13.747  -4.671  1.00 20.00     0.127 C 
HETATM    2  C2  UNL     1     -34.558  14.114  -6.136  1.00 20.00     0.082 C 
HETATM    3  C3  UNL     1     -33.458  14.471  -3.845  1.00 20.00     0.083 C 
HETATM    4  C4  UNL     1     -33.710  16.413  -5.464  1.00 20.00     0.010 C 
HETATM    5  C5  UNL     1     -34.714  15.624  -6.322  1.00 20.00    -0.011 C 
HETATM    6  C6  UNL     1     -33.594  15.986  -3.989  1.00 20.00    -0.004 C 
HETATM    7  C7  UNL     1     -36.164  16.065  -6.115  1.00 20.00     0.010 C 
HETATM    8  O11 UNL     1     -35.192  12.851  -4.197  1.00 20.00    -0.298 OA
ENDROOT
BRANCH   6   9
HETATM    9  C10 UNL     1     -34.723  16.531  -3.112  1.00 20.00    -0.018 C 
HETATM   10  C8  UNL     1     -34.485  16.173  -1.647  1.00 20.00     0.010 C 
HETATM   11  C9  UNL     1     -34.851  18.043  -3.281  1.00 20.00     0.010 C 
ENDBRANCH   6   9
TORSDOF 1
ENDMDL
MODEL 2
REMARK VINA RESULT:      -4.5      1.813      2.758
REMARK  1 active torsions:
REMARK  status: ('A' for Active; 'I' for Inactive)
REMARK    1  A    between atoms: C6_6  and  C10_10 
ROOT
HETATM    1  C1  UNL     1     -36.859  15.619  -5.048  1.00 20.00     0.127 C 
HETATM    2  C2  UNL     1     -36.645  14.931  -6.377  1.00 20.00     0.082 C 
HETATM    3  C3  UNL     1     -36.530  14.808  -3.817  1.00 20.00     0.083 C 
HETATM    4  C4  UNL     1     -34.819  13.580  -5.239  1.00 20.00     0.010 C 
HETATM    5  C5  UNL     1     -35.224  14.376  -6.491  1.00 20.00    -0.011 C 
HETATM    6  C6  UNL     1     -35.108  14.251  -3.883  1.00 20.00    -0.004 C 
HETATM    7  C7  UNL     1     -34.224  15.474  -6.860  1.00 20.00     0.010 C 
HETATM    8  O11 UNL     1     -37.352  16.743  -4.973  1.00 20.00    -0.298 OA
ENDROOT
BRANCH   6   9
HETATM    9  C10 UNL     1     -34.075  15.314  -3.504  1.00 20.00    -0.018 C 
HETATM   10  C8  UNL     1     -34.407  15.923  -2.144  1.00 20.00     0.010 C 
HETATM   11  C9  UNL     1     -32.669  14.717  -3.495  1.00 20.00     0.010 C 
ENDBRANCH   6   9
TORSDOF 1
ENDMDL
MODEL 3
REMARK VINA RESULT:      -4.5      1.953      3.711
REMARK  1 active torsions:
REMARK  status: ('A' for Active; 'I' for Inactive)
REMARK    1  A    between atoms: C6_6  and  C10_10 
ROOT
HETATM    1  C1  UNL     1     -33.590  16.118  -5.169  1.00 20.00     0.127 C 
HETATM    2  C2  UNL     1     -32.970  15.520  -3.927  1.00 20.00     0.082 C 
HETATM    3  C3  UNL     1     -34.427  15.185  -6.012  1.00 20.00     0.083 C 
HETATM    4  C4  UNL     1     -34.938  13.915  -3.871  1.00 20.00     0.010 C 
HETATM    5  C5  UNL     1     -34.025  14.842  -3.052  1.00 20.00    -0.011 C 
HETATM    6  C6  UNL     1     -35.509  14.502  -5.176  1.00 20.00    -0.004 C 
HETATM    7  C7  UNL     1     -34.796  15.865  -2.215  1.00 20.00     0.010 C 
HETATM    8  O11 UNL     1     -33.358  17.275  -5.516  1.00 20.00    -0.298 OA
ENDROOT
BRANCH   6   9
HETATM    9  C10 UNL     1     -36.706  15.428  -4.948  1.00 20.00    -0.018 C 
HETATM   10  C8  UNL     1     -37.293  15.883  -6.282  1.00 20.00     0.010 C 
HETATM   11  C9  UNL     1     -37.770  14.731  -4.103  1.00 20.00     0.010 C 
ENDBRANCH   6   9
TORSDOF 1
ENDMDL
MODEL 4
REMARK VINA RESULT:      -4.4      1.591      2.840
REMARK  1 active torsions:
REMARK  status: ('A' for Active; 'I' for Inactive)
REMARK    1  A    between atoms: C6_6  and  C10_10 
ROOT
HETATM    1  C1  UNL     1     -34.737  15.063  -6.087  1.00 20.00     0.127 C 
HETATM    2  C2  UNL     1     -34.984  13.688  -5.509  1.00 20.00     0.082 C 
HETATM    3  C3  UNL     1     -35.488  16.203  -5.439  1.00 20.00     0.083 C 
HETATM    4  C4  UNL     1     -35.449  14.843  -3.294  1.00 20.00     0.010 C 
HETATM    5  C5  UNL     1     -34.744  13.671  -3.998  1.00 20.00    -0.011 C 
HETATM    6  C6  UNL     1     -35.257  16.233  -3.929  1.00 20.00    -0.004 C 
HETATM    7  C7  UNL     1     -33.252  13.578  -3.672  1.00 20.00     0.010 C 
HETATM    8  O11 UNL     1     -34.031  15.232  -7.079  1.00 20.00    -0.298 OA
ENDROOT
BRANCH   6   9
HETATM    9  C10 UNL     1     -33.912  16.874  -3.582  1.00 20.00    -0.018 C 
HETATM   10  C8  UNL     1     -33.771  18.229  -4.272  1.00 20.00     0.010 C 
HETATM   11  C9  UNL     1     -33.762  17.024  -2.070  1.00 20.00     0.010 C 
ENDBRANCH   6   9
TORSDOF 1
ENDMDL
MODEL 5
REMARK VINA RESULT:      -4.3      1.293      3.073
REMARK  1 active torsions:
REMARK  status: ('A' for Active; 'I' for Inactive)
REMARK    1  A    between atoms: C6_6  and  C10_10 
ROOT
HETATM    1  C1  UNL     1     -34.982  13.545  -4.202  1.00 20.00     0.127 C 
HETATM    2  C2  UNL     1     -33.915  14.110  -3.291  1.00 20.00     0.082 C 
HETATM    3  C3  UNL     1     -36.368  14.123  -4.042  1.00 20.00     0.083 C 
HETATM    4  C4  UNL     1     -35.248  16.273  -3.282  1.00 20.00     0.010 C 
HETATM    5  C5  UNL     1     -33.852  15.635  -3.390  1.00 20.00    -0.011 C 
HETATM    6  C6  UNL     1     -36.351  15.647  -4.155  1.00 20.00    -0.004 C 
HETATM    7  C7  UNL     1     -33.077  16.082  -4.632  1.00 20.00     0.010 C 
HETATM    8  O11 UNL     1     -34.752  12.613  -4.969  1.00 20.00    -0.298 OA
ENDROOT
BRANCH   6   9
HETATM    9  C10 UNL     1     -36.293  16.098  -5.616  1.00 20.00    -0.018 C 
HETATM   10  C8  UNL     1     -37.382  15.406  -6.434  1.00 20.00     0.010 C 
HETATM   11  C9  UNL     1     -36.430  17.615  -5.715  1.00 20.00     0.010 C 
ENDBRANCH   6   9
TORSDOF 1
ENDMDL
MODEL 6
REMARK VINA RESULT:      -4.3      2.009      4.026
REMARK  1 active torsions:
REMARK  status: ('A' for Active; 'I' for Inactive)
REMARK    1  A    between atoms: C6_6  and  C10_10 
ROOT
HETATM    1  C1  UNL     1     -34.294  17.705  -4.620  1.00 20.00     0.127 C 
HETATM    2  C2  UNL     1     -33.723  17.772  -3.223  1.00 20.00     0.082 C 
HETATM    3  C3  UNL     1     -33.662  16.698  -5.552  1.00 20.00     0.083 C 
HETATM    4  C4  UNL     1     -33.123  15.318  -3.488  1.00 20.00     0.010 C 
HETATM    5  C5  UNL     1     -33.714  16.393  -2.561  1.00 20.00    -0.011 C 
HETATM    6  C6  UNL     1     -33.653  15.300  -4.934  1.00 20.00    -0.004 C 
HETATM    7  C7  UNL     1     -35.096  16.028  -2.015  1.00 20.00     0.010 C 
HETATM    8  O11 UNL     1     -35.167  18.483  -5.002  1.00 20.00    -0.298 OA
ENDROOT
BRANCH   6   9
HETATM    9  C10 UNL     1     -35.017  14.621  -5.069  1.00 20.00    -0.018 C 
HETATM   10  C8  UNL     1     -35.389  14.453  -6.540  1.00 20.00     0.010 C 
HETATM   11  C9  UNL     1     -35.017  13.270  -4.357  1.00 20.00     0.010 C 
ENDBRANCH   6   9
TORSDOF 1
ENDMDL
MODEL 7
REMARK VINA RESULT:      -4.3      1.980      3.800
REMARK  1 active torsions:
REMARK  status: ('A' for Active; 'I' for Inactive)
REMARK    1  A    between atoms: C6_6  and  C10_10 
ROOT
HETATM    1  C1  UNL     1     -34.107  16.553  -3.867  1.00 20.00     0.127 C 
HETATM    2  C2  UNL     1     -34.449  15.392  -2.961  1.00 20.00     0.082 C 
HETATM    3  C3  UNL     1     -33.331  16.215  -5.118  1.00 20.00     0.083 C 
HETATM    4  C4  UNL     1     -34.443  13.932  -5.040  1.00 20.00     0.010 C 
HETATM    5  C5  UNL     1     -35.168  14.282  -3.729  1.00 20.00    -0.011 C 
HETATM    6  C6  UNL     1     -34.028  15.121  -5.926  1.00 20.00    -0.004 C 
HETATM    7  C7  UNL     1     -36.649  14.609  -3.926  1.00 20.00     0.010 C 
HETATM    8  O11 UNL     1     -34.373  17.714  -3.562  1.00 20.00    -0.298 OA
ENDROOT
BRANCH   6   9
HETATM    9  C10 UNL     1     -35.183  15.689  -6.753  1.00 20.00    -0.018 C 
HETATM   10  C8  UNL     1     -34.718  16.895  -7.566  1.00 20.00     0.010 C 
HETATM   11  C9  UNL     1     -35.765  14.616  -7.671  1.00 20.00     0.010 C 
ENDBRANCH   6   9
TORSDOF 1
ENDMDL
MODEL 8
REMARK VINA RESULT:      -4.2      1.758      3.694
REMARK  1 active torsions:
REMARK  status: ('A' for Active; 'I' for Inactive)
REMARK    1  A    between atoms: C6_6  and  C10_10 
ROOT
HETATM    1  C1  UNL     1     -33.620  15.197  -3.935  1.00 20.00     0.127 C 
HETATM    2  C2  UNL     1     -34.401  15.552  -2.690  1.00 20.00     0.082 C 
HETATM    3  C3  UNL     1     -34.149  14.036  -4.744  1.00 20.00     0.083 C 
HETATM    4  C4  UNL     1     -36.457  14.645  -3.874  1.00 20.00     0.010 C 
HETATM    5  C5  UNL     1     -35.880  15.778  -3.008  1.00 20.00    -0.011 C 
HETATM    6  C6  UNL     1     -35.622  14.234  -5.101  1.00 20.00    -0.004 C 
HETATM    7  C7  UNL     1     -36.118  17.170  -3.596  1.00 20.00     0.010 C 
HETATM    8  O11 UNL     1     -32.570  15.766  -4.226  1.00 20.00    -0.298 OA
ENDROOT
BRANCH   6   9
HETATM    9  C10 UNL     1     -35.787  15.183  -6.289  1.00 20.00    -0.018 C 
HETATM   10  C8  UNL     1     -34.905  14.741  -7.455  1.00 20.00     0.010 C 
HETATM   11  C9  UNL     1     -37.250  15.255  -6.720  1.00 20.00     0.010 C 
ENDBRANCH   6   9
TORSDOF 1
ENDMDL
MODEL 9
REMARK VINA RESULT:      -4.2      1.442      2.240
REMARK  1 active torsions:
REMARK  status: ('A' for Active; 'I' for Inactive)
REMARK    1  A    between atoms: C6_6  and  C10_10 
ROOT
HETATM    1  C1  UNL     1     -36.045  14.759  -3.404  1.00 20.00     0.127 C 
HETATM    2  C2  UNL     1     -35.225  13.670  -4.058  1.00 20.00     0.082 C 
HETATM    3  C3  UNL     1     -35.277  15.781  -2.599  1.00 20.00     0.083 C 
HETATM    4  C4  UNL     1     -33.316  15.344  -4.154  1.00 20.00     0.010 C 
HETATM    5  C5  UNL     1     -34.102  14.260  -4.912  1.00 20.00    -0.011 C 
HETATM    6  C6  UNL     1     -34.156  16.410  -3.426  1.00 20.00    -0.004 C 
HETATM    7  C7  UNL     1     -34.623  14.731  -6.272  1.00 20.00     0.010 C 
HETATM    8  O11 UNL     1     -37.274  14.764  -3.457  1.00 20.00    -0.298 OA
ENDROOT
BRANCH   6   9
HETATM    9  C10 UNL     1     -34.693  17.496  -4.359  1.00 20.00    -0.018 C 
HETATM   10  C8  UNL     1     -35.502  18.526  -3.573  1.00 20.00     0.010 C 
HETATM   11  C9  UNL     1     -33.548  18.172  -5.111  1.00 20.00     0.010 C 
ENDBRANCH   6   9
TORSDOF 1
ENDMDL
