MODEL 1
REMARK VINA RESULT:      -3.8      0.000      0.000
REMARK  2 active torsions:
REMARK  status: ('A' for Active; 'I' for Inactive)
REMARK    1  A    between atoms: C2_2  and  C4_4 
REMARK    2  A    between atoms: C3_3  and  C4_4 
ROOT
HETATM    1  C4  UNL     1     -33.935   6.514   4.115  1.00 20.00     0.127 C 
HETATM    2 CL7  UNL     1     -35.071   5.313   3.429  1.00 20.00    -0.121 Cl
ENDROOT
BRANCH   1   3
HETATM    3  C2  UNL     1     -32.611   6.455   3.364  1.00 20.00     0.164 A 
HETATM    4  C1  UNL     1     -32.158   7.592   2.491  1.00 20.00     0.201 A 
HETATM    5  O5  UNL     1     -31.630   7.397   3.813  1.00 20.00    -0.380 OA
ENDBRANCH   1   3
BRANCH   1   6
HETATM    6  C3  UNL     1     -33.793   6.331   5.627  1.00 20.00     0.137 C 
HETATM    7 CL6  UNL     1     -34.815   5.031   6.291  1.00 20.00    -0.129 Cl
ENDBRANCH   1   6
TORSDOF 2
ENDMDL
MODEL 2
REMARK VINA RESULT:      -3.5      1.581      1.893
REMARK  2 active torsions:
REMARK  status: ('A' for Active; 'I' for Inactive)
REMARK    1  A    between atoms: C2_2  and  C4_4 
REMARK    2  A    between atoms: C3_3  and  C4_4 
ROOT
HETATM    1  C4  UNL     1     -33.693   5.854   4.911  1.00 20.00     0.127 C 
HETATM    2 CL7  UNL     1     -33.832   6.839   6.399  1.00 20.00    -0.121 Cl
ENDROOT
BRANCH   1   3
HETATM    3  C2  UNL     1     -33.347   6.754   3.731  1.00 20.00     0.164 A 
HETATM    4  C1  UNL     1     -31.925   7.142   3.437  1.00 20.00     0.201 A 
HETATM    5  O5  UNL     1     -32.598   6.113   2.694  1.00 20.00    -0.380 OA
ENDBRANCH   1   3
BRANCH   1   6
HETATM    6  C3  UNL     1     -34.950   5.011   4.693  1.00 20.00     0.137 C 
HETATM    7 CL6  UNL     1     -35.317   3.909   6.044  1.00 20.00    -0.129 Cl
ENDBRANCH   1   6
TORSDOF 2
ENDMDL
MODEL 3
REMARK VINA RESULT:      -3.2      2.725      3.778
REMARK  2 active torsions:
REMARK  status: ('A' for Active; 'I' for Inactive)
REMARK    1  A    between atoms: C2_2  and  C4_4 
REMARK    2  A    between atoms: C3_3  and  C4_4 
ROOT
HETATM    1  C4  UNL     1     -33.750   6.530   4.090  1.00 20.00     0.127 C 
HETATM    2 CL7  UNL     1     -33.698   6.658   5.874  1.00 20.00    -0.121 Cl
ENDROOT
BRANCH   1   3
HETATM    3  C2  UNL     1     -34.527   5.284   3.687  1.00 20.00     0.164 A 
HETATM    4  C1  UNL     1     -35.202   4.420   4.716  1.00 20.00     0.201 A 
HETATM    5  O5  UNL     1     -35.938   5.362   3.919  1.00 20.00    -0.380 OA
ENDBRANCH   1   3
BRANCH   1   6
HETATM    6  C3  UNL     1     -32.342   6.595   3.496  1.00 20.00     0.137 C 
HETATM    7 CL6  UNL     1     -32.126   7.903   2.305  1.00 20.00    -0.129 Cl
ENDBRANCH   1   6
TORSDOF 2
ENDMDL
MODEL 4
REMARK VINA RESULT:      -3.2      2.498      3.594
REMARK  2 active torsions:
REMARK  status: ('A' for Active; 'I' for Inactive)
REMARK    1  A    between atoms: C2_2  and  C4_4 
REMARK    2  A    between atoms: C3_3  and  C4_4 
ROOT
HETATM    1  C4  UNL     1     -33.727   5.524   4.095  1.00 20.00     0.127 C 
HETATM    2 CL7  UNL     1     -34.333   5.262   2.432  1.00 20.00    -0.121 Cl
ENDROOT
BRANCH   1   3
HETATM    3  C2  UNL     1     -34.881   5.424   5.084  1.00 20.00     0.164 A 
HETATM    4  C1  UNL     1     -34.984   4.275   6.049  1.00 20.00     0.201 A 
HETATM    5  O5  UNL     1     -34.502   5.565   6.458  1.00 20.00    -0.380 OA
ENDBRANCH   1   3
BRANCH   1   6
HETATM    6  C3  UNL     1     -32.946   6.835   4.193  1.00 20.00     0.137 C 
HETATM    7 CL6  UNL     1     -32.199   7.340   2.656  1.00 20.00    -0.129 Cl
ENDBRANCH   1   6
TORSDOF 2
ENDMDL
MODEL 5
REMARK VINA RESULT:      -3.1      2.282      2.931
REMARK  2 active torsions:
REMARK  status: ('A' for Active; 'I' for Inactive)
REMARK    1  A    between atoms: C2_2  and  C4_4 
REMARK    2  A    between atoms: C3_3  and  C4_4 
ROOT
HETATM    1  C4  UNL     1     -34.012   6.341   4.243  1.00 20.00     0.127 C 
HETATM    2 CL7  UNL     1     -32.612   6.377   3.128  1.00 20.00    -0.121 Cl
ENDROOT
BRANCH   1   3
HETATM    3  C2  UNL     1     -33.525   6.134   5.672  1.00 20.00     0.164 A 
HETATM    4  C1  UNL     1     -33.489   7.271   6.654  1.00 20.00     0.201 A 
HETATM    5  O5  UNL     1     -34.537   6.289   6.673  1.00 20.00    -0.380 OA
ENDBRANCH   1   3
BRANCH   1   6
HETATM    6  C3  UNL     1     -35.045   5.308   3.790  1.00 20.00     0.137 C 
HETATM    7 CL6  UNL     1     -35.138   3.876   4.848  1.00 20.00    -0.129 Cl
ENDBRANCH   1   6
TORSDOF 2
ENDMDL
MODEL 6
REMARK VINA RESULT:      -3.1      2.814      3.894
REMARK  2 active torsions:
REMARK  status: ('A' for Active; 'I' for Inactive)
REMARK    1  A    between atoms: C2_2  and  C4_4 
REMARK    2  A    between atoms: C3_3  and  C4_4 
ROOT
HETATM    1  C4  UNL     1     -34.126   6.282   4.569  1.00 20.00     0.127 C 
HETATM    2 CL7  UNL     1     -33.508   6.808   6.164  1.00 20.00    -0.121 Cl
ENDROOT
BRANCH   1   3
HETATM    3  C2  UNL     1     -35.100   5.125   4.752  1.00 20.00     0.164 A 
HETATM    4  C1  UNL     1     -34.663   3.831   5.381  1.00 20.00     0.201 A 
HETATM    5  O5  UNL     1     -35.407   4.816   6.115  1.00 20.00    -0.380 OA
ENDBRANCH   1   3
BRANCH   1   6
HETATM    6  C3  UNL     1     -32.975   5.971   3.612  1.00 20.00     0.137 C 
HETATM    7 CL6  UNL     1     -32.226   7.422   2.896  1.00 20.00    -0.129 Cl
ENDBRANCH   1   6
TORSDOF 2
ENDMDL
MODEL 7
REMARK VINA RESULT:      -3.1     11.312     11.887
REMARK  2 active torsions:
REMARK  status: ('A' for Active; 'I' for Inactive)
REMARK    1  A    between atoms: C2_2  and  C4_4 
REMARK    2  A    between atoms: C3_3  and  C4_4 
ROOT
HETATM    1  C4  UNL     1     -34.391  15.667  -3.865  1.00 20.00     0.127 C 
HETATM    2 CL7  UNL     1     -35.752  16.709  -4.381  1.00 20.00    -0.121 Cl
ENDROOT
BRANCH   1   3
HETATM    3  C2  UNL     1     -34.888  14.242  -3.653  1.00 20.00     0.164 A 
HETATM    4  C1  UNL     1     -34.750  13.201  -4.729  1.00 20.00     0.201 A 
HETATM    5  O5  UNL     1     -33.854  13.253  -3.607  1.00 20.00    -0.380 OA
ENDBRANCH   1   3
BRANCH   1   6
HETATM    6  C3  UNL     1     -33.681  16.258  -2.646  1.00 20.00     0.137 C 
HETATM    7 CL6  UNL     1     -34.700  16.323  -1.185  1.00 20.00    -0.129 Cl
ENDBRANCH   1   6
TORSDOF 2
ENDMDL
MODEL 8
REMARK VINA RESULT:      -3.0     11.125     12.191
REMARK  2 active torsions:
REMARK  status: ('A' for Active; 'I' for Inactive)
REMARK    1  A    between atoms: C2_2  and  C4_4 
REMARK    2  A    between atoms: C3_3  and  C4_4 
ROOT
HETATM    1  C4  UNL     1     -34.454  15.440  -3.400  1.00 20.00     0.127 C 
HETATM    2 CL7  UNL     1     -34.638  16.028  -1.720  1.00 20.00    -0.121 Cl
ENDROOT
BRANCH   1   3
HETATM    3  C2  UNL     1     -34.558  13.920  -3.426  1.00 20.00     0.164 A 
HETATM    4  C1  UNL     1     -34.815  13.179  -4.709  1.00 20.00     0.201 A 
HETATM    5  O5  UNL     1     -33.501  13.263  -4.134  1.00 20.00    -0.380 OA
ENDBRANCH   1   3
BRANCH   1   6
HETATM    6  C3  UNL     1     -33.168  15.978  -4.031  1.00 20.00     0.137 C 
HETATM    7 CL6  UNL     1     -33.382  16.570  -5.698  1.00 20.00    -0.129 Cl
ENDBRANCH   1   6
TORSDOF 2
ENDMDL
MODEL 9
REMARK VINA RESULT:      -3.0      1.848      2.111
REMARK  2 active torsions:
REMARK  status: ('A' for Active; 'I' for Inactive)
REMARK    1  A    between atoms: C2_2  and  C4_4 
REMARK    2  A    between atoms: C3_3  and  C4_4 
ROOT
HETATM    1  C4  UNL     1     -34.899   5.554   5.089  1.00 20.00     0.127 C 
HETATM    2 CL7  UNL     1     -35.027   3.832   4.618  1.00 20.00    -0.121 Cl
ENDROOT
BRANCH   1   3
HETATM    3  C2  UNL     1     -34.194   6.336   3.987  1.00 20.00     0.164 A 
HETATM    4  C1  UNL     1     -32.781   6.016   3.585  1.00 20.00     0.201 A 
HETATM    5  O5  UNL     1     -33.907   5.576   2.808  1.00 20.00    -0.380 OA
ENDBRANCH   1   3
BRANCH   1   6
HETATM    6  C3  UNL     1     -34.240   5.699   6.462  1.00 20.00     0.137 C 
HETATM    7 CL6  UNL     1     -33.629   7.340   6.794  1.00 20.00    -0.129 Cl
ENDBRANCH   1   6
TORSDOF 2
ENDMDL
