MODEL 1
REMARK VINA RESULT:      -4.3      0.000      0.000
REMARK  1 active torsions:
REMARK  status: ('A' for Active; 'I' for Inactive)
REMARK    1  A    between atoms: C3_3  and  C8_8 
ROOT
HETATM    1  C1  UNL     1     -34.563  17.164  -4.002  1.00 20.00    -0.026 C 
HETATM    2  C2  UNL     1     -35.671  16.409  -3.953  1.00 20.00    -0.025 C 
HETATM    3  C4  UNL     1     -34.608  16.164  -1.919  1.00 20.00     0.017 C 
HETATM    4  C5  UNL     1     -33.092  15.243  -3.507  1.00 20.00     0.021 C 
HETATM    5  C6  UNL     1     -33.599  16.607  -2.983  1.00 20.00     0.009 C 
HETATM    6  C7  UNL     1     -35.439  15.339  -2.909  1.00 20.00     0.019 C 
HETATM    7  C8  UNL     1     -34.363  14.350  -3.417  1.00 20.00     0.055 C 
ENDROOT
BRANCH   7   8
HETATM    8  C3  UNL     1     -34.718  13.701  -4.719  1.00 20.00     0.236 C 
HETATM    9  O9  UNL     1     -34.853  12.489  -4.856  1.00 20.00    -0.306 OA
ENDBRANCH   7   8
TORSDOF 1
ENDMDL
MODEL 2
REMARK VINA RESULT:      -4.1      1.679      2.778
REMARK  1 active torsions:
REMARK  status: ('A' for Active; 'I' for Inactive)
REMARK    1  A    between atoms: C3_3  and  C8_8 
ROOT
HETATM    1  C1  UNL     1     -33.867  13.685  -3.755  1.00 20.00    -0.026 C 
HETATM    2  C2  UNL     1     -34.386  13.752  -4.989  1.00 20.00    -0.025 C 
HETATM    3  C4  UNL     1     -33.577  15.856  -4.493  1.00 20.00     0.017 C 
HETATM    4  C5  UNL     1     -35.326  15.493  -2.917  1.00 20.00     0.021 C 
HETATM    5  C6  UNL     1     -33.860  15.088  -3.197  1.00 20.00     0.009 C 
HETATM    6  C7  UNL     1     -34.738  15.201  -5.250  1.00 20.00     0.019 C 
HETATM    7  C8  UNL     1     -35.926  15.612  -4.348  1.00 20.00     0.055 C 
ENDROOT
BRANCH   7   8
HETATM    8  C3  UNL     1     -37.144  14.764  -4.545  1.00 20.00     0.236 C 
HETATM    9  O9  UNL     1     -37.797  14.293  -3.620  1.00 20.00    -0.306 OA
ENDBRANCH   7   8
TORSDOF 1
ENDMDL
MODEL 3
REMARK VINA RESULT:      -4.1      1.592      2.236
REMARK  1 active torsions:
REMARK  status: ('A' for Active; 'I' for Inactive)
REMARK    1  A    between atoms: C3_3  and  C8_8 
ROOT
HETATM    1  C1  UNL     1     -33.800  16.699  -3.307  1.00 20.00    -0.026 C 
HETATM    2  C2  UNL     1     -34.402  15.883  -2.429  1.00 20.00    -0.025 C 
HETATM    3  C4  UNL     1     -33.102  14.549  -3.793  1.00 20.00     0.017 C 
HETATM    4  C5  UNL     1     -34.736  15.490  -5.248  1.00 20.00     0.021 C 
HETATM    5  C6  UNL     1     -33.429  15.864  -4.509  1.00 20.00     0.009 C 
HETATM    6  C7  UNL     1     -34.444  14.504  -3.053  1.00 20.00     0.019 C 
HETATM    7  C8  UNL     1     -35.422  14.512  -4.251  1.00 20.00     0.055 C 
ENDROOT
BRANCH   7   8
HETATM    8  C3  UNL     1     -36.812  14.930  -3.883  1.00 20.00     0.236 C 
HETATM    9  O9  UNL     1     -37.749  14.144  -3.779  1.00 20.00    -0.306 OA
ENDBRANCH   7   8
TORSDOF 1
ENDMDL
MODEL 4
REMARK VINA RESULT:      -4.1     11.550     12.555
REMARK  1 active torsions:
REMARK  status: ('A' for Active; 'I' for Inactive)
REMARK    1  A    between atoms: C3_3  and  C8_8 
ROOT
HETATM    1  C1  UNL     1     -34.426   4.802   5.615  1.00 20.00    -0.026 C 
HETATM    2  C2  UNL     1     -34.125   6.109   5.630  1.00 20.00    -0.025 C 
HETATM    3  C4  UNL     1     -35.779   5.826   4.045  1.00 20.00     0.017 C 
HETATM    4  C5  UNL     1     -33.921   4.595   3.206  1.00 20.00     0.021 C 
HETATM    5  C6  UNL     1     -35.040   4.502   4.269  1.00 20.00     0.009 C 
HETATM    6  C7  UNL     1     -34.528   6.678   4.287  1.00 20.00     0.019 C 
HETATM    7  C8  UNL     1     -33.593   6.116   3.190  1.00 20.00     0.055 C 
ENDROOT
BRANCH   7   8
HETATM    8  C3  UNL     1     -32.145   6.407   3.435  1.00 20.00     0.236 C 
HETATM    9  O9  UNL     1     -31.668   7.537   3.407  1.00 20.00    -0.306 OA
ENDBRANCH   7   8
TORSDOF 1
ENDMDL
MODEL 5
REMARK VINA RESULT:      -4.1      1.521      1.825
REMARK  1 active torsions:
REMARK  status: ('A' for Active; 'I' for Inactive)
REMARK    1  A    between atoms: C3_3  and  C8_8 
ROOT
HETATM    1  C1  UNL     1     -33.542  16.159  -4.838  1.00 20.00    -0.026 C 
HETATM    2  C2  UNL     1     -34.690  16.786  -4.543  1.00 20.00    -0.025 C 
HETATM    3  C4  UNL     1     -33.702  16.230  -2.532  1.00 20.00     0.017 C 
HETATM    4  C5  UNL     1     -34.185  14.140  -3.567  1.00 20.00     0.021 C 
HETATM    5  C6  UNL     1     -33.178  15.312  -3.642  1.00 20.00     0.009 C 
HETATM    6  C7  UNL     1     -35.099  16.347  -3.154  1.00 20.00     0.019 C 
HETATM    7  C8  UNL     1     -35.513  14.856  -3.187  1.00 20.00     0.055 C 
ENDROOT
BRANCH   7   8
HETATM    8  C3  UNL     1     -36.629  14.570  -4.144  1.00 20.00     0.236 C 
HETATM    9  O9  UNL     1     -37.738  14.180  -3.793  1.00 20.00    -0.306 OA
ENDBRANCH   7   8
TORSDOF 1
ENDMDL
MODEL 6
REMARK VINA RESULT:      -4.1      0.891      2.085
REMARK  1 active torsions:
REMARK  status: ('A' for Active; 'I' for Inactive)
REMARK    1  A    between atoms: C3_3  and  C8_8 
ROOT
HETATM    1  C1  UNL     1     -34.634  15.929  -2.106  1.00 20.00    -0.026 C 
HETATM    2  C2  UNL     1     -33.644  15.855  -3.007  1.00 20.00    -0.025 C 
HETATM    3  C4  UNL     1     -35.294  17.174  -3.938  1.00 20.00     0.017 C 
HETATM    4  C5  UNL     1     -36.301  15.030  -3.691  1.00 20.00     0.021 C 
HETATM    5  C6  UNL     1     -35.898  16.269  -2.858  1.00 20.00     0.009 C 
HETATM    6  C7  UNL     1     -34.251  16.134  -4.365  1.00 20.00     0.019 C 
HETATM    7  C8  UNL     1     -35.177  14.960  -4.765  1.00 20.00     0.055 C 
ENDROOT
BRANCH   7   8
HETATM    8  C3  UNL     1     -34.479  13.636  -4.799  1.00 20.00     0.236 C 
HETATM    9  O9  UNL     1     -34.977  12.598  -4.377  1.00 20.00    -0.306 OA
ENDBRANCH   7   8
TORSDOF 1
ENDMDL
MODEL 7
REMARK VINA RESULT:      -4.0     11.742     12.906
REMARK  1 active torsions:
REMARK  status: ('A' for Active; 'I' for Inactive)
REMARK    1  A    between atoms: C3_3  and  C8_8 
ROOT
HETATM    1  C1  UNL     1     -42.727   5.533   0.464  1.00 20.00    -0.026 C 
HETATM    2  C2  UNL     1     -41.716   4.663   0.330  1.00 20.00    -0.025 C 
HETATM    3  C4  UNL     1     -41.005   6.655  -0.593  1.00 20.00     0.017 C 
HETATM    4  C5  UNL     1     -42.826   5.969  -1.966  1.00 20.00     0.021 C 
HETATM    5  C6  UNL     1     -42.537   6.602  -0.585  1.00 20.00     0.009 C 
HETATM    6  C7  UNL     1     -40.856   5.146  -0.818  1.00 20.00     0.019 C 
HETATM    7  C8  UNL     1     -41.634   4.985  -2.146  1.00 20.00     0.055 C 
ENDROOT
BRANCH   7   8
HETATM    8  C3  UNL     1     -42.070   3.578  -2.413  1.00 20.00     0.236 C 
HETATM    9  O9  UNL     1     -41.376   2.756  -3.002  1.00 20.00    -0.306 OA
ENDBRANCH   7   8
TORSDOF 1
ENDMDL
MODEL 8
REMARK VINA RESULT:      -4.0     11.620     12.652
REMARK  1 active torsions:
REMARK  status: ('A' for Active; 'I' for Inactive)
REMARK    1  A    between atoms: C3_3  and  C8_8 
ROOT
HETATM    1  C1  UNL     1     -41.207   7.110  -0.837  1.00 20.00    -0.026 C 
HETATM    2  C2  UNL     1     -42.524   7.150  -1.083  1.00 20.00    -0.025 C 
HETATM    3  C4  UNL     1     -42.201   5.557   0.557  1.00 20.00     0.017 C 
HETATM    4  C5  UNL     1     -41.066   4.698  -1.352  1.00 20.00     0.021 C 
HETATM    5  C6  UNL     1     -40.906   5.757  -0.237  1.00 20.00     0.009 C 
HETATM    6  C7  UNL     1     -43.101   5.817  -0.657  1.00 20.00     0.019 C 
HETATM    7  C8  UNL     1     -42.600   4.710  -1.616  1.00 20.00     0.055 C 
ENDROOT
BRANCH   7   8
HETATM    8  C3  UNL     1     -42.947   4.963  -3.050  1.00 20.00     0.236 C 
HETATM    9  O9  UNL     1     -43.417   4.108  -3.793  1.00 20.00    -0.306 OA
ENDBRANCH   7   8
TORSDOF 1
ENDMDL
MODEL 9
REMARK VINA RESULT:      -3.9      2.036      3.268
REMARK  1 active torsions:
REMARK  status: ('A' for Active; 'I' for Inactive)
REMARK    1  A    between atoms: C3_3  and  C8_8 
ROOT
HETATM    1  C1  UNL     1     -33.587  13.758  -3.836  1.00 20.00    -0.026 C 
HETATM    2  C2  UNL     1     -34.100  14.738  -3.078  1.00 20.00    -0.025 C 
HETATM    3  C4  UNL     1     -35.862  13.807  -4.243  1.00 20.00     0.017 C 
HETATM    4  C5  UNL     1     -34.462  14.754  -5.921  1.00 20.00     0.021 C 
HETATM    5  C6  UNL     1     -34.547  13.530  -4.979  1.00 20.00     0.009 C 
HETATM    6  C7  UNL     1     -35.398  15.173  -3.724  1.00 20.00     0.019 C 
HETATM    7  C8  UNL     1     -35.091  15.888  -5.062  1.00 20.00     0.055 C 
ENDROOT
BRANCH   7   8
HETATM    8  C3  UNL     1     -34.193  17.076  -4.910  1.00 20.00     0.236 C 
HETATM    9  O9  UNL     1     -33.023  17.091  -5.278  1.00 20.00    -0.306 OA
ENDBRANCH   7   8
TORSDOF 1
ENDMDL
