MODEL 1
REMARK VINA RESULT:      -5.7      0.000      0.000
REMARK  2 active torsions:
REMARK  status: ('A' for Active; 'I' for Inactive)
REMARK    1  A    between atoms: C2_2  and  C3_3 
REMARK    2  A    between atoms: N9_9  and  N10_10 
ROOT
HETATM    1  C1  UNL     1     -34.712   4.656   4.270  1.00 20.00    -0.018 C 
HETATM    2  C2  UNL     1     -34.013   5.791   4.386  1.00 20.00    -0.043 C 
HETATM    3  C5  UNL     1     -35.266   4.214   5.584  1.00 20.00     0.028 C 
HETATM    4  C6  UNL     1     -33.991   6.288   5.797  1.00 20.00     0.040 C 
HETATM    5  C7  UNL     1     -34.504   5.082   6.583  1.00 20.00     0.008 C 
ENDROOT
BRANCH   2   6
HETATM    6  C3  UNL     1     -33.366   6.497   3.327  1.00 20.00     0.147 C 
HETATM    7  N9  UNL     1     -32.157   6.965   3.419  1.00 20.00    -0.163 NA
BRANCH   7   8
HETATM    8  N10 UNL     1     -31.777   7.608   2.246  1.00 20.00    -0.168 NA
HETATM    9  C4  UNL     1     -32.456   8.695   2.086  1.00 20.00     0.109 C 
HETATM   10  C8  UNL     1     -32.232   9.568   0.893  1.00 20.00     0.059 C 
ENDBRANCH   7   8
ENDBRANCH   2   6
TORSDOF 2
ENDMDL
MODEL 2
REMARK VINA RESULT:      -4.3     11.218     11.810
REMARK  2 active torsions:
REMARK  status: ('A' for Active; 'I' for Inactive)
REMARK    1  A    between atoms: C2_2  and  C3_3 
REMARK    2  A    between atoms: N9_9  and  N10_10 
ROOT
HETATM    1  C1  UNL     1     -33.489  14.507  -3.579  1.00 20.00    -0.018 C 
HETATM    2  C2  UNL     1     -34.382  15.309  -2.987  1.00 20.00    -0.043 C 
HETATM    3  C5  UNL     1     -34.143  13.560  -4.528  1.00 20.00     0.028 C 
HETATM    4  C6  UNL     1     -35.776  15.023  -3.448  1.00 20.00     0.040 C 
HETATM    5  C7  UNL     1     -35.622  13.681  -4.164  1.00 20.00     0.008 C 
ENDROOT
BRANCH   2   6
HETATM    6  C3  UNL     1     -34.096  16.339  -2.040  1.00 20.00     0.147 C 
HETATM    7  N9  UNL     1     -34.695  16.436  -0.892  1.00 20.00    -0.163 NA
BRANCH   7   8
HETATM    8  N10 UNL     1     -34.227  17.530  -0.172  1.00 20.00    -0.168 NA
HETATM    9  C4  UNL     1     -33.215  18.064  -0.770  1.00 20.00     0.109 C 
HETATM   10  C8  UNL     1     -32.529  19.261  -0.191  1.00 20.00     0.059 C 
ENDBRANCH   7   8
ENDBRANCH   2   6
TORSDOF 2
ENDMDL
MODEL 3
REMARK VINA RESULT:      -4.3     11.124     12.310
REMARK  2 active torsions:
REMARK  status: ('A' for Active; 'I' for Inactive)
REMARK    1  A    between atoms: C2_2  and  C3_3 
REMARK    2  A    between atoms: N9_9  and  N10_10 
ROOT
HETATM    1  C1  UNL     1     -34.732  13.631  -3.886  1.00 20.00    -0.018 C 
HETATM    2  C2  UNL     1     -35.272  14.779  -3.462  1.00 20.00    -0.043 C 
HETATM    3  C5  UNL     1     -33.241  13.665  -3.821  1.00 20.00     0.028 C 
HETATM    4  C6  UNL     1     -34.225  15.764  -3.046  1.00 20.00     0.040 C 
HETATM    5  C7  UNL     1     -32.945  15.149  -3.612  1.00 20.00     0.008 C 
ENDROOT
BRANCH   2   6
HETATM    6  C3  UNL     1     -36.666  15.076  -3.376  1.00 20.00     0.147 C 
HETATM    7  N9  UNL     1     -37.594  14.258  -3.772  1.00 20.00    -0.163 NA
BRANCH   7   8
HETATM    8  N10 UNL     1     -38.859  14.800  -3.575  1.00 20.00    -0.168 NA
HETATM    9  C4  UNL     1     -39.632  14.515  -4.570  1.00 20.00     0.109 C 
HETATM   10  C8  UNL     1     -41.051  14.988  -4.595  1.00 20.00     0.059 C 
ENDBRANCH   7   8
ENDBRANCH   2   6
TORSDOF 2
ENDMDL
MODEL 4
REMARK VINA RESULT:      -4.2     11.079     12.375
REMARK  2 active torsions:
REMARK  status: ('A' for Active; 'I' for Inactive)
REMARK    1  A    between atoms: C2_2  and  C3_3 
REMARK    2  A    between atoms: N9_9  and  N10_10 
ROOT
HETATM    1  C1  UNL     1     -34.286  15.681  -3.286  1.00 20.00    -0.018 C 
HETATM    2  C2  UNL     1     -35.286  14.841  -3.575  1.00 20.00    -0.043 C 
HETATM    3  C5  UNL     1     -32.954  15.076  -3.578  1.00 20.00     0.028 C 
HETATM    4  C6  UNL     1     -34.778  13.538  -4.107  1.00 20.00     0.040 C 
HETATM    5  C7  UNL     1     -33.288  13.598  -3.771  1.00 20.00     0.008 C 
ENDROOT
BRANCH   2   6
HETATM    6  C3  UNL     1     -36.682  15.106  -3.433  1.00 20.00     0.147 C 
HETATM    7  N9  UNL     1     -37.604  14.245  -3.742  1.00 20.00    -0.163 NA
BRANCH   7   8
HETATM    8  N10 UNL     1     -38.873  14.763  -3.508  1.00 20.00    -0.168 NA
HETATM    9  C4  UNL     1     -39.643  14.547  -4.522  1.00 20.00     0.109 C 
HETATM   10  C8  UNL     1     -41.065  15.013  -4.515  1.00 20.00     0.059 C 
ENDBRANCH   7   8
ENDBRANCH   2   6
TORSDOF 2
ENDMDL
MODEL 5
REMARK VINA RESULT:      -4.2     11.786     12.618
REMARK  2 active torsions:
REMARK  status: ('A' for Active; 'I' for Inactive)
REMARK    1  A    between atoms: C2_2  and  C3_3 
REMARK    2  A    between atoms: N9_9  and  N10_10 
ROOT
HETATM    1  C1  UNL     1     -34.784  16.534  -0.813  1.00 20.00    -0.018 C 
HETATM    2  C2  UNL     1     -33.923  17.032  -1.708  1.00 20.00    -0.043 C 
HETATM    3  C5  UNL     1     -34.853  17.379   0.415  1.00 20.00     0.028 C 
HETATM    4  C6  UNL     1     -33.280  18.291  -1.218  1.00 20.00     0.040 C 
HETATM    5  C7  UNL     1     -33.636  18.291   0.269  1.00 20.00     0.008 C 
ENDROOT
BRANCH   2   6
HETATM    6  C3  UNL     1     -33.629  16.486  -2.994  1.00 20.00     0.147 C 
HETATM    7  N9  UNL     1     -33.549  17.207  -4.072  1.00 20.00    -0.163 NA
BRANCH   7   8
HETATM    8  N10 UNL     1     -33.254  16.421  -5.180  1.00 20.00    -0.168 NA
HETATM    9  C4  UNL     1     -34.340  16.001  -5.738  1.00 20.00     0.109 C 
HETATM   10  C8  UNL     1     -34.288  15.132  -6.955  1.00 20.00     0.059 C 
ENDBRANCH   7   8
ENDBRANCH   2   6
TORSDOF 2
ENDMDL
MODEL 6
REMARK VINA RESULT:      -4.2     11.195     11.928
REMARK  2 active torsions:
REMARK  status: ('A' for Active; 'I' for Inactive)
REMARK    1  A    between atoms: C2_2  and  C3_3 
REMARK    2  A    between atoms: N9_9  and  N10_10 
ROOT
HETATM    1  C1  UNL     1     -35.035  17.051   0.084  1.00 20.00    -0.018 C 
HETATM    2  C2  UNL     1     -34.204  17.039  -0.964  1.00 20.00    -0.043 C 
HETATM    3  C5  UNL     1     -34.685  18.132   1.052  1.00 20.00     0.028 C 
HETATM    4  C6  UNL     1     -33.166  18.111  -0.862  1.00 20.00     0.040 C 
HETATM    5  C7  UNL     1     -33.292  18.560   0.594  1.00 20.00     0.008 C 
ENDROOT
BRANCH   2   6
HETATM    6  C3  UNL     1     -34.265  16.150  -2.081  1.00 20.00     0.147 C 
HETATM    7  N9  UNL     1     -33.574  16.325  -3.167  1.00 20.00    -0.163 NA
BRANCH   7   8
HETATM    8  N10 UNL     1     -33.825  15.315  -4.090  1.00 20.00    -0.168 NA
HETATM    9  C4  UNL     1     -34.590  14.412  -3.573  1.00 20.00     0.109 C 
HETATM   10  C8  UNL     1     -35.006  13.216  -4.370  1.00 20.00     0.059 C 
ENDBRANCH   7   8
ENDBRANCH   2   6
TORSDOF 2
ENDMDL
MODEL 7
REMARK VINA RESULT:      -4.2     10.964     11.971
REMARK  2 active torsions:
REMARK  status: ('A' for Active; 'I' for Inactive)
REMARK    1  A    between atoms: C2_2  and  C3_3 
REMARK    2  A    between atoms: N9_9  and  N10_10 
ROOT
HETATM    1  C1  UNL     1     -34.422  13.747  -3.537  1.00 20.00    -0.018 C 
HETATM    2  C2  UNL     1     -34.639  15.067  -3.507  1.00 20.00    -0.043 C 
HETATM    3  C5  UNL     1     -34.571  13.197  -4.917  1.00 20.00     0.028 C 
HETATM    4  C6  UNL     1     -34.966  15.608  -4.862  1.00 20.00     0.040 C 
HETATM    5  C7  UNL     1     -35.251  14.340  -5.667  1.00 20.00     0.008 C 
ENDROOT
BRANCH   2   6
HETATM    6  C3  UNL     1     -34.561  15.910  -2.356  1.00 20.00     0.147 C 
HETATM    7  N9  UNL     1     -33.566  16.715  -2.130  1.00 20.00    -0.163 NA
BRANCH   7   8
HETATM    8  N10 UNL     1     -33.746  17.413  -0.941  1.00 20.00    -0.168 NA
HETATM    9  C4  UNL     1     -34.761  16.947  -0.293  1.00 20.00     0.109 C 
HETATM   10  C8  UNL     1     -35.163  17.535   1.023  1.00 20.00     0.059 C 
ENDBRANCH   7   8
ENDBRANCH   2   6
TORSDOF 2
ENDMDL
MODEL 8
REMARK VINA RESULT:      -4.2     10.683     11.140
REMARK  2 active torsions:
REMARK  status: ('A' for Active; 'I' for Inactive)
REMARK    1  A    between atoms: C2_2  and  C3_3 
REMARK    2  A    between atoms: N9_9  and  N10_10 
ROOT
HETATM    1  C1  UNL     1     -41.126   7.069  -0.881  1.00 20.00    -0.018 C 
HETATM    2  C2  UNL     1     -41.708   6.603  -1.992  1.00 20.00    -0.043 C 
HETATM    3  C5  UNL     1     -40.716   5.961   0.031  1.00 20.00     0.028 C 
HETATM    4  C6  UNL     1     -41.779   5.109  -1.997  1.00 20.00     0.040 C 
HETATM    5  C7  UNL     1     -41.452   4.754  -0.547  1.00 20.00     0.008 C 
ENDROOT
BRANCH   2   6
HETATM    6  C3  UNL     1     -42.202   7.387  -3.079  1.00 20.00     0.147 C 
HETATM    7  N9  UNL     1     -43.131   6.974  -3.889  1.00 20.00    -0.163 NA
BRANCH   7   8
HETATM    8  N10 UNL     1     -43.417   7.933  -4.854  1.00 20.00    -0.168 NA
HETATM    9  C4  UNL     1     -42.453   8.788  -4.941  1.00 20.00     0.109 C 
HETATM   10  C8  UNL     1     -42.524   9.924  -5.912  1.00 20.00     0.059 C 
ENDBRANCH   7   8
ENDBRANCH   2   6
TORSDOF 2
ENDMDL
MODEL 9
REMARK VINA RESULT:      -4.2     11.233     12.054
REMARK  2 active torsions:
REMARK  status: ('A' for Active; 'I' for Inactive)
REMARK    1  A    between atoms: C2_2  and  C3_3 
REMARK    2  A    between atoms: N9_9  and  N10_10 
ROOT
HETATM    1  C1  UNL     1     -33.227  17.905  -0.823  1.00 20.00    -0.018 C 
HETATM    2  C2  UNL     1     -34.309  17.124  -0.728  1.00 20.00    -0.043 C 
HETATM    3  C5  UNL     1     -33.063  18.767   0.384  1.00 20.00     0.028 C 
HETATM    4  C6  UNL     1     -35.039  17.340   0.559  1.00 20.00     0.040 C 
HETATM    5  C7  UNL     1     -34.414  18.632   1.084  1.00 20.00     0.008 C 
ENDROOT
BRANCH   2   6
HETATM    6  C3  UNL     1     -34.749  16.168  -1.695  1.00 20.00     0.147 C 
HETATM    7  N9  UNL     1     -35.643  16.433  -2.599  1.00 20.00    -0.163 NA
BRANCH   7   8
HETATM    8  N10 UNL     1     -35.884  15.325  -3.406  1.00 20.00    -0.168 NA
HETATM    9  C4  UNL     1     -34.827  14.587  -3.486  1.00 20.00     0.109 C 
HETATM   10  C8  UNL     1     -34.831  13.333  -4.301  1.00 20.00     0.059 C 
ENDBRANCH   7   8
ENDBRANCH   2   6
TORSDOF 2
ENDMDL
