MODEL 1
REMARK VINA RESULT:      -3.3      0.000      0.000
REMARK  1 active torsions:
REMARK  status: ('A' for Active; 'I' for Inactive)
REMARK    1  A    between atoms: C1_1  and  C5_5 
ROOT
HETATM    1  C2  UNL     1     -35.695   5.665   4.087  1.00 20.00     0.022 C 
HETATM    2  C3  UNL     1     -34.499   3.858   5.354  1.00 20.00     0.022 C 
HETATM    3  C4  UNL     1     -34.422   6.228   6.177  1.00 20.00     0.022 C 
HETATM    4  C5  UNL     1     -34.464   5.331   4.936  1.00 20.00     0.002 C 
ENDROOT
BRANCH   4   5
HETATM    5  C1  UNL     1     -33.224   5.628   4.101  1.00 20.00     0.239 C 
HETATM    6  O6  UNL     1     -33.244   5.998   2.931  1.00 20.00    -0.306 OA
ENDBRANCH   4   5
TORSDOF 1
ENDMDL
MODEL 2
REMARK VINA RESULT:      -3.2      1.534      2.544
REMARK  1 active torsions:
REMARK  status: ('A' for Active; 'I' for Inactive)
REMARK    1  A    between atoms: C1_1  and  C5_5 
ROOT
HETATM    1  C2  UNL     1     -34.452   3.805   5.213  1.00 20.00     0.022 C 
HETATM    2  C3  UNL     1     -35.761   5.603   4.049  1.00 20.00     0.022 C 
HETATM    3  C4  UNL     1     -33.254   5.712   4.104  1.00 20.00     0.022 C 
HETATM    4  C5  UNL     1     -34.509   5.298   4.878  1.00 20.00     0.002 C 
ENDROOT
BRANCH   4   5
HETATM    5  C1  UNL     1     -34.527   6.074   6.190  1.00 20.00     0.239 C 
HETATM    6  O6  UNL     1     -33.642   6.840   6.560  1.00 20.00    -0.306 OA
ENDBRANCH   4   5
TORSDOF 1
ENDMDL
MODEL 3
REMARK VINA RESULT:      -3.2     11.950     12.624
REMARK  1 active torsions:
REMARK  status: ('A' for Active; 'I' for Inactive)
REMARK    1  A    between atoms: C1_1  and  C5_5 
ROOT
HETATM    1  C2  UNL     1     -32.850  14.038  -3.537  1.00 20.00     0.022 C 
HETATM    2  C3  UNL     1     -33.967  15.691  -5.060  1.00 20.00     0.022 C 
HETATM    3  C4  UNL     1     -34.569  15.626  -2.625  1.00 20.00     0.022 C 
HETATM    4  C5  UNL     1     -34.152  14.788  -3.837  1.00 20.00     0.002 C 
ENDROOT
BRANCH   4   5
HETATM    5  C1  UNL     1     -35.242  13.753  -4.089  1.00 20.00     0.239 C 
HETATM    6  O6  UNL     1     -35.038  12.604  -4.472  1.00 20.00    -0.306 OA
ENDBRANCH   4   5
TORSDOF 1
ENDMDL
MODEL 4
REMARK VINA RESULT:      -3.2     11.967     12.583
REMARK  1 active torsions:
REMARK  status: ('A' for Active; 'I' for Inactive)
REMARK    1  A    between atoms: C1_1  and  C5_5 
ROOT
HETATM    1  C2  UNL     1     -34.040  15.578  -5.102  1.00 20.00     0.022 C 
HETATM    2  C3  UNL     1     -34.626  15.564  -2.661  1.00 20.00     0.022 C 
HETATM    3  C4  UNL     1     -32.801  14.070  -3.521  1.00 20.00     0.022 C 
HETATM    4  C5  UNL     1     -34.154  14.712  -3.844  1.00 20.00     0.002 C 
ENDROOT
BRANCH   4   5
HETATM    5  C1  UNL     1     -35.147  13.592  -4.134  1.00 20.00     0.239 C 
HETATM    6  O6  UNL     1     -34.880  12.566  -4.752  1.00 20.00    -0.306 OA
ENDBRANCH   4   5
TORSDOF 1
ENDMDL
MODEL 5
REMARK VINA RESULT:      -3.2     12.025     12.626
REMARK  1 active torsions:
REMARK  status: ('A' for Active; 'I' for Inactive)
REMARK    1  A    between atoms: C1_1  and  C5_5 
ROOT
HETATM    1  C2  UNL     1     -34.624  15.606  -2.615  1.00 20.00     0.022 C 
HETATM    2  C3  UNL     1     -32.795  14.183  -3.580  1.00 20.00     0.022 C 
HETATM    3  C4  UNL     1     -34.118  15.708  -5.072  1.00 20.00     0.022 C 
HETATM    4  C5  UNL     1     -34.173  14.802  -3.838  1.00 20.00     0.002 C 
ENDROOT
BRANCH   4   5
HETATM    5  C1  UNL     1     -35.213  13.719  -4.097  1.00 20.00     0.239 C 
HETATM    6  O6  UNL     1     -34.960  12.601  -4.537  1.00 20.00    -0.306 OA
ENDBRANCH   4   5
TORSDOF 1
ENDMDL
MODEL 6
REMARK VINA RESULT:      -3.2      1.519      2.352
REMARK  1 active torsions:
REMARK  status: ('A' for Active; 'I' for Inactive)
REMARK    1  A    between atoms: C1_1  and  C5_5 
ROOT
HETATM    1  C2  UNL     1     -35.779   5.669   4.016  1.00 20.00     0.022 C 
HETATM    2  C3  UNL     1     -33.270   5.597   4.020  1.00 20.00     0.022 C 
HETATM    3  C4  UNL     1     -34.579   3.779   5.152  1.00 20.00     0.022 C 
HETATM    4  C5  UNL     1     -34.537   5.273   4.819  1.00 20.00     0.002 C 
ENDROOT
BRANCH   4   5
HETATM    5  C1  UNL     1     -34.561   6.047   6.132  1.00 20.00     0.239 C 
HETATM    6  O6  UNL     1     -33.666   6.792   6.519  1.00 20.00    -0.306 OA
ENDBRANCH   4   5
TORSDOF 1
ENDMDL
MODEL 7
REMARK VINA RESULT:      -3.1      1.645      2.627
REMARK  1 active torsions:
REMARK  status: ('A' for Active; 'I' for Inactive)
REMARK    1  A    between atoms: C1_1  and  C5_5 
ROOT
HETATM    1  C2  UNL     1     -34.233   6.566   6.000  1.00 20.00     0.022 C 
HETATM    2  C3  UNL     1     -33.048   5.925   3.882  1.00 20.00     0.022 C 
HETATM    3  C4  UNL     1     -35.553   5.812   4.001  1.00 20.00     0.022 C 
HETATM    4  C5  UNL     1     -34.250   5.632   4.786  1.00 20.00     0.002 C 
ENDROOT
BRANCH   4   5
HETATM    5  C1  UNL     1     -34.205   4.197   5.297  1.00 20.00     0.239 C 
HETATM    6  O6  UNL     1     -35.127   3.393   5.198  1.00 20.00    -0.306 OA
ENDBRANCH   4   5
TORSDOF 1
ENDMDL
MODEL 8
REMARK VINA RESULT:      -3.0     12.023     12.727
REMARK  1 active torsions:
REMARK  status: ('A' for Active; 'I' for Inactive)
REMARK    1  A    between atoms: C1_1  and  C5_5 
ROOT
HETATM    1  C2  UNL     1     -35.789  15.386  -4.533  1.00 20.00     0.022 C 
HETATM    2  C3  UNL     1     -34.701  15.758  -2.302  1.00 20.00     0.022 C 
HETATM    3  C4  UNL     1     -33.322  15.835  -4.397  1.00 20.00     0.022 C 
HETATM    4  C5  UNL     1     -34.518  15.173  -3.706  1.00 20.00     0.002 C 
ENDROOT
BRANCH   4   5
HETATM    5  C1  UNL     1     -34.249  13.674  -3.637  1.00 20.00     0.239 C 
HETATM    6  O6  UNL     1     -34.922  12.818  -4.204  1.00 20.00    -0.306 OA
ENDBRANCH   4   5
TORSDOF 1
ENDMDL
MODEL 9
REMARK VINA RESULT:      -2.9     12.848     13.634
REMARK  1 active torsions:
REMARK  status: ('A' for Active; 'I' for Inactive)
REMARK    1  A    between atoms: C1_1  and  C5_5 
ROOT
HETATM    1  C2  UNL     1     -33.878  15.910  -4.875  1.00 20.00     0.022 C 
HETATM    2  C3  UNL     1     -34.521  14.796  -7.031  1.00 20.00     0.022 C 
HETATM    3  C4  UNL     1     -36.211  15.037  -5.190  1.00 20.00     0.022 C 
HETATM    4  C5  UNL     1     -34.731  14.810  -5.513  1.00 20.00     0.002 C 
ENDROOT
BRANCH   4   5
HETATM    5  C1  UNL     1     -34.316  13.479  -4.898  1.00 20.00     0.239 C 
HETATM    6  O6  UNL     1     -35.072  12.725  -4.291  1.00 20.00    -0.306 OA
ENDBRANCH   4   5
TORSDOF 1
ENDMDL
