MODEL 1
REMARK VINA RESULT:      -3.5      0.000      0.000
REMARK  1 active torsions:
REMARK  status: ('A' for Active; 'I' for Inactive)
REMARK    1  A    between atoms: C1_1  and  C6_6 
ROOT
HETATM    1  C3  UNL     1     -32.605  14.283  -3.508  1.00 20.00     0.022 C 
HETATM    2  C4  UNL     1     -34.764  15.409  -2.878  1.00 20.00     0.022 C 
HETATM    3  C5  UNL     1     -33.554  16.094  -4.949  1.00 20.00     0.022 C 
HETATM    4  C6  UNL     1     -33.902  14.901  -4.041  1.00 20.00     0.009 C 
ENDROOT
BRANCH   4   5
HETATM    5  C1  UNL     1     -34.660  13.839  -4.861  1.00 20.00     0.130 C 
HETATM    6  C2  UNL     1     -35.106  14.193  -6.260  1.00 20.00     0.091 C 
HETATM    7  O7  UNL     1     -34.926  12.727  -4.399  1.00 20.00    -0.298 OA
ENDBRANCH   4   5
TORSDOF 1
ENDMDL
MODEL 2
REMARK VINA RESULT:      -3.5      0.047      1.644
REMARK  1 active torsions:
REMARK  status: ('A' for Active; 'I' for Inactive)
REMARK    1  A    between atoms: C1_1  and  C6_6 
ROOT
HETATM    1  C3  UNL     1     -34.795  15.343  -2.911  1.00 20.00     0.022 C 
HETATM    2  C4  UNL     1     -33.518  16.082  -4.948  1.00 20.00     0.022 C 
HETATM    3  C5  UNL     1     -32.623  14.255  -3.505  1.00 20.00     0.022 C 
HETATM    4  C6  UNL     1     -33.907  14.884  -4.073  1.00 20.00     0.009 C 
ENDROOT
BRANCH   4   5
HETATM    5  C1  UNL     1     -34.672  13.830  -4.898  1.00 20.00     0.130 C 
HETATM    6  C2  UNL     1     -35.116  14.193  -6.295  1.00 20.00     0.091 C 
HETATM    7  O7  UNL     1     -34.944  12.717  -4.441  1.00 20.00    -0.298 OA
ENDBRANCH   4   5
TORSDOF 1
ENDMDL
MODEL 3
REMARK VINA RESULT:      -3.5      0.074      1.640
REMARK  1 active torsions:
REMARK  status: ('A' for Active; 'I' for Inactive)
REMARK    1  A    between atoms: C1_1  and  C6_6 
ROOT
HETATM    1  C3  UNL     1     -33.571  16.022  -4.999  1.00 20.00     0.022 C 
HETATM    2  C4  UNL     1     -32.609  14.234  -3.514  1.00 20.00     0.022 C 
HETATM    3  C5  UNL     1     -34.739  15.370  -2.885  1.00 20.00     0.022 C 
HETATM    4  C6  UNL     1     -33.901  14.850  -4.067  1.00 20.00     0.009 C 
ENDROOT
BRANCH   4   5
HETATM    5  C1  UNL     1     -34.716  13.803  -4.851  1.00 20.00     0.130 C 
HETATM    6  C2  UNL     1     -35.211  14.163  -6.232  1.00 20.00     0.091 C 
HETATM    7  O7  UNL     1     -34.987  12.699  -4.374  1.00 20.00    -0.298 OA
ENDBRANCH   4   5
TORSDOF 1
ENDMDL
MODEL 4
REMARK VINA RESULT:      -3.5     11.985     12.830
REMARK  1 active torsions:
REMARK  status: ('A' for Active; 'I' for Inactive)
REMARK    1  A    between atoms: C1_1  and  C6_6 
ROOT
HETATM    1  C3  UNL     1     -33.927   5.009   2.727  1.00 20.00     0.022 C 
HETATM    2  C4  UNL     1     -36.019   5.978   3.734  1.00 20.00     0.022 C 
HETATM    3  C5  UNL     1     -34.919   4.005   4.792  1.00 20.00     0.022 C 
HETATM    4  C6  UNL     1     -34.666   5.320   4.034  1.00 20.00     0.009 C 
ENDROOT
BRANCH   4   5
HETATM    5  C1  UNL     1     -33.785   6.246   4.895  1.00 20.00     0.130 C 
HETATM    6  C2  UNL     1     -34.121   6.400   6.360  1.00 20.00     0.091 C 
HETATM    7  O7  UNL     1     -32.837   6.873   4.418  1.00 20.00    -0.298 OA
ENDBRANCH   4   5
TORSDOF 1
ENDMDL
MODEL 5
REMARK VINA RESULT:      -3.5     11.999     12.832
REMARK  1 active torsions:
REMARK  status: ('A' for Active; 'I' for Inactive)
REMARK    1  A    between atoms: C1_1  and  C6_6 
ROOT
HETATM    1  C3  UNL     1     -34.903   3.994   4.827  1.00 20.00     0.022 C 
HETATM    2  C4  UNL     1     -34.000   4.950   2.682  1.00 20.00     0.022 C 
HETATM    3  C5  UNL     1     -36.020   5.954   3.747  1.00 20.00     0.022 C 
HETATM    4  C6  UNL     1     -34.665   5.279   4.025  1.00 20.00     0.009 C 
ENDROOT
BRANCH   4   5
HETATM    5  C1  UNL     1     -33.781   6.229   4.856  1.00 20.00     0.130 C 
HETATM    6  C2  UNL     1     -34.109   6.424   6.317  1.00 20.00     0.091 C 
HETATM    7  O7  UNL     1     -32.834   6.841   4.356  1.00 20.00    -0.298 OA
ENDBRANCH   4   5
TORSDOF 1
ENDMDL
MODEL 6
REMARK VINA RESULT:      -3.5      1.257      2.524
REMARK  1 active torsions:
REMARK  status: ('A' for Active; 'I' for Inactive)
REMARK    1  A    between atoms: C1_1  and  C6_6 
ROOT
HETATM    1  C3  UNL     1     -36.748  14.825  -3.601  1.00 20.00     0.022 C 
HETATM    2  C4  UNL     1     -34.941  16.058  -4.844  1.00 20.00     0.022 C 
HETATM    3  C5  UNL     1     -34.775  15.752  -2.374  1.00 20.00     0.022 C 
HETATM    4  C6  UNL     1     -35.241  15.097  -3.686  1.00 20.00     0.009 C 
ENDROOT
BRANCH   4   5
HETATM    5  C1  UNL     1     -34.503  13.758  -3.881  1.00 20.00     0.130 C 
HETATM    6  C2  UNL     1     -33.016  13.711  -3.618  1.00 20.00     0.091 C 
HETATM    7  O7  UNL     1     -35.088  12.742  -4.262  1.00 20.00    -0.298 OA
ENDBRANCH   4   5
TORSDOF 1
ENDMDL
MODEL 7
REMARK VINA RESULT:      -3.5     12.003     12.822
REMARK  1 active torsions:
REMARK  status: ('A' for Active; 'I' for Inactive)
REMARK    1  A    between atoms: C1_1  and  C6_6 
ROOT
HETATM    1  C3  UNL     1     -36.009   5.994   3.736  1.00 20.00     0.022 C 
HETATM    2  C4  UNL     1     -34.935   3.986   4.806  1.00 20.00     0.022 C 
HETATM    3  C5  UNL     1     -33.989   4.940   2.704  1.00 20.00     0.022 C 
HETATM    4  C6  UNL     1     -34.681   5.288   4.034  1.00 20.00     0.009 C 
ENDROOT
BRANCH   4   5
HETATM    5  C1  UNL     1     -33.782   6.239   4.847  1.00 20.00     0.130 C 
HETATM    6  C2  UNL     1     -34.090   6.446   6.311  1.00 20.00     0.091 C 
HETATM    7  O7  UNL     1     -32.840   6.844   4.331  1.00 20.00    -0.298 OA
ENDBRANCH   4   5
TORSDOF 1
ENDMDL
MODEL 8
REMARK VINA RESULT:      -3.5      1.107      2.649
REMARK  1 active torsions:
REMARK  status: ('A' for Active; 'I' for Inactive)
REMARK    1  A    between atoms: C1_1  and  C6_6 
ROOT
HETATM    1  C3  UNL     1     -36.240  15.375  -5.047  1.00 20.00     0.022 C 
HETATM    2  C4  UNL     1     -35.084  14.350  -7.032  1.00 20.00     0.022 C 
HETATM    3  C5  UNL     1     -33.862  15.955  -5.564  1.00 20.00     0.022 C 
HETATM    4  C6  UNL     1     -34.912  14.829  -5.585  1.00 20.00     0.009 C 
ENDROOT
BRANCH   4   5
HETATM    5  C1  UNL     1     -34.444  13.675  -4.678  1.00 20.00     0.130 C 
HETATM    6  C2  UNL     1     -33.284  13.921  -3.741  1.00 20.00     0.091 C 
HETATM    7  O7  UNL     1     -34.974  12.563  -4.713  1.00 20.00    -0.298 OA
ENDBRANCH   4   5
TORSDOF 1
ENDMDL
MODEL 9
REMARK VINA RESULT:      -3.5     12.147     13.005
REMARK  1 active torsions:
REMARK  status: ('A' for Active; 'I' for Inactive)
REMARK    1  A    between atoms: C1_1  and  C6_6 
ROOT
HETATM    1  C3  UNL     1     -36.090   6.043   3.380  1.00 20.00     0.022 C 
HETATM    2  C4  UNL     1     -33.987   4.861   2.665  1.00 20.00     0.022 C 
HETATM    3  C5  UNL     1     -33.858   6.833   4.188  1.00 20.00     0.022 C 
HETATM    4  C6  UNL     1     -34.690   5.593   3.816  1.00 20.00     0.009 C 
ENDROOT
BRANCH   4   5
HETATM    5  C1  UNL     1     -34.822   4.677   5.048  1.00 20.00     0.130 C 
HETATM    6  C2  UNL     1     -34.580   5.270   6.415  1.00 20.00     0.091 C 
HETATM    7  O7  UNL     1     -35.098   3.480   4.943  1.00 20.00    -0.298 OA
ENDBRANCH   4   5
TORSDOF 1
ENDMDL
