MODEL 1
REMARK VINA RESULT:      -5.4      0.000      0.000
REMARK  1 active torsions:
REMARK  status: ('A' for Active; 'I' for Inactive)
REMARK    1  A    between atoms: C4_4  and  C12_12 
ROOT
HETATM    1  C1  UNL     1     -36.252  16.266  -2.652  1.00 20.00     0.005 C 
HETATM    2  C2  UNL     1     -37.059  15.651  -3.528  1.00 20.00     0.001 C 
HETATM    3  C3  UNL     1     -34.384  14.794  -3.120  1.00 20.00    -0.012 C 
HETATM    4  C4  UNL     1     -34.858  15.894  -2.511  1.00 20.00    -0.058 C 
HETATM    5  C5  UNL     1     -35.287  14.497  -6.212  1.00 20.00     0.004 C 
HETATM    6  C6  UNL     1     -34.599  13.535  -5.298  1.00 20.00     0.065 C 
HETATM    7  C7  UNL     1     -35.249  13.894  -3.972  1.00 20.00     0.042 C 
HETATM    8  C8  UNL     1     -36.586  14.530  -4.409  1.00 20.00     0.138 C 
HETATM    9  C9  UNL     1     -34.753  14.754  -7.583  1.00 20.00     0.065 C 
HETATM   10  N13 UNL     1     -36.370  15.058  -5.777  1.00 20.00    -0.289 NA
ENDROOT
BRANCH   4  11
HETATM   11  C12 UNL     1     -34.007  16.771  -1.643  1.00 20.00     0.010 C 
HETATM   12  C10 UNL     1     -33.723  18.095  -2.346  1.00 20.00     0.015 C 
HETATM   13  C11 UNL     1     -34.673  17.005  -0.290  1.00 20.00     0.015 C 
ENDBRANCH   4  11
TORSDOF 1
ENDMDL
MODEL 2
REMARK VINA RESULT:      -5.1      1.493      2.200
REMARK  1 active torsions:
REMARK  status: ('A' for Active; 'I' for Inactive)
REMARK    1  A    between atoms: C4_4  and  C12_12 
ROOT
HETATM    1  C1  UNL     1     -34.269  14.643  -3.229  1.00 20.00     0.005 C 
HETATM    2  C2  UNL     1     -34.625  13.895  -4.282  1.00 20.00     0.001 C 
HETATM    3  C3  UNL     1     -33.641  16.538  -4.603  1.00 20.00    -0.012 C 
HETATM    4  C4  UNL     1     -33.859  16.025  -3.380  1.00 20.00    -0.058 C 
HETATM    5  C5  UNL     1     -35.945  15.840  -6.763  1.00 20.00     0.004 C 
HETATM    6  C6  UNL     1     -34.599  16.467  -6.937  1.00 20.00     0.065 C 
HETATM    7  C7  UNL     1     -33.807  15.731  -5.870  1.00 20.00     0.042 C 
HETATM    8  C8  UNL     1     -34.610  14.425  -5.687  1.00 20.00     0.138 C 
HETATM    9  C9  UNL     1     -37.156  16.462  -7.377  1.00 20.00     0.065 C 
HETATM   10  N13 UNL     1     -36.001  14.730  -6.097  1.00 20.00    -0.289 NA
ENDROOT
BRANCH   4  11
HETATM   11  C12 UNL     1     -33.668  16.817  -2.122  1.00 20.00     0.010 C 
HETATM   12  C10 UNL     1     -33.701  18.311  -2.428  1.00 20.00     0.015 C 
HETATM   13  C11 UNL     1     -34.725  16.450  -1.084  1.00 20.00     0.015 C 
ENDBRANCH   4  11
TORSDOF 1
ENDMDL
MODEL 3
REMARK VINA RESULT:      -5.0      2.110      5.067
REMARK  1 active torsions:
REMARK  status: ('A' for Active; 'I' for Inactive)
REMARK    1  A    between atoms: C4_4  and  C12_12 
ROOT
HETATM    1  C1  UNL     1     -35.986  16.008  -3.363  1.00 20.00     0.005 C 
HETATM    2  C2  UNL     1     -36.374  17.207  -2.904  1.00 20.00     0.001 C 
HETATM    3  C3  UNL     1     -33.821  16.135  -2.279  1.00 20.00    -0.012 C 
HETATM    4  C4  UNL     1     -34.724  15.415  -2.967  1.00 20.00    -0.058 C 
HETATM    5  C5  UNL     1     -35.066  17.805   0.196  1.00 20.00     0.004 C 
HETATM    6  C6  UNL     1     -33.708  17.845  -0.425  1.00 20.00     0.065 C 
HETATM    7  C7  UNL     1     -34.056  17.573  -1.879  1.00 20.00     0.042 C 
HETATM    8  C8  UNL     1     -35.530  18.022  -1.968  1.00 20.00     0.138 C 
HETATM    9  C9  UNL     1     -35.220  17.699   1.678  1.00 20.00     0.065 C 
HETATM   10  N13 UNL     1     -36.085  17.902  -0.598  1.00 20.00    -0.289 NA
ENDROOT
BRANCH   4  11
HETATM   11  C12 UNL     1     -34.481  13.997  -3.387  1.00 20.00     0.010 C 
HETATM   12  C10 UNL     1     -35.334  13.652  -4.604  1.00 20.00     0.015 C 
HETATM   13  C11 UNL     1     -33.000  13.764  -3.677  1.00 20.00     0.015 C 
ENDBRANCH   4  11
TORSDOF 1
ENDMDL
MODEL 4
REMARK VINA RESULT:      -5.0      1.439      2.781
REMARK  1 active torsions:
REMARK  status: ('A' for Active; 'I' for Inactive)
REMARK    1  A    between atoms: C4_4  and  C12_12 
ROOT
HETATM    1  C1  UNL     1     -34.250  14.863  -2.887  1.00 20.00     0.005 C 
HETATM    2  C2  UNL     1     -34.938  14.065  -3.716  1.00 20.00     0.001 C 
HETATM    3  C3  UNL     1     -35.429  16.858  -3.598  1.00 20.00    -0.012 C 
HETATM    4  C4  UNL     1     -34.564  16.272  -2.753  1.00 20.00    -0.058 C 
HETATM    5  C5  UNL     1     -38.148  15.177  -4.089  1.00 20.00     0.004 C 
HETATM    6  C6  UNL     1     -37.610  16.388  -4.780  1.00 20.00     0.065 C 
HETATM    7  C7  UNL     1     -36.118  16.108  -4.714  1.00 20.00     0.042 C 
HETATM    8  C8  UNL     1     -36.064  14.571  -4.571  1.00 20.00     0.138 C 
HETATM    9  C9  UNL     1     -39.565  15.140  -3.617  1.00 20.00     0.065 C 
HETATM   10  N13 UNL     1     -37.350  14.165  -3.956  1.00 20.00    -0.289 NA
ENDROOT
BRANCH   4  11
HETATM   11  C12 UNL     1     -33.860  17.022  -1.663  1.00 20.00     0.010 C 
HETATM   12  C10 UNL     1     -33.641  18.474  -2.076  1.00 20.00     0.015 C 
HETATM   13  C11 UNL     1     -34.643  16.940  -0.355  1.00 20.00     0.015 C 
ENDBRANCH   4  11
TORSDOF 1
ENDMDL
MODEL 5
REMARK VINA RESULT:      -5.0      2.016      4.918
REMARK  1 active torsions:
REMARK  status: ('A' for Active; 'I' for Inactive)
REMARK    1  A    between atoms: C4_4  and  C12_12 
ROOT
HETATM    1  C1  UNL     1     -33.967  16.943  -4.800  1.00 20.00     0.005 C 
HETATM    2  C2  UNL     1     -33.659  18.007  -4.045  1.00 20.00     0.001 C 
HETATM    3  C3  UNL     1     -34.353  15.512  -2.881  1.00 20.00    -0.012 C 
HETATM    4  C4  UNL     1     -34.415  15.696  -4.211  1.00 20.00    -0.058 C 
HETATM    5  C5  UNL     1     -35.467  18.003  -1.145  1.00 20.00     0.004 C 
HETATM    6  C6  UNL     1     -34.725  16.774  -0.727  1.00 20.00     0.065 C 
HETATM    7  C7  UNL     1     -33.826  16.566  -1.934  1.00 20.00     0.042 C 
HETATM    8  C8  UNL     1     -33.741  17.981  -2.546  1.00 20.00     0.138 C 
HETATM    9  C9  UNL     1     -36.705  18.424  -0.423  1.00 20.00     0.065 C 
HETATM   10  N13 UNL     1     -34.970  18.693  -2.123  1.00 20.00    -0.289 NA
ENDROOT
BRANCH   4  11
HETATM   11  C12 UNL     1     -34.911  14.642  -5.153  1.00 20.00     0.010 C 
HETATM   12  C10 UNL     1     -34.460  14.950  -6.578  1.00 20.00     0.015 C 
HETATM   13  C11 UNL     1     -34.434  13.258  -4.719  1.00 20.00     0.015 C 
ENDBRANCH   4  11
TORSDOF 1
ENDMDL
MODEL 6
REMARK VINA RESULT:      -4.8      2.107      3.016
REMARK  1 active torsions:
REMARK  status: ('A' for Active; 'I' for Inactive)
REMARK    1  A    between atoms: C4_4  and  C12_12 
ROOT
HETATM    1  C1  UNL     1     -35.979  18.418  -1.055  1.00 20.00     0.005 C 
HETATM    2  C2  UNL     1     -36.571  17.843  -2.111  1.00 20.00     0.001 C 
HETATM    3  C3  UNL     1     -34.193  16.782  -0.981  1.00 20.00    -0.012 C 
HETATM    4  C4  UNL     1     -34.714  17.938  -0.536  1.00 20.00    -0.058 C 
HETATM    5  C5  UNL     1     -34.248  16.455  -4.199  1.00 20.00     0.004 C 
HETATM    6  C6  UNL     1     -33.922  15.471  -3.122  1.00 20.00     0.065 C 
HETATM    7  C7  UNL     1     -34.871  15.928  -2.028  1.00 20.00     0.042 C 
HETATM    8  C8  UNL     1     -35.979  16.657  -2.818  1.00 20.00     0.138 C 
HETATM    9  C9  UNL     1     -33.343  16.620  -5.375  1.00 20.00     0.065 C 
HETATM   10  N13 UNL     1     -35.355  17.118  -4.081  1.00 20.00    -0.289 NA
ENDROOT
BRANCH   4  11
HETATM   11  C12 UNL     1     -34.055  18.770   0.522  1.00 20.00     0.010 C 
HETATM   12  C10 UNL     1     -34.418  18.249   1.908  1.00 20.00     0.015 C 
HETATM   13  C11 UNL     1     -32.541  18.794   0.328  1.00 20.00     0.015 C 
ENDBRANCH   4  11
TORSDOF 1
ENDMDL
MODEL 7
REMARK VINA RESULT:      -4.8      1.523      2.311
REMARK  1 active torsions:
REMARK  status: ('A' for Active; 'I' for Inactive)
REMARK    1  A    between atoms: C4_4  and  C12_12 
ROOT
HETATM    1  C1  UNL     1     -34.421  15.370  -2.473  1.00 20.00     0.005 C 
HETATM    2  C2  UNL     1     -34.394  14.455  -3.452  1.00 20.00     0.001 C 
HETATM    3  C3  UNL     1     -33.772  17.180  -3.949  1.00 20.00    -0.012 C 
HETATM    4  C4  UNL     1     -34.199  16.777  -2.740  1.00 20.00    -0.058 C 
HETATM    5  C5  UNL     1     -35.351  15.832  -6.430  1.00 20.00     0.004 C 
HETATM    6  C6  UNL     1     -34.115  16.670  -6.398  1.00 20.00     0.065 C 
HETATM    7  C7  UNL     1     -33.503  16.217  -5.083  1.00 20.00     0.042 C 
HETATM    8  C8  UNL     1     -34.119  14.816  -4.884  1.00 20.00     0.138 C 
HETATM    9  C9  UNL     1     -36.458  16.149  -7.381  1.00 20.00     0.065 C 
HETATM   10  N13 UNL     1     -35.399  14.813  -5.631  1.00 20.00    -0.289 NA
ENDROOT
BRANCH   4  11
HETATM   11  C12 UNL     1     -34.440  17.728  -1.607  1.00 20.00     0.010 C 
HETATM   12  C10 UNL     1     -34.715  16.958  -0.320  1.00 20.00     0.015 C 
HETATM   13  C11 UNL     1     -33.256  18.675  -1.433  1.00 20.00     0.015 C 
ENDBRANCH   4  11
TORSDOF 1
ENDMDL
MODEL 8
REMARK VINA RESULT:      -4.8      1.487      2.547
REMARK  1 active torsions:
REMARK  status: ('A' for Active; 'I' for Inactive)
REMARK    1  A    between atoms: C4_4  and  C12_12 
ROOT
HETATM    1  C1  UNL     1     -33.704  18.241  -2.875  1.00 20.00     0.005 C 
HETATM    2  C2  UNL     1     -34.101  17.959  -4.124  1.00 20.00     0.001 C 
HETATM    3  C3  UNL     1     -35.190  16.604  -1.879  1.00 20.00    -0.012 C 
HETATM    4  C4  UNL     1     -34.185  17.486  -1.735  1.00 20.00    -0.058 C 
HETATM    5  C5  UNL     1     -34.878  14.646  -4.434  1.00 20.00     0.004 C 
HETATM    6  C6  UNL     1     -36.028  14.866  -3.506  1.00 20.00     0.065 C 
HETATM    7  C7  UNL     1     -35.867  16.346  -3.206  1.00 20.00     0.042 C 
HETATM    8  C8  UNL     1     -35.077  16.860  -4.429  1.00 20.00     0.138 C 
HETATM    9  C9  UNL     1     -34.418  13.262  -4.758  1.00 20.00     0.065 C 
HETATM   10  N13 UNL     1     -34.332  15.695  -4.963  1.00 20.00    -0.289 NA
ENDROOT
BRANCH   4  11
HETATM   11  C12 UNL     1     -33.532  17.762  -0.414  1.00 20.00     0.010 C 
HETATM   12  C10 UNL     1     -32.721  19.052  -0.485  1.00 20.00     0.015 C 
HETATM   13  C11 UNL     1     -34.572  17.833   0.700  1.00 20.00     0.015 C 
ENDBRANCH   4  11
TORSDOF 1
ENDMDL
MODEL 9
REMARK VINA RESULT:      -4.6      1.556      4.781
REMARK  1 active torsions:
REMARK  status: ('A' for Active; 'I' for Inactive)
REMARK    1  A    between atoms: C4_4  and  C12_12 
ROOT
HETATM    1  C1  UNL     1     -34.494  13.673  -5.054  1.00 20.00     0.005 C 
HETATM    2  C2  UNL     1     -34.087  13.802  -3.783  1.00 20.00     0.001 C 
HETATM    3  C3  UNL     1     -36.190  15.391  -4.837  1.00 20.00    -0.012 C 
HETATM    4  C4  UNL     1     -35.500  14.547  -5.623  1.00 20.00    -0.058 C 
HETATM    5  C5  UNL     1     -34.364  17.045  -2.741  1.00 20.00     0.004 C 
HETATM    6  C6  UNL     1     -35.849  16.916  -2.854  1.00 20.00     0.065 C 
HETATM    7  C7  UNL     1     -35.969  15.483  -3.344  1.00 20.00     0.042 C 
HETATM    8  C8  UNL     1     -34.650  14.843  -2.859  1.00 20.00     0.138 C 
HETATM    9  C9  UNL     1     -33.728  18.389  -2.600  1.00 20.00     0.065 C 
HETATM   10  N13 UNL     1     -33.672  15.950  -2.735  1.00 20.00    -0.289 NA
ENDROOT
BRANCH   4  11
HETATM   11  C12 UNL     1     -35.738  14.436  -7.099  1.00 20.00     0.010 C 
HETATM   12  C10 UNL     1     -37.086  15.049  -7.464  1.00 20.00     0.015 C 
HETATM   13  C11 UNL     1     -34.608  15.098  -7.882  1.00 20.00     0.015 C 
ENDBRANCH   4  11
TORSDOF 1
ENDMDL
