MODEL 1
REMARK VINA RESULT:      -4.8      0.000      0.000
REMARK  1 active torsions:
REMARK  status: ('A' for Active; 'I' for Inactive)
REMARK    1  A    between atoms: C3_3  and  C6_6 
ROOT
HETATM    1  C1  UNL     1     -35.283   4.261   5.843  1.00 20.00    -0.030 C 
HETATM    2  C2  UNL     1     -34.982   4.108   4.548  1.00 20.00    -0.026 C 
HETATM    3  C4  UNL     1     -34.791   5.407   6.669  1.00 20.00     0.031 C 
HETATM    4  C5  UNL     1     -34.146   5.086   3.763  1.00 20.00     0.014 C 
HETATM    5  C6  UNL     1     -33.874   6.406   4.528  1.00 20.00     0.058 C 
HETATM    6  C7  UNL     1     -33.607   6.154   6.028  1.00 20.00    -0.004 C 
HETATM    7  C8  UNL     1     -34.822   5.376   2.417  1.00 20.00     0.015 C 
HETATM    8  C9  UNL     1     -33.348   7.453   6.799  1.00 20.00     0.011 C 
ENDROOT
BRANCH   5   9
HETATM    9  C3  UNL     1     -32.685   7.080   3.901  1.00 20.00     0.236 C 
HETATM   10  O10 UNL     1     -31.779   6.471   3.342  1.00 20.00    -0.306 OA
ENDBRANCH   5   9
TORSDOF 1
ENDMDL
MODEL 2
REMARK VINA RESULT:      -4.8     12.618     14.474
REMARK  1 active torsions:
REMARK  status: ('A' for Active; 'I' for Inactive)
REMARK    1  A    between atoms: C3_3  and  C6_6 
ROOT
HETATM    1  C1  UNL     1     -33.802  17.558  -5.904  1.00 20.00    -0.030 C 
HETATM    2  C2  UNL     1     -33.364  17.086  -4.731  1.00 20.00    -0.026 C 
HETATM    3  C4  UNL     1     -34.527  16.717  -6.907  1.00 20.00     0.031 C 
HETATM    4  C5  UNL     1     -33.579  15.667  -4.269  1.00 20.00     0.014 C 
HETATM    5  C6  UNL     1     -34.566  14.877  -5.165  1.00 20.00     0.058 C 
HETATM    6  C7  UNL     1     -34.369  15.205  -6.661  1.00 20.00    -0.004 C 
HETATM    7  C8  UNL     1     -34.062  15.669  -2.812  1.00 20.00     0.015 C 
HETATM    8  C9  UNL     1     -35.347  14.439  -7.559  1.00 20.00     0.011 C 
ENDROOT
BRANCH   5   9
HETATM    9  C3  UNL     1     -34.347  13.408  -4.929  1.00 20.00     0.236 C 
HETATM   10  O10 UNL     1     -35.128  12.700  -4.301  1.00 20.00    -0.306 OA
ENDBRANCH   5   9
TORSDOF 1
ENDMDL
MODEL 3
REMARK VINA RESULT:      -4.5      0.693      2.851
REMARK  1 active torsions:
REMARK  status: ('A' for Active; 'I' for Inactive)
REMARK    1  A    between atoms: C3_3  and  C6_6 
ROOT
HETATM    1  C1  UNL     1     -35.180   4.290   5.967  1.00 20.00    -0.030 C 
HETATM    2  C2  UNL     1     -34.870   5.465   6.528  1.00 20.00    -0.026 C 
HETATM    3  C4  UNL     1     -34.911   3.972   4.531  1.00 20.00     0.031 C 
HETATM    4  C5  UNL     1     -34.186   6.588   5.792  1.00 20.00     0.014 C 
HETATM    5  C6  UNL     1     -33.653   6.167   4.399  1.00 20.00     0.058 C 
HETATM    6  C7  UNL     1     -34.633   5.220   3.673  1.00 20.00    -0.004 C 
HETATM    7  C8  UNL     1     -33.048   7.150   6.654  1.00 20.00     0.015 C 
HETATM    8  C9  UNL     1     -34.112   4.787   2.298  1.00 20.00     0.011 C 
ENDROOT
BRANCH   5   9
HETATM    9  C3  UNL     1     -33.438   7.410   3.580  1.00 20.00     0.236 C 
HETATM   10  O10 UNL     1     -32.403   7.645   2.966  1.00 20.00    -0.306 OA
ENDBRANCH   5   9
TORSDOF 1
ENDMDL
MODEL 4
REMARK VINA RESULT:      -4.4      1.703      3.057
REMARK  1 active torsions:
REMARK  status: ('A' for Active; 'I' for Inactive)
REMARK    1  A    between atoms: C3_3  and  C6_6 
ROOT
HETATM    1  C1  UNL     1     -34.659   5.218   2.806  1.00 20.00    -0.030 C 
HETATM    2  C2  UNL     1     -35.327   5.048   3.953  1.00 20.00    -0.026 C 
HETATM    3  C4  UNL     1     -33.373   5.977   2.712  1.00 20.00     0.031 C 
HETATM    4  C5  UNL     1     -34.848   5.568   5.285  1.00 20.00     0.014 C 
HETATM    5  C6  UNL     1     -33.393   6.102   5.242  1.00 20.00     0.058 C 
HETATM    6  C7  UNL     1     -33.103   6.871   3.936  1.00 20.00    -0.004 C 
HETATM    7  C8  UNL     1     -34.985   4.469   6.345  1.00 20.00     0.015 C 
HETATM    8  C9  UNL     1     -31.664   7.394   3.876  1.00 20.00     0.011 C 
ENDROOT
BRANCH   5   9
HETATM    9  C3  UNL     1     -33.186   7.004   6.427  1.00 20.00     0.236 C 
HETATM   10  O10 UNL     1     -34.105   7.536   7.041  1.00 20.00    -0.306 OA
ENDBRANCH   5   9
TORSDOF 1
ENDMDL
MODEL 5
REMARK VINA RESULT:      -4.4     12.845     14.456
REMARK  1 active torsions:
REMARK  status: ('A' for Active; 'I' for Inactive)
REMARK    1  A    between atoms: C3_3  and  C6_6 
ROOT
HETATM    1  C1  UNL     1     -34.131  17.522  -6.451  1.00 20.00    -0.030 C 
HETATM    2  C2  UNL     1     -35.064  16.778  -7.057  1.00 20.00    -0.026 C 
HETATM    3  C4  UNL     1     -33.389  17.075  -5.233  1.00 20.00     0.031 C 
HETATM    4  C5  UNL     1     -35.451  15.393  -6.604  1.00 20.00     0.014 C 
HETATM    5  C6  UNL     1     -34.497  14.815  -5.528  1.00 20.00     0.058 C 
HETATM    6  C7  UNL     1     -34.062  15.892  -4.511  1.00 20.00    -0.004 C 
HETATM    7  C8  UNL     1     -35.520  14.457  -7.818  1.00 20.00     0.015 C 
HETATM    8  C9  UNL     1     -33.109  15.337  -3.448  1.00 20.00     0.011 C 
ENDROOT
BRANCH   5   9
HETATM    9  C3  UNL     1     -35.208  13.696  -4.819  1.00 20.00     0.236 C 
HETATM   10  O10 UNL     1     -34.781  12.547  -4.770  1.00 20.00    -0.306 OA
ENDBRANCH   5   9
TORSDOF 1
ENDMDL
MODEL 6
REMARK VINA RESULT:      -4.3     12.471     14.118
REMARK  1 active torsions:
REMARK  status: ('A' for Active; 'I' for Inactive)
REMARK    1  A    between atoms: C3_3  and  C6_6 
ROOT
HETATM    1  C1  UNL     1     -33.204  16.581  -5.265  1.00 20.00    -0.030 C 
HETATM    2  C2  UNL     1     -33.299  16.178  -3.993  1.00 20.00    -0.026 C 
HETATM    3  C4  UNL     1     -34.230  16.260  -6.305  1.00 20.00     0.031 C 
HETATM    4  C5  UNL     1     -34.462  15.387  -3.451  1.00 20.00     0.014 C 
HETATM    5  C6  UNL     1     -35.650  15.295  -4.441  1.00 20.00     0.058 C 
HETATM    6  C7  UNL     1     -35.170  15.111  -5.897  1.00 20.00    -0.004 C 
HETATM    7  C8  UNL     1     -34.919  15.992  -2.118  1.00 20.00     0.015 C 
HETATM    8  C9  UNL     1     -36.336  15.031  -6.888  1.00 20.00     0.011 C 
ENDROOT
BRANCH   5   9
HETATM    9  C3  UNL     1     -36.516  14.136  -4.034  1.00 20.00     0.236 C 
HETATM   10  O10 UNL     1     -37.703  14.247  -3.745  1.00 20.00    -0.306 OA
ENDBRANCH   5   9
TORSDOF 1
ENDMDL
MODEL 7
REMARK VINA RESULT:      -4.3     12.365     13.039
REMARK  1 active torsions:
REMARK  status: ('A' for Active; 'I' for Inactive)
REMARK    1  A    between atoms: C3_3  and  C6_6 
ROOT
HETATM    1  C1  UNL     1     -37.218  15.627  -3.407  1.00 20.00    -0.030 C 
HETATM    2  C2  UNL     1     -36.418  16.505  -2.790  1.00 20.00    -0.026 C 
HETATM    3  C4  UNL     1     -36.708  14.426  -4.137  1.00 20.00     0.031 C 
HETATM    4  C5  UNL     1     -34.918  16.369  -2.729  1.00 20.00     0.014 C 
HETATM    5  C6  UNL     1     -34.411  14.994  -3.232  1.00 20.00     0.058 C 
HETATM    6  C7  UNL     1     -35.205  14.505  -4.462  1.00 20.00    -0.004 C 
HETATM    7  C8  UNL     1     -34.437  16.627  -1.296  1.00 20.00     0.015 C 
HETATM    8  C9  UNL     1     -34.721  13.140  -4.962  1.00 20.00     0.011 C 
ENDROOT
BRANCH   5   9
HETATM    9  C3  UNL     1     -32.954  15.126  -3.580  1.00 20.00     0.236 C 
HETATM   10  O10 UNL     1     -32.531  15.891  -4.441  1.00 20.00    -0.306 OA
ENDBRANCH   5   9
TORSDOF 1
ENDMDL
MODEL 8
REMARK VINA RESULT:      -4.2     12.339     13.303
REMARK  1 active torsions:
REMARK  status: ('A' for Active; 'I' for Inactive)
REMARK    1  A    between atoms: C3_3  and  C6_6 
ROOT
HETATM    1  C1  UNL     1     -33.782  16.090  -2.492  1.00 20.00    -0.030 C 
HETATM    2  C2  UNL     1     -34.939  16.739  -2.313  1.00 20.00    -0.026 C 
HETATM    3  C4  UNL     1     -33.640  14.898  -3.383  1.00 20.00     0.031 C 
HETATM    4  C5  UNL     1     -36.222  16.368  -3.013  1.00 20.00     0.014 C 
HETATM    5  C6  UNL     1     -36.020  15.326  -4.142  1.00 20.00     0.058 C 
HETATM    6  C7  UNL     1     -34.987  14.248  -3.748  1.00 20.00    -0.004 C 
HETATM    7  C8  UNL     1     -36.890  17.634  -3.564  1.00 20.00     0.015 C 
HETATM    8  C9  UNL     1     -34.770  13.216  -4.861  1.00 20.00     0.011 C 
ENDROOT
BRANCH   5   9
HETATM    9  C3  UNL     1     -37.347  14.683  -4.434  1.00 20.00     0.236 C 
HETATM   10  O10 UNL     1     -38.107  14.273  -3.563  1.00 20.00    -0.306 OA
ENDBRANCH   5   9
TORSDOF 1
ENDMDL
MODEL 9
REMARK VINA RESULT:      -4.2     12.161     13.165
REMARK  1 active torsions:
REMARK  status: ('A' for Active; 'I' for Inactive)
REMARK    1  A    between atoms: C3_3  and  C6_6 
ROOT
HETATM    1  C1  UNL     1     -37.177  16.141  -4.481  1.00 20.00    -0.030 C 
HETATM    2  C2  UNL     1     -36.640  15.319  -5.390  1.00 20.00    -0.026 C 
HETATM    3  C4  UNL     1     -36.484  16.523  -3.211  1.00 20.00     0.031 C 
HETATM    4  C5  UNL     1     -35.266  14.712  -5.260  1.00 20.00     0.014 C 
HETATM    5  C6  UNL     1     -34.438  15.321  -4.100  1.00 20.00     0.058 C 
HETATM    6  C7  UNL     1     -35.310  15.592  -2.855  1.00 20.00    -0.004 C 
HETATM    7  C8  UNL     1     -34.514  14.854  -6.589  1.00 20.00     0.015 C 
HETATM    8  C9  UNL     1     -34.505  16.206  -1.705  1.00 20.00     0.011 C 
ENDROOT
BRANCH   5   9
HETATM    9  C3  UNL     1     -33.333  14.362  -3.755  1.00 20.00     0.236 C 
HETATM   10  O10 UNL     1     -33.487  13.147  -3.686  1.00 20.00    -0.306 OA
ENDBRANCH   5   9
TORSDOF 1
ENDMDL
