MODEL 1
REMARK VINA RESULT:      -4.7      0.000      0.000
REMARK  1 active torsions:
REMARK  status: ('A' for Active; 'I' for Inactive)
REMARK    1  A    between atoms: C4_4  and  C9_9 
ROOT
HETATM    1  C1  UNL     1     -34.883   4.363   5.909  1.00 20.00    -0.025 C 
HETATM    2  C2  UNL     1     -34.644   3.785   4.722  1.00 20.00    -0.025 C 
HETATM    3  C5  UNL     1     -35.565   5.856   4.286  1.00 20.00     0.017 C 
HETATM    4  C6  UNL     1     -33.500   6.341   5.352  1.00 20.00     0.017 C 
HETATM    5  C7  UNL     1     -34.931   5.856   5.677  1.00 20.00     0.009 C 
HETATM    6  C8  UNL     1     -34.518   4.895   3.704  1.00 20.00     0.016 C 
HETATM    7  C9  UNL     1     -33.196   5.634   4.005  1.00 20.00     0.015 C 
ENDROOT
BRANCH   7   8
HETATM    8  C4  UNL     1     -32.817   6.601   2.927  1.00 20.00    -0.031 C 
HETATM    9  C3  UNL     1     -31.883   7.548   3.065  1.00 20.00     0.007 C 
ENDBRANCH   7   8
TORSDOF 1
ENDMDL
MODEL 2
REMARK VINA RESULT:      -4.7      0.952      1.974
REMARK  1 active torsions:
REMARK  status: ('A' for Active; 'I' for Inactive)
REMARK    1  A    between atoms: C4_4  and  C9_9 
ROOT
HETATM    1  C1  UNL     1     -35.403   5.044   6.569  1.00 20.00    -0.025 C 
HETATM    2  C2  UNL     1     -34.450   5.986   6.643  1.00 20.00    -0.025 C 
HETATM    3  C5  UNL     1     -33.551   4.213   5.469  1.00 20.00     0.017 C 
HETATM    4  C6  UNL     1     -35.321   4.997   4.094  1.00 20.00     0.017 C 
HETATM    5  C7  UNL     1     -35.077   4.172   5.379  1.00 20.00     0.009 C 
HETATM    6  C8  UNL     1     -33.498   5.748   5.494  1.00 20.00     0.016 C 
HETATM    7  C9  UNL     1     -34.255   6.119   4.200  1.00 20.00     0.015 C 
ENDROOT
BRANCH   7   8
HETATM    8  C4  UNL     1     -33.360   6.168   3.001  1.00 20.00    -0.031 C 
HETATM    9  C3  UNL     1     -32.176   6.790   2.976  1.00 20.00     0.007 C 
ENDBRANCH   7   8
TORSDOF 1
ENDMDL
MODEL 3
REMARK VINA RESULT:      -4.5     11.673     12.576
REMARK  1 active torsions:
REMARK  status: ('A' for Active; 'I' for Inactive)
REMARK    1  A    between atoms: C4_4  and  C9_9 
ROOT
HETATM    1  C1  UNL     1     -34.844  13.451  -4.689  1.00 20.00    -0.025 C 
HETATM    2  C2  UNL     1     -33.693  13.522  -4.005  1.00 20.00    -0.025 C 
HETATM    3  C5  UNL     1     -34.102  15.632  -4.846  1.00 20.00     0.017 C 
HETATM    4  C6  UNL     1     -35.890  15.241  -3.334  1.00 20.00     0.017 C 
HETATM    5  C7  UNL     1     -35.413  14.850  -4.752  1.00 20.00     0.009 C 
HETATM    6  C8  UNL     1     -33.503  14.965  -3.599  1.00 20.00     0.016 C 
HETATM    7  C9  UNL     1     -34.568  15.273  -2.524  1.00 20.00     0.015 C 
ENDROOT
BRANCH   7   8
HETATM    8  C4  UNL     1     -34.344  16.592  -1.851  1.00 20.00    -0.031 C 
HETATM    9  C3  UNL     1     -34.636  16.838  -0.570  1.00 20.00     0.007 C 
ENDBRANCH   7   8
TORSDOF 1
ENDMDL
MODEL 4
REMARK VINA RESULT:      -4.3     11.969     13.105
REMARK  1 active torsions:
REMARK  status: ('A' for Active; 'I' for Inactive)
REMARK    1  A    between atoms: C4_4  and  C9_9 
ROOT
HETATM    1  C1  UNL     1     -34.215  15.236  -5.470  1.00 20.00    -0.025 C 
HETATM    2  C2  UNL     1     -34.816  14.374  -4.635  1.00 20.00    -0.025 C 
HETATM    3  C5  UNL     1     -32.846  15.023  -3.624  1.00 20.00     0.017 C 
HETATM    4  C6  UNL     1     -34.129  17.016  -3.749  1.00 20.00     0.017 C 
HETATM    5  C7  UNL     1     -33.278  16.082  -4.639  1.00 20.00     0.009 C 
HETATM    6  C8  UNL     1     -34.288  14.656  -3.248  1.00 20.00     0.016 C 
HETATM    7  C9  UNL     1     -34.868  16.021  -2.816  1.00 20.00     0.015 C 
ENDROOT
BRANCH   7   8
HETATM    8  C4  UNL     1     -34.630  16.317  -1.368  1.00 20.00    -0.031 C 
HETATM    9  C3  UNL     1     -33.900  17.345  -0.924  1.00 20.00     0.007 C 
ENDBRANCH   7   8
TORSDOF 1
ENDMDL
MODEL 5
REMARK VINA RESULT:      -4.3     11.809     12.835
REMARK  1 active torsions:
REMARK  status: ('A' for Active; 'I' for Inactive)
REMARK    1  A    between atoms: C4_4  and  C9_9 
ROOT
HETATM    1  C1  UNL     1     -33.667  17.009  -1.983  1.00 20.00    -0.025 C 
HETATM    2  C2  UNL     1     -34.698  16.304  -1.493  1.00 20.00    -0.025 C 
HETATM    3  C5  UNL     1     -35.176  16.735  -3.710  1.00 20.00     0.017 C 
HETATM    4  C6  UNL     1     -33.244  15.356  -3.779  1.00 20.00     0.017 C 
HETATM    5  C7  UNL     1     -33.665  16.814  -3.482  1.00 20.00     0.009 C 
HETATM    6  C8  UNL     1     -35.372  15.628  -2.664  1.00 20.00     0.016 C 
HETATM    7  C9  UNL     1     -34.407  14.532  -3.167  1.00 20.00     0.015 C 
ENDROOT
BRANCH   7   8
HETATM    8  C4  UNL     1     -35.044  13.617  -4.167  1.00 20.00    -0.031 C 
HETATM    9  C3  UNL     1     -34.748  13.611  -5.471  1.00 20.00     0.007 C 
ENDBRANCH   7   8
TORSDOF 1
ENDMDL
MODEL 6
REMARK VINA RESULT:      -4.3      1.260      2.888
REMARK  1 active torsions:
REMARK  status: ('A' for Active; 'I' for Inactive)
REMARK    1  A    between atoms: C4_4  and  C9_9 
ROOT
HETATM    1  C1  UNL     1     -34.018   5.050   2.541  1.00 20.00    -0.025 C 
HETATM    2  C2  UNL     1     -32.945   5.663   3.064  1.00 20.00    -0.025 C 
HETATM    3  C5  UNL     1     -34.783   6.948   3.609  1.00 20.00     0.017 C 
HETATM    4  C6  UNL     1     -35.142   4.893   4.743  1.00 20.00     0.017 C 
HETATM    5  C7  UNL     1     -35.223   5.511   3.328  1.00 20.00     0.009 C 
HETATM    6  C8  UNL     1     -33.436   6.521   4.208  1.00 20.00     0.016 C 
HETATM    7  C9  UNL     1     -33.872   5.559   5.335  1.00 20.00     0.015 C 
ENDROOT
BRANCH   7   8
HETATM    8  C4  UNL     1     -34.150   6.268   6.623  1.00 20.00    -0.031 C 
HETATM    9  C3  UNL     1     -33.523   7.383   7.015  1.00 20.00     0.007 C 
ENDBRANCH   7   8
TORSDOF 1
ENDMDL
MODEL 7
REMARK VINA RESULT:      -4.3     11.574     12.811
REMARK  1 active torsions:
REMARK  status: ('A' for Active; 'I' for Inactive)
REMARK    1  A    between atoms: C4_4  and  C9_9 
ROOT
HETATM    1  C1  UNL     1     -34.827  14.057  -5.852  1.00 20.00    -0.025 C 
HETATM    2  C2  UNL     1     -35.075  15.372  -5.754  1.00 20.00    -0.025 C 
HETATM    3  C5  UNL     1     -36.343  14.328  -4.132  1.00 20.00     0.017 C 
HETATM    4  C6  UNL     1     -34.097  13.905  -3.489  1.00 20.00     0.017 C 
HETATM    5  C7  UNL     1     -35.158  13.439  -4.512  1.00 20.00     0.009 C 
HETATM    6  C8  UNL     1     -35.559  15.630  -4.345  1.00 20.00     0.016 C 
HETATM    7  C9  UNL     1     -34.345  15.435  -3.411  1.00 20.00     0.015 C 
ENDROOT
BRANCH   7   8
HETATM    8  C4  UNL     1     -34.612  15.897  -2.013  1.00 20.00    -0.031 C 
HETATM    9  C3  UNL     1     -33.995  16.933  -1.435  1.00 20.00     0.007 C 
ENDBRANCH   7   8
TORSDOF 1
ENDMDL
MODEL 8
REMARK VINA RESULT:      -4.1      8.705     10.196
REMARK  1 active torsions:
REMARK  status: ('A' for Active; 'I' for Inactive)
REMARK    1  A    between atoms: C4_4  and  C9_9 
ROOT
HETATM    1  C1  UNL     1     -41.183   7.240  -0.736  1.00 20.00    -0.025 C 
HETATM    2  C2  UNL     1     -40.577   6.156  -0.229  1.00 20.00    -0.025 C 
HETATM    3  C5  UNL     1     -42.842   5.711  -0.243  1.00 20.00     0.017 C 
HETATM    4  C6  UNL     1     -42.269   5.930  -2.536  1.00 20.00     0.017 C 
HETATM    5  C7  UNL     1     -42.521   6.791  -1.277  1.00 20.00     0.009 C 
HETATM    6  C8  UNL     1     -41.506   4.983  -0.446  1.00 20.00     0.016 C 
HETATM    7  C9  UNL     1     -41.521   4.697  -1.964  1.00 20.00     0.015 C 
ENDROOT
BRANCH   7   8
HETATM    8  C4  UNL     1     -42.204   3.409  -2.302  1.00 20.00    -0.031 C 
HETATM    9  C3  UNL     1     -41.722   2.510  -3.166  1.00 20.00     0.007 C 
ENDBRANCH   7   8
TORSDOF 1
ENDMDL
MODEL 9
REMARK VINA RESULT:      -4.1     11.957     13.423
REMARK  1 active torsions:
REMARK  status: ('A' for Active; 'I' for Inactive)
REMARK    1  A    between atoms: C4_4  and  C9_9 
ROOT
HETATM    1  C1  UNL     1     -34.712  15.611  -2.478  1.00 20.00    -0.025 C 
HETATM    2  C2  UNL     1     -33.732  16.377  -2.979  1.00 20.00    -0.025 C 
HETATM    3  C5  UNL     1     -33.463  14.271  -3.883  1.00 20.00     0.017 C 
HETATM    4  C6  UNL     1     -35.551  15.016  -4.732  1.00 20.00     0.017 C 
HETATM    5  C7  UNL     1     -34.914  14.460  -3.437  1.00 20.00     0.009 C 
HETATM    6  C8  UNL     1     -33.291  15.744  -4.278  1.00 20.00     0.016 C 
HETATM    7  C9  UNL     1     -34.441  15.945  -5.289  1.00 20.00     0.015 C 
ENDROOT
BRANCH   7   8
HETATM    8  C4  UNL     1     -34.049  15.587  -6.688  1.00 20.00    -0.031 C 
HETATM    9  C3  UNL     1     -34.805  14.857  -7.514  1.00 20.00     0.007 C 
ENDBRANCH   7   8
TORSDOF 1
ENDMDL
