MODEL 1
REMARK VINA RESULT:      -4.7      0.000      0.000
REMARK  0 active torsions:
REMARK  status: ('A' for Active; 'I' for Inactive)
ROOT
HETATM    1  C1  UNL     1     -34.856  15.360  -3.245  1.00 20.00    -0.077 C 
HETATM    2  C2  UNL     1     -34.881  16.092  -2.126  1.00 20.00     0.015 C 
HETATM    3  C3  UNL     1     -36.591  15.126  -4.985  1.00 20.00     0.009 C 
HETATM    4  C4  UNL     1     -35.504  14.899  -6.052  1.00 20.00     0.006 C 
HETATM    5  C5  UNL     1     -35.190  13.315  -4.334  1.00 20.00     0.014 C 
HETATM    6  C6  UNL     1     -35.985  14.472  -3.732  1.00 20.00     0.015 C 
HETATM    7  C7  UNL     1     -34.363  14.232  -5.250  1.00 20.00    -0.002 C 
HETATM    8  C8  UNL     1     -33.700  15.220  -4.231  1.00 20.00    -0.021 C 
HETATM    9  C9  UNL     1     -32.460  14.584  -3.577  1.00 20.00     0.020 C 
HETATM   10  C10 UNL     1     -33.290  16.559  -4.859  1.00 20.00     0.020 C 
ENDROOT
TORSDOF 0
ENDMDL
MODEL 2
REMARK VINA RESULT:      -4.7      1.129      2.823
REMARK  0 active torsions:
REMARK  status: ('A' for Active; 'I' for Inactive)
ROOT
HETATM    1  C1  UNL     1     -34.511  15.836  -2.828  1.00 20.00    -0.077 C 
HETATM    2  C2  UNL     1     -34.645  16.227  -1.556  1.00 20.00     0.015 C 
HETATM    3  C3  UNL     1     -33.380  13.833  -3.725  1.00 20.00     0.009 C 
HETATM    4  C4  UNL     1     -34.365  13.794  -4.907  1.00 20.00     0.006 C 
HETATM    5  C5  UNL     1     -33.356  15.924  -4.862  1.00 20.00     0.014 C 
HETATM    6  C6  UNL     1     -33.222  15.339  -3.457  1.00 20.00     0.015 C 
HETATM    7  C7  UNL     1     -34.731  15.283  -5.104  1.00 20.00    -0.002 C 
HETATM    8  C8  UNL     1     -35.581  15.845  -3.915  1.00 20.00    -0.021 C 
HETATM    9  C9  UNL     1     -36.078  17.270  -4.221  1.00 20.00     0.020 C 
HETATM   10  C10 UNL     1     -36.792  14.970  -3.564  1.00 20.00     0.020 C 
ENDROOT
TORSDOF 0
ENDMDL
MODEL 3
REMARK VINA RESULT:      -4.6      0.811      2.242
REMARK  0 active torsions:
REMARK  status: ('A' for Active; 'I' for Inactive)
ROOT
HETATM    1  C1  UNL     1     -34.199  16.089  -4.866  1.00 20.00    -0.077 C 
HETATM    2  C2  UNL     1     -33.569  17.171  -5.337  1.00 20.00     0.015 C 
HETATM    3  C3  UNL     1     -34.979  14.092  -6.089  1.00 20.00     0.009 C 
HETATM    4  C4  UNL     1     -34.756  13.225  -4.837  1.00 20.00     0.006 C 
HETATM    5  C5  UNL     1     -36.182  15.009  -4.251  1.00 20.00     0.014 C 
HETATM    6  C6  UNL     1     -35.417  15.443  -5.499  1.00 20.00     0.015 C 
HETATM    7  C7  UNL     1     -34.993  14.220  -3.678  1.00 20.00    -0.002 C 
HETATM    8  C8  UNL     1     -33.872  15.310  -3.595  1.00 20.00    -0.021 C 
HETATM    9  C9  UNL     1     -34.039  16.175  -2.332  1.00 20.00     0.020 C 
HETATM   10  C10 UNL     1     -32.452  14.727  -3.604  1.00 20.00     0.020 C 
ENDROOT
TORSDOF 0
ENDMDL
MODEL 4
REMARK VINA RESULT:      -4.6      1.002      3.244
REMARK  0 active torsions:
REMARK  status: ('A' for Active; 'I' for Inactive)
ROOT
HETATM    1  C1  UNL     1     -34.304  15.517  -5.278  1.00 20.00    -0.077 C 
HETATM    2  C2  UNL     1     -34.613  15.780  -6.552  1.00 20.00     0.015 C 
HETATM    3  C3  UNL     1     -33.830  17.094  -3.438  1.00 20.00     0.009 C 
HETATM    4  C4  UNL     1     -34.400  16.092  -2.419  1.00 20.00     0.006 C 
HETATM    5  C5  UNL     1     -32.705  15.008  -3.646  1.00 20.00     0.014 C 
HETATM    6  C6  UNL     1     -33.186  16.182  -4.496  1.00 20.00     0.015 C 
HETATM    7  C7  UNL     1     -34.102  14.723  -3.072  1.00 20.00    -0.002 C 
HETATM    8  C8  UNL     1     -34.956  14.485  -4.363  1.00 20.00    -0.021 C 
HETATM    9  C9  UNL     1     -34.768  13.050  -4.889  1.00 20.00     0.020 C 
HETATM   10  C10 UNL     1     -36.456  14.738  -4.157  1.00 20.00     0.020 C 
ENDROOT
TORSDOF 0
ENDMDL
MODEL 5
REMARK VINA RESULT:      -4.4      1.079      2.411
REMARK  0 active torsions:
REMARK  status: ('A' for Active; 'I' for Inactive)
ROOT
HETATM    1  C1  UNL     1     -35.572  15.211  -3.734  1.00 20.00    -0.077 C 
HETATM    2  C2  UNL     1     -36.871  14.953  -3.549  1.00 20.00     0.015 C 
HETATM    3  C3  UNL     1     -34.275  15.218  -5.834  1.00 20.00     0.009 C 
HETATM    4  C4  UNL     1     -33.341  16.302  -5.266  1.00 20.00     0.006 C 
HETATM    5  C5  UNL     1     -33.348  14.481  -3.769  1.00 20.00     0.014 C 
HETATM    6  C6  UNL     1     -34.632  14.385  -4.592  1.00 20.00     0.015 C 
HETATM    7  C7  UNL     1     -33.362  16.018  -3.747  1.00 20.00    -0.002 C 
HETATM    8  C8  UNL     1     -34.754  16.335  -3.104  1.00 20.00    -0.021 C 
HETATM    9  C9  UNL     1     -34.692  16.211  -1.571  1.00 20.00     0.020 C 
HETATM   10  C10 UNL     1     -35.287  17.729  -3.461  1.00 20.00     0.020 C 
ENDROOT
TORSDOF 0
ENDMDL
MODEL 6
REMARK VINA RESULT:      -4.4      1.231      3.056
REMARK  0 active torsions:
REMARK  status: ('A' for Active; 'I' for Inactive)
ROOT
HETATM    1  C1  UNL     1     -34.737  14.928  -5.982  1.00 20.00    -0.077 C 
HETATM    2  C2  UNL     1     -34.482  14.851  -7.293  1.00 20.00     0.015 C 
HETATM    3  C3  UNL     1     -33.834  13.550  -4.143  1.00 20.00     0.009 C 
HETATM    4  C4  UNL     1     -33.953  14.744  -3.178  1.00 20.00     0.006 C 
HETATM    5  C5  UNL     1     -36.070  14.366  -4.143  1.00 20.00     0.014 C 
HETATM    6  C6  UNL     1     -35.038  13.745  -5.081  1.00 20.00     0.015 C 
HETATM    7  C7  UNL     1     -35.153  15.534  -3.748  1.00 20.00    -0.002 C 
HETATM    8  C8  UNL     1     -34.825  16.191  -5.131  1.00 20.00    -0.021 C 
HETATM    9  C9  UNL     1     -35.972  17.112  -5.587  1.00 20.00     0.020 C 
HETATM   10  C10 UNL     1     -33.520  16.999  -5.129  1.00 20.00     0.020 C 
ENDROOT
TORSDOF 0
ENDMDL
MODEL 7
REMARK VINA RESULT:      -4.4      0.938      1.035
REMARK  0 active torsions:
REMARK  status: ('A' for Active; 'I' for Inactive)
ROOT
HETATM    1  C1  UNL     1     -34.973  15.646  -2.929  1.00 20.00    -0.077 C 
HETATM    2  C2  UNL     1     -34.544  16.123  -1.755  1.00 20.00     0.015 C 
HETATM    3  C3  UNL     1     -36.728  16.539  -4.418  1.00 20.00     0.009 C 
HETATM    4  C4  UNL     1     -35.984  15.981  -5.645  1.00 20.00     0.006 C 
HETATM    5  C5  UNL     1     -36.360  14.203  -4.143  1.00 20.00     0.014 C 
HETATM    6  C6  UNL     1     -36.428  15.494  -3.329  1.00 20.00     0.015 C 
HETATM    7  C7  UNL     1     -35.263  14.736  -5.079  1.00 20.00    -0.002 C 
HETATM    8  C8  UNL     1     -34.120  15.118  -4.079  1.00 20.00    -0.021 C 
HETATM    9  C9  UNL     1     -33.310  13.875  -3.670  1.00 20.00     0.020 C 
HETATM   10  C10 UNL     1     -33.152  16.173  -4.633  1.00 20.00     0.020 C 
ENDROOT
TORSDOF 0
ENDMDL
MODEL 8
REMARK VINA RESULT:      -4.3      1.079      2.311
REMARK  0 active torsions:
REMARK  status: ('A' for Active; 'I' for Inactive)
ROOT
HETATM    1  C1  UNL     1     -35.636  15.998  -4.747  1.00 20.00    -0.077 C 
HETATM    2  C2  UNL     1     -36.649  16.738  -5.210  1.00 20.00     0.015 C 
HETATM    3  C3  UNL     1     -35.621  13.615  -4.103  1.00 20.00     0.009 C 
HETATM    4  C4  UNL     1     -34.145  13.500  -4.522  1.00 20.00     0.006 C 
HETATM    5  C5  UNL     1     -34.329  15.251  -2.954  1.00 20.00     0.014 C 
HETATM    6  C6  UNL     1     -35.716  15.052  -3.563  1.00 20.00     0.015 C 
HETATM    7  C7  UNL     1     -33.599  14.924  -4.266  1.00 20.00    -0.002 C 
HETATM    8  C8  UNL     1     -34.198  15.975  -5.259  1.00 20.00    -0.021 C 
HETATM    9  C9  UNL     1     -33.508  17.341  -5.096  1.00 20.00     0.020 C 
HETATM   10  C10 UNL     1     -34.100  15.549  -6.731  1.00 20.00     0.020 C 
ENDROOT
TORSDOF 0
ENDMDL
MODEL 9
REMARK VINA RESULT:      -4.3      0.966      2.659
REMARK  0 active torsions:
REMARK  status: ('A' for Active; 'I' for Inactive)
ROOT
HETATM    1  C1  UNL     1     -34.027  15.921  -5.045  1.00 20.00    -0.077 C 
HETATM    2  C2  UNL     1     -33.327  17.038  -5.272  1.00 20.00     0.015 C 
HETATM    3  C3  UNL     1     -35.128  15.177  -2.965  1.00 20.00     0.009 C 
HETATM    4  C4  UNL     1     -36.204  14.442  -3.785  1.00 20.00     0.006 C 
HETATM    5  C5  UNL     1     -34.090  13.653  -4.470  1.00 20.00     0.014 C 
HETATM    6  C6  UNL     1     -33.868  15.023  -3.833  1.00 20.00     0.015 C 
HETATM    7  C7  UNL     1     -35.448  14.046  -5.074  1.00 20.00    -0.002 C 
HETATM    8  C8  UNL     1     -35.081  15.291  -5.951  1.00 20.00    -0.021 C 
HETATM    9  C9  UNL     1     -34.490  14.855  -7.304  1.00 20.00     0.020 C 
HETATM   10  C10 UNL     1     -36.272  16.224  -6.214  1.00 20.00     0.020 C 
ENDROOT
TORSDOF 0
ENDMDL
