MODEL 1
REMARK VINA RESULT:      -5.4      0.000      0.000
REMARK  0 active torsions:
REMARK  status: ('A' for Active; 'I' for Inactive)
ROOT
HETATM    1  C1  UNL     1     -35.729  13.701  -4.748  1.00 20.00     0.047 C 
HETATM    2  C2  UNL     1     -34.445  14.070  -4.818  1.00 20.00    -0.013 C 
HETATM    3  C3  UNL     1     -33.716  17.842  -2.822  1.00 20.00    -0.030 C 
HETATM    4  C4  UNL     1     -33.498  17.722  -4.138  1.00 20.00    -0.030 C 
HETATM    5  C5  UNL     1     -36.668  14.429  -3.866  1.00 20.00     0.149 C 
HETATM    6  C6  UNL     1     -34.174  16.708  -1.956  1.00 20.00     0.033 C 
HETATM    7  C7  UNL     1     -33.677  16.437  -4.893  1.00 20.00     0.040 C 
HETATM    8  C8  UNL     1     -36.161  15.640  -3.115  1.00 20.00     0.088 C 
HETATM    9  C9  UNL     1     -34.680  15.478  -2.739  1.00 20.00     0.008 C 
HETATM   10  C10 UNL     1     -33.812  15.177  -3.995  1.00 20.00    -0.019 C 
HETATM   11  C11 UNL     1     -32.411  14.699  -3.550  1.00 20.00     0.020 C 
HETATM   12  O12 UNL     1     -37.846  14.081  -3.809  1.00 20.00    -0.293 OA
ENDROOT
TORSDOF 0
ENDMDL
MODEL 2
REMARK VINA RESULT:      -5.3      1.522      2.284
REMARK  0 active torsions:
REMARK  status: ('A' for Active; 'I' for Inactive)
ROOT
HETATM    1  C1  UNL     1     -33.348  13.923  -3.784  1.00 20.00     0.047 C 
HETATM    2  C2  UNL     1     -33.072  15.132  -3.283  1.00 20.00    -0.013 C 
HETATM    3  C3  UNL     1     -36.337  17.919  -3.843  1.00 20.00    -0.030 C 
HETATM    4  C4  UNL     1     -35.146  18.152  -4.410  1.00 20.00    -0.030 C 
HETATM    5  C5  UNL     1     -34.720  13.597  -4.235  1.00 20.00     0.149 C 
HETATM    6  C6  UNL     1     -36.614  16.737  -2.965  1.00 20.00     0.033 C 
HETATM    7  C7  UNL     1     -33.951  17.263  -4.222  1.00 20.00     0.040 C 
HETATM    8  C8  UNL     1     -35.772  14.683  -4.191  1.00 20.00     0.088 C 
HETATM    9  C9  UNL     1     -35.527  15.643  -3.015  1.00 20.00     0.008 C 
HETATM   10  C10 UNL     1     -34.089  16.237  -3.065  1.00 20.00    -0.019 C 
HETATM   11  C11 UNL     1     -33.769  16.921  -1.717  1.00 20.00     0.020 C 
HETATM   12  O12 UNL     1     -34.964  12.481  -4.692  1.00 20.00    -0.293 OA
ENDROOT
TORSDOF 0
ENDMDL
MODEL 3
REMARK VINA RESULT:      -5.2      1.625      2.337
REMARK  0 active torsions:
REMARK  status: ('A' for Active; 'I' for Inactive)
ROOT
HETATM    1  C1  UNL     1     -34.758  14.592  -5.973  1.00 20.00     0.047 C 
HETATM    2  C2  UNL     1     -34.705  15.924  -5.853  1.00 20.00    -0.013 C 
HETATM    3  C3  UNL     1     -35.045  17.205  -1.732  1.00 20.00    -0.030 C 
HETATM    4  C4  UNL     1     -35.969  17.570  -2.630  1.00 20.00    -0.030 C 
HETATM    5  C5  UNL     1     -34.692  13.730  -4.772  1.00 20.00     0.149 C 
HETATM    6  C6  UNL     1     -33.837  16.388  -2.077  1.00 20.00     0.033 C 
HETATM    7  C7  UNL     1     -35.897  17.210  -4.085  1.00 20.00     0.040 C 
HETATM    8  C8  UNL     1     -34.646  14.390  -3.412  1.00 20.00     0.088 C 
HETATM    9  C9  UNL     1     -33.897  15.730  -3.471  1.00 20.00     0.008 C 
HETATM   10  C10 UNL     1     -34.515  16.671  -4.546  1.00 20.00    -0.019 C 
HETATM   11  C11 UNL     1     -33.553  17.853  -4.808  1.00 20.00     0.020 C 
HETATM   12  O12 UNL     1     -34.740  12.507  -4.895  1.00 20.00    -0.293 OA
ENDROOT
TORSDOF 0
ENDMDL
MODEL 4
REMARK VINA RESULT:      -5.1      1.467      2.430
REMARK  0 active torsions:
REMARK  status: ('A' for Active; 'I' for Inactive)
ROOT
HETATM    1  C1  UNL     1     -37.665  15.395  -5.532  1.00 20.00     0.047 C 
HETATM    2  C2  UNL     1     -36.557  15.730  -6.202  1.00 20.00    -0.013 C 
HETATM    3  C3  UNL     1     -32.977  15.157  -3.836  1.00 20.00    -0.030 C 
HETATM    4  C4  UNL     1     -33.312  16.380  -4.266  1.00 20.00    -0.030 C 
HETATM    5  C5  UNL     1     -37.567  14.690  -4.234  1.00 20.00     0.149 C 
HETATM    6  C6  UNL     1     -33.764  13.924  -4.163  1.00 20.00     0.033 C 
HETATM    7  C7  UNL     1     -34.507  16.655  -5.133  1.00 20.00     0.040 C 
HETATM    8  C8  UNL     1     -36.195  14.434  -3.652  1.00 20.00     0.088 C 
HETATM    9  C9  UNL     1     -35.157  14.204  -4.763  1.00 20.00     0.008 C 
HETATM   10  C10 UNL     1     -35.142  15.390  -5.771  1.00 20.00    -0.019 C 
HETATM   11  C11 UNL     1     -34.345  14.982  -7.031  1.00 20.00     0.020 C 
HETATM   12  O12 UNL     1     -38.593  14.385  -3.626  1.00 20.00    -0.293 OA
ENDROOT
TORSDOF 0
ENDMDL
MODEL 5
REMARK VINA RESULT:      -5.1      2.266      3.966
REMARK  0 active torsions:
REMARK  status: ('A' for Active; 'I' for Inactive)
ROOT
HETATM    1  C1  UNL     1     -35.001  18.370  -4.567  1.00 20.00     0.047 C 
HETATM    2  C2  UNL     1     -35.388  17.575  -3.563  1.00 20.00    -0.013 C 
HETATM    3  C3  UNL     1     -33.633  13.627  -3.834  1.00 20.00    -0.030 C 
HETATM    4  C4  UNL     1     -34.961  13.780  -3.899  1.00 20.00    -0.030 C 
HETATM    5  C5  UNL     1     -33.911  17.948  -5.476  1.00 20.00     0.149 C 
HETATM    6  C6  UNL     1     -32.681  14.766  -3.627  1.00 20.00     0.033 C 
HETATM    7  C7  UNL     1     -35.650  15.107  -3.762  1.00 20.00     0.040 C 
HETATM    8  C8  UNL     1     -33.309  16.573  -5.291  1.00 20.00     0.088 C 
HETATM    9  C9  UNL     1     -33.315  16.160  -3.811  1.00 20.00     0.008 C 
HETATM   10  C10 UNL     1     -34.748  16.244  -3.210  1.00 20.00    -0.019 C 
HETATM   11  C11 UNL     1     -34.667  16.148  -1.670  1.00 20.00     0.020 C 
HETATM   12  O12 UNL     1     -33.563  18.688  -6.395  1.00 20.00    -0.293 OA
ENDROOT
TORSDOF 0
ENDMDL
MODEL 6
REMARK VINA RESULT:      -4.9      1.839      3.462
REMARK  0 active torsions:
REMARK  status: ('A' for Active; 'I' for Inactive)
ROOT
HETATM    1  C1  UNL     1     -35.030  16.920  -1.943  1.00 20.00     0.047 C 
HETATM    2  C2  UNL     1     -34.274  15.846  -2.194  1.00 20.00    -0.013 C 
HETATM    3  C3  UNL     1     -34.685  14.476  -6.280  1.00 20.00    -0.030 C 
HETATM    4  C4  UNL     1     -35.043  13.682  -5.264  1.00 20.00    -0.030 C 
HETATM    5  C5  UNL     1     -35.703  17.635  -3.051  1.00 20.00     0.149 C 
HETATM    6  C6  UNL     1     -34.094  15.840  -6.091  1.00 20.00     0.033 C 
HETATM    7  C7  UNL     1     -34.884  14.061  -3.820  1.00 20.00     0.040 C 
HETATM    8  C8  UNL     1     -35.581  17.076  -4.451  1.00 20.00     0.088 C 
HETATM    9  C9  UNL     1     -34.220  16.391  -4.656  1.00 20.00     0.008 C 
HETATM   10  C10 UNL     1     -33.975  15.296  -3.577  1.00 20.00    -0.019 C 
HETATM   11  C11 UNL     1     -32.490  14.868  -3.608  1.00 20.00     0.020 C 
HETATM   12  O12 UNL     1     -36.395  18.623  -2.809  1.00 20.00    -0.293 OA
ENDROOT
TORSDOF 0
ENDMDL
MODEL 7
REMARK VINA RESULT:      -4.9      2.087      3.581
REMARK  0 active torsions:
REMARK  status: ('A' for Active; 'I' for Inactive)
ROOT
HETATM    1  C1  UNL     1     -33.024  15.230  -3.695  1.00 20.00     0.047 C 
HETATM    2  C2  UNL     1     -33.811  16.305  -3.821  1.00 20.00    -0.013 C 
HETATM    3  C3  UNL     1     -37.777  15.273  -5.215  1.00 20.00    -0.030 C 
HETATM    4  C4  UNL     1     -36.990  16.068  -5.950  1.00 20.00    -0.030 C 
HETATM    5  C5  UNL     1     -33.596  13.869  -3.803  1.00 20.00     0.149 C 
HETATM    6  C6  UNL     1     -37.379  14.728  -3.877  1.00 20.00     0.033 C 
HETATM    7  C7  UNL     1     -35.624  16.514  -5.514  1.00 20.00     0.040 C 
HETATM    8  C8  UNL     1     -35.064  13.727  -4.137  1.00 20.00     0.088 C 
HETATM    9  C9  UNL     1     -35.880  14.889  -3.549  1.00 20.00     0.008 C 
HETATM   10  C10 UNL     1     -35.316  16.263  -4.013  1.00 20.00    -0.019 C 
HETATM   11  C11 UNL     1     -35.937  17.390  -3.156  1.00 20.00     0.020 C 
HETATM   12  O12 UNL     1     -32.863  12.888  -3.685  1.00 20.00    -0.293 OA
ENDROOT
TORSDOF 0
ENDMDL
MODEL 8
REMARK VINA RESULT:      -4.8      2.237      3.886
REMARK  0 active torsions:
REMARK  status: ('A' for Active; 'I' for Inactive)
ROOT
HETATM    1  C1  UNL     1     -34.045  16.833  -1.936  1.00 20.00     0.047 C 
HETATM    2  C2  UNL     1     -34.444  15.607  -2.293  1.00 20.00    -0.013 C 
HETATM    3  C3  UNL     1     -35.466  15.379  -6.493  1.00 20.00    -0.030 C 
HETATM    4  C4  UNL     1     -36.396  15.143  -5.559  1.00 20.00    -0.030 C 
HETATM    5  C5  UNL     1     -33.779  17.862  -2.967  1.00 20.00     0.149 C 
HETATM    6  C6  UNL     1     -34.036  15.689  -6.172  1.00 20.00     0.033 C 
HETATM    7  C7  UNL     1     -36.111  15.151  -4.085  1.00 20.00     0.040 C 
HETATM    8  C8  UNL     1     -34.046  17.518  -4.415  1.00 20.00     0.088 C 
HETATM    9  C9  UNL     1     -33.780  16.029  -4.689  1.00 20.00     0.008 C 
HETATM   10  C10 UNL     1     -34.601  15.126  -3.723  1.00 20.00    -0.019 C 
HETATM   11  C11 UNL     1     -34.069  13.676  -3.799  1.00 20.00     0.020 C 
HETATM   12  O12 UNL     1     -33.411  18.985  -2.628  1.00 20.00    -0.293 OA
ENDROOT
TORSDOF 0
ENDMDL
MODEL 9
REMARK VINA RESULT:      -4.8      1.995      2.977
REMARK  0 active torsions:
REMARK  status: ('A' for Active; 'I' for Inactive)
ROOT
HETATM    1  C1  UNL     1     -34.935  13.432  -4.194  1.00 20.00     0.047 C 
HETATM    2  C2  UNL     1     -35.812  14.382  -4.534  1.00 20.00    -0.013 C 
HETATM    3  C3  UNL     1     -34.243  18.364  -3.887  1.00 20.00    -0.030 C 
HETATM    4  C4  UNL     1     -35.325  17.949  -3.217  1.00 20.00    -0.030 C 
HETATM    5  C5  UNL     1     -33.533  13.788  -3.879  1.00 20.00     0.149 C 
HETATM    6  C6  UNL     1     -33.537  17.529  -4.911  1.00 20.00     0.033 C 
HETATM    7  C7  UNL     1     -35.960  16.604  -3.421  1.00 20.00     0.040 C 
HETATM    8  C8  UNL     1     -33.144  15.250  -3.871  1.00 20.00     0.088 C 
HETATM    9  C9  UNL     1     -33.952  16.043  -4.910  1.00 20.00     0.008 C 
HETATM   10  C10 UNL     1     -35.482  15.855  -4.694  1.00 20.00    -0.019 C 
HETATM   11  C11 UNL     1     -36.245  16.383  -5.931  1.00 20.00     0.020 C 
HETATM   12  O12 UNL     1     -32.734  12.906  -3.569  1.00 20.00    -0.293 OA
ENDROOT
TORSDOF 0
ENDMDL
