MODEL 1
REMARK VINA RESULT:      -4.1      0.000      0.000
REMARK  3 active torsions:
REMARK  status: ('A' for Active; 'I' for Inactive)
REMARK    1  A    between atoms: C1_1  and  C7_7 
REMARK    2  A    between atoms: C1_1  and  C9_9 
REMARK    3  A    between atoms: C7_7  and  C8_8 
ROOT
HETATM    1  C1  UNL     1     -33.856  16.143  -4.255  1.00 20.00     0.134 C 
HETATM    2  O10 UNL     1     -32.871  16.527  -4.890  1.00 20.00    -0.297 OA
ENDROOT
BRANCH   1   3
HETATM    3  C7  UNL     1     -34.540  17.059  -3.243  1.00 20.00     0.083 C 
BRANCH   3   4
HETATM    4  C8  UNL     1     -33.785  17.170  -1.909  1.00 20.00    -0.016 C 
HETATM    5  C2  UNL     1     -34.647  16.620  -0.771  1.00 20.00     0.010 C 
HETATM    6  C3  UNL     1     -33.394  18.618  -1.609  1.00 20.00     0.010 C 
ENDBRANCH   3   4
ENDBRANCH   1   3
BRANCH   1   7
HETATM    7  C9  UNL     1     -34.429  14.723  -4.447  1.00 20.00     0.009 C 
HETATM    8  C4  UNL     1     -35.803  14.627  -3.764  1.00 20.00     0.022 C 
HETATM    9  C5  UNL     1     -34.605  14.407  -5.939  1.00 20.00     0.022 C 
HETATM   10  C6  UNL     1     -33.479  13.710  -3.795  1.00 20.00     0.022 C 
ENDBRANCH   1   7
TORSDOF 3
ENDMDL
MODEL 2
REMARK VINA RESULT:      -4.1      0.033      1.370
REMARK  3 active torsions:
REMARK  status: ('A' for Active; 'I' for Inactive)
REMARK    1  A    between atoms: C1_1  and  C7_7 
REMARK    2  A    between atoms: C1_1  and  C9_9 
REMARK    3  A    between atoms: C7_7  and  C8_8 
ROOT
HETATM    1  C1  UNL     1     -33.854  16.152  -4.234  1.00 20.00     0.134 C 
HETATM    2  O10 UNL     1     -32.873  16.526  -4.881  1.00 20.00    -0.297 OA
ENDROOT
BRANCH   1   3
HETATM    3  C7  UNL     1     -34.529  17.081  -3.228  1.00 20.00     0.083 C 
BRANCH   3   4
HETATM    4  C8  UNL     1     -33.774  17.190  -1.894  1.00 20.00    -0.016 C 
HETATM    5  C2  UNL     1     -34.638  16.642  -0.756  1.00 20.00     0.010 C 
HETATM    6  C3  UNL     1     -33.381  18.639  -1.593  1.00 20.00     0.010 C 
ENDBRANCH   3   4
ENDBRANCH   1   3
BRANCH   1   7
HETATM    7  C9  UNL     1     -34.430  14.730  -4.405  1.00 20.00     0.009 C 
HETATM    8  C4  UNL     1     -34.597  14.420  -5.902  1.00 20.00     0.022 C 
HETATM    9  C5  UNL     1     -33.485  13.685  -3.795  1.00 20.00     0.022 C 
HETATM   10  C6  UNL     1     -35.805  14.666  -3.728  1.00 20.00     0.022 C 
ENDBRANCH   1   7
TORSDOF 3
ENDMDL
MODEL 3
REMARK VINA RESULT:      -4.1      1.234      1.320
REMARK  3 active torsions:
REMARK  status: ('A' for Active; 'I' for Inactive)
REMARK    1  A    between atoms: C1_1  and  C7_7 
REMARK    2  A    between atoms: C1_1  and  C9_9 
REMARK    3  A    between atoms: C7_7  and  C8_8 
ROOT
HETATM    1  C1  UNL     1     -33.887  15.111  -3.610  1.00 20.00     0.134 C 
HETATM    2  O10 UNL     1     -32.667  14.935  -3.578  1.00 20.00    -0.297 OA
ENDROOT
BRANCH   1   3
HETATM    3  C7  UNL     1     -34.637  15.622  -2.381  1.00 20.00     0.083 C 
BRANCH   3   4
HETATM    4  C8  UNL     1     -33.928  16.789  -1.674  1.00 20.00    -0.016 C 
HETATM    5  C2  UNL     1     -34.612  17.084  -0.338  1.00 20.00     0.010 C 
HETATM    6  C3  UNL     1     -33.924  18.048  -2.543  1.00 20.00     0.010 C 
ENDBRANCH   3   4
ENDBRANCH   1   3
BRANCH   1   7
HETATM    7  C9  UNL     1     -34.706  14.814  -4.884  1.00 20.00     0.009 C 
HETATM    8  C4  UNL     1     -36.156  15.287  -4.685  1.00 20.00     0.022 C 
HETATM    9  C5  UNL     1     -34.116  15.553  -6.093  1.00 20.00     0.022 C 
HETATM   10  C6  UNL     1     -34.709  13.300  -5.132  1.00 20.00     0.022 C 
ENDBRANCH   1   7
TORSDOF 3
ENDMDL
MODEL 4
REMARK VINA RESULT:      -3.8      1.502      1.901
REMARK  3 active torsions:
REMARK  status: ('A' for Active; 'I' for Inactive)
REMARK    1  A    between atoms: C1_1  and  C7_7 
REMARK    2  A    between atoms: C1_1  and  C9_9 
REMARK    3  A    between atoms: C7_7  and  C8_8 
ROOT
HETATM    1  C1  UNL     1     -35.105  15.791  -3.353  1.00 20.00     0.134 C 
HETATM    2  O10 UNL     1     -36.056  16.424  -3.817  1.00 20.00    -0.297 OA
ENDROOT
BRANCH   1   3
HETATM    3  C7  UNL     1     -34.752  15.882  -1.870  1.00 20.00     0.083 C 
BRANCH   3   4
HETATM    4  C8  UNL     1     -34.846  17.308  -1.305  1.00 20.00    -0.016 C 
HETATM    5  C2  UNL     1     -33.653  18.139  -1.779  1.00 20.00     0.010 C 
HETATM    6  C3  UNL     1     -34.896  17.299   0.225  1.00 20.00     0.010 C 
ENDBRANCH   3   4
ENDBRANCH   1   3
BRANCH   1   7
HETATM    7  C9  UNL     1     -34.226  14.894  -4.252  1.00 20.00     0.009 C 
HETATM    8  C4  UNL     1     -34.768  13.454  -4.225  1.00 20.00     0.022 C 
HETATM    9  C5  UNL     1     -34.247  15.394  -5.702  1.00 20.00     0.022 C 
HETATM   10  C6  UNL     1     -32.793  14.895  -3.706  1.00 20.00     0.022 C 
ENDBRANCH   1   7
TORSDOF 3
ENDMDL
MODEL 5
REMARK VINA RESULT:      -3.8      1.498      2.162
REMARK  3 active torsions:
REMARK  status: ('A' for Active; 'I' for Inactive)
REMARK    1  A    between atoms: C1_1  and  C7_7 
REMARK    2  A    between atoms: C1_1  and  C9_9 
REMARK    3  A    between atoms: C7_7  and  C8_8 
ROOT
HETATM    1  C1  UNL     1     -34.463  14.951  -4.216  1.00 20.00     0.134 C 
HETATM    2  O10 UNL     1     -33.600  14.077  -4.115  1.00 20.00    -0.297 OA
ENDROOT
BRANCH   1   3
HETATM    3  C7  UNL     1     -35.098  15.573  -2.974  1.00 20.00     0.083 C 
BRANCH   3   4
HETATM    4  C8  UNL     1     -34.109  16.387  -2.124  1.00 20.00    -0.016 C 
HETATM    5  C2  UNL     1     -34.681  16.609  -0.723  1.00 20.00     0.010 C 
HETATM    6  C3  UNL     1     -33.793  17.735  -2.774  1.00 20.00     0.010 C 
ENDBRANCH   3   4
ENDBRANCH   1   3
BRANCH   1   7
HETATM    7  C9  UNL     1     -34.945  15.444  -5.598  1.00 20.00     0.009 C 
HETATM    8  C4  UNL     1     -33.891  16.387  -6.203  1.00 20.00     0.022 C 
HETATM    9  C5  UNL     1     -35.146  14.261  -6.555  1.00 20.00     0.022 C 
HETATM   10  C6  UNL     1     -36.258  16.217  -5.420  1.00 20.00     0.022 C 
ENDBRANCH   1   7
TORSDOF 3
ENDMDL
MODEL 6
REMARK VINA RESULT:      -3.8      2.309      3.022
REMARK  3 active torsions:
REMARK  status: ('A' for Active; 'I' for Inactive)
REMARK    1  A    between atoms: C1_1  and  C7_7 
REMARK    2  A    between atoms: C1_1  and  C9_9 
REMARK    3  A    between atoms: C7_7  and  C8_8 
ROOT
HETATM    1  C1  UNL     1     -36.475  15.081  -4.201  1.00 20.00     0.134 C 
HETATM    2  O10 UNL     1     -37.026  14.045  -3.823  1.00 20.00    -0.297 OA
ENDROOT
BRANCH   1   3
HETATM    3  C7  UNL     1     -35.981  16.118  -3.194  1.00 20.00     0.083 C 
BRANCH   3   4
HETATM    4  C8  UNL     1     -34.796  15.630  -2.345  1.00 20.00    -0.016 C 
HETATM    5  C2  UNL     1     -34.630  16.524  -1.115  1.00 20.00     0.010 C 
HETATM    6  C3  UNL     1     -33.498  15.619  -3.156  1.00 20.00     0.010 C 
ENDBRANCH   3   4
ENDBRANCH   1   3
BRANCH   1   7
HETATM    7  C9  UNL     1     -36.271  15.378  -5.702  1.00 20.00     0.009 C 
HETATM    8  C4  UNL     1     -35.284  14.359  -6.298  1.00 20.00     0.022 C 
HETATM    9  C5  UNL     1     -37.600  15.266  -6.461  1.00 20.00     0.022 C 
HETATM   10  C6  UNL     1     -35.684  16.786  -5.857  1.00 20.00     0.022 C 
ENDBRANCH   1   7
TORSDOF 3
ENDMDL
MODEL 7
REMARK VINA RESULT:      -3.7      1.481      2.353
REMARK  3 active torsions:
REMARK  status: ('A' for Active; 'I' for Inactive)
REMARK    1  A    between atoms: C1_1  and  C7_7 
REMARK    2  A    between atoms: C1_1  and  C9_9 
REMARK    3  A    between atoms: C7_7  and  C8_8 
ROOT
HETATM    1  C1  UNL     1     -35.071  15.586  -3.271  1.00 20.00     0.134 C 
HETATM    2  O10 UNL     1     -36.263  15.817  -3.486  1.00 20.00    -0.297 OA
ENDROOT
BRANCH   1   3
HETATM    3  C7  UNL     1     -34.448  15.891  -1.910  1.00 20.00     0.083 C 
BRANCH   3   4
HETATM    4  C8  UNL     1     -34.737  17.315  -1.410  1.00 20.00    -0.016 C 
HETATM    5  C2  UNL     1     -33.666  18.279  -1.925  1.00 20.00     0.010 C 
HETATM    6  C3  UNL     1     -34.790  17.369   0.118  1.00 20.00     0.010 C 
ENDBRANCH   3   4
ENDBRANCH   1   3
BRANCH   1   7
HETATM    7  C9  UNL     1     -34.159  14.993  -4.366  1.00 20.00     0.009 C 
HETATM    8  C4  UNL     1     -33.241  16.095  -4.923  1.00 20.00     0.022 C 
HETATM    9  C5  UNL     1     -33.281  13.873  -3.793  1.00 20.00     0.022 C 
HETATM   10  C6  UNL     1     -35.035  14.455  -5.505  1.00 20.00     0.022 C 
ENDBRANCH   1   7
TORSDOF 3
ENDMDL
MODEL 8
REMARK VINA RESULT:      -3.7      0.894      3.939
REMARK  3 active torsions:
REMARK  status: ('A' for Active; 'I' for Inactive)
REMARK    1  A    between atoms: C1_1  and  C7_7 
REMARK    2  A    between atoms: C1_1  and  C9_9 
REMARK    3  A    between atoms: C7_7  and  C8_8 
ROOT
HETATM    1  C1  UNL     1     -33.478  16.193  -4.042  1.00 20.00     0.134 C 
HETATM    2  O10 UNL     1     -32.880  16.760  -4.959  1.00 20.00    -0.297 OA
ENDROOT
BRANCH   1   3
HETATM    3  C7  UNL     1     -33.356  14.684  -3.842  1.00 20.00     0.083 C 
BRANCH   3   4
HETATM    4  C8  UNL     1     -34.247  13.867  -4.791  1.00 20.00    -0.016 C 
HETATM    5  C2  UNL     1     -34.483  14.643  -6.088  1.00 20.00     0.010 C 
HETATM    6  C3  UNL     1     -35.590  13.527  -4.139  1.00 20.00     0.010 C 
ENDBRANCH   3   4
ENDBRANCH   1   3
BRANCH   1   7
HETATM    7  C9  UNL     1     -34.381  16.980  -3.068  1.00 20.00     0.009 C 
HETATM    8  C4  UNL     1     -34.578  16.165  -1.778  1.00 20.00     0.022 C 
HETATM    9  C5  UNL     1     -33.739  18.324  -2.700  1.00 20.00     0.022 C 
HETATM   10  C6  UNL     1     -35.748  17.203  -3.727  1.00 20.00     0.022 C 
ENDBRANCH   1   7
TORSDOF 3
ENDMDL
MODEL 9
REMARK VINA RESULT:      -3.6      1.662      3.915
REMARK  3 active torsions:
REMARK  status: ('A' for Active; 'I' for Inactive)
REMARK    1  A    between atoms: C1_1  and  C7_7 
REMARK    2  A    between atoms: C1_1  and  C9_9 
REMARK    3  A    between atoms: C7_7  and  C8_8 
ROOT
HETATM    1  C1  UNL     1     -34.062  16.211  -4.739  1.00 20.00     0.134 C 
HETATM    2  O10 UNL     1     -32.918  16.637  -4.913  1.00 20.00    -0.297 OA
ENDROOT
BRANCH   1   3
HETATM    3  C7  UNL     1     -35.216  16.687  -5.620  1.00 20.00     0.083 C 
BRANCH   3   4
HETATM    4  C8  UNL     1     -35.008  16.390  -7.113  1.00 20.00    -0.016 C 
HETATM    5  C2  UNL     1     -36.219  16.870  -7.917  1.00 20.00     0.010 C 
HETATM    6  C3  UNL     1     -34.784  14.896  -7.358  1.00 20.00     0.010 C 
ENDBRANCH   3   4
ENDBRANCH   1   3
BRANCH   1   7
HETATM    7  C9  UNL     1     -34.377  15.194  -3.622  1.00 20.00     0.009 C 
HETATM    8  C4  UNL     1     -35.822  14.690  -3.780  1.00 20.00     0.022 C 
HETATM    9  C5  UNL     1     -33.431  13.989  -3.704  1.00 20.00     0.022 C 
HETATM   10  C6  UNL     1     -34.241  15.890  -2.262  1.00 20.00     0.022 C 
ENDBRANCH   1   7
TORSDOF 3
ENDMDL
