MODEL 1
REMARK VINA RESULT:      -5.1      0.000      0.000
REMARK  2 active torsions:
REMARK  status: ('A' for Active; 'I' for Inactive)
REMARK    1  A    between atoms: C1_1  and  C6_6 
REMARK    2  A    between atoms: C1_1  and  C7_7 
ROOT
HETATM    1  C1  UNL     1     -34.344   5.550   3.654  1.00 20.00     0.135 C 
HETATM    2  O8  UNL     1     -34.612   5.157   2.520  1.00 20.00    -0.297 OA
ENDROOT
BRANCH   1   3
HETATM    3  C6  UNL     1     -33.167   6.382   3.924  1.00 20.00     0.056 A 
HETATM    4  C2  UNL     1     -31.899   6.140   3.151  1.00 20.00     0.013 A 
HETATM    5  C3  UNL     1     -32.712   7.373   2.886  1.00 20.00     0.013 A 
ENDBRANCH   1   3
BRANCH   1   6
HETATM    6  C7  UNL     1     -35.211   5.201   4.834  1.00 20.00     0.056 A 
HETATM    7  C4  UNL     1     -34.841   4.014   5.649  1.00 20.00     0.013 A 
HETATM    8  C5  UNL     1     -34.648   5.396   6.196  1.00 20.00     0.013 A 
ENDBRANCH   1   6
TORSDOF 2
ENDMDL
MODEL 2
REMARK VINA RESULT:      -5.0      1.580      1.724
REMARK  2 active torsions:
REMARK  status: ('A' for Active; 'I' for Inactive)
REMARK    1  A    between atoms: C1_1  and  C6_6 
REMARK    2  A    between atoms: C1_1  and  C7_7 
ROOT
HETATM    1  C1  UNL     1     -33.947   6.217   4.928  1.00 20.00     0.135 C 
HETATM    2  O8  UNL     1     -33.439   6.752   5.912  1.00 20.00    -0.297 OA
ENDROOT
BRANCH   1   3
HETATM    3  C6  UNL     1     -33.472   6.495   3.569  1.00 20.00     0.056 A 
HETATM    4  C2  UNL     1     -32.161   7.209   3.376  1.00 20.00     0.013 A 
HETATM    5  C3  UNL     1     -32.275   5.752   3.040  1.00 20.00     0.013 A 
ENDBRANCH   1   3
BRANCH   1   6
HETATM    6  C7  UNL     1     -35.086   5.242   5.061  1.00 20.00     0.056 A 
HETATM    7  C4  UNL     1     -34.776   3.789   4.996  1.00 20.00     0.013 A 
HETATM    8  C5  UNL     1     -35.164   4.422   6.298  1.00 20.00     0.013 A 
ENDBRANCH   1   6
TORSDOF 2
ENDMDL
MODEL 3
REMARK VINA RESULT:      -4.9      0.909      3.391
REMARK  2 active torsions:
REMARK  status: ('A' for Active; 'I' for Inactive)
REMARK    1  A    between atoms: C1_1  and  C6_6 
REMARK    2  A    between atoms: C1_1  and  C7_7 
ROOT
HETATM    1  C1  UNL     1     -34.578   5.534   3.842  1.00 20.00     0.135 C 
HETATM    2  O8  UNL     1     -35.779   5.557   3.580  1.00 20.00    -0.297 OA
ENDROOT
BRANCH   1   3
HETATM    3  C6  UNL     1     -34.083   5.088   5.148  1.00 20.00     0.056 A 
HETATM    4  C2  UNL     1     -34.469   5.854   6.385  1.00 20.00     0.013 A 
HETATM    5  C3  UNL     1     -35.048   4.492   6.138  1.00 20.00     0.013 A 
ENDBRANCH   1   3
BRANCH   1   6
HETATM    6  C7  UNL     1     -33.543   5.960   2.836  1.00 20.00     0.056 A 
HETATM    7  C4  UNL     1     -32.784   7.211   3.098  1.00 20.00     0.013 A 
HETATM    8  C5  UNL     1     -32.111   5.877   3.228  1.00 20.00     0.013 A 
ENDBRANCH   1   6
TORSDOF 2
ENDMDL
MODEL 4
REMARK VINA RESULT:      -4.9      1.634      3.731
REMARK  2 active torsions:
REMARK  status: ('A' for Active; 'I' for Inactive)
REMARK    1  A    between atoms: C1_1  and  C6_6 
REMARK    2  A    between atoms: C1_1  and  C7_7 
ROOT
HETATM    1  C1  UNL     1     -33.804   6.331   5.123  1.00 20.00     0.135 C 
HETATM    2  O8  UNL     1     -33.167   6.964   5.963  1.00 20.00    -0.297 OA
ENDROOT
BRANCH   1   3
HETATM    3  C6  UNL     1     -34.901   5.435   5.502  1.00 20.00     0.056 A 
HETATM    4  C2  UNL     1     -35.236   4.263   4.619  1.00 20.00     0.013 A 
HETATM    5  C3  UNL     1     -34.587   4.033   5.951  1.00 20.00     0.013 A 
ENDBRANCH   1   3
BRANCH   1   6
HETATM    6  C7  UNL     1     -33.496   6.440   3.654  1.00 20.00     0.056 A 
HETATM    7  C4  UNL     1     -32.354   7.295   3.238  1.00 20.00     0.013 A 
HETATM    8  C5  UNL     1     -32.251   5.802   3.151  1.00 20.00     0.013 A 
ENDBRANCH   1   6
TORSDOF 2
ENDMDL
MODEL 5
REMARK VINA RESULT:      -4.1     11.558     12.790
REMARK  2 active torsions:
REMARK  status: ('A' for Active; 'I' for Inactive)
REMARK    1  A    between atoms: C1_1  and  C6_6 
REMARK    2  A    between atoms: C1_1  and  C7_7 
ROOT
HETATM    1  C1  UNL     1     -34.470  13.662  -4.848  1.00 20.00     0.135 C 
HETATM    2  O8  UNL     1     -34.910  12.519  -4.958  1.00 20.00    -0.297 OA
ENDROOT
BRANCH   1   3
HETATM    3  C6  UNL     1     -34.567  14.634  -5.942  1.00 20.00     0.056 A 
HETATM    4  C2  UNL     1     -35.326  14.268  -7.189  1.00 20.00     0.013 A 
HETATM    5  C3  UNL     1     -35.894  15.280  -6.238  1.00 20.00     0.013 A 
ENDBRANCH   1   3
BRANCH   1   6
HETATM    6  C7  UNL     1     -33.806  14.132  -3.582  1.00 20.00     0.056 A 
HETATM    7  C4  UNL     1     -33.086  15.433  -3.609  1.00 20.00     0.013 A 
HETATM    8  C5  UNL     1     -34.390  15.305  -2.880  1.00 20.00     0.013 A 
ENDBRANCH   1   6
TORSDOF 2
ENDMDL
MODEL 6
REMARK VINA RESULT:      -4.1      2.182      3.271
REMARK  2 active torsions:
REMARK  status: ('A' for Active; 'I' for Inactive)
REMARK    1  A    between atoms: C1_1  and  C6_6 
REMARK    2  A    between atoms: C1_1  and  C7_7 
ROOT
HETATM    1  C1  UNL     1     -32.049   7.430   3.133  1.00 20.00     0.135 C 
HETATM    2  O8  UNL     1     -31.147   7.940   3.795  1.00 20.00    -0.297 OA
ENDROOT
BRANCH   1   3
HETATM    3  C6  UNL     1     -32.614   8.099   1.956  1.00 20.00     0.056 A 
HETATM    4  C2  UNL     1     -32.407   9.580   1.779  1.00 20.00     0.013 A 
HETATM    5  C3  UNL     1     -31.689   8.612   0.885  1.00 20.00     0.013 A 
ENDBRANCH   1   3
BRANCH   1   6
HETATM    6  C7  UNL     1     -32.628   6.087   3.490  1.00 20.00     0.056 A 
HETATM    7  C4  UNL     1     -33.824   6.051   4.372  1.00 20.00     0.013 A 
HETATM    8  C5  UNL     1     -33.949   5.720   2.915  1.00 20.00     0.013 A 
ENDBRANCH   1   6
TORSDOF 2
ENDMDL
MODEL 7
REMARK VINA RESULT:      -4.1      1.567      4.083
REMARK  2 active torsions:
REMARK  status: ('A' for Active; 'I' for Inactive)
REMARK    1  A    between atoms: C1_1  and  C6_6 
REMARK    2  A    between atoms: C1_1  and  C7_7 
ROOT
HETATM    1  C1  UNL     1     -32.526   6.680   3.090  1.00 20.00     0.135 C 
HETATM    2  O8  UNL     1     -31.990   5.593   2.886  1.00 20.00    -0.297 OA
ENDROOT
BRANCH   1   3
HETATM    3  C6  UNL     1     -33.838   6.783   3.738  1.00 20.00     0.056 A 
HETATM    4  C2  UNL     1     -34.679   5.546   3.902  1.00 20.00     0.013 A 
HETATM    5  C3  UNL     1     -34.036   6.177   5.101  1.00 20.00     0.013 A 
ENDBRANCH   1   3
BRANCH   1   6
HETATM    6  C7  UNL     1     -31.867   7.973   2.689  1.00 20.00     0.056 A 
HETATM    7  C4  UNL     1     -31.820   8.316   1.243  1.00 20.00     0.013 A 
HETATM    8  C5  UNL     1     -32.730   9.066   2.169  1.00 20.00     0.013 A 
ENDBRANCH   1   6
TORSDOF 2
ENDMDL
MODEL 8
REMARK VINA RESULT:      -4.0     11.631     12.912
REMARK  2 active torsions:
REMARK  status: ('A' for Active; 'I' for Inactive)
REMARK    1  A    between atoms: C1_1  and  C6_6 
REMARK    2  A    between atoms: C1_1  and  C7_7 
ROOT
HETATM    1  C1  UNL     1     -34.433  13.725  -4.816  1.00 20.00     0.135 C 
HETATM    2  O8  UNL     1     -34.857  12.574  -4.891  1.00 20.00    -0.297 OA
ENDROOT
BRANCH   1   3
HETATM    3  C6  UNL     1     -33.798  14.235  -3.596  1.00 20.00     0.056 A 
HETATM    4  C2  UNL     1     -33.252  15.637  -3.578  1.00 20.00     0.013 A 
HETATM    5  C3  UNL     1     -34.489  15.306  -2.797  1.00 20.00     0.013 A 
ENDBRANCH   1   3
BRANCH   1   6
HETATM    6  C7  UNL     1     -34.539  14.682  -5.973  1.00 20.00     0.056 A 
HETATM    7  C4  UNL     1     -35.317  14.256  -7.166  1.00 20.00     0.013 A 
HETATM    8  C5  UNL     1     -35.859  15.307  -6.245  1.00 20.00     0.013 A 
ENDBRANCH   1   6
TORSDOF 2
ENDMDL
MODEL 9
REMARK VINA RESULT:      -4.0     11.857     12.500
REMARK  2 active torsions:
REMARK  status: ('A' for Active; 'I' for Inactive)
REMARK    1  A    between atoms: C1_1  and  C6_6 
REMARK    2  A    between atoms: C1_1  and  C7_7 
ROOT
HETATM    1  C1  UNL     1     -33.657  15.647  -3.568  1.00 20.00     0.135 C 
HETATM    2  O8  UNL     1     -32.720  15.914  -4.318  1.00 20.00    -0.297 OA
ENDROOT
BRANCH   1   3
HETATM    3  C6  UNL     1     -34.301  16.675  -2.744  1.00 20.00     0.056 A 
HETATM    4  C2  UNL     1     -34.762  16.327  -1.354  1.00 20.00     0.013 A 
HETATM    5  C3  UNL     1     -33.573  17.222  -1.545  1.00 20.00     0.013 A 
ENDBRANCH   1   3
BRANCH   1   6
HETATM    6  C7  UNL     1     -34.200  14.248  -3.450  1.00 20.00     0.056 A 
HETATM    7  C4  UNL     1     -35.501  13.944  -4.101  1.00 20.00     0.013 A 
HETATM    8  C5  UNL     1     -34.225  13.403  -4.673  1.00 20.00     0.013 A 
ENDBRANCH   1   6
TORSDOF 2
ENDMDL
