MODEL 1
REMARK VINA RESULT:      -3.6      0.000      0.000
REMARK  0 active torsions:
REMARK  status: ('A' for Active; 'I' for Inactive)
ROOT
HETATM    1  C1  UNL     1     -33.265   6.170   3.882  1.00 20.00     0.111 C 
HETATM    2  C2  UNL     1     -35.159   4.886   4.639  1.00 20.00     0.049 C 
HETATM    3  C3  UNL     1     -34.196   5.782   4.880  1.00 20.00     0.104 C 
HETATM    4  N4  UNL     1     -32.501   6.488   3.068  1.00 20.00    -0.190 NA
HETATM    5 CL5  UNL     1     -34.041   6.514   6.435  1.00 20.00    -0.073 Cl
ENDROOT
TORSDOF 0
ENDMDL
MODEL 2
REMARK VINA RESULT:      -3.5      1.470      1.701
REMARK  0 active torsions:
REMARK  status: ('A' for Active; 'I' for Inactive)
ROOT
HETATM    1  C1  UNL     1     -33.329   6.215   4.000  1.00 20.00     0.111 C 
HETATM    2  C2  UNL     1     -34.104   6.349   6.278  1.00 20.00     0.049 C 
HETATM    3  C3  UNL     1     -34.142   5.769   5.074  1.00 20.00     0.104 C 
HETATM    4  N4  UNL     1     -32.666   6.578   3.120  1.00 20.00    -0.190 NA
HETATM    5 CL5  UNL     1     -35.197   4.438   4.769  1.00 20.00    -0.073 Cl
ENDROOT
TORSDOF 0
ENDMDL
MODEL 3
REMARK VINA RESULT:      -3.5      2.486      2.562
REMARK  0 active torsions:
REMARK  status: ('A' for Active; 'I' for Inactive)
ROOT
HETATM    1  C1  UNL     1     -34.123   6.215   6.020  1.00 20.00     0.111 C 
HETATM    2  C2  UNL     1     -34.970   3.976   5.744  1.00 20.00     0.049 C 
HETATM    3  C3  UNL     1     -34.688   5.179   5.233  1.00 20.00     0.104 C 
HETATM    4  N4  UNL     1     -33.661   7.065   6.662  1.00 20.00    -0.190 NA
HETATM    5 CL5  UNL     1     -35.005   5.529   3.573  1.00 20.00    -0.073 Cl
ENDROOT
TORSDOF 0
ENDMDL
MODEL 4
REMARK VINA RESULT:      -3.4      2.036      2.506
REMARK  0 active torsions:
REMARK  status: ('A' for Active; 'I' for Inactive)
ROOT
HETATM    1  C1  UNL     1     -34.699   4.715   5.130  1.00 20.00     0.111 C 
HETATM    2  C2  UNL     1     -33.542   6.445   3.915  1.00 20.00     0.049 C 
HETATM    3  C3  UNL     1     -34.028   5.963   5.064  1.00 20.00     0.104 C 
HETATM    4  N4  UNL     1     -35.249   3.694   5.187  1.00 20.00    -0.190 NA
HETATM    5 CL5  UNL     1     -33.861   6.851   6.534  1.00 20.00    -0.073 Cl
ENDROOT
TORSDOF 0
ENDMDL
MODEL 5
REMARK VINA RESULT:      -3.3      2.488      2.859
REMARK  0 active torsions:
REMARK  status: ('A' for Active; 'I' for Inactive)
ROOT
HETATM    1  C1  UNL     1     -34.695   4.725   5.201  1.00 20.00     0.111 C 
HETATM    2  C2  UNL     1     -33.942   6.674   6.403  1.00 20.00     0.049 C 
HETATM    3  C3  UNL     1     -34.020   5.972   5.268  1.00 20.00     0.104 C 
HETATM    4  N4  UNL     1     -35.245   3.705   5.143  1.00 20.00    -0.190 NA
HETATM    5 CL5  UNL     1     -33.293   6.557   3.816  1.00 20.00    -0.073 Cl
ENDROOT
TORSDOF 0
ENDMDL
MODEL 6
REMARK VINA RESULT:      -3.3      2.462      2.566
REMARK  0 active torsions:
REMARK  status: ('A' for Active; 'I' for Inactive)
ROOT
HETATM    1  C1  UNL     1     -33.909   6.326   5.454  1.00 20.00     0.111 C 
HETATM    2  C2  UNL     1     -34.830   5.365   3.444  1.00 20.00     0.049 C 
HETATM    3  C3  UNL     1     -33.816   5.953   4.088  1.00 20.00     0.104 C 
HETATM    4  N4  UNL     1     -33.983   6.633   6.571  1.00 20.00    -0.190 NA
HETATM    5 CL5  UNL     1     -32.331   6.289   3.275  1.00 20.00    -0.073 Cl
ENDROOT
TORSDOF 0
ENDMDL
MODEL 7
REMARK VINA RESULT:      -3.0     11.634     12.131
REMARK  0 active torsions:
REMARK  status: ('A' for Active; 'I' for Inactive)
ROOT
HETATM    1  C1  UNL     1     -34.548  13.843  -3.930  1.00 20.00     0.111 C 
HETATM    2  C2  UNL     1     -33.073  15.738  -4.133  1.00 20.00     0.049 C 
HETATM    3  C3  UNL     1     -34.048  15.094  -3.484  1.00 20.00     0.104 C 
HETATM    4  N4  UNL     1     -34.960  12.821  -4.293  1.00 20.00    -0.190 NA
HETATM    5 CL5  UNL     1     -34.752  15.764  -2.058  1.00 20.00    -0.073 Cl
ENDROOT
TORSDOF 0
ENDMDL
MODEL 8
REMARK VINA RESULT:      -2.9     12.051     12.266
REMARK  0 active torsions:
REMARK  status: ('A' for Active; 'I' for Inactive)
ROOT
HETATM    1  C1  UNL     1     -34.616  13.865  -3.915  1.00 20.00     0.111 C 
HETATM    2  C2  UNL     1     -34.723  15.699  -2.355  1.00 20.00     0.049 C 
HETATM    3  C3  UNL     1     -34.203  15.142  -3.454  1.00 20.00     0.104 C 
HETATM    4  N4  UNL     1     -34.952  12.821  -4.294  1.00 20.00    -0.190 NA
HETATM    5 CL5  UNL     1     -32.991  15.961  -4.369  1.00 20.00    -0.073 Cl
ENDROOT
TORSDOF 0
ENDMDL
MODEL 9
REMARK VINA RESULT:      -2.8     12.975     13.470
REMARK  0 active torsions:
REMARK  status: ('A' for Active; 'I' for Inactive)
ROOT
HETATM    1  C1  UNL     1     -34.684  13.688  -5.103  1.00 20.00     0.111 C 
HETATM    2  C2  UNL     1     -34.744  14.833  -7.223  1.00 20.00     0.049 C 
HETATM    3  C3  UNL     1     -34.378  14.794  -5.937  1.00 20.00     0.104 C 
HETATM    4  N4  UNL     1     -34.934  12.785  -4.419  1.00 20.00    -0.190 NA
HETATM    5 CL5  UNL     1     -33.508  16.105  -5.227  1.00 20.00    -0.073 Cl
ENDROOT
TORSDOF 0
ENDMDL
