MODEL 1
REMARK VINA RESULT:      -4.2      0.000      0.000
REMARK  4 active torsions:
REMARK  status: ('A' for Active; 'I' for Inactive)
REMARK    1  A    between atoms: C2_2  and  C5_5 
REMARK    2  A    between atoms: C4_4  and  C6_6 
REMARK    3  A    between atoms: C5_5  and  O8_8 
REMARK    4  A    between atoms: C6_6  and  O8_8 
ROOT
HETATM    1  O8  UNL     1     -33.635   6.838   3.713  1.00 20.00    -0.383 OA
ENDROOT
BRANCH   1   2
HETATM    2  C5  UNL     1     -34.406   5.658   3.892  1.00 20.00     0.218 C 
BRANCH   2   3
HETATM    3  C2  UNL     1     -34.495   5.334   5.348  1.00 20.00     0.026 C 
HETATM    4  C1  UNL     1     -34.963   4.177   5.833  1.00 20.00     0.034 C 
HETATM    5 CL9  UNL     1     -33.989   6.584   6.434  1.00 20.00    -0.088 Cl
ENDBRANCH   2   3
ENDBRANCH   1   2
BRANCH   1   6
HETATM    6  C6  UNL     1     -32.482   6.592   2.918  1.00 20.00     0.202 C 
BRANCH   6   7
HETATM    7  C4  UNL     1     -31.821   7.912   2.586  1.00 20.00     0.169 A 
HETATM    8  C3  UNL     1     -31.793   8.437   1.177  1.00 20.00     0.202 A 
HETATM    9  O7  UNL     1     -32.722   8.937   2.153  1.00 20.00    -0.379 OA
ENDBRANCH   6   7
ENDBRANCH   1   6
TORSDOF 4
ENDMDL
MODEL 2
REMARK VINA RESULT:      -3.6      1.778      4.635
REMARK  4 active torsions:
REMARK  status: ('A' for Active; 'I' for Inactive)
REMARK    1  A    between atoms: C2_2  and  C5_5 
REMARK    2  A    between atoms: C4_4  and  C6_6 
REMARK    3  A    between atoms: C5_5  and  O8_8 
REMARK    4  A    between atoms: C6_6  and  O8_8 
ROOT
HETATM    1  O8  UNL     1     -33.946   6.468   3.781  1.00 20.00    -0.383 OA
ENDROOT
BRANCH   1   2
HETATM    2  C5  UNL     1     -32.789   6.259   2.984  1.00 20.00     0.218 C 
BRANCH   2   3
HETATM    3  C2  UNL     1     -32.022   7.537   2.870  1.00 20.00     0.026 C 
HETATM    4  C1  UNL     1     -32.056   8.340   1.799  1.00 20.00     0.034 C 
HETATM    5 CL9  UNL     1     -31.008   7.933   4.216  1.00 20.00    -0.088 Cl
ENDBRANCH   2   3
ENDBRANCH   1   2
BRANCH   1   6
HETATM    6  C6  UNL     1     -34.852   5.376   3.681  1.00 20.00     0.202 C 
BRANCH   6   7
HETATM    7  C4  UNL     1     -35.327   5.001   5.068  1.00 20.00     0.169 A 
HETATM    8  C3  UNL     1     -34.522   4.086   5.947  1.00 20.00     0.202 A 
HETATM    9  O7  UNL     1     -34.517   5.510   6.133  1.00 20.00    -0.379 OA
ENDBRANCH   6   7
ENDBRANCH   1   6
TORSDOF 4
ENDMDL
MODEL 3
REMARK VINA RESULT:      -3.6     10.858     11.352
REMARK  4 active torsions:
REMARK  status: ('A' for Active; 'I' for Inactive)
REMARK    1  A    between atoms: C2_2  and  C5_5 
REMARK    2  A    between atoms: C4_4  and  C6_6 
REMARK    3  A    between atoms: C5_5  and  O8_8 
REMARK    4  A    between atoms: C6_6  and  O8_8 
ROOT
HETATM    1  O8  UNL     1     -33.491  16.179  -2.385  1.00 20.00    -0.383 OA
ENDROOT
BRANCH   1   2
HETATM    2  C5  UNL     1     -34.633  16.271  -1.545  1.00 20.00     0.218 C 
BRANCH   2   3
HETATM    3  C2  UNL     1     -34.363  17.235  -0.435  1.00 20.00     0.026 C 
HETATM    4  C1  UNL     1     -35.131  17.361   0.655  1.00 20.00     0.034 C 
HETATM    5 CL9  UNL     1     -32.983  18.261  -0.643  1.00 20.00    -0.088 Cl
ENDBRANCH   2   3
ENDBRANCH   1   2
BRANCH   1   6
HETATM    6  C6  UNL     1     -33.825  15.655  -3.663  1.00 20.00     0.202 C 
BRANCH   6   7
HETATM    7  C4  UNL     1     -34.314  14.232  -3.500  1.00 20.00     0.169 A 
HETATM    8  C3  UNL     1     -34.457  13.317  -4.684  1.00 20.00     0.202 A 
HETATM    9  O7  UNL     1     -33.335  13.230  -3.791  1.00 20.00    -0.379 OA
ENDBRANCH   6   7
ENDBRANCH   1   6
TORSDOF 4
ENDMDL
MODEL 4
REMARK VINA RESULT:      -3.6     10.813     11.577
REMARK  4 active torsions:
REMARK  status: ('A' for Active; 'I' for Inactive)
REMARK    1  A    between atoms: C2_2  and  C5_5 
REMARK    2  A    between atoms: C4_4  and  C6_6 
REMARK    3  A    between atoms: C5_5  and  O8_8 
REMARK    4  A    between atoms: C6_6  and  O8_8 
ROOT
HETATM    1  O8  UNL     1     -33.218  15.579  -3.142  1.00 20.00    -0.383 OA
ENDROOT
BRANCH   1   2
HETATM    2  C5  UNL     1     -34.431  15.875  -2.462  1.00 20.00     0.218 C 
BRANCH   2   3
HETATM    3  C2  UNL     1     -34.248  17.098  -1.622  1.00 20.00     0.026 C 
HETATM    4  C1  UNL     1     -33.651  18.219  -2.045  1.00 20.00     0.034 C 
HETATM    5 CL9  UNL     1     -34.826  16.988   0.007  1.00 20.00    -0.088 Cl
ENDBRANCH   2   3
ENDBRANCH   1   2
BRANCH   1   6
HETATM    6  C6  UNL     1     -33.239  14.272  -3.699  1.00 20.00     0.202 C 
BRANCH   6   7
HETATM    7  C4  UNL     1     -34.661  13.922  -4.083  1.00 20.00     0.169 A 
HETATM    8  C3  UNL     1     -35.056  13.731  -5.520  1.00 20.00     0.202 A 
HETATM    9  O7  UNL     1     -34.822  12.616  -4.644  1.00 20.00    -0.379 OA
ENDBRANCH   6   7
ENDBRANCH   1   6
TORSDOF 4
ENDMDL
MODEL 5
REMARK VINA RESULT:      -3.5      2.267      4.868
REMARK  4 active torsions:
REMARK  status: ('A' for Active; 'I' for Inactive)
REMARK    1  A    between atoms: C2_2  and  C5_5 
REMARK    2  A    between atoms: C4_4  and  C6_6 
REMARK    3  A    between atoms: C5_5  and  O8_8 
REMARK    4  A    between atoms: C6_6  and  O8_8 
ROOT
HETATM    1  O8  UNL     1     -32.604   6.558   2.819  1.00 20.00    -0.383 OA
ENDROOT
BRANCH   1   2
HETATM    2  C5  UNL     1     -31.810   7.731   2.930  1.00 20.00     0.218 C 
BRANCH   2   3
HETATM    3  C2  UNL     1     -32.052   8.614   1.749  1.00 20.00     0.026 C 
HETATM    4  C1  UNL     1     -31.694   8.308   0.496  1.00 20.00     0.034 C 
HETATM    5 CL9  UNL     1     -32.807  10.136   2.085  1.00 20.00    -0.088 Cl
ENDBRANCH   2   3
ENDBRANCH   1   2
BRANCH   1   6
HETATM    6  C6  UNL     1     -33.594   6.501   3.837  1.00 20.00     0.202 C 
BRANCH   6   7
HETATM    7  C4  UNL     1     -34.457   5.277   3.617  1.00 20.00     0.169 A 
HETATM    8  C3  UNL     1     -35.173   4.612   4.759  1.00 20.00     0.202 A 
HETATM    9  O7  UNL     1     -35.854   5.486   3.846  1.00 20.00    -0.379 OA
ENDBRANCH   6   7
ENDBRANCH   1   6
TORSDOF 4
ENDMDL
MODEL 6
REMARK VINA RESULT:      -3.5     11.019     11.929
REMARK  4 active torsions:
REMARK  status: ('A' for Active; 'I' for Inactive)
REMARK    1  A    between atoms: C2_2  and  C5_5 
REMARK    2  A    between atoms: C4_4  and  C6_6 
REMARK    3  A    between atoms: C5_5  and  O8_8 
REMARK    4  A    between atoms: C6_6  and  O8_8 
ROOT
HETATM    1  O8  UNL     1     -36.225  16.030  -4.207  1.00 20.00    -0.383 OA
ENDROOT
BRANCH   1   2
HETATM    2  C5  UNL     1     -36.281  16.655  -2.932  1.00 20.00     0.218 C 
BRANCH   2   3
HETATM    3  C2  UNL     1     -34.904  16.742  -2.356  1.00 20.00     0.026 C 
HETATM    4  C1  UNL     1     -34.622  16.585  -1.057  1.00 20.00     0.034 C 
HETATM    5 CL9  UNL     1     -33.639  17.117  -3.477  1.00 20.00    -0.088 Cl
ENDBRANCH   2   3
ENDBRANCH   1   2
BRANCH   1   6
HETATM    6  C6  UNL     1     -36.357  14.619  -4.102  1.00 20.00     0.202 C 
BRANCH   6   7
HETATM    7  C4  UNL     1     -35.234  13.960  -4.874  1.00 20.00     0.169 A 
HETATM    8  C3  UNL     1     -33.966  13.530  -4.191  1.00 20.00     0.202 A 
HETATM    9  O7  UNL     1     -34.998  12.591  -4.532  1.00 20.00    -0.379 OA
ENDBRANCH   6   7
ENDBRANCH   1   6
TORSDOF 4
ENDMDL
MODEL 7
REMARK VINA RESULT:      -3.4     11.310     12.162
REMARK  4 active torsions:
REMARK  status: ('A' for Active; 'I' for Inactive)
REMARK    1  A    between atoms: C2_2  and  C5_5 
REMARK    2  A    between atoms: C4_4  and  C6_6 
REMARK    3  A    between atoms: C5_5  and  O8_8 
REMARK    4  A    between atoms: C6_6  and  O8_8 
ROOT
HETATM    1  O8  UNL     1     -34.845  13.792  -3.475  1.00 20.00    -0.383 OA
ENDROOT
BRANCH   1   2
HETATM    2  C5  UNL     1     -33.575  14.290  -3.870  1.00 20.00     0.218 C 
BRANCH   2   3
HETATM    3  C2  UNL     1     -33.521  15.766  -3.638  1.00 20.00     0.026 C 
HETATM    4  C1  UNL     1     -33.745  16.349  -2.453  1.00 20.00     0.034 C 
HETATM    5 CL9  UNL     1     -33.186  16.739  -5.030  1.00 20.00    -0.088 Cl
ENDBRANCH   2   3
ENDBRANCH   1   2
BRANCH   1   6
HETATM    6  C6  UNL     1     -35.838  14.058  -4.457  1.00 20.00     0.202 C 
BRANCH   6   7
HETATM    7  C4  UNL     1     -36.980  14.814  -3.811  1.00 20.00     0.169 A 
HETATM    8  C3  UNL     1     -38.153  15.294  -4.620  1.00 20.00     0.202 A 
HETATM    9  O7  UNL     1     -38.228  14.114  -3.803  1.00 20.00    -0.379 OA
ENDBRANCH   6   7
ENDBRANCH   1   6
TORSDOF 4
ENDMDL
MODEL 8
REMARK VINA RESULT:      -3.3     11.239     12.066
REMARK  4 active torsions:
REMARK  status: ('A' for Active; 'I' for Inactive)
REMARK    1  A    between atoms: C2_2  and  C5_5 
REMARK    2  A    between atoms: C4_4  and  C6_6 
REMARK    3  A    between atoms: C5_5  and  O8_8 
REMARK    4  A    between atoms: C6_6  and  O8_8 
ROOT
HETATM    1  O8  UNL     1     -33.117  16.270  -4.201  1.00 20.00    -0.383 OA
ENDROOT
BRANCH   1   2
HETATM    2  C5  UNL     1     -33.165  14.873  -3.947  1.00 20.00     0.218 C 
BRANCH   2   3
HETATM    3  C2  UNL     1     -34.267  14.255  -4.745  1.00 20.00     0.026 C 
HETATM    4  C1  UNL     1     -35.098  13.315  -4.277  1.00 20.00     0.034 C 
HETATM    5 CL9  UNL     1     -34.408  14.795  -6.384  1.00 20.00    -0.088 Cl
ENDBRANCH   2   3
ENDBRANCH   1   2
BRANCH   1   6
HETATM    6  C6  UNL     1     -34.017  16.983  -3.363  1.00 20.00     0.202 C 
BRANCH   6   7
HETATM    7  C4  UNL     1     -33.680  16.693  -1.917  1.00 20.00     0.169 A 
HETATM    8  C3  UNL     1     -34.246  17.526  -0.802  1.00 20.00     0.202 A 
HETATM    9  O7  UNL     1     -34.783  16.234  -1.129  1.00 20.00    -0.379 OA
ENDBRANCH   6   7
ENDBRANCH   1   6
TORSDOF 4
ENDMDL
MODEL 9
REMARK VINA RESULT:      -3.2     11.251     13.028
REMARK  4 active torsions:
REMARK  status: ('A' for Active; 'I' for Inactive)
REMARK    1  A    between atoms: C2_2  and  C5_5 
REMARK    2  A    between atoms: C4_4  and  C6_6 
REMARK    3  A    between atoms: C5_5  and  O8_8 
REMARK    4  A    between atoms: C6_6  and  O8_8 
ROOT
HETATM    1  O8  UNL     1     -33.544  16.621  -3.812  1.00 20.00    -0.383 OA
ENDROOT
BRANCH   1   2
HETATM    2  C5  UNL     1     -33.417  17.214  -5.097  1.00 20.00     0.218 C 
BRANCH   2   3
HETATM    3  C2  UNL     1     -34.611  16.871  -5.927  1.00 20.00     0.026 C 
HETATM    4  C1  UNL     1     -35.843  17.348  -5.706  1.00 20.00     0.034 C 
HETATM    5 CL9  UNL     1     -34.338  15.750  -7.218  1.00 20.00    -0.088 Cl
ENDBRANCH   2   3
ENDBRANCH   1   2
BRANCH   1   6
HETATM    6  C6  UNL     1     -33.173  15.249  -3.832  1.00 20.00     0.202 C 
BRANCH   6   7
HETATM    7  C4  UNL     1     -34.354  14.413  -3.388  1.00 20.00     0.169 A 
HETATM    8  C3  UNL     1     -35.079  13.514  -4.351  1.00 20.00     0.202 A 
HETATM    9  O7  UNL     1     -34.125  13.000  -3.408  1.00 20.00    -0.379 OA
ENDBRANCH   6   7
ENDBRANCH   1   6
TORSDOF 4
ENDMDL
