MODEL 1
REMARK VINA RESULT:      -4.0      0.000      0.000
REMARK  2 active torsions:
REMARK  status: ('A' for Active; 'I' for Inactive)
REMARK    1  A    between atoms: C3_3  and  C4_4 
REMARK    2  A    between atoms: C4_4  and  S6_6 
ROOT
HETATM    1  C1  UNL     1     -32.254   7.732   2.464  1.00 20.00     0.133 C 
HETATM    2  N5  UNL     1     -32.220   8.683   1.801  1.00 20.00    -0.184 NA
HETATM    3  S6  UNL     1     -32.295   6.343   3.427  1.00 20.00    -0.046 SA
ENDROOT
BRANCH   3   4
HETATM    4  C4  UNL     1     -34.036   6.421   3.934  1.00 20.00     0.135 C 
BRANCH   4   5
HETATM    5  C3  UNL     1     -34.202   5.978   5.357  1.00 20.00    -0.011 C 
HETATM    6  C2  UNL     1     -33.815   6.722   6.403  1.00 20.00     0.027 C 
HETATM    7 BR7  UNL     1     -34.909   4.259   5.600  1.00 20.00    -0.056 Br
ENDBRANCH   4   5
ENDBRANCH   3   4
TORSDOF 2
ENDMDL
MODEL 2
REMARK VINA RESULT:      -3.8      1.290      1.542
REMARK  2 active torsions:
REMARK  status: ('A' for Active; 'I' for Inactive)
REMARK    1  A    between atoms: C3_3  and  C4_4 
REMARK    2  A    between atoms: C4_4  and  S6_6 
ROOT
HETATM    1  C1  UNL     1     -32.237   7.661   2.474  1.00 20.00     0.133 C 
HETATM    2  N5  UNL     1     -32.203   8.653   1.874  1.00 20.00    -0.184 NA
HETATM    3  S6  UNL     1     -32.276   6.213   3.346  1.00 20.00    -0.046 SA
ENDROOT
BRANCH   3   4
HETATM    4  C4  UNL     1     -34.074   6.075   3.552  1.00 20.00     0.135 C 
BRANCH   4   5
HETATM    5  C3  UNL     1     -34.418   5.493   4.891  1.00 20.00    -0.011 C 
HETATM    6  C2  UNL     1     -35.086   4.339   5.035  1.00 20.00     0.027 C 
HETATM    7 BR7  UNL     1     -33.936   6.525   6.380  1.00 20.00    -0.056 Br
ENDBRANCH   4   5
ENDBRANCH   3   4
TORSDOF 2
ENDMDL
MODEL 3
REMARK VINA RESULT:      -3.3     11.436     12.072
REMARK  2 active torsions:
REMARK  status: ('A' for Active; 'I' for Inactive)
REMARK    1  A    between atoms: C3_3  and  C4_4 
REMARK    2  A    between atoms: C4_4  and  S6_6 
ROOT
HETATM    1  C1  UNL     1     -36.237  13.980  -4.248  1.00 20.00     0.133 C 
HETATM    2  N5  UNL     1     -37.254  14.315  -3.801  1.00 20.00    -0.184 NA
HETATM    3  S6  UNL     1     -34.760  13.488  -4.905  1.00 20.00    -0.046 SA
ENDROOT
BRANCH   3   4
HETATM    4  C4  UNL     1     -33.665  14.117  -3.602  1.00 20.00     0.135 C 
BRANCH   4   5
HETATM    5  C3  UNL     1     -33.710  15.615  -3.539  1.00 20.00    -0.011 C 
HETATM    6  C2  UNL     1     -33.266  16.401  -4.530  1.00 20.00     0.027 C 
HETATM    7 BR7  UNL     1     -34.347  16.347  -1.936  1.00 20.00    -0.056 Br
ENDBRANCH   4   5
ENDBRANCH   3   4
TORSDOF 2
ENDMDL
MODEL 4
REMARK VINA RESULT:      -3.3     11.588     12.356
REMARK  2 active torsions:
REMARK  status: ('A' for Active; 'I' for Inactive)
REMARK    1  A    between atoms: C3_3  and  C4_4 
REMARK    2  A    between atoms: C4_4  and  S6_6 
ROOT
HETATM    1  C1  UNL     1     -35.583  13.591  -4.297  1.00 20.00     0.133 C 
HETATM    2  N5  UNL     1     -34.817  12.767  -4.578  1.00 20.00    -0.184 NA
HETATM    3  S6  UNL     1     -36.705  14.786  -3.884  1.00 20.00    -0.046 SA
ENDROOT
BRANCH   3   4
HETATM    4  C4  UNL     1     -35.767  16.237  -4.441  1.00 20.00     0.135 C 
BRANCH   4   5
HETATM    5  C3  UNL     1     -34.466  16.351  -3.704  1.00 20.00    -0.011 C 
HETATM    6  C2  UNL     1     -33.277  16.399  -4.322  1.00 20.00     0.027 C 
HETATM    7 BR7  UNL     1     -34.584  16.334  -1.833  1.00 20.00    -0.056 Br
ENDBRANCH   4   5
ENDBRANCH   3   4
TORSDOF 2
ENDMDL
MODEL 5
REMARK VINA RESULT:      -3.2     11.737     12.193
REMARK  2 active torsions:
REMARK  status: ('A' for Active; 'I' for Inactive)
REMARK    1  A    between atoms: C3_3  and  C4_4 
REMARK    2  A    between atoms: C4_4  and  S6_6 
ROOT
HETATM    1  C1  UNL     1     -34.159  13.657  -4.055  1.00 20.00     0.133 C 
HETATM    2  N5  UNL     1     -34.944  12.848  -4.327  1.00 20.00    -0.184 NA
HETATM    3  S6  UNL     1     -33.007  14.828  -3.656  1.00 20.00    -0.046 SA
ENDROOT
BRANCH   3   4
HETATM    4  C4  UNL     1     -34.066  16.297  -3.781  1.00 20.00     0.135 C 
BRANCH   4   5
HETATM    5  C3  UNL     1     -34.146  17.016  -2.468  1.00 20.00    -0.011 C 
HETATM    6  C2  UNL     1     -34.547  16.424  -1.334  1.00 20.00     0.027 C 
HETATM    7 BR7  UNL     1     -33.733  18.844  -2.512  1.00 20.00    -0.056 Br
ENDBRANCH   4   5
ENDBRANCH   3   4
TORSDOF 2
ENDMDL
MODEL 6
REMARK VINA RESULT:      -3.2     11.297     11.972
REMARK  2 active torsions:
REMARK  status: ('A' for Active; 'I' for Inactive)
REMARK    1  A    between atoms: C3_3  and  C4_4 
REMARK    2  A    between atoms: C4_4  and  S6_6 
ROOT
HETATM    1  C1  UNL     1     -34.206  13.684  -4.095  1.00 20.00     0.133 C 
HETATM    2  N5  UNL     1     -34.953  12.840  -4.369  1.00 20.00    -0.184 NA
HETATM    3  S6  UNL     1     -33.110  14.907  -3.694  1.00 20.00    -0.046 SA
ENDROOT
BRANCH   3   4
HETATM    4  C4  UNL     1     -34.189  16.337  -3.984  1.00 20.00     0.135 C 
BRANCH   4   5
HETATM    5  C3  UNL     1     -35.234  16.448  -2.914  1.00 20.00    -0.011 C 
HETATM    6  C2  UNL     1     -36.548  16.484  -3.176  1.00 20.00     0.027 C 
HETATM    7 BR7  UNL     1     -34.592  16.629  -1.162  1.00 20.00    -0.056 Br
ENDBRANCH   4   5
ENDBRANCH   3   4
TORSDOF 2
ENDMDL
MODEL 7
REMARK VINA RESULT:      -3.2     11.349     12.533
REMARK  2 active torsions:
REMARK  status: ('A' for Active; 'I' for Inactive)
REMARK    1  A    between atoms: C3_3  and  C4_4 
REMARK    2  A    between atoms: C4_4  and  S6_6 
ROOT
HETATM    1  C1  UNL     1     -34.051  13.569  -4.178  1.00 20.00     0.133 C 
HETATM    2  N5  UNL     1     -34.864  12.824  -4.537  1.00 20.00    -0.184 NA
HETATM    3  S6  UNL     1     -32.863  14.648  -3.649  1.00 20.00    -0.046 SA
ENDROOT
BRANCH   3   4
HETATM    4  C4  UNL     1     -33.403  16.114  -4.572  1.00 20.00     0.135 C 
BRANCH   4   5
HETATM    5  C3  UNL     1     -33.765  17.233  -3.642  1.00 20.00    -0.011 C 
HETATM    6  C2  UNL     1     -33.786  18.519  -4.018  1.00 20.00     0.027 C 
HETATM    7 BR7  UNL     1     -34.107  16.739  -1.866  1.00 20.00    -0.056 Br
ENDBRANCH   4   5
ENDBRANCH   3   4
TORSDOF 2
ENDMDL
MODEL 8
REMARK VINA RESULT:      -3.1     11.971     13.171
REMARK  2 active torsions:
REMARK  status: ('A' for Active; 'I' for Inactive)
REMARK    1  A    between atoms: C3_3  and  C4_4 
REMARK    2  A    between atoms: C4_4  and  S6_6 
ROOT
HETATM    1  C1  UNL     1     -35.263  13.761  -4.011  1.00 20.00     0.133 C 
HETATM    2  N5  UNL     1     -34.966  12.719  -4.425  1.00 20.00    -0.184 NA
HETATM    3  S6  UNL     1     -35.696  15.276  -3.397  1.00 20.00    -0.046 SA
ENDROOT
BRANCH   3   4
HETATM    4  C4  UNL     1     -35.787  16.182  -4.967  1.00 20.00     0.135 C 
BRANCH   4   5
HETATM    5  C3  UNL     1     -34.481  16.120  -5.700  1.00 20.00    -0.011 C 
HETATM    6  C2  UNL     1     -33.368  16.729  -5.265  1.00 20.00     0.027 C 
HETATM    7 BR7  UNL     1     -34.505  15.204  -7.336  1.00 20.00    -0.056 Br
ENDBRANCH   4   5
ENDBRANCH   3   4
TORSDOF 2
ENDMDL
MODEL 9
REMARK VINA RESULT:      -3.1     12.013     12.415
REMARK  2 active torsions:
REMARK  status: ('A' for Active; 'I' for Inactive)
REMARK    1  A    between atoms: C3_3  and  C4_4 
REMARK    2  A    between atoms: C4_4  and  S6_6 
ROOT
HETATM    1  C1  UNL     1     -37.090  15.188  -3.528  1.00 20.00     0.133 C 
HETATM    2  N5  UNL     1     -37.747  14.274  -3.807  1.00 20.00    -0.184 NA
HETATM    3  S6  UNL     1     -36.139  16.526  -3.124  1.00 20.00    -0.046 SA
ENDROOT
BRANCH   3   4
HETATM    4  C4  UNL     1     -34.662  15.641  -2.552  1.00 20.00     0.135 C 
BRANCH   4   5
HETATM    5  C3  UNL     1     -33.872  15.109  -3.710  1.00 20.00    -0.011 C 
HETATM    6  C2  UNL     1     -33.497  13.826  -3.811  1.00 20.00     0.027 C 
HETATM    7 BR7  UNL     1     -33.347  16.373  -4.991  1.00 20.00    -0.056 Br
ENDBRANCH   4   5
ENDBRANCH   3   4
TORSDOF 2
ENDMDL
