MODEL 1
REMARK VINA RESULT:      -4.7      0.000      0.000
REMARK  1 active torsions:
REMARK  status: ('A' for Active; 'I' for Inactive)
REMARK    1  A    between atoms: C7_7  and  C8_8 
ROOT
HETATM    1  C1  UNL     1     -36.763  14.585  -4.329  1.00 20.00     0.064 C 
HETATM    2  C2  UNL     1     -33.758  13.643  -3.994  1.00 20.00     0.002 C 
HETATM    3  C3  UNL     1     -34.591  13.832  -5.261  1.00 20.00     0.019 C 
HETATM    4  C4  UNL     1     -33.068  14.939  -3.580  1.00 20.00     0.005 C 
HETATM    5  C5  UNL     1     -34.953  16.270  -4.638  1.00 20.00     0.024 C 
HETATM    6  C6  UNL     1     -35.605  14.976  -5.151  1.00 20.00     0.093 C 
HETATM    7  C7  UNL     1     -34.046  16.109  -3.404  1.00 20.00    -0.003 C 
HETATM    8  N9  UNL     1     -37.676  14.277  -3.682  1.00 20.00    -0.197 NA
ENDROOT
BRANCH   7   9
HETATM    9  C8  UNL     1     -34.836  15.995  -2.099  1.00 20.00     0.089 C 
HETATM   10 BR10 UNL     1     -34.166  17.293  -0.824  1.00 20.00    -0.096 Br
ENDBRANCH   7   9
TORSDOF 1
ENDMDL
MODEL 2
REMARK VINA RESULT:      -4.5      1.626      2.065
REMARK  1 active torsions:
REMARK  status: ('A' for Active; 'I' for Inactive)
REMARK    1  A    between atoms: C7_7  and  C8_8 
ROOT
HETATM    1  C1  UNL     1     -35.007  13.751  -5.188  1.00 20.00     0.064 C 
HETATM    2  C2  UNL     1     -33.228  16.366  -5.040  1.00 20.00     0.002 C 
HETATM    3  C3  UNL     1     -33.971  15.753  -6.225  1.00 20.00     0.019 C 
HETATM    4  C4  UNL     1     -34.124  17.310  -4.245  1.00 20.00     0.005 C 
HETATM    5  C5  UNL     1     -36.153  15.949  -4.934  1.00 20.00     0.024 C 
HETATM    6  C6  UNL     1     -35.275  15.053  -5.822  1.00 20.00     0.093 C 
HETATM    7  C7  UNL     1     -35.424  16.645  -3.770  1.00 20.00    -0.003 C 
HETATM    8  N9  UNL     1     -34.797  12.724  -4.689  1.00 20.00    -0.197 NA
ENDROOT
BRANCH   7   9
HETATM    9  C8  UNL     1     -35.180  15.713  -2.581  1.00 20.00     0.089 C 
HETATM   10 BR10 UNL     1     -34.573  16.752  -1.061  1.00 20.00    -0.096 Br
ENDBRANCH   7   9
TORSDOF 1
ENDMDL
MODEL 3
REMARK VINA RESULT:      -4.5      2.317      2.823
REMARK  1 active torsions:
REMARK  status: ('A' for Active; 'I' for Inactive)
REMARK    1  A    between atoms: C7_7  and  C8_8 
ROOT
HETATM    1  C1  UNL     1     -36.217  14.027  -4.217  1.00 20.00     0.064 C 
HETATM    2  C2  UNL     1     -33.473  15.394  -3.424  1.00 20.00     0.002 C 
HETATM    3  C3  UNL     1     -33.794  13.924  -3.690  1.00 20.00     0.019 C 
HETATM    4  C4  UNL     1     -33.106  16.127  -4.711  1.00 20.00     0.005 C 
HETATM    5  C5  UNL     1     -34.583  14.538  -6.027  1.00 20.00     0.024 C 
HETATM    6  C6  UNL     1     -34.879  13.728  -4.756  1.00 20.00     0.093 C 
HETATM    7  C7  UNL     1     -34.182  16.007  -5.797  1.00 20.00    -0.003 C 
HETATM    8  N9  UNL     1     -37.271  14.261  -3.792  1.00 20.00    -0.197 NA
ENDROOT
BRANCH   7   9
HETATM    9  C8  UNL     1     -35.383  16.910  -5.506  1.00 20.00     0.089 C 
HETATM   10 BR10 UNL     1     -36.708  16.691  -6.904  1.00 20.00    -0.096 Br
ENDBRANCH   7   9
TORSDOF 1
ENDMDL
MODEL 4
REMARK VINA RESULT:      -4.4      2.655      3.621
REMARK  1 active torsions:
REMARK  status: ('A' for Active; 'I' for Inactive)
REMARK    1  A    between atoms: C7_7  and  C8_8 
ROOT
HETATM    1  C1  UNL     1     -34.292  13.846  -3.842  1.00 20.00     0.064 C 
HETATM    2  C2  UNL     1     -35.673  16.491  -2.782  1.00 20.00     0.002 C 
HETATM    3  C3  UNL     1     -34.403  15.790  -2.305  1.00 20.00     0.019 C 
HETATM    4  C4  UNL     1     -35.379  17.472  -3.912  1.00 20.00     0.005 C 
HETATM    5  C5  UNL     1     -33.412  16.039  -4.632  1.00 20.00     0.024 C 
HETATM    6  C6  UNL     1     -33.633  15.100  -3.437  1.00 20.00     0.093 C 
HETATM    7  C7  UNL     1     -34.654  16.821  -5.098  1.00 20.00    -0.003 C 
HETATM    8  N9  UNL     1     -34.810  12.858  -4.162  1.00 20.00    -0.197 NA
ENDROOT
BRANCH   7   9
HETATM    9  C8  UNL     1     -35.604  15.974  -5.946  1.00 20.00     0.089 C 
HETATM   10 BR10 UNL     1     -34.602  15.093  -7.353  1.00 20.00    -0.096 Br
ENDBRANCH   7   9
TORSDOF 1
ENDMDL
MODEL 5
REMARK VINA RESULT:      -4.4      1.847      2.552
REMARK  1 active torsions:
REMARK  status: ('A' for Active; 'I' for Inactive)
REMARK    1  A    between atoms: C7_7  and  C8_8 
ROOT
HETATM    1  C1  UNL     1     -34.236  13.568  -4.334  1.00 20.00     0.064 C 
HETATM    2  C2  UNL     1     -34.111  15.703  -6.669  1.00 20.00     0.002 C 
HETATM    3  C3  UNL     1     -34.967  14.445  -6.537  1.00 20.00     0.019 C 
HETATM    4  C4  UNL     1     -34.787  16.910  -6.026  1.00 20.00     0.005 C 
HETATM    5  C5  UNL     1     -35.958  15.368  -4.386  1.00 20.00     0.024 C 
HETATM    6  C6  UNL     1     -35.366  14.138  -5.089  1.00 20.00     0.093 C 
HETATM    7  C7  UNL     1     -35.162  16.675  -4.557  1.00 20.00    -0.003 C 
HETATM    8  N9  UNL     1     -33.347  13.119  -3.739  1.00 20.00    -0.197 NA
ENDROOT
BRANCH   7   9
HETATM    9  C8  UNL     1     -33.938  16.747  -3.642  1.00 20.00     0.089 C 
HETATM   10 BR10 UNL     1     -34.483  16.430  -1.809  1.00 20.00    -0.096 Br
ENDBRANCH   7   9
TORSDOF 1
ENDMDL
MODEL 6
REMARK VINA RESULT:      -4.4      1.655      2.078
REMARK  1 active torsions:
REMARK  status: ('A' for Active; 'I' for Inactive)
REMARK    1  A    between atoms: C7_7  and  C8_8 
ROOT
HETATM    1  C1  UNL     1     -35.300  16.951  -5.595  1.00 20.00     0.064 C 
HETATM    2  C2  UNL     1     -34.980  13.810  -5.347  1.00 20.00     0.002 C 
HETATM    3  C3  UNL     1     -34.365  14.781  -6.353  1.00 20.00     0.019 C 
HETATM    4  C4  UNL     1     -34.117  13.682  -4.095  1.00 20.00     0.005 C 
HETATM    5  C5  UNL     1     -33.284  16.054  -4.437  1.00 20.00     0.024 C 
HETATM    6  C6  UNL     1     -34.066  16.161  -5.755  1.00 20.00     0.093 C 
HETATM    7  C7  UNL     1     -33.830  15.031  -3.424  1.00 20.00    -0.003 C 
HETATM    8  N9  UNL     1     -36.270  17.574  -5.470  1.00 20.00    -0.197 NA
ENDROOT
BRANCH   7   9
HETATM    9  C8  UNL     1     -35.046  15.551  -2.654  1.00 20.00     0.089 C 
HETATM   10 BR10 UNL     1     -34.454  16.719  -1.225  1.00 20.00    -0.096 Br
ENDBRANCH   7   9
TORSDOF 1
ENDMDL
MODEL 7
REMARK VINA RESULT:      -4.3      1.948      2.672
REMARK  1 active torsions:
REMARK  status: ('A' for Active; 'I' for Inactive)
REMARK    1  A    between atoms: C7_7  and  C8_8 
ROOT
HETATM    1  C1  UNL     1     -34.547  14.357  -6.051  1.00 20.00     0.064 C 
HETATM    2  C2  UNL     1     -36.124  15.209  -3.441  1.00 20.00     0.002 C 
HETATM    3  C3  UNL     1     -35.865  13.819  -4.019  1.00 20.00     0.019 C 
HETATM    4  C4  UNL     1     -34.990  15.651  -2.521  1.00 20.00     0.005 C 
HETATM    5  C5  UNL     1     -33.363  14.238  -3.862  1.00 20.00     0.024 C 
HETATM    6  C6  UNL     1     -34.512  13.704  -4.731  1.00 20.00     0.093 C 
HETATM    7  C7  UNL     1     -33.615  15.606  -3.200  1.00 20.00    -0.003 C 
HETATM    8  N9  UNL     1     -34.574  14.870  -7.092  1.00 20.00    -0.197 NA
ENDROOT
BRANCH   7   9
HETATM    9  C8  UNL     1     -33.422  16.776  -4.166  1.00 20.00     0.089 C 
HETATM   10 BR10 UNL     1     -33.949  18.426  -3.294  1.00 20.00    -0.096 Br
ENDBRANCH   7   9
TORSDOF 1
ENDMDL
MODEL 8
REMARK VINA RESULT:      -4.3      2.449      3.289
REMARK  1 active torsions:
REMARK  status: ('A' for Active; 'I' for Inactive)
REMARK    1  A    between atoms: C7_7  and  C8_8 
ROOT
HETATM    1  C1  UNL     1     -33.339  16.490  -4.346  1.00 20.00     0.064 C 
HETATM    2  C2  UNL     1     -34.265  13.487  -4.735  1.00 20.00     0.002 C 
HETATM    3  C3  UNL     1     -33.219  14.076  -3.789  1.00 20.00     0.019 C 
HETATM    4  C4  UNL     1     -35.657  13.506  -4.110  1.00 20.00     0.005 C 
HETATM    5  C5  UNL     1     -35.011  15.552  -2.755  1.00 20.00     0.024 C 
HETATM    6  C6  UNL     1     -33.576  15.483  -3.297  1.00 20.00     0.093 C 
HETATM    7  C7  UNL     1     -36.087  14.903  -3.646  1.00 20.00    -0.003 C 
HETATM    8  N9  UNL     1     -33.152  17.284  -5.171  1.00 20.00    -0.197 NA
ENDROOT
BRANCH   7   9
HETATM    9  C8  UNL     1     -36.494  15.790  -4.824  1.00 20.00     0.089 C 
HETATM   10 BR10 UNL     1     -37.021  17.536  -4.165  1.00 20.00    -0.096 Br
ENDBRANCH   7   9
TORSDOF 1
ENDMDL
MODEL 9
REMARK VINA RESULT:      -4.2      2.155      3.036
REMARK  1 active torsions:
REMARK  status: ('A' for Active; 'I' for Inactive)
REMARK    1  A    between atoms: C7_7  and  C8_8 
ROOT
HETATM    1  C1  UNL     1     -33.601  15.924  -5.110  1.00 20.00     0.064 C 
HETATM    2  C2  UNL     1     -36.626  15.286  -5.798  1.00 20.00     0.002 C 
HETATM    3  C3  UNL     1     -35.356  14.518  -6.159  1.00 20.00     0.019 C 
HETATM    4  C4  UNL     1     -37.172  14.857  -4.440  1.00 20.00     0.005 C 
HETATM    5  C5  UNL     1     -34.818  14.280  -3.686  1.00 20.00     0.024 C 
HETATM    6  C6  UNL     1     -34.269  14.611  -5.082  1.00 20.00     0.093 C 
HETATM    7  C7  UNL     1     -36.138  14.979  -3.312  1.00 20.00    -0.003 C 
HETATM    8  N9  UNL     1     -33.075  16.958  -5.132  1.00 20.00    -0.197 NA
ENDROOT
BRANCH   7   9
HETATM    9  C8  UNL     1     -35.938  16.435  -2.884  1.00 20.00     0.089 C 
HETATM   10 BR10 UNL     1     -34.637  16.511  -1.449  1.00 20.00    -0.096 Br
ENDBRANCH   7   9
TORSDOF 1
ENDMDL
