MODEL 1
REMARK VINA RESULT:      -4.6      0.000      0.000
REMARK  1 active torsions:
REMARK  status: ('A' for Active; 'I' for Inactive)
REMARK    1  A    between atoms: C1_1  and  C4_4 
REMARK       I    between atoms: C1_1  and  N5_5 
ROOT
HETATM    1  C1  UNL     1     -34.014   5.983   5.198  1.00 20.00     0.326 C 
HETATM    2  C2  UNL     1     -34.197   5.483   2.717  1.00 20.00     0.152 C 
HETATM    3  C3  UNL     1     -32.259   6.704   3.625  1.00 20.00     0.152 C 
HETATM    4  N5  UNL     1     -33.530   6.041   3.891  1.00 20.00    -0.353 N 
HETATM    5  O6  UNL     1     -33.783   6.840   6.056  1.00 20.00    -0.263 OA
ENDROOT
BRANCH   1   6
HETATM    6  C4  UNL     1     -34.864   4.797   5.564  1.00 20.00     0.472 C 
HETATM    7  F7  UNL     1     -35.899   4.617   4.705  1.00 20.00    -0.162 F 
HETATM    8  F8  UNL     1     -34.155   3.641   5.596  1.00 20.00    -0.162 F 
HETATM    9  F9  UNL     1     -35.416   4.940   6.798  1.00 20.00    -0.162 F 
ENDBRANCH   1   6
TORSDOF 1
ENDMDL
MODEL 2
REMARK VINA RESULT:      -4.6      1.837      2.925
REMARK  1 active torsions:
REMARK  status: ('A' for Active; 'I' for Inactive)
REMARK    1  A    between atoms: C1_1  and  C4_4 
REMARK       I    between atoms: C1_1  and  N5_5 
ROOT
HETATM    1  C1  UNL     1     -33.814   5.986   4.448  1.00 20.00     0.326 C 
HETATM    2  C2  UNL     1     -34.834   4.990   6.548  1.00 20.00     0.152 C 
HETATM    3  C3  UNL     1     -33.687   7.169   6.605  1.00 20.00     0.152 C 
HETATM    4  N5  UNL     1     -34.111   6.024   5.810  1.00 20.00    -0.353 N 
HETATM    5  O6  UNL     1     -32.820   6.519   3.946  1.00 20.00    -0.263 OA
ENDROOT
BRANCH   1   6
HETATM    6  C4  UNL     1     -34.773   5.246   3.556  1.00 20.00     0.472 C 
HETATM    7  F7  UNL     1     -34.969   3.964   3.955  1.00 20.00    -0.162 F 
HETATM    8  F8  UNL     1     -35.989   5.844   3.494  1.00 20.00    -0.162 F 
HETATM    9  F9  UNL     1     -34.315   5.180   2.277  1.00 20.00    -0.162 F 
ENDBRANCH   1   6
TORSDOF 1
ENDMDL
MODEL 3
REMARK VINA RESULT:      -4.4      2.876      3.728
REMARK  1 active torsions:
REMARK  status: ('A' for Active; 'I' for Inactive)
REMARK    1  A    between atoms: C1_1  and  C4_4 
REMARK       I    between atoms: C1_1  and  N5_5 
ROOT
HETATM    1  C1  UNL     1     -33.983   5.783   3.980  1.00 20.00     0.326 C 
HETATM    2  C2  UNL     1     -33.891   6.609   6.377  1.00 20.00     0.152 C 
HETATM    3  C3  UNL     1     -35.016   4.493   5.806  1.00 20.00     0.152 C 
HETATM    4  N5  UNL     1     -34.272   5.655   5.338  1.00 20.00    -0.353 N 
HETATM    5  O6  UNL     1     -34.695   5.331   3.078  1.00 20.00    -0.263 OA
ENDROOT
BRANCH   1   6
HETATM    6  C4  UNL     1     -32.722   6.518   3.612  1.00 20.00     0.472 C 
HETATM    7  F7  UNL     1     -32.903   7.369   2.571  1.00 20.00    -0.162 F 
HETATM    8  F8  UNL     1     -32.221   7.238   4.646  1.00 20.00    -0.162 F 
HETATM    9  F9  UNL     1     -31.737   5.659   3.233  1.00 20.00    -0.162 F 
ENDBRANCH   1   6
TORSDOF 1
ENDMDL
MODEL 4
REMARK VINA RESULT:      -4.1     12.785     13.404
REMARK  1 active torsions:
REMARK  status: ('A' for Active; 'I' for Inactive)
REMARK    1  A    between atoms: C1_1  and  C4_4 
REMARK       I    between atoms: C1_1  and  N5_5 
ROOT
HETATM    1  C1  UNL     1     -34.198  14.359  -4.115  1.00 20.00     0.326 C 
HETATM    2  C2  UNL     1     -35.524  16.439  -4.712  1.00 20.00     0.152 C 
HETATM    3  C3  UNL     1     -36.661  14.353  -4.062  1.00 20.00     0.152 C 
HETATM    4  N5  UNL     1     -35.399  15.044  -4.295  1.00 20.00    -0.353 N 
HETATM    5  O6  UNL     1     -34.066  13.144  -4.288  1.00 20.00    -0.263 OA
ENDROOT
BRANCH   1   6
HETATM    6  C4  UNL     1     -33.004  15.168  -3.683  1.00 20.00     0.472 C 
HETATM    7  F7  UNL     1     -32.588  16.031  -4.644  1.00 20.00    -0.162 F 
HETATM    8  F8  UNL     1     -33.246  15.891  -2.562  1.00 20.00    -0.162 F 
HETATM    9  F9  UNL     1     -31.938  14.371  -3.401  1.00 20.00    -0.162 F 
ENDBRANCH   1   6
TORSDOF 1
ENDMDL
MODEL 5
REMARK VINA RESULT:      -4.1      1.738      2.363
REMARK  1 active torsions:
REMARK  status: ('A' for Active; 'I' for Inactive)
REMARK    1  A    between atoms: C1_1  and  C4_4 
REMARK       I    between atoms: C1_1  and  N5_5 
ROOT
HETATM    1  C1  UNL     1     -34.666   4.724   4.900  1.00 20.00     0.326 C 
HETATM    2  C2  UNL     1     -32.942   6.417   4.124  1.00 20.00     0.152 C 
HETATM    3  C3  UNL     1     -34.616   5.504   2.563  1.00 20.00     0.152 C 
HETATM    4  N5  UNL     1     -34.082   5.525   3.919  1.00 20.00    -0.353 N 
HETATM    5  O6  UNL     1     -35.220   3.645   4.667  1.00 20.00    -0.263 OA
ENDROOT
BRANCH   1   6
HETATM    6  C4  UNL     1     -34.609   5.223   6.318  1.00 20.00     0.472 C 
HETATM    7  F7  UNL     1     -33.622   4.631   7.036  1.00 20.00    -0.162 F 
HETATM    8  F8  UNL     1     -34.417   6.564   6.389  1.00 20.00    -0.162 F 
HETATM    9  F9  UNL     1     -35.768   4.968   6.983  1.00 20.00    -0.162 F 
ENDBRANCH   1   6
TORSDOF 1
ENDMDL
MODEL 6
REMARK VINA RESULT:      -4.0      9.042     10.019
REMARK  1 active torsions:
REMARK  status: ('A' for Active; 'I' for Inactive)
REMARK    1  A    between atoms: C1_1  and  C4_4 
REMARK       I    between atoms: C1_1  and  N5_5 
ROOT
HETATM    1  C1  UNL     1     -41.240   5.172  -1.406  1.00 20.00     0.326 C 
HETATM    2  C2  UNL     1     -42.752   6.323  -3.087  1.00 20.00     0.152 C 
HETATM    3  C3  UNL     1     -42.725   3.869  -2.877  1.00 20.00     0.152 C 
HETATM    4  N5  UNL     1     -42.200   5.148  -2.417  1.00 20.00    -0.353 N 
HETATM    5  O6  UNL     1     -40.417   4.272  -1.216  1.00 20.00    -0.263 OA
ENDROOT
BRANCH   1   6
HETATM    6  C4  UNL     1     -41.224   6.376  -0.502  1.00 20.00     0.472 C 
HETATM    7  F7  UNL     1     -40.810   7.498  -1.142  1.00 20.00    -0.162 F 
HETATM    8  F8  UNL     1     -42.442   6.637   0.035  1.00 20.00    -0.162 F 
HETATM    9  F9  UNL     1     -40.375   6.201   0.546  1.00 20.00    -0.162 F 
ENDBRANCH   1   6
TORSDOF 1
ENDMDL
MODEL 7
REMARK VINA RESULT:      -3.9     13.028     13.719
REMARK  1 active torsions:
REMARK  status: ('A' for Active; 'I' for Inactive)
REMARK    1  A    between atoms: C1_1  and  C4_4 
REMARK       I    between atoms: C1_1  and  N5_5 
ROOT
HETATM    1  C1  UNL     1     -33.621  15.566  -4.894  1.00 20.00     0.326 C 
HETATM    2  C2  UNL     1     -35.980  14.740  -5.336  1.00 20.00     0.152 C 
HETATM    3  C3  UNL     1     -34.706  15.930  -7.076  1.00 20.00     0.152 C 
HETATM    4  N5  UNL     1     -34.736  15.406  -5.716  1.00 20.00    -0.353 N 
HETATM    5  O6  UNL     1     -32.836  16.515  -4.976  1.00 20.00    -0.263 OA
ENDROOT
BRANCH   1   6
HETATM    6  C4  UNL     1     -33.378  14.508  -3.853  1.00 20.00     0.472 C 
HETATM    7  F7  UNL     1     -34.182  14.654  -2.769  1.00 20.00    -0.162 F 
HETATM    8  F8  UNL     1     -33.565  13.254  -4.334  1.00 20.00    -0.162 F 
HETATM    9  F9  UNL     1     -32.101  14.550  -3.386  1.00 20.00    -0.162 F 
ENDBRANCH   1   6
TORSDOF 1
ENDMDL
MODEL 8
REMARK VINA RESULT:      -3.8     12.464     13.191
REMARK  1 active torsions:
REMARK  status: ('A' for Active; 'I' for Inactive)
REMARK    1  A    between atoms: C1_1  and  C4_4 
REMARK       I    between atoms: C1_1  and  N5_5 
ROOT
HETATM    1  C1  UNL     1     -34.873  15.074  -3.737  1.00 20.00     0.326 C 
HETATM    2  C2  UNL     1     -33.167  16.469  -4.995  1.00 20.00     0.152 C 
HETATM    3  C3  UNL     1     -34.038  17.197  -2.808  1.00 20.00     0.152 C 
HETATM    4  N5  UNL     1     -34.051  16.193  -3.864  1.00 20.00    -0.353 N 
HETATM    5  O6  UNL     1     -35.945  15.074  -3.124  1.00 20.00    -0.263 OA
ENDROOT
BRANCH   1   6
HETATM    6  C4  UNL     1     -34.408  13.802  -4.392  1.00 20.00     0.472 C 
HETATM    7  F7  UNL     1     -34.363  13.902  -5.745  1.00 20.00    -0.162 F 
HETATM    8  F8  UNL     1     -33.177  13.421  -3.969  1.00 20.00    -0.162 F 
HETATM    9  F9  UNL     1     -35.244  12.764  -4.116  1.00 20.00    -0.162 F 
ENDBRANCH   1   6
TORSDOF 1
ENDMDL
MODEL 9
REMARK VINA RESULT:      -3.8     12.418     13.076
REMARK  1 active torsions:
REMARK  status: ('A' for Active; 'I' for Inactive)
REMARK    1  A    between atoms: C1_1  and  C4_4 
REMARK       I    between atoms: C1_1  and  N5_5 
ROOT
HETATM    1  C1  UNL     1     -34.057  15.570  -3.070  1.00 20.00     0.326 C 
HETATM    2  C2  UNL     1     -36.540  15.185  -3.425  1.00 20.00     0.152 C 
HETATM    3  C3  UNL     1     -34.889  13.462  -4.036  1.00 20.00     0.152 C 
HETATM    4  N5  UNL     1     -35.134  14.790  -3.486  1.00 20.00    -0.353 N 
HETATM    5  O6  UNL     1     -32.929  15.509  -3.569  1.00 20.00    -0.263 OA
ENDROOT
BRANCH   1   6
HETATM    6  C4  UNL     1     -34.303  16.538  -1.945  1.00 20.00     0.472 C 
HETATM    7  F7  UNL     1     -35.094  17.576  -2.319  1.00 20.00    -0.162 F 
HETATM    8  F8  UNL     1     -34.885  15.948  -0.871  1.00 20.00    -0.162 F 
HETATM    9  F9  UNL     1     -33.143  17.088  -1.496  1.00 20.00    -0.162 F 
ENDBRANCH   1   6
TORSDOF 1
ENDMDL
