MODEL 1
REMARK VINA RESULT:      -5.0      0.000      0.000
REMARK  0 active torsions:
REMARK  status: ('A' for Active; 'I' for Inactive)
ROOT
HETATM    1  C1  UNL     1     -37.230  14.845  -3.951  1.00 20.00     0.064 C 
HETATM    2  C2  UNL     1     -33.104  16.004  -4.462  1.00 20.00     0.005 C 
HETATM    3  C3  UNL     1     -33.732  13.676  -3.800  1.00 20.00     0.005 C 
HETATM    4  C4  UNL     1     -33.997  15.880  -5.704  1.00 20.00     0.006 C 
HETATM    5  C5  UNL     1     -34.647  13.573  -5.028  1.00 20.00     0.006 C 
HETATM    6  C6  UNL     1     -35.074  15.610  -2.963  1.00 20.00     0.024 C 
HETATM    7  C7  UNL     1     -35.978  15.575  -4.214  1.00 20.00     0.097 C 
HETATM    8  C8  UNL     1     -33.653  15.133  -3.318  1.00 20.00    -0.013 C 
HETATM    9  C9  UNL     1     -35.199  14.963  -5.404  1.00 20.00     0.003 C 
HETATM   10  N10 UNL     1     -38.217  14.270  -3.745  1.00 20.00    -0.197 NA
ENDROOT
TORSDOF 0
ENDMDL
MODEL 2
REMARK VINA RESULT:      -4.9      1.766      3.116
REMARK  0 active torsions:
REMARK  status: ('A' for Active; 'I' for Inactive)
ROOT
HETATM    1  C1  UNL     1     -34.447  13.556  -4.181  1.00 20.00     0.064 C 
HETATM    2  C2  UNL     1     -33.751  17.340  -2.226  1.00 20.00     0.005 C 
HETATM    3  C3  UNL     1     -35.073  17.189  -4.343  1.00 20.00     0.005 C 
HETATM    4  C4  UNL     1     -34.707  16.333  -1.571  1.00 20.00     0.006 C 
HETATM    5  C5  UNL     1     -36.004  16.160  -3.689  1.00 20.00     0.006 C 
HETATM    6  C6  UNL     1     -33.130  15.661  -3.980  1.00 20.00     0.024 C 
HETATM    7  C7  UNL     1     -34.026  14.629  -3.264  1.00 20.00     0.097 C 
HETATM    8  C8  UNL     1     -33.663  17.087  -3.741  1.00 20.00    -0.013 C 
HETATM    9  C9  UNL     1     -35.241  15.344  -2.625  1.00 20.00     0.003 C 
HETATM   10  N10 UNL     1     -34.779  12.710  -4.903  1.00 20.00    -0.197 NA
ENDROOT
TORSDOF 0
ENDMDL
MODEL 3
REMARK VINA RESULT:      -4.6      1.990      2.967
REMARK  0 active torsions:
REMARK  status: ('A' for Active; 'I' for Inactive)
ROOT
HETATM    1  C1  UNL     1     -34.802  16.195  -1.617  1.00 20.00     0.064 C 
HETATM    2  C2  UNL     1     -35.046  14.609  -5.623  1.00 20.00     0.005 C 
HETATM    3  C3  UNL     1     -33.195  16.146  -4.940  1.00 20.00     0.005 C 
HETATM    4  C4  UNL     1     -34.670  13.663  -4.474  1.00 20.00     0.006 C 
HETATM    5  C5  UNL     1     -32.847  15.209  -3.775  1.00 20.00     0.006 C 
HETATM    6  C6  UNL     1     -35.487  16.464  -3.997  1.00 20.00     0.024 C 
HETATM    7  C7  UNL     1     -35.193  15.481  -2.845  1.00 20.00     0.097 C 
HETATM    8  C8  UNL     1     -34.697  16.062  -5.257  1.00 20.00    -0.013 C 
HETATM    9  C9  UNL     1     -34.109  14.468  -3.286  1.00 20.00     0.003 C 
HETATM   10  N10 UNL     1     -34.494  16.757  -0.649  1.00 20.00    -0.197 NA
ENDROOT
TORSDOF 0
ENDMDL
MODEL 4
REMARK VINA RESULT:      -4.6      2.146      3.324
REMARK  0 active torsions:
REMARK  status: ('A' for Active; 'I' for Inactive)
ROOT
HETATM    1  C1  UNL     1     -34.032  16.952  -1.887  1.00 20.00     0.064 C 
HETATM    2  C2  UNL     1     -34.894  13.550  -4.399  1.00 20.00     0.005 C 
HETATM    3  C3  UNL     1     -34.765  15.864  -5.338  1.00 20.00     0.005 C 
HETATM    4  C4  UNL     1     -33.477  13.712  -3.833  1.00 20.00     0.006 C 
HETATM    5  C5  UNL     1     -33.360  16.027  -4.741  1.00 20.00     0.006 C 
HETATM    6  C6  UNL     1     -35.694  15.503  -3.047  1.00 20.00     0.024 C 
HETATM    7  C7  UNL     1     -34.289  15.602  -2.418  1.00 20.00     0.097 C 
HETATM    8  C8  UNL     1     -35.603  14.913  -4.468  1.00 20.00    -0.013 C 
HETATM    9  C9  UNL     1     -33.221  15.184  -3.457  1.00 20.00     0.003 C 
HETATM   10  N10 UNL     1     -33.830  18.016  -1.469  1.00 20.00    -0.197 NA
ENDROOT
TORSDOF 0
ENDMDL
MODEL 5
REMARK VINA RESULT:      -4.5      1.710      2.686
REMARK  0 active torsions:
REMARK  status: ('A' for Active; 'I' for Inactive)
ROOT
HETATM    1  C1  UNL     1     -35.373  16.727  -6.042  1.00 20.00     0.064 C 
HETATM    2  C2  UNL     1     -33.263  13.772  -3.710  1.00 20.00     0.005 C 
HETATM    3  C3  UNL     1     -34.526  15.634  -2.620  1.00 20.00     0.005 C 
HETATM    4  C4  UNL     1     -34.540  13.355  -4.453  1.00 20.00     0.006 C 
HETATM    5  C5  UNL     1     -35.790  15.229  -3.390  1.00 20.00     0.006 C 
HETATM    6  C6  UNL     1     -33.339  16.037  -4.781  1.00 20.00     0.024 C 
HETATM    7  C7  UNL     1     -34.571  15.578  -5.589  1.00 20.00     0.097 C 
HETATM    8  C8  UNL     1     -33.272  15.286  -3.437  1.00 20.00    -0.013 C 
HETATM    9  C9  UNL     1     -35.412  14.591  -4.744  1.00 20.00     0.003 C 
HETATM   10  N10 UNL     1     -36.006  17.632  -6.400  1.00 20.00    -0.197 NA
ENDROOT
TORSDOF 0
ENDMDL
MODEL 6
REMARK VINA RESULT:      -4.4      1.570      2.645
REMARK  0 active torsions:
REMARK  status: ('A' for Active; 'I' for Inactive)
ROOT
HETATM    1  C1  UNL     1     -35.626  14.664  -6.903  1.00 20.00     0.064 C 
HETATM    2  C2  UNL     1     -32.896  14.934  -3.572  1.00 20.00     0.005 C 
HETATM    3  C3  UNL     1     -35.175  15.957  -3.475  1.00 20.00     0.005 C 
HETATM    4  C4  UNL     1     -33.531  13.576  -3.900  1.00 20.00     0.006 C 
HETATM    5  C5  UNL     1     -35.799  14.602  -3.834  1.00 20.00     0.006 C 
HETATM    6  C6  UNL     1     -33.909  15.944  -5.629  1.00 20.00     0.024 C 
HETATM    7  C7  UNL     1     -34.470  14.554  -5.996  1.00 20.00     0.097 C 
HETATM    8  C8  UNL     1     -33.776  16.080  -4.100  1.00 20.00    -0.013 C 
HETATM    9  C9  UNL     1     -34.829  13.778  -4.706  1.00 20.00     0.003 C 
HETATM   10  N10 UNL     1     -36.537  14.750  -7.617  1.00 20.00    -0.197 NA
ENDROOT
TORSDOF 0
ENDMDL
MODEL 7
REMARK VINA RESULT:      -4.4      1.859      2.881
REMARK  0 active torsions:
REMARK  status: ('A' for Active; 'I' for Inactive)
ROOT
HETATM    1  C1  UNL     1     -34.340  16.134  -1.938  1.00 20.00     0.064 C 
HETATM    2  C2  UNL     1     -34.645  14.266  -5.816  1.00 20.00     0.005 C 
HETATM    3  C3  UNL     1     -36.588  14.332  -4.244  1.00 20.00     0.005 C 
HETATM    4  C4  UNL     1     -34.543  15.795  -5.737  1.00 20.00     0.006 C 
HETATM    5  C5  UNL     1     -36.459  15.858  -4.148  1.00 20.00     0.006 C 
HETATM    6  C6  UNL     1     -34.271  14.080  -3.345  1.00 20.00     0.024 C 
HETATM    7  C7  UNL     1     -34.083  15.610  -3.290  1.00 20.00     0.097 C 
HETATM    8  C8  UNL     1     -35.212  13.698  -4.504  1.00 20.00    -0.013 C 
HETATM    9  C9  UNL     1     -34.990  16.286  -4.347  1.00 20.00     0.003 C 
HETATM   10  N10 UNL     1     -34.542  16.548  -0.872  1.00 20.00    -0.197 NA
ENDROOT
TORSDOF 0
ENDMDL
MODEL 8
REMARK VINA RESULT:      -4.4     11.030     12.517
REMARK  0 active torsions:
REMARK  status: ('A' for Active; 'I' for Inactive)
ROOT
HETATM    1  C1  UNL     1     -42.274   3.498  -2.246  1.00 20.00     0.064 C 
HETATM    2  C2  UNL     1     -41.096   7.387  -0.793  1.00 20.00     0.005 C 
HETATM    3  C3  UNL     1     -43.340   6.421  -0.260  1.00 20.00     0.005 C 
HETATM    4  C4  UNL     1     -40.429   6.141  -0.195  1.00 20.00     0.006 C 
HETATM    5  C5  UNL     1     -42.665   5.165   0.307  1.00 20.00     0.006 C 
HETATM    6  C6  UNL     1     -42.292   5.978  -2.485  1.00 20.00     0.024 C 
HETATM    7  C7  UNL     1     -41.550   4.742  -1.933  1.00 20.00     0.097 C 
HETATM    8  C8  UNL     1     -42.475   7.031  -1.375  1.00 20.00    -0.013 C 
HETATM    9  C9  UNL     1     -41.324   4.905  -0.410  1.00 20.00     0.003 C 
HETATM   10  N10 UNL     1     -42.843   2.517  -2.492  1.00 20.00    -0.197 NA
ENDROOT
TORSDOF 0
ENDMDL
MODEL 9
REMARK VINA RESULT:      -4.3      1.724      2.657
REMARK  0 active torsions:
REMARK  status: ('A' for Active; 'I' for Inactive)
ROOT
HETATM    1  C1  UNL     1     -34.813  13.796  -4.888  1.00 20.00     0.064 C 
HETATM    2  C2  UNL     1     -34.775  18.043  -4.122  1.00 20.00     0.005 C 
HETATM    3  C3  UNL     1     -34.562  16.381  -2.266  1.00 20.00     0.005 C 
HETATM    4  C4  UNL     1     -33.565  17.406  -4.817  1.00 20.00     0.006 C 
HETATM    5  C5  UNL     1     -33.371  15.732  -2.983  1.00 20.00     0.006 C 
HETATM    6  C6  UNL     1     -36.023  15.872  -4.227  1.00 20.00     0.024 C 
HETATM    7  C7  UNL     1     -34.835  15.264  -5.004  1.00 20.00     0.097 C 
HETATM    8  C8  UNL     1     -35.531  16.992  -3.291  1.00 20.00    -0.013 C 
HETATM    9  C9  UNL     1     -33.511  15.896  -4.511  1.00 20.00     0.003 C 
HETATM   10  N10 UNL     1     -34.795  12.639  -4.797  1.00 20.00    -0.197 NA
ENDROOT
TORSDOF 0
ENDMDL
