MODEL 1
REMARK VINA RESULT:      -5.2      0.000      0.000
REMARK  1 active torsions:
REMARK  status: ('A' for Active; 'I' for Inactive)
REMARK    1  A    between atoms: C7_7  and  O12_12 
ROOT
HETATM    1  C1  UNL     1     -34.639  13.249  -4.474  1.00 20.00     0.015 C 
HETATM    2  C2  UNL     1     -34.210  14.363  -4.345  1.00 20.00    -0.079 C 
HETATM    3  C3  UNL     1     -33.494  16.068  -2.706  1.00 20.00     0.055 C 
HETATM    4  C4  UNL     1     -36.020  16.541  -2.767  1.00 20.00     0.013 C 
HETATM    5  C5  UNL     1     -34.593  16.763  -4.889  1.00 20.00     0.060 C 
HETATM    6  C6  UNL     1     -34.812  16.101  -1.918  1.00 20.00    -0.014 C 
HETATM    7  C7  UNL     1     -33.684  15.733  -4.187  1.00 20.00     0.121 C 
HETATM    8  C8  UNL     1     -35.688  17.413  -3.997  1.00 20.00    -0.044 C 
HETATM    9  C9  UNL     1     -34.663  16.934  -0.644  1.00 20.00     0.010 C 
HETATM   10  C10 UNL     1     -36.974  17.593  -4.830  1.00 20.00     0.015 C 
HETATM   11  C11 UNL     1     -35.237  18.821  -3.555  1.00 20.00     0.015 C 
ENDROOT
BRANCH   7  12
HETATM   12  O12 UNL     1     -32.394  15.782  -4.803  1.00 20.00    -0.378 OA
HETATM   13  H30 UNL     1     -32.286  16.685  -5.134  1.00 20.00     0.211 HD
ENDBRANCH   7  12
TORSDOF 1
ENDMDL
MODEL 2
REMARK VINA RESULT:      -5.1      2.186      3.705
REMARK  1 active torsions:
REMARK  status: ('A' for Active; 'I' for Inactive)
REMARK    1  A    between atoms: C7_7  and  O12_12 
ROOT
HETATM    1  C1  UNL     1     -32.579  14.433  -3.452  1.00 20.00     0.015 C 
HETATM    2  C2  UNL     1     -33.665  14.174  -3.895  1.00 20.00    -0.079 C 
HETATM    3  C3  UNL     1     -34.992  13.949  -5.967  1.00 20.00     0.055 C 
HETATM    4  C4  UNL     1     -35.245  16.472  -5.547  1.00 20.00     0.013 C 
HETATM    5  C5  UNL     1     -36.083  14.766  -3.822  1.00 20.00     0.060 C 
HETATM    6  C6  UNL     1     -34.725  15.369  -6.488  1.00 20.00    -0.014 C 
HETATM    7  C7  UNL     1     -34.999  13.857  -4.440  1.00 20.00     0.121 C 
HETATM    8  C8  UNL     1     -36.407  16.061  -4.618  1.00 20.00    -0.044 C 
HETATM    9  C9  UNL     1     -35.245  15.531  -7.918  1.00 20.00     0.010 C 
HETATM   10  C10 UNL     1     -36.666  17.211  -3.621  1.00 20.00     0.015 C 
HETATM   11  C11 UNL     1     -37.706  15.868  -5.428  1.00 20.00     0.015 C 
ENDROOT
BRANCH   7  12
HETATM   12  O12 UNL     1     -35.303  12.502  -4.097  1.00 20.00    -0.378 OA
HETATM   13  H30 UNL     1     -35.286  12.002  -4.925  1.00 20.00     0.211 HD
ENDBRANCH   7  12
TORSDOF 1
ENDMDL
MODEL 3
REMARK VINA RESULT:      -5.0      1.520      3.489
REMARK  1 active torsions:
REMARK  status: ('A' for Active; 'I' for Inactive)
REMARK    1  A    between atoms: C7_7  and  O12_12 
ROOT
HETATM    1  C1  UNL     1     -33.742  16.910  -1.595  1.00 20.00     0.015 C 
HETATM    2  C2  UNL     1     -33.553  16.272  -2.595  1.00 20.00    -0.079 C 
HETATM    3  C3  UNL     1     -33.139  16.415  -5.027  1.00 20.00     0.055 C 
HETATM    4  C4  UNL     1     -35.709  16.503  -5.005  1.00 20.00     0.013 C 
HETATM    5  C5  UNL     1     -34.458  14.471  -4.058  1.00 20.00     0.060 C 
HETATM    6  C6  UNL     1     -34.398  17.231  -5.359  1.00 20.00    -0.014 C 
HETATM    7  C7  UNL     1     -33.321  15.488  -3.824  1.00 20.00     0.121 C 
HETATM    8  C8  UNL     1     -35.624  14.962  -4.962  1.00 20.00    -0.044 C 
HETATM    9  C9  UNL     1     -34.371  17.706  -6.813  1.00 20.00     0.010 C 
HETATM   10  C10 UNL     1     -36.956  14.415  -4.406  1.00 20.00     0.015 C 
HETATM   11  C11 UNL     1     -35.461  14.390  -6.385  1.00 20.00     0.015 C 
ENDROOT
BRANCH   7  12
HETATM   12  O12 UNL     1     -32.100  14.762  -3.658  1.00 20.00    -0.378 OA
HETATM   13  H30 UNL     1     -31.386  15.410  -3.743  1.00 20.00     0.211 HD
ENDBRANCH   7  12
TORSDOF 1
ENDMDL
MODEL 4
REMARK VINA RESULT:      -5.0      2.051      2.708
REMARK  1 active torsions:
REMARK  status: ('A' for Active; 'I' for Inactive)
REMARK    1  A    between atoms: C7_7  and  O12_12 
ROOT
HETATM    1  C1  UNL     1     -38.359  14.664  -3.962  1.00 20.00     0.015 C 
HETATM    2  C2  UNL     1     -37.174  14.479  -4.027  1.00 20.00    -0.079 C 
HETATM    3  C3  UNL     1     -35.022  14.778  -2.850  1.00 20.00     0.055 C 
HETATM    4  C4  UNL     1     -35.206  17.055  -4.030  1.00 20.00     0.013 C 
HETATM    5  C5  UNL     1     -35.126  14.878  -5.387  1.00 20.00     0.060 C 
HETATM    6  C6  UNL     1     -35.135  16.302  -2.688  1.00 20.00    -0.014 C 
HETATM    7  C7  UNL     1     -35.718  14.252  -4.106  1.00 20.00     0.121 C 
HETATM    8  C8  UNL     1     -34.580  16.325  -5.237  1.00 20.00    -0.044 C 
HETATM    9  C9  UNL     1     -34.026  16.836  -1.779  1.00 20.00     0.010 C 
HETATM   10  C10 UNL     1     -34.912  17.122  -6.516  1.00 20.00     0.015 C 
HETATM   11  C11 UNL     1     -33.042  16.295  -5.112  1.00 20.00     0.015 C 
ENDROOT
BRANCH   7  12
HETATM   12  O12 UNL     1     -35.496  12.839  -4.155  1.00 20.00    -0.378 OA
HETATM   13  H30 UNL     1     -36.372  12.428  -4.165  1.00 20.00     0.211 HD
ENDBRANCH   7  12
TORSDOF 1
ENDMDL
MODEL 5
REMARK VINA RESULT:      -4.9      1.821      3.668
REMARK  1 active torsions:
REMARK  status: ('A' for Active; 'I' for Inactive)
REMARK    1  A    between atoms: C7_7  and  O12_12 
ROOT
HETATM    1  C1  UNL     1     -34.446  16.712  -0.845  1.00 20.00     0.015 C 
HETATM    2  C2  UNL     1     -35.116  16.522  -1.823  1.00 20.00    -0.079 C 
HETATM    3  C3  UNL     1     -35.843  14.826  -3.468  1.00 20.00     0.055 C 
HETATM    4  C4  UNL     1     -33.635  15.580  -4.549  1.00 20.00     0.013 C 
HETATM    5  C5  UNL     1     -35.545  17.252  -4.165  1.00 20.00     0.060 C 
HETATM    6  C6  UNL     1     -34.431  14.421  -3.919  1.00 20.00    -0.014 C 
HETATM    7  C7  UNL     1     -35.938  16.288  -3.026  1.00 20.00     0.121 C 
HETATM    8  C8  UNL     1     -34.484  16.713  -5.165  1.00 20.00    -0.044 C 
HETATM    9  C9  UNL     1     -34.482  13.191  -4.826  1.00 20.00     0.010 C 
HETATM   10  C10 UNL     1     -33.541  17.867  -5.566  1.00 20.00     0.015 C 
HETATM   11  C11 UNL     1     -35.177  16.229  -6.455  1.00 20.00     0.015 C 
ENDROOT
BRANCH   7  12
HETATM   12  O12 UNL     1     -37.304  16.539  -2.679  1.00 20.00    -0.378 OA
HETATM   13  H30 UNL     1     -37.830  15.889  -3.167  1.00 20.00     0.211 HD
ENDBRANCH   7  12
TORSDOF 1
ENDMDL
MODEL 6
REMARK VINA RESULT:      -4.9      1.863      2.933
REMARK  1 active torsions:
REMARK  status: ('A' for Active; 'I' for Inactive)
REMARK    1  A    between atoms: C7_7  and  O12_12 
ROOT
HETATM    1  C1  UNL     1     -34.493  14.872  -7.323  1.00 20.00     0.015 C 
HETATM    2  C2  UNL     1     -34.525  14.578  -6.159  1.00 20.00    -0.079 C 
HETATM    3  C3  UNL     1     -36.012  14.093  -4.245  1.00 20.00     0.055 C 
HETATM    4  C4  UNL     1     -35.893  16.656  -4.080  1.00 20.00     0.013 C 
HETATM    5  C5  UNL     1     -33.769  15.229  -3.877  1.00 20.00     0.060 C 
HETATM    6  C6  UNL     1     -36.785  15.419  -4.299  1.00 20.00    -0.014 C 
HETATM    7  C7  UNL     1     -34.565  14.218  -4.728  1.00 20.00     0.121 C 
HETATM    8  C8  UNL     1     -34.593  16.406  -3.285  1.00 20.00    -0.044 C 
HETATM    9  C9  UNL     1     -37.982  15.390  -3.347  1.00 20.00     0.010 C 
HETATM   10  C10 UNL     1     -33.739  17.691  -3.331  1.00 20.00     0.015 C 
HETATM   11  C11 UNL     1     -34.911  16.130  -1.801  1.00 20.00     0.015 C 
ENDROOT
BRANCH   7  12
HETATM   12  O12 UNL     1     -33.955  12.932  -4.582  1.00 20.00    -0.378 OA
HETATM   13  H30 UNL     1     -34.084  12.474  -5.425  1.00 20.00     0.211 HD
ENDBRANCH   7  12
TORSDOF 1
ENDMDL
MODEL 7
REMARK VINA RESULT:      -4.8      1.422      3.703
REMARK  1 active torsions:
REMARK  status: ('A' for Active; 'I' for Inactive)
REMARK    1  A    between atoms: C7_7  and  O12_12 
ROOT
HETATM    1  C1  UNL     1     -34.610  16.785  -0.531  1.00 20.00     0.015 C 
HETATM    2  C2  UNL     1     -34.476  16.910  -1.717  1.00 20.00    -0.079 C 
HETATM    3  C3  UNL     1     -35.673  17.200  -3.860  1.00 20.00     0.055 C 
HETATM    4  C4  UNL     1     -35.728  14.638  -3.661  1.00 20.00     0.013 C 
HETATM    5  C5  UNL     1     -33.493  15.897  -3.769  1.00 20.00     0.060 C 
HETATM    6  C6  UNL     1     -36.545  15.942  -3.732  1.00 20.00    -0.014 C 
HETATM    7  C7  UNL     1     -34.311  17.063  -3.176  1.00 20.00     0.121 C 
HETATM    8  C8  UNL     1     -34.324  14.696  -4.301  1.00 20.00    -0.044 C 
HETATM    9  C9  UNL     1     -37.608  15.903  -4.830  1.00 20.00     0.010 C 
HETATM   10  C10 UNL     1     -33.581  13.384  -3.969  1.00 20.00     0.015 C 
HETATM   11  C11 UNL     1     -34.434  14.774  -5.839  1.00 20.00     0.015 C 
ENDROOT
BRANCH   7  12
HETATM   12  O12 UNL     1     -33.593  18.278  -3.412  1.00 20.00    -0.378 OA
HETATM   13  H30 UNL     1     -33.247  18.218  -4.314  1.00 20.00     0.211 HD
ENDBRANCH   7  12
TORSDOF 1
ENDMDL
MODEL 8
REMARK VINA RESULT:      -4.5      2.116      3.620
REMARK  1 active torsions:
REMARK  status: ('A' for Active; 'I' for Inactive)
REMARK    1  A    between atoms: C7_7  and  O12_12 
ROOT
HETATM    1  C1  UNL     1     -36.063  18.160  -2.138  1.00 20.00     0.015 C 
HETATM    2  C2  UNL     1     -36.063  17.104  -2.709  1.00 20.00    -0.079 C 
HETATM    3  C3  UNL     1     -34.827  14.988  -3.031  1.00 20.00     0.055 C 
HETATM    4  C4  UNL     1     -33.646  16.465  -4.773  1.00 20.00     0.013 C 
HETATM    5  C5  UNL     1     -36.165  16.001  -4.940  1.00 20.00     0.060 C 
HETATM    6  C6  UNL     1     -33.509  15.636  -3.482  1.00 20.00    -0.014 C 
HETATM    7  C7  UNL     1     -36.062  15.806  -3.412  1.00 20.00     0.121 C 
HETATM    8  C8  UNL     1     -34.811  16.063  -5.702  1.00 20.00    -0.044 C 
HETATM    9  C9  UNL     1     -32.394  14.593  -3.576  1.00 20.00     0.010 C 
HETATM   10  C10 UNL     1     -34.919  17.109  -6.832  1.00 20.00     0.015 C 
HETATM   11  C11 UNL     1     -34.524  14.703  -6.372  1.00 20.00     0.015 C 
ENDROOT
BRANCH   7  12
HETATM   12  O12 UNL     1     -37.210  15.071  -2.977  1.00 20.00    -0.378 OA
HETATM   13  H30 UNL     1     -37.058  14.858  -2.045  1.00 20.00     0.211 HD
ENDBRANCH   7  12
TORSDOF 1
ENDMDL
MODEL 9
REMARK VINA RESULT:      -4.5      2.241      3.756
REMARK  1 active torsions:
REMARK  status: ('A' for Active; 'I' for Inactive)
REMARK    1  A    between atoms: C7_7  and  O12_12 
ROOT
HETATM    1  C1  UNL     1     -35.519  14.413  -7.709  1.00 20.00     0.015 C 
HETATM    2  C2  UNL     1     -35.713  14.913  -6.635  1.00 20.00    -0.079 C 
HETATM    3  C3  UNL     1     -35.538  17.000  -5.323  1.00 20.00     0.055 C 
HETATM    4  C4  UNL     1     -33.170  16.059  -4.982  1.00 20.00     0.013 C 
HETATM    5  C5  UNL     1     -35.230  14.743  -4.197  1.00 20.00     0.060 C 
HETATM    6  C6  UNL     1     -34.031  17.206  -5.543  1.00 20.00    -0.014 C 
HETATM    7  C7  UNL     1     -35.951  15.527  -5.313  1.00 20.00     0.121 C 
HETATM    8  C8  UNL     1     -33.807  15.250  -3.831  1.00 20.00    -0.044 C 
HETATM    9  C9  UNL     1     -33.587  18.574  -5.024  1.00 20.00     0.010 C 
HETATM   10  C10 UNL     1     -32.904  14.035  -3.530  1.00 20.00     0.015 C 
HETATM   11  C11 UNL     1     -33.866  16.097  -2.543  1.00 20.00     0.015 C 
ENDROOT
BRANCH   7  12
HETATM   12  O12 UNL     1     -37.358  15.482  -5.055  1.00 20.00    -0.378 OA
HETATM   13  H30 UNL     1     -37.793  15.573  -5.915  1.00 20.00     0.211 HD
ENDBRANCH   7  12
TORSDOF 1
ENDMDL
