MODEL 1
REMARK VINA RESULT:      -3.9      0.000      0.000
REMARK  0 active torsions:
REMARK  status: ('A' for Active; 'I' for Inactive)
ROOT
HETATM    1  C1  UNL     1     -33.639   6.336   4.017  1.00 20.00     0.282 C 
HETATM    2  C2  UNL     1     -34.681   5.334   3.565  1.00 20.00     0.278 C 
HETATM    3  C3  UNL     1     -34.392   5.893   6.281  1.00 20.00     0.205 C 
HETATM    4  C4  UNL     1     -34.968   4.602   5.756  1.00 20.00     0.195 C 
HETATM    5  O5  UNL     1     -32.955   6.955   3.207  1.00 20.00    -0.263 OA
HETATM    6  O6  UNL     1     -33.451   6.463   5.353  1.00 20.00    -0.318 OA
HETATM    7  O7  UNL     1     -35.617   4.909   4.531  1.00 20.00    -0.379 OA
ENDROOT
TORSDOF 0
ENDMDL
MODEL 2
REMARK VINA RESULT:      -3.6      1.039      2.291
REMARK  0 active torsions:
REMARK  status: ('A' for Active; 'I' for Inactive)
ROOT
HETATM    1  C1  UNL     1     -33.895   6.391   5.968  1.00 20.00     0.282 C 
HETATM    2  C2  UNL     1     -34.756   5.212   6.371  1.00 20.00     0.278 C 
HETATM    3  C3  UNL     1     -34.213   5.665   3.674  1.00 20.00     0.205 C 
HETATM    4  C4  UNL     1     -35.423   4.907   4.162  1.00 20.00     0.195 C 
HETATM    5  O5  UNL     1     -33.378   7.122   6.808  1.00 20.00    -0.263 OA
HETATM    6  O6  UNL     1     -33.781   6.639   4.640  1.00 20.00    -0.318 OA
HETATM    7  O7  UNL     1     -35.046   4.262   5.369  1.00 20.00    -0.379 OA
ENDROOT
TORSDOF 0
ENDMDL
MODEL 3
REMARK VINA RESULT:      -3.5     11.986     13.045
REMARK  0 active torsions:
REMARK  status: ('A' for Active; 'I' for Inactive)
ROOT
HETATM    1  C1  UNL     1     -34.417  13.620  -4.607  1.00 20.00     0.282 C 
HETATM    2  C2  UNL     1     -34.671  14.653  -5.685  1.00 20.00     0.278 C 
HETATM    3  C3  UNL     1     -32.757  15.152  -3.721  1.00 20.00     0.205 C 
HETATM    4  C4  UNL     1     -33.465  16.242  -4.486  1.00 20.00     0.195 C 
HETATM    5  O5  UNL     1     -34.994  12.536  -4.610  1.00 20.00    -0.263 OA
HETATM    6  O6  UNL     1     -33.578  13.976  -3.604  1.00 20.00    -0.318 OA
HETATM    7  O7  UNL     1     -33.753  15.719  -5.774  1.00 20.00    -0.379 OA
ENDROOT
TORSDOF 0
ENDMDL
MODEL 4
REMARK VINA RESULT:      -3.4     11.690     12.254
REMARK  0 active torsions:
REMARK  status: ('A' for Active; 'I' for Inactive)
ROOT
HETATM    1  C1  UNL     1     -36.159  14.298  -3.780  1.00 20.00     0.282 C 
HETATM    2  C2  UNL     1     -35.159  13.288  -4.303  1.00 20.00     0.278 C 
HETATM    3  C3  UNL     1     -34.265  15.468  -2.812  1.00 20.00     0.205 C 
HETATM    4  C4  UNL     1     -33.400  14.727  -3.800  1.00 20.00     0.195 C 
HETATM    5  O5  UNL     1     -37.366  14.149  -3.946  1.00 20.00    -0.263 OA
HETATM    6  O6  UNL     1     -35.654  15.406  -3.183  1.00 20.00    -0.318 OA
HETATM    7  O7  UNL     1     -33.843  13.378  -3.805  1.00 20.00    -0.379 OA
ENDROOT
TORSDOF 0
ENDMDL
MODEL 5
REMARK VINA RESULT:      -3.4     11.974     12.531
REMARK  0 active torsions:
REMARK  status: ('A' for Active; 'I' for Inactive)
ROOT
HETATM    1  C1  UNL     1     -36.422  14.199  -3.935  1.00 20.00     0.282 C 
HETATM    2  C2  UNL     1     -35.588  15.402  -3.548  1.00 20.00     0.278 C 
HETATM    3  C3  UNL     1     -34.360  13.195  -4.729  1.00 20.00     0.205 C 
HETATM    4  C4  UNL     1     -33.631  14.177  -3.846  1.00 20.00     0.195 C 
HETATM    5  O5  UNL     1     -37.642  14.194  -3.795  1.00 20.00    -0.263 OA
HETATM    6  O6  UNL     1     -35.752  13.106  -4.375  1.00 20.00    -0.318 OA
HETATM    7  O7  UNL     1     -34.261  15.437  -4.024  1.00 20.00    -0.379 OA
ENDROOT
TORSDOF 0
ENDMDL
MODEL 6
REMARK VINA RESULT:      -3.4      0.999      2.092
REMARK  0 active torsions:
REMARK  status: ('A' for Active; 'I' for Inactive)
ROOT
HETATM    1  C1  UNL     1     -34.458   5.321   3.688  1.00 20.00     0.282 C 
HETATM    2  C2  UNL     1     -33.770   6.474   4.388  1.00 20.00     0.278 C 
HETATM    3  C3  UNL     1     -34.857   4.396   5.896  1.00 20.00     0.205 C 
HETATM    4  C4  UNL     1     -34.641   5.788   6.435  1.00 20.00     0.195 C 
HETATM    5  O5  UNL     1     -34.498   5.249   2.463  1.00 20.00    -0.263 OA
HETATM    6  O6  UNL     1     -35.087   4.415   4.475  1.00 20.00    -0.318 OA
HETATM    7  O7  UNL     1     -33.507   6.317   5.765  1.00 20.00    -0.379 OA
ENDROOT
TORSDOF 0
ENDMDL
MODEL 7
REMARK VINA RESULT:      -3.4     11.923     13.247
REMARK  0 active torsions:
REMARK  status: ('A' for Active; 'I' for Inactive)
ROOT
HETATM    1  C1  UNL     1     -34.402  13.718  -4.752  1.00 20.00     0.282 C 
HETATM    2  C2  UNL     1     -33.375  14.164  -3.733  1.00 20.00     0.278 C 
HETATM    3  C3  UNL     1     -34.511  16.038  -5.455  1.00 20.00     0.205 C 
HETATM    4  C4  UNL     1     -33.164  16.220  -4.803  1.00 20.00     0.195 C 
HETATM    5  O5  UNL     1     -34.794  12.555  -4.800  1.00 20.00    -0.263 OA
HETATM    6  O6  UNL     1     -34.815  14.645  -5.650  1.00 20.00    -0.318 OA
HETATM    7  O7  UNL     1     -33.220  15.554  -3.550  1.00 20.00    -0.379 OA
ENDROOT
TORSDOF 0
ENDMDL
MODEL 8
REMARK VINA RESULT:      -3.3     11.738     13.056
REMARK  0 active torsions:
REMARK  status: ('A' for Active; 'I' for Inactive)
ROOT
HETATM    1  C1  UNL     1     -33.499  15.621  -4.780  1.00 20.00     0.282 C 
HETATM    2  C2  UNL     1     -33.143  14.630  -3.692  1.00 20.00     0.278 C 
HETATM    3  C3  UNL     1     -34.981  13.914  -5.662  1.00 20.00     0.205 C 
HETATM    4  C4  UNL     1     -34.942  13.281  -4.294  1.00 20.00     0.195 C 
HETATM    5  O5  UNL     1     -32.951  16.718  -4.851  1.00 20.00    -0.263 OA
HETATM    6  O6  UNL     1     -34.497  15.269  -5.626  1.00 20.00    -0.318 OA
HETATM    7  O7  UNL     1     -33.587  13.303  -3.869  1.00 20.00    -0.379 OA
ENDROOT
TORSDOF 0
ENDMDL
MODEL 9
REMARK VINA RESULT:      -3.3     11.837     12.363
REMARK  0 active torsions:
REMARK  status: ('A' for Active; 'I' for Inactive)
ROOT
HETATM    1  C1  UNL     1     -35.123  13.570  -4.198  1.00 20.00     0.282 C 
HETATM    2  C2  UNL     1     -34.099  14.392  -3.443  1.00 20.00     0.278 C 
HETATM    3  C3  UNL     1     -36.779  15.158  -3.408  1.00 20.00     0.205 C 
HETATM    4  C4  UNL     1     -35.638  16.117  -3.176  1.00 20.00     0.195 C 
HETATM    5  O5  UNL     1     -34.810  12.536  -4.781  1.00 20.00    -0.263 OA
HETATM    6  O6  UNL     1     -36.382  14.068  -4.259  1.00 20.00    -0.318 OA
HETATM    7  O7  UNL     1     -34.595  15.375  -2.562  1.00 20.00    -0.379 OA
ENDROOT
TORSDOF 0
ENDMDL
