MODEL 1
REMARK VINA RESULT:      -5.8      0.000      0.000
REMARK  3 active torsions:
REMARK  status: ('A' for Active; 'I' for Inactive)
REMARK    1  A    between atoms: C5_5  and  C7_7 
REMARK    2  A    between atoms: C6_6  and  C8_8 
REMARK    3  A    between atoms: C7_7  and  C8_8 
ROOT
HETATM    1  C1  UNL     1     -32.041   7.023   3.325  1.00 20.00     0.012 C 
HETATM    2  C3  UNL     1     -32.956   6.294   3.058  1.00 20.00    -0.117 C 
HETATM    3  C5  UNL     1     -34.075   5.400   2.725  1.00 20.00     0.093 C 
ENDROOT
BRANCH   3   4
HETATM    4  C7  UNL     1     -35.157   5.396   3.807  1.00 20.00     0.013 C 
BRANCH   4   5
HETATM    5  C8  UNL     1     -35.013   4.222   4.786  1.00 20.00     0.013 C 
BRANCH   5   6
HETATM    6  C6  UNL     1     -35.034   4.667   6.250  1.00 20.00     0.093 C 
HETATM    7  C4  UNL     1     -34.328   5.939   6.456  1.00 20.00    -0.117 C 
HETATM    8  C2  UNL     1     -33.750   6.977   6.629  1.00 20.00     0.012 C 
ENDBRANCH   5   6
ENDBRANCH   4   5
ENDBRANCH   3   4
TORSDOF 3
ENDMDL
MODEL 2
REMARK VINA RESULT:      -5.8      0.053      3.304
REMARK  3 active torsions:
REMARK  status: ('A' for Active; 'I' for Inactive)
REMARK    1  A    between atoms: C5_5  and  C7_7 
REMARK    2  A    between atoms: C6_6  and  C8_8 
REMARK    3  A    between atoms: C7_7  and  C8_8 
ROOT
HETATM    1  C1  UNL     1     -33.707   7.003   6.645  1.00 20.00     0.012 C 
HETATM    2  C3  UNL     1     -34.315   5.981   6.477  1.00 20.00    -0.117 C 
HETATM    3  C5  UNL     1     -35.061   4.729   6.280  1.00 20.00     0.093 C 
ENDROOT
BRANCH   3   4
HETATM    4  C7  UNL     1     -35.015   4.250   4.827  1.00 20.00     0.013 C 
BRANCH   4   5
HETATM    5  C8  UNL     1     -35.173   5.397   3.819  1.00 20.00     0.013 C 
BRANCH   5   6
HETATM    6  C6  UNL     1     -34.097   5.381   2.730  1.00 20.00     0.093 C 
HETATM    7  C4  UNL     1     -32.954   6.243   3.064  1.00 20.00    -0.117 C 
HETATM    8  C2  UNL     1     -32.021   6.948   3.332  1.00 20.00     0.012 C 
ENDBRANCH   5   6
ENDBRANCH   4   5
ENDBRANCH   3   4
TORSDOF 3
ENDMDL
MODEL 3
REMARK VINA RESULT:      -5.2      1.299      2.585
REMARK  3 active torsions:
REMARK  status: ('A' for Active; 'I' for Inactive)
REMARK    1  A    between atoms: C5_5  and  C7_7 
REMARK    2  A    between atoms: C6_6  and  C8_8 
REMARK    3  A    between atoms: C7_7  and  C8_8 
ROOT
HETATM    1  C1  UNL     1     -32.227   9.087   1.210  1.00 20.00     0.012 C 
HETATM    2  C3  UNL     1     -32.053   8.211   2.013  1.00 20.00    -0.117 C 
HETATM    3  C5  UNL     1     -31.834   7.138   2.993  1.00 20.00     0.093 C 
ENDROOT
BRANCH   3   4
HETATM    4  C7  UNL     1     -33.119   6.755   3.730  1.00 20.00     0.013 C 
BRANCH   4   5
HETATM    5  C8  UNL     1     -33.901   5.641   3.020  1.00 20.00     0.013 C 
BRANCH   5   6
HETATM    6  C6  UNL     1     -35.242   5.337   3.693  1.00 20.00     0.093 C 
HETATM    7  C4  UNL     1     -35.078   4.859   5.073  1.00 20.00    -0.117 C 
HETATM    8  C2  UNL     1     -34.947   4.465   6.199  1.00 20.00     0.012 C 
ENDBRANCH   5   6
ENDBRANCH   4   5
ENDBRANCH   3   4
TORSDOF 3
ENDMDL
MODEL 4
REMARK VINA RESULT:      -5.2      1.325      4.227
REMARK  3 active torsions:
REMARK  status: ('A' for Active; 'I' for Inactive)
REMARK    1  A    between atoms: C5_5  and  C7_7 
REMARK    2  A    between atoms: C6_6  and  C8_8 
REMARK    3  A    between atoms: C7_7  and  C8_8 
ROOT
HETATM    1  C1  UNL     1     -34.874   4.600   6.277  1.00 20.00     0.012 C 
HETATM    2  C3  UNL     1     -35.017   4.922   5.129  1.00 20.00    -0.117 C 
HETATM    3  C5  UNL     1     -35.199   5.314   3.724  1.00 20.00     0.093 C 
ENDROOT
BRANCH   3   4
HETATM    4  C7  UNL     1     -33.870   5.623   3.030  1.00 20.00     0.013 C 
BRANCH   4   5
HETATM    5  C8  UNL     1     -33.104   6.771   3.701  1.00 20.00     0.013 C 
BRANCH   5   6
HETATM    6  C6  UNL     1     -31.833   7.159   2.941  1.00 20.00     0.093 C 
HETATM    7  C4  UNL     1     -32.062   8.263   1.998  1.00 20.00    -0.117 C 
HETATM    8  C2  UNL     1     -32.246   9.163   1.226  1.00 20.00     0.012 C 
ENDBRANCH   5   6
ENDBRANCH   4   5
ENDBRANCH   3   4
TORSDOF 3
ENDMDL
MODEL 5
REMARK VINA RESULT:      -4.9      1.154      4.232
REMARK  3 active torsions:
REMARK  status: ('A' for Active; 'I' for Inactive)
REMARK    1  A    between atoms: C5_5  and  C7_7 
REMARK    2  A    between atoms: C6_6  and  C8_8 
REMARK    3  A    between atoms: C7_7  and  C8_8 
ROOT
HETATM    1  C1  UNL     1     -35.170   3.793   5.301  1.00 20.00     0.012 C 
HETATM    2  C3  UNL     1     -34.807   4.824   5.798  1.00 20.00    -0.117 C 
HETATM    3  C5  UNL     1     -34.368   6.086   6.411  1.00 20.00     0.093 C 
ENDROOT
BRANCH   3   4
HETATM    4  C7  UNL     1     -33.381   6.849   5.525  1.00 20.00     0.013 C 
BRANCH   4   5
HETATM    5  C8  UNL     1     -33.511   6.482   4.040  1.00 20.00     0.013 C 
BRANCH   5   6
HETATM    6  C6  UNL     1     -32.180   6.575   3.289  1.00 20.00     0.093 C 
HETATM    7  C4  UNL     1     -32.133   7.726   2.378  1.00 20.00    -0.117 C 
HETATM    8  C2  UNL     1     -32.092   8.664   1.630  1.00 20.00     0.012 C 
ENDBRANCH   5   6
ENDBRANCH   4   5
ENDBRANCH   3   4
TORSDOF 3
ENDMDL
MODEL 6
REMARK VINA RESULT:      -4.0     11.819     13.083
REMARK  3 active torsions:
REMARK  status: ('A' for Active; 'I' for Inactive)
REMARK    1  A    between atoms: C5_5  and  C7_7 
REMARK    2  A    between atoms: C6_6  and  C8_8 
REMARK    3  A    between atoms: C7_7  and  C8_8 
ROOT
HETATM    1  C1  UNL     1     -34.537  16.987  -0.418  1.00 20.00     0.012 C 
HETATM    2  C3  UNL     1     -34.703  16.354  -1.425  1.00 20.00    -0.117 C 
HETATM    3  C5  UNL     1     -34.914  15.578  -2.655  1.00 20.00     0.093 C 
ENDROOT
BRANCH   3   4
HETATM    4  C7  UNL     1     -33.597  15.232  -3.355  1.00 20.00     0.013 C 
BRANCH   4   5
HETATM    5  C8  UNL     1     -33.536  13.768  -3.814  1.00 20.00     0.013 C 
BRANCH   5   6
HETATM    6  C6  UNL     1     -34.635  13.417  -4.820  1.00 20.00     0.093 C 
HETATM    7  C4  UNL     1     -34.585  14.267  -6.018  1.00 20.00    -0.117 C 
HETATM    8  C2  UNL     1     -34.549  14.961  -6.997  1.00 20.00     0.012 C 
ENDBRANCH   5   6
ENDBRANCH   4   5
ENDBRANCH   3   4
TORSDOF 3
ENDMDL
MODEL 7
REMARK VINA RESULT:      -3.9     11.831     12.632
REMARK  3 active torsions:
REMARK  status: ('A' for Active; 'I' for Inactive)
REMARK    1  A    between atoms: C5_5  and  C7_7 
REMARK    2  A    between atoms: C6_6  and  C8_8 
REMARK    3  A    between atoms: C7_7  and  C8_8 
ROOT
HETATM    1  C1  UNL     1     -34.815  14.727  -6.962  1.00 20.00     0.012 C 
HETATM    2  C3  UNL     1     -34.752  14.111  -5.933  1.00 20.00    -0.117 C 
HETATM    3  C5  UNL     1     -34.682  13.354  -4.674  1.00 20.00     0.093 C 
ENDROOT
BRANCH   3   4
HETATM    4  C7  UNL     1     -33.505  13.792  -3.799  1.00 20.00     0.013 C 
BRANCH   4   5
HETATM    5  C8  UNL     1     -33.609  15.258  -3.355  1.00 20.00     0.013 C 
BRANCH   5   6
HETATM    6  C6  UNL     1     -34.905  15.555  -2.595  1.00 20.00     0.093 C 
HETATM    7  C4  UNL     1     -34.672  16.376  -1.398  1.00 20.00    -0.117 C 
HETATM    8  C2  UNL     1     -34.486  17.043  -0.418  1.00 20.00     0.012 C 
ENDBRANCH   5   6
ENDBRANCH   4   5
ENDBRANCH   3   4
TORSDOF 3
ENDMDL
MODEL 8
REMARK VINA RESULT:      -3.8      1.003      2.595
REMARK  3 active torsions:
REMARK  status: ('A' for Active; 'I' for Inactive)
REMARK    1  A    between atoms: C5_5  and  C7_7 
REMARK    2  A    between atoms: C6_6  and  C8_8 
REMARK    3  A    between atoms: C7_7  and  C8_8 
ROOT
HETATM    1  C1  UNL     1     -32.431   6.588   3.413  1.00 20.00     0.012 C 
HETATM    2  C3  UNL     1     -32.731   6.828   4.551  1.00 20.00    -0.117 C 
HETATM    3  C5  UNL     1     -33.092   7.125   5.944  1.00 20.00     0.093 C 
ENDROOT
BRANCH   3   4
HETATM    4  C7  UNL     1     -34.285   6.296   6.424  1.00 20.00     0.013 C 
BRANCH   4   5
HETATM    5  C8  UNL     1     -34.012   4.786   6.388  1.00 20.00     0.013 C 
BRANCH   5   6
HETATM    6  C6  UNL     1     -34.990   4.029   5.486  1.00 20.00     0.093 C 
HETATM    7  C4  UNL     1     -35.503   4.867   4.393  1.00 20.00    -0.117 C 
HETATM    8  C2  UNL     1     -35.927   5.550   3.502  1.00 20.00     0.012 C 
ENDBRANCH   5   6
ENDBRANCH   4   5
ENDBRANCH   3   4
TORSDOF 3
ENDMDL
MODEL 9
REMARK VINA RESULT:      -3.8     11.625     12.683
REMARK  3 active torsions:
REMARK  status: ('A' for Active; 'I' for Inactive)
REMARK    1  A    between atoms: C5_5  and  C7_7 
REMARK    2  A    between atoms: C6_6  and  C8_8 
REMARK    3  A    between atoms: C7_7  and  C8_8 
ROOT
HETATM    1  C1  UNL     1     -34.568  16.559  -0.905  1.00 20.00     0.012 C 
HETATM    2  C3  UNL     1     -34.157  16.455  -2.029  1.00 20.00    -0.117 C 
HETATM    3  C5  UNL     1     -33.657  16.336  -3.406  1.00 20.00     0.093 C 
ENDROOT
BRANCH   3   4
HETATM    4  C7  UNL     1     -33.115  14.937  -3.707  1.00 20.00     0.013 C 
BRANCH   4   5
HETATM    5  C8  UNL     1     -34.151  13.832  -3.455  1.00 20.00     0.013 C 
BRANCH   5   6
HETATM    6  C6  UNL     1     -35.227  13.771  -4.543  1.00 20.00     0.093 C 
HETATM    7  C4  UNL     1     -36.495  14.373  -4.106  1.00 20.00    -0.117 C 
HETATM    8  C2  UNL     1     -37.533  14.861  -3.753  1.00 20.00     0.012 C 
ENDBRANCH   5   6
ENDBRANCH   4   5
ENDBRANCH   3   4
TORSDOF 3
ENDMDL
