MODEL 1
REMARK VINA RESULT:      -4.6      0.000      0.000
REMARK  0 active torsions:
REMARK  status: ('A' for Active; 'I' for Inactive)
ROOT
HETATM    1  C1  UNL     1     -36.915  14.926  -3.811  1.00 20.00     0.064 C 
HETATM    2  C2  UNL     1     -33.488  13.731  -3.807  1.00 20.00     0.005 C 
HETATM    3  C3  UNL     1     -34.413  13.801  -5.029  1.00 20.00     0.006 C 
HETATM    4  C4  UNL     1     -34.754  15.593  -2.716  1.00 20.00     0.024 C 
HETATM    5  C5  UNL     1     -33.452  15.942  -4.688  1.00 20.00     0.010 C 
HETATM    6  C6  UNL     1     -35.690  15.722  -3.934  1.00 20.00     0.097 C 
HETATM    7  C7  UNL     1     -33.408  15.198  -3.353  1.00 20.00    -0.013 C 
HETATM    8  C8  UNL     1     -34.777  15.298  -5.106  1.00 20.00     0.003 C 
HETATM    9  N9  UNL     1     -37.883  14.296  -3.713  1.00 20.00    -0.197 NA
ENDROOT
TORSDOF 0
ENDMDL
MODEL 2
REMARK VINA RESULT:      -4.5      1.567      2.909
REMARK  0 active torsions:
REMARK  status: ('A' for Active; 'I' for Inactive)
ROOT
HETATM    1  C1  UNL     1     -34.301  13.670  -4.080  1.00 20.00     0.064 C 
HETATM    2  C2  UNL     1     -35.368  17.139  -4.029  1.00 20.00     0.005 C 
HETATM    3  C3  UNL     1     -35.875  16.030  -3.098  1.00 20.00     0.006 C 
HETATM    4  C4  UNL     1     -33.207  15.917  -4.342  1.00 20.00     0.024 C 
HETATM    5  C5  UNL     1     -33.827  16.859  -2.235  1.00 20.00     0.010 C 
HETATM    6  C6  UNL     1     -33.659  14.793  -3.389  1.00 20.00     0.097 C 
HETATM    7  C7  UNL     1     -33.859  17.173  -3.732  1.00 20.00    -0.013 C 
HETATM    8  C8  UNL     1     -34.587  15.539  -2.404  1.00 20.00     0.003 C 
HETATM    9  N9  UNL     1     -34.808  12.783  -4.627  1.00 20.00    -0.197 NA
ENDROOT
TORSDOF 0
ENDMDL
MODEL 3
REMARK VINA RESULT:      -4.4      0.877      2.149
REMARK  0 active torsions:
REMARK  status: ('A' for Active; 'I' for Inactive)
ROOT
HETATM    1  C1  UNL     1     -36.497  14.347  -4.053  1.00 20.00     0.064 C 
HETATM    2  C2  UNL     1     -34.099  16.970  -3.316  1.00 20.00     0.005 C 
HETATM    3  C3  UNL     1     -34.550  15.868  -2.348  1.00 20.00     0.006 C 
HETATM    4  C4  UNL     1     -34.624  15.497  -5.270  1.00 20.00     0.024 C 
HETATM    5  C5  UNL     1     -32.851  14.989  -3.750  1.00 20.00     0.010 C 
HETATM    6  C6  UNL     1     -35.059  14.349  -4.337  1.00 20.00     0.097 C 
HETATM    7  C7  UNL     1     -33.486  16.173  -4.480  1.00 20.00    -0.013 C 
HETATM    8  C8  UNL     1     -34.170  14.571  -3.093  1.00 20.00     0.003 C 
HETATM    9  N9  UNL     1     -37.634  14.346  -3.828  1.00 20.00    -0.197 NA
ENDROOT
TORSDOF 0
ENDMDL
MODEL 4
REMARK VINA RESULT:      -4.1      1.614      2.300
REMARK  0 active torsions:
REMARK  status: ('A' for Active; 'I' for Inactive)
ROOT
HETATM    1  C1  UNL     1     -34.994  13.714  -4.116  1.00 20.00     0.064 C 
HETATM    2  C2  UNL     1     -33.301  16.754  -5.144  1.00 20.00     0.005 C 
HETATM    3  C3  UNL     1     -34.579  16.182  -5.772  1.00 20.00     0.006 C 
HETATM    4  C4  UNL     1     -33.838  15.630  -2.975  1.00 20.00     0.024 C 
HETATM    5  C5  UNL     1     -35.177  17.412  -3.835  1.00 20.00     0.010 C 
HETATM    6  C6  UNL     1     -35.148  15.057  -3.551  1.00 20.00     0.097 C 
HETATM    7  C7  UNL     1     -33.715  16.993  -3.682  1.00 20.00    -0.013 C 
HETATM    8  C8  UNL     1     -35.560  16.131  -4.583  1.00 20.00     0.003 C 
HETATM    9  N9  UNL     1     -34.872  12.650  -4.562  1.00 20.00    -0.197 NA
ENDROOT
TORSDOF 0
ENDMDL
MODEL 5
REMARK VINA RESULT:      -4.1      1.654      2.700
REMARK  0 active torsions:
REMARK  status: ('A' for Active; 'I' for Inactive)
ROOT
HETATM    1  C1  UNL     1     -34.610  13.768  -4.906  1.00 20.00     0.064 C 
HETATM    2  C2  UNL     1     -34.841  16.809  -2.938  1.00 20.00     0.005 C 
HETATM    3  C3  UNL     1     -33.638  15.856  -2.982  1.00 20.00     0.006 C 
HETATM    4  C4  UNL     1     -35.524  16.086  -5.234  1.00 20.00     0.024 C 
HETATM    5  C5  UNL     1     -33.512  17.316  -4.847  1.00 20.00     0.010 C 
HETATM    6  C6  UNL     1     -34.313  15.137  -5.338  1.00 20.00     0.097 C 
HETATM    7  C7  UNL     1     -34.974  17.261  -4.402  1.00 20.00    -0.013 C 
HETATM    8  C8  UNL     1     -33.249  15.853  -4.475  1.00 20.00     0.003 C 
HETATM    9  N9  UNL     1     -34.846  12.685  -4.565  1.00 20.00    -0.197 NA
ENDROOT
TORSDOF 0
ENDMDL
MODEL 6
REMARK VINA RESULT:      -4.1      1.972      2.737
REMARK  0 active torsions:
REMARK  status: ('A' for Active; 'I' for Inactive)
ROOT
HETATM    1  C1  UNL     1     -35.001  14.663  -6.709  1.00 20.00     0.064 C 
HETATM    2  C2  UNL     1     -32.831  14.854  -3.806  1.00 20.00     0.005 C 
HETATM    3  C3  UNL     1     -33.463  16.048  -4.535  1.00 20.00     0.006 C 
HETATM    4  C4  UNL     1     -34.694  13.371  -4.576  1.00 20.00     0.024 C 
HETATM    5  C5  UNL     1     -35.061  15.154  -3.028  1.00 20.00     0.010 C 
HETATM    6  C6  UNL     1     -35.383  14.546  -5.298  1.00 20.00     0.097 C 
HETATM    7  C7  UNL     1     -34.056  14.046  -3.346  1.00 20.00    -0.013 C 
HETATM    8  C8  UNL     1     -34.975  15.760  -4.432  1.00 20.00     0.003 C 
HETATM    9  N9  UNL     1     -34.699  14.756  -7.825  1.00 20.00    -0.197 NA
ENDROOT
TORSDOF 0
ENDMDL
MODEL 7
REMARK VINA RESULT:      -4.1     11.630     12.707
REMARK  0 active torsions:
REMARK  status: ('A' for Active; 'I' for Inactive)
ROOT
HETATM    1  C1  UNL     1     -42.156   3.560  -2.257  1.00 20.00     0.064 C 
HETATM    2  C2  UNL     1     -43.064   6.204   0.058  1.00 20.00     0.005 C 
HETATM    3  C3  UNL     1     -42.526   4.818   0.443  1.00 20.00     0.006 C 
HETATM    4  C4  UNL     1     -41.912   6.058  -2.158  1.00 20.00     0.024 C 
HETATM    5  C5  UNL     1     -40.689   6.212  -0.111  1.00 20.00     0.010 C 
HETATM    6  C6  UNL     1     -41.323   4.678  -1.805  1.00 20.00     0.097 C 
HETATM    7  C7  UNL     1     -41.928   6.786  -0.800  1.00 20.00    -0.013 C 
HETATM    8  C8  UNL     1     -41.160   4.763  -0.271  1.00 20.00     0.003 C 
HETATM    9  N9  UNL     1     -42.816   2.675  -2.614  1.00 20.00    -0.197 NA
ENDROOT
TORSDOF 0
ENDMDL
MODEL 8
REMARK VINA RESULT:      -4.0      2.163      3.116
REMARK  0 active torsions:
REMARK  status: ('A' for Active; 'I' for Inactive)
ROOT
HETATM    1  C1  UNL     1     -34.188  16.990  -5.312  1.00 20.00     0.064 C 
HETATM    2  C2  UNL     1     -33.545  13.735  -3.842  1.00 20.00     0.005 C 
HETATM    3  C3  UNL     1     -34.079  14.967  -3.098  1.00 20.00     0.006 C 
HETATM    4  C4  UNL     1     -34.501  14.592  -5.990  1.00 20.00     0.024 C 
HETATM    5  C5  UNL     1     -35.896  13.893  -4.180  1.00 20.00     0.010 C 
HETATM    6  C6  UNL     1     -35.083  15.831  -5.282  1.00 20.00     0.097 C 
HETATM    7  C7  UNL     1     -34.618  13.492  -4.917  1.00 20.00    -0.013 C 
HETATM    8  C8  UNL     1     -35.379  15.299  -3.861  1.00 20.00     0.003 C 
HETATM    9  N9  UNL     1     -33.478  17.908  -5.336  1.00 20.00    -0.197 NA
ENDROOT
TORSDOF 0
ENDMDL
MODEL 9
REMARK VINA RESULT:      -4.0      1.882      2.726
REMARK  0 active torsions:
REMARK  status: ('A' for Active; 'I' for Inactive)
ROOT
HETATM    1  C1  UNL     1     -33.888  16.262  -2.415  1.00 20.00     0.064 C 
HETATM    2  C2  UNL     1     -35.662  13.618  -4.157  1.00 20.00     0.005 C 
HETATM    3  C3  UNL     1     -36.053  15.102  -4.141  1.00 20.00     0.006 C 
HETATM    4  C4  UNL     1     -33.269  14.222  -3.744  1.00 20.00     0.024 C 
HETATM    5  C5  UNL     1     -34.375  14.783  -5.787  1.00 20.00     0.010 C 
HETATM    6  C6  UNL     1     -33.607  15.726  -3.750  1.00 20.00     0.097 C 
HETATM    7  C7  UNL     1     -34.254  13.641  -4.777  1.00 20.00    -0.013 C 
HETATM    8  C8  UNL     1     -34.805  15.798  -4.724  1.00 20.00     0.003 C 
HETATM    9  N9  UNL     1     -34.110  16.686  -1.359  1.00 20.00    -0.197 NA
ENDROOT
TORSDOF 0
ENDMDL
