MODEL 1
REMARK VINA RESULT:      -3.8      0.000      0.000
REMARK  2 active torsions:
REMARK  status: ('A' for Active; 'I' for Inactive)
REMARK    1  A    between atoms: C1_1  and  C3_3 
REMARK    2  A    between atoms: C2_2  and  C3_3 
ROOT
HETATM    1  C3  UNL     1     -34.003   6.376   4.198  1.00 20.00     0.109 C 
HETATM    2 CL6  UNL     1     -33.823   6.534   5.979  1.00 20.00    -0.123 Cl
ENDROOT
BRANCH   1   3
HETATM    3  C1  UNL     1     -34.972   5.235   3.871  1.00 20.00     0.135 C 
HETATM    4 CL4  UNL     1     -35.109   4.023   5.170  1.00 20.00    -0.129 Cl
ENDBRANCH   1   3
BRANCH   1   5
HETATM    5  C2  UNL     1     -32.611   6.266   3.574  1.00 20.00     0.135 C 
HETATM    6 CL5  UNL     1     -32.238   7.659   2.531  1.00 20.00    -0.129 Cl
ENDBRANCH   1   5
TORSDOF 2
ENDMDL
MODEL 2
REMARK VINA RESULT:      -3.7      1.216      3.662
REMARK  2 active torsions:
REMARK  status: ('A' for Active; 'I' for Inactive)
REMARK    1  A    between atoms: C1_1  and  C3_3 
REMARK    2  A    between atoms: C2_2  and  C3_3 
ROOT
HETATM    1  C3  UNL     1     -33.994   6.445   4.242  1.00 20.00     0.109 C 
HETATM    2 CL6  UNL     1     -35.278   5.446   3.480  1.00 20.00    -0.123 Cl
ENDROOT
BRANCH   1   3
HETATM    3  C1  UNL     1     -32.667   6.239   3.505  1.00 20.00     0.135 C 
HETATM    4 CL4  UNL     1     -32.176   7.638   2.517  1.00 20.00    -0.129 Cl
ENDBRANCH   1   3
BRANCH   1   5
HETATM    5  C2  UNL     1     -33.973   6.152   5.743  1.00 20.00     0.135 C 
HETATM    6 CL5  UNL     1     -34.973   4.738   6.158  1.00 20.00    -0.129 Cl
ENDBRANCH   1   5
TORSDOF 2
ENDMDL
MODEL 3
REMARK VINA RESULT:      -3.5      1.368      2.607
REMARK  2 active torsions:
REMARK  status: ('A' for Active; 'I' for Inactive)
REMARK    1  A    between atoms: C1_1  and  C3_3 
REMARK    2  A    between atoms: C2_2  and  C3_3 
ROOT
HETATM    1  C3  UNL     1     -34.052   5.320   5.143  1.00 20.00     0.109 C 
HETATM    2 CL6  UNL     1     -35.200   3.962   4.887  1.00 20.00    -0.123 Cl
ENDROOT
BRANCH   1   3
HETATM    3  C1  UNL     1     -34.392   6.051   6.446  1.00 20.00     0.135 C 
HETATM    4 CL4  UNL     1     -33.261   7.371   6.837  1.00 20.00    -0.129 Cl
ENDBRANCH   1   3
BRANCH   1   5
HETATM    5  C2  UNL     1     -34.031   6.185   3.881  1.00 20.00     0.135 C 
HETATM    6 CL5  UNL     1     -32.370   6.551   3.354  1.00 20.00    -0.129 Cl
ENDBRANCH   1   5
TORSDOF 2
ENDMDL
MODEL 4
REMARK VINA RESULT:      -3.5      1.544      2.390
REMARK  2 active torsions:
REMARK  status: ('A' for Active; 'I' for Inactive)
REMARK    1  A    between atoms: C1_1  and  C3_3 
REMARK    2  A    between atoms: C2_2  and  C3_3 
ROOT
HETATM    1  C3  UNL     1     -34.282   5.498   4.546  1.00 20.00     0.109 C 
HETATM    2 CL6  UNL     1     -35.893   5.433   3.754  1.00 20.00    -0.123 Cl
ENDROOT
BRANCH   1   3
HETATM    3  C1  UNL     1     -34.450   5.582   6.066  1.00 20.00     0.135 C 
HETATM    4 CL4  UNL     1     -33.739   7.049   6.782  1.00 20.00    -0.129 Cl
ENDBRANCH   1   3
BRANCH   1   5
HETATM    5  C2  UNL     1     -33.468   6.624   3.905  1.00 20.00     0.135 C 
HETATM    6 CL5  UNL     1     -32.030   6.004   3.056  1.00 20.00    -0.129 Cl
ENDBRANCH   1   5
TORSDOF 2
ENDMDL
MODEL 5
REMARK VINA RESULT:      -3.5      0.837      3.510
REMARK  2 active torsions:
REMARK  status: ('A' for Active; 'I' for Inactive)
REMARK    1  A    between atoms: C1_1  and  C3_3 
REMARK    2  A    between atoms: C2_2  and  C3_3 
ROOT
HETATM    1  C3  UNL     1     -33.739   5.784   4.667  1.00 20.00     0.109 C 
HETATM    2 CL6  UNL     1     -33.786   6.731   6.193  1.00 20.00    -0.123 Cl
ENDROOT
BRANCH   1   3
HETATM    3  C1  UNL     1     -33.475   6.717   3.481  1.00 20.00     0.135 C 
HETATM    4 CL4  UNL     1     -31.791   7.288   3.386  1.00 20.00    -0.129 Cl
ENDBRANCH   1   3
BRANCH   1   5
HETATM    5  C2  UNL     1     -35.012   4.939   4.577  1.00 20.00     0.135 C 
HETATM    6 CL5  UNL     1     -35.307   4.021   6.074  1.00 20.00    -0.129 Cl
ENDBRANCH   1   5
TORSDOF 2
ENDMDL
MODEL 6
REMARK VINA RESULT:      -3.4      1.240      3.431
REMARK  2 active torsions:
REMARK  status: ('A' for Active; 'I' for Inactive)
REMARK    1  A    between atoms: C1_1  and  C3_3 
REMARK    2  A    between atoms: C2_2  and  C3_3 
ROOT
HETATM    1  C3  UNL     1     -34.056   6.379   4.309  1.00 20.00     0.109 C 
HETATM    2 CL6  UNL     1     -35.340   5.461   3.451  1.00 20.00    -0.123 Cl
ENDROOT
BRANCH   1   3
HETATM    3  C1  UNL     1     -32.714   6.190   3.594  1.00 20.00     0.135 C 
HETATM    4 CL4  UNL     1     -32.252   7.571   2.569  1.00 20.00    -0.129 Cl
ENDBRANCH   1   3
BRANCH   1   5
HETATM    5  C2  UNL     1     -34.082   5.989   5.788  1.00 20.00     0.135 C 
HETATM    6 CL5  UNL     1     -33.431   7.280   6.827  1.00 20.00    -0.129 Cl
ENDBRANCH   1   5
TORSDOF 2
ENDMDL
MODEL 7
REMARK VINA RESULT:      -3.3      1.410      1.939
REMARK  2 active torsions:
REMARK  status: ('A' for Active; 'I' for Inactive)
REMARK    1  A    between atoms: C1_1  and  C3_3 
REMARK    2  A    between atoms: C2_2  and  C3_3 
ROOT
HETATM    1  C3  UNL     1     -33.642   5.813   4.041  1.00 20.00     0.109 C 
HETATM    2 CL6  UNL     1     -35.304   5.507   3.432  1.00 20.00    -0.123 Cl
ENDROOT
BRANCH   1   3
HETATM    3  C1  UNL     1     -33.706   6.445   5.435  1.00 20.00     0.135 C 
HETATM    4 CL4  UNL     1     -34.726   5.539   6.581  1.00 20.00    -0.129 Cl
ENDBRANCH   1   3
BRANCH   1   5
HETATM    5  C2  UNL     1     -32.873   6.610   2.985  1.00 20.00     0.135 C 
HETATM    6 CL5  UNL     1     -31.538   7.545   3.700  1.00 20.00    -0.129 Cl
ENDBRANCH   1   5
TORSDOF 2
ENDMDL
MODEL 8
REMARK VINA RESULT:      -3.3      1.291      3.396
REMARK  2 active torsions:
REMARK  status: ('A' for Active; 'I' for Inactive)
REMARK    1  A    between atoms: C1_1  and  C3_3 
REMARK    2  A    between atoms: C2_2  and  C3_3 
ROOT
HETATM    1  C3  UNL     1     -34.251   6.314   4.680  1.00 20.00     0.109 C 
HETATM    2 CL6  UNL     1     -32.656   6.555   3.889  1.00 20.00    -0.123 Cl
ENDROOT
BRANCH   1   3
HETATM    3  C1  UNL     1     -34.065   6.169   6.193  1.00 20.00     0.135 C 
HETATM    4 CL4  UNL     1     -33.209   7.540   6.941  1.00 20.00    -0.129 Cl
ENDBRANCH   1   3
BRANCH   1   5
HETATM    5  C2  UNL     1     -34.971   5.158   3.984  1.00 20.00     0.135 C 
HETATM    6 CL5  UNL     1     -35.120   3.734   5.042  1.00 20.00    -0.129 Cl
ENDBRANCH   1   5
TORSDOF 2
ENDMDL
MODEL 9
REMARK VINA RESULT:      -3.2      1.179      3.231
REMARK  2 active torsions:
REMARK  status: ('A' for Active; 'I' for Inactive)
REMARK    1  A    between atoms: C1_1  and  C3_3 
REMARK    2  A    between atoms: C2_2  and  C3_3 
ROOT
HETATM    1  C3  UNL     1     -34.646   5.625   4.047  1.00 20.00     0.109 C 
HETATM    2 CL6  UNL     1     -35.143   4.020   4.682  1.00 20.00    -0.123 Cl
ENDROOT
BRANCH   1   3
HETATM    3  C1  UNL     1     -33.790   5.445   2.788  1.00 20.00     0.135 C 
HETATM    4 CL4  UNL     1     -32.150   6.122   2.940  1.00 20.00    -0.129 Cl
ENDBRANCH   1   3
BRANCH   1   5
HETATM    5  C2  UNL     1     -33.999   6.420   5.182  1.00 20.00     0.135 C 
HETATM    6 CL5  UNL     1     -34.535   5.851   6.781  1.00 20.00    -0.129 Cl
ENDBRANCH   1   5
TORSDOF 2
ENDMDL
