MODEL 1
REMARK VINA RESULT:      -5.0      0.000      0.000
REMARK  2 active torsions:
REMARK  status: ('A' for Active; 'I' for Inactive)
REMARK    1  A    between atoms: C1_1  and  C6_6 
REMARK    2  A    between atoms: C5_5  and  C10_10 
ROOT
HETATM    1  C2  UNL     1     -33.704  16.979  -3.764  1.00 20.00     0.006 C 
HETATM    2  C3  UNL     1     -34.278  15.925  -4.713  1.00 20.00     0.016 C 
HETATM    3  C4  UNL     1     -35.083  15.577  -2.426  1.00 20.00     0.021 C 
HETATM    4  C5  UNL     1     -33.750  16.326  -2.388  1.00 20.00    -0.010 C 
HETATM    5  C6  UNL     1     -35.127  14.977  -3.841  1.00 20.00     0.010 C 
HETATM    6  C7  UNL     1     -36.557  14.836  -4.354  1.00 20.00     0.023 C 
ENDROOT
BRANCH   4   7
HETATM    7  C10 UNL     1     -33.660  17.326  -1.248  1.00 20.00    -0.019 C 
HETATM    8  C8  UNL     1     -33.740  18.760  -1.774  1.00 20.00     0.010 C 
HETATM    9  C9  UNL     1     -34.762  17.077  -0.216  1.00 20.00     0.010 C 
ENDBRANCH   4   7
BRANCH   5  10
HETATM   10  C1  UNL     1     -34.515  13.599  -3.836  1.00 20.00     0.240 C 
HETATM   11  O11 UNL     1     -35.013  12.636  -4.410  1.00 20.00    -0.306 OA
ENDBRANCH   5  10
TORSDOF 2
ENDMDL
MODEL 2
REMARK VINA RESULT:      -4.7      1.490      2.259
REMARK  2 active torsions:
REMARK  status: ('A' for Active; 'I' for Inactive)
REMARK    1  A    between atoms: C1_1  and  C6_6 
REMARK    2  A    between atoms: C5_5  and  C10_10 
ROOT
HETATM    1  C2  UNL     1     -34.492  14.236  -3.302  1.00 20.00     0.006 C 
HETATM    2  C3  UNL     1     -35.450  13.763  -4.398  1.00 20.00     0.016 C 
HETATM    3  C4  UNL     1     -35.567  16.194  -4.120  1.00 20.00     0.021 C 
HETATM    4  C5  UNL     1     -35.081  15.555  -2.818  1.00 20.00    -0.010 C 
HETATM    5  C6  UNL     1     -36.193  15.021  -4.892  1.00 20.00     0.010 C 
HETATM    6  C7  UNL     1     -36.079  15.210  -6.403  1.00 20.00     0.023 C 
ENDROOT
BRANCH   4   7
HETATM    7  C10 UNL     1     -34.080  16.417  -2.069  1.00 20.00    -0.019 C 
HETATM    8  C8  UNL     1     -33.784  17.705  -2.840  1.00 20.00     0.010 C 
HETATM    9  C9  UNL     1     -34.587  16.745  -0.663  1.00 20.00     0.010 C 
ENDBRANCH   4   7
BRANCH   5  10
HETATM   10  C1  UNL     1     -37.661  14.912  -4.564  1.00 20.00     0.240 C 
HETATM   11  O11 UNL     1     -38.109  14.150  -3.715  1.00 20.00    -0.306 OA
ENDBRANCH   5  10
TORSDOF 2
ENDMDL
MODEL 3
REMARK VINA RESULT:      -4.7      1.053      1.436
REMARK  2 active torsions:
REMARK  status: ('A' for Active; 'I' for Inactive)
REMARK    1  A    between atoms: C1_1  and  C6_6 
REMARK    2  A    between atoms: C5_5  and  C10_10 
ROOT
HETATM    1  C2  UNL     1     -34.015  17.685  -3.404  1.00 20.00     0.006 C 
HETATM    2  C3  UNL     1     -34.117  16.513  -4.382  1.00 20.00     0.016 C 
HETATM    3  C4  UNL     1     -34.635  15.796  -2.097  1.00 20.00     0.021 C 
HETATM    4  C5  UNL     1     -33.742  17.037  -2.051  1.00 20.00    -0.010 C 
HETATM    5  C6  UNL     1     -34.462  15.272  -3.532  1.00 20.00     0.010 C 
HETATM    6  C7  UNL     1     -35.713  14.553  -4.029  1.00 20.00     0.023 C 
ENDROOT
BRANCH   4   7
HETATM    7  C10 UNL     1     -34.051  17.951  -0.878  1.00 20.00    -0.019 C 
HETATM    8  C8  UNL     1     -34.887  17.222   0.175  1.00 20.00     0.010 C 
HETATM    9  C9  UNL     1     -32.762  18.489  -0.253  1.00 20.00     0.010 C 
ENDBRANCH   4   7
BRANCH   5  10
HETATM   10  C1  UNL     1     -33.325  14.282  -3.585  1.00 20.00     0.240 C 
HETATM   11  O11 UNL     1     -33.468  13.106  -3.902  1.00 20.00    -0.306 OA
ENDBRANCH   5  10
TORSDOF 2
ENDMDL
MODEL 4
REMARK VINA RESULT:      -4.4      1.255      1.926
REMARK  2 active torsions:
REMARK  status: ('A' for Active; 'I' for Inactive)
REMARK    1  A    between atoms: C1_1  and  C6_6 
REMARK    2  A    between atoms: C5_5  and  C10_10 
ROOT
HETATM    1  C2  UNL     1     -35.695  16.048  -2.637  1.00 20.00     0.006 C 
HETATM    2  C3  UNL     1     -35.845  15.177  -3.886  1.00 20.00     0.016 C 
HETATM    3  C4  UNL     1     -33.484  15.464  -3.296  1.00 20.00     0.021 C 
HETATM    4  C5  UNL     1     -34.294  16.638  -2.744  1.00 20.00    -0.010 C 
HETATM    5  C6  UNL     1     -34.413  14.844  -4.353  1.00 20.00     0.010 C 
HETATM    6  C7  UNL     1     -34.182  13.343  -4.501  1.00 20.00     0.023 C 
ENDROOT
BRANCH   4   7
HETATM    7  C10 UNL     1     -33.762  17.159  -1.420  1.00 20.00    -0.019 C 
HETATM    8  C8  UNL     1     -33.393  18.640  -1.525  1.00 20.00     0.010 C 
HETATM    9  C9  UNL     1     -34.784  16.945  -0.301  1.00 20.00     0.010 C 
ENDBRANCH   4   7
BRANCH   5  10
HETATM   10  C1  UNL     1     -34.152  15.472  -5.700  1.00 20.00     0.240 C 
HETATM   11  O11 UNL     1     -34.296  14.876  -6.762  1.00 20.00    -0.306 OA
ENDBRANCH   5  10
TORSDOF 2
ENDMDL
MODEL 5
REMARK VINA RESULT:      -4.4      2.086      4.484
REMARK  2 active torsions:
REMARK  status: ('A' for Active; 'I' for Inactive)
REMARK    1  A    between atoms: C1_1  and  C6_6 
REMARK    2  A    between atoms: C5_5  and  C10_10 
ROOT
HETATM    1  C2  UNL     1     -35.628  14.206  -5.301  1.00 20.00     0.006 C 
HETATM    2  C3  UNL     1     -35.135  14.101  -3.856  1.00 20.00     0.016 C 
HETATM    3  C4  UNL     1     -33.795  15.712  -5.127  1.00 20.00     0.021 C 
HETATM    4  C5  UNL     1     -34.419  14.699  -6.087  1.00 20.00    -0.010 C 
HETATM    5  C6  UNL     1     -33.909  15.032  -3.752  1.00 20.00     0.010 C 
HETATM    6  C7  UNL     1     -34.044  16.052  -2.624  1.00 20.00     0.023 C 
ENDROOT
BRANCH   4   7
HETATM    7  C10 UNL     1     -34.787  15.300  -7.432  1.00 20.00    -0.019 C 
HETATM    8  C8  UNL     1     -36.139  14.771  -7.915  1.00 20.00     0.010 C 
HETATM    9  C9  UNL     1     -34.811  16.829  -7.358  1.00 20.00     0.010 C 
ENDBRANCH   4   7
BRANCH   5  10
HETATM   10  C1  UNL     1     -32.669  14.219  -3.475  1.00 20.00     0.240 C 
HETATM   11  O11 UNL     1     -32.648  12.993  -3.485  1.00 20.00    -0.306 OA
ENDBRANCH   5  10
TORSDOF 2
ENDMDL
MODEL 6
REMARK VINA RESULT:      -4.2      1.721      3.309
REMARK  2 active torsions:
REMARK  status: ('A' for Active; 'I' for Inactive)
REMARK    1  A    between atoms: C1_1  and  C6_6 
REMARK    2  A    between atoms: C5_5  and  C10_10 
ROOT
HETATM    1  C2  UNL     1     -34.927  16.888  -3.387  1.00 20.00     0.006 C 
HETATM    2  C3  UNL     1     -34.757  15.489  -2.791  1.00 20.00     0.016 C 
HETATM    3  C4  UNL     1     -33.986  15.552  -5.116  1.00 20.00     0.021 C 
HETATM    4  C5  UNL     1     -35.016  16.659  -4.891  1.00 20.00    -0.010 C 
HETATM    5  C6  UNL     1     -34.202  14.603  -3.926  1.00 20.00     0.010 C 
HETATM    6  C7  UNL     1     -32.914  13.887  -3.529  1.00 20.00     0.023 C 
ENDROOT
BRANCH   4   7
HETATM    7  C10 UNL     1     -34.734  17.911  -5.703  1.00 20.00    -0.019 C 
HETATM    8  C8  UNL     1     -33.525  18.663  -5.143  1.00 20.00     0.010 C 
HETATM    9  C9  UNL     1     -34.509  17.566  -7.176  1.00 20.00     0.010 C 
ENDBRANCH   4   7
BRANCH   5  10
HETATM   10  C1  UNL     1     -35.210  13.542  -4.290  1.00 20.00     0.240 C 
HETATM   11  O11 UNL     1     -34.907  12.466  -4.795  1.00 20.00    -0.306 OA
ENDBRANCH   5  10
TORSDOF 2
ENDMDL
MODEL 7
REMARK VINA RESULT:      -4.2      2.289      4.343
REMARK  2 active torsions:
REMARK  status: ('A' for Active; 'I' for Inactive)
REMARK    1  A    between atoms: C1_1  and  C6_6 
REMARK    2  A    between atoms: C5_5  and  C10_10 
ROOT
HETATM    1  C2  UNL     1     -33.429  16.585  -4.122  1.00 20.00     0.006 C 
HETATM    2  C3  UNL     1     -33.795  17.532  -2.978  1.00 20.00     0.016 C 
HETATM    3  C4  UNL     1     -35.092  15.458  -2.848  1.00 20.00     0.021 C 
HETATM    4  C5  UNL     1     -34.654  15.695  -4.294  1.00 20.00    -0.010 C 
HETATM    5  C6  UNL     1     -34.915  16.832  -2.181  1.00 20.00     0.010 C 
HETATM    6  C7  UNL     1     -34.583  16.704  -0.697  1.00 20.00     0.023 C 
ENDROOT
BRANCH   4   7
HETATM    7  C10 UNL     1     -34.358  14.409  -5.046  1.00 20.00    -0.019 C 
HETATM    8  C8  UNL     1     -34.892  13.196  -4.283  1.00 20.00     0.010 C 
HETATM    9  C9  UNL     1     -34.953  14.454  -6.456  1.00 20.00     0.010 C 
ENDBRANCH   4   7
BRANCH   5  10
HETATM   10  C1  UNL     1     -36.194  17.625  -2.287  1.00 20.00     0.240 C 
HETATM   11  O11 UNL     1     -36.299  18.652  -2.949  1.00 20.00    -0.306 OA
ENDBRANCH   5  10
TORSDOF 2
ENDMDL
MODEL 8
REMARK VINA RESULT:      -4.2      2.164      2.984
REMARK  2 active torsions:
REMARK  status: ('A' for Active; 'I' for Inactive)
REMARK    1  A    between atoms: C1_1  and  C6_6 
REMARK    2  A    between atoms: C5_5  and  C10_10 
ROOT
HETATM    1  C2  UNL     1     -34.141  15.671  -6.519  1.00 20.00     0.006 C 
HETATM    2  C3  UNL     1     -34.711  14.381  -5.926  1.00 20.00     0.016 C 
HETATM    3  C4  UNL     1     -34.765  16.200  -4.285  1.00 20.00     0.021 C 
HETATM    4  C5  UNL     1     -33.668  16.474  -5.314  1.00 20.00    -0.010 C 
HETATM    5  C6  UNL     1     -35.063  14.701  -4.459  1.00 20.00     0.010 C 
HETATM    6  C7  UNL     1     -36.513  14.368  -4.120  1.00 20.00     0.023 C 
ENDROOT
BRANCH   4   7
HETATM    7  C10 UNL     1     -33.488  17.953  -5.614  1.00 20.00    -0.019 C 
HETATM    8  C8  UNL     1     -34.218  18.340  -6.902  1.00 20.00     0.010 C 
HETATM    9  C9  UNL     1     -33.981  18.810  -4.446  1.00 20.00     0.010 C 
ENDBRANCH   4   7
BRANCH   5  10
HETATM   10  C1  UNL     1     -34.190  13.891  -3.532  1.00 20.00     0.240 C 
HETATM   11  O11 UNL     1     -33.360  13.078  -3.925  1.00 20.00    -0.306 OA
ENDBRANCH   5  10
TORSDOF 2
ENDMDL
MODEL 9
REMARK VINA RESULT:      -4.2      2.400      4.400
REMARK  2 active torsions:
REMARK  status: ('A' for Active; 'I' for Inactive)
REMARK    1  A    between atoms: C1_1  and  C6_6 
REMARK    2  A    between atoms: C5_5  and  C10_10 
ROOT
HETATM    1  C2  UNL     1     -33.734  16.701  -3.657  1.00 20.00     0.006 C 
HETATM    2  C3  UNL     1     -33.742  18.024  -2.889  1.00 20.00     0.016 C 
HETATM    3  C4  UNL     1     -34.591  16.196  -1.496  1.00 20.00     0.021 C 
HETATM    4  C5  UNL     1     -34.797  15.850  -2.971  1.00 20.00    -0.010 C 
HETATM    5  C6  UNL     1     -34.351  17.715  -1.506  1.00 20.00     0.010 C 
HETATM    6  C7  UNL     1     -33.446  18.154  -0.358  1.00 20.00     0.023 C 
ENDROOT
BRANCH   4   7
HETATM    7  C10 UNL     1     -34.652  14.366  -3.261  1.00 20.00    -0.019 C 
HETATM    8  C8  UNL     1     -35.692  13.908  -4.286  1.00 20.00     0.010 C 
HETATM    9  C9  UNL     1     -33.241  14.042  -3.756  1.00 20.00     0.010 C 
ENDBRANCH   4   7
BRANCH   5  10
HETATM   10  C1  UNL     1     -35.661  18.445  -1.347  1.00 20.00     0.240 C 
HETATM   11  O11 UNL     1     -36.458  18.216  -0.443  1.00 20.00    -0.306 OA
ENDBRANCH   5  10
TORSDOF 2
ENDMDL
