MODEL 1
REMARK VINA RESULT:      -5.1      0.000      0.000
REMARK  2 active torsions:
REMARK  status: ('A' for Active; 'I' for Inactive)
REMARK    1  A    between atoms: C1_1  and  C8_8 
REMARK    2  A    between atoms: C8_8  and  O10_10 
ROOT
HETATM    1  C1  UNL     1     -33.772  15.768  -2.764  1.00 20.00    -0.069 C 
HETATM    2  C2  UNL     1     -34.187  16.311  -1.776  1.00 20.00    -0.108 C 
HETATM    3  C9  UNL     1     -34.691  16.972  -0.574  1.00 20.00     0.112 C 
ENDROOT
BRANCH   1   4
HETATM    4  C8  UNL     1     -33.263  15.101  -3.976  1.00 20.00     0.121 C 
HETATM    5  C6  UNL     1     -33.781  13.657  -4.061  1.00 20.00     0.051 C 
HETATM    6  C4  UNL     1     -35.269  13.574  -4.398  1.00 20.00     0.004 C 
HETATM    7  C3  UNL     1     -35.604  14.362  -5.661  1.00 20.00     0.000 C 
HETATM    8  C5  UNL     1     -35.133  15.810  -5.569  1.00 20.00     0.004 C 
HETATM    9  C7  UNL     1     -33.644  15.898  -5.234  1.00 20.00     0.051 C 
BRANCH   4  10
HETATM   10  O10 UNL     1     -31.838  15.066  -3.879  1.00 20.00    -0.378 OA
HETATM   11  H24 UNL     1     -31.621  15.313  -2.968  1.00 20.00     0.211 HD
ENDBRANCH   4  10
ENDBRANCH   1   4
TORSDOF 2
ENDMDL
MODEL 2
REMARK VINA RESULT:      -4.7      2.163      3.367
REMARK  2 active torsions:
REMARK  status: ('A' for Active; 'I' for Inactive)
REMARK    1  A    between atoms: C1_1  and  C8_8 
REMARK    2  A    between atoms: C8_8  and  O10_10 
ROOT
HETATM    1  C1  UNL     1     -36.426  14.432  -4.063  1.00 20.00    -0.069 C 
HETATM    2  C2  UNL     1     -37.534  14.841  -3.844  1.00 20.00    -0.108 C 
HETATM    3  C9  UNL     1     -38.882  15.340  -3.575  1.00 20.00     0.112 C 
ENDROOT
BRANCH   1   4
HETATM    4  C8  UNL     1     -35.067  13.930  -4.334  1.00 20.00     0.121 C 
HETATM    5  C6  UNL     1     -34.626  14.296  -5.760  1.00 20.00     0.051 C 
HETATM    6  C4  UNL     1     -34.327  15.785  -5.930  1.00 20.00     0.004 C 
HETATM    7  C3  UNL     1     -33.322  16.278  -4.892  1.00 20.00     0.000 C 
HETATM    8  C5  UNL     1     -33.773  15.958  -3.469  1.00 20.00     0.004 C 
HETATM    9  C7  UNL     1     -34.072  14.469  -3.294  1.00 20.00     0.051 C 
BRANCH   4  10
HETATM   10  O10 UNL     1     -35.108  12.506  -4.224  1.00 20.00    -0.378 OA
HETATM   11  H24 UNL     1     -34.568  12.161  -4.951  1.00 20.00     0.211 HD
ENDBRANCH   4  10
ENDBRANCH   1   4
TORSDOF 2
ENDMDL
MODEL 3
REMARK VINA RESULT:      -4.6      1.261      1.679
REMARK  2 active torsions:
REMARK  status: ('A' for Active; 'I' for Inactive)
REMARK    1  A    between atoms: C1_1  and  C8_8 
REMARK    2  A    between atoms: C8_8  and  O10_10 
ROOT
HETATM    1  C1  UNL     1     -34.323  16.508  -2.435  1.00 20.00    -0.069 C 
HETATM    2  C2  UNL     1     -34.547  16.787  -1.289  1.00 20.00    -0.108 C 
HETATM    3  C9  UNL     1     -34.821  17.127   0.107  1.00 20.00     0.112 C 
ENDROOT
BRANCH   1   4
HETATM    4  C8  UNL     1     -34.047  16.165  -3.842  1.00 20.00     0.121 C 
HETATM    5  C6  UNL     1     -33.064  14.987  -3.932  1.00 20.00     0.051 C 
HETATM    6  C4  UNL     1     -33.688  13.655  -3.520  1.00 20.00     0.004 C 
HETATM    7  C3  UNL     1     -34.970  13.371  -4.298  1.00 20.00     0.000 C 
HETATM    8  C5  UNL     1     -35.972  14.516  -4.178  1.00 20.00     0.004 C 
HETATM    9  C7  UNL     1     -35.352  15.851  -4.591  1.00 20.00     0.051 C 
BRANCH   4  10
HETATM   10  O10 UNL     1     -33.441  17.307  -4.449  1.00 20.00    -0.378 OA
HETATM   11  H24 UNL     1     -32.509  17.081  -4.587  1.00 20.00     0.211 HD
ENDBRANCH   4  10
ENDBRANCH   1   4
TORSDOF 2
ENDMDL
MODEL 4
REMARK VINA RESULT:      -4.5      2.147      2.905
REMARK  2 active torsions:
REMARK  status: ('A' for Active; 'I' for Inactive)
REMARK    1  A    between atoms: C1_1  and  C8_8 
REMARK    2  A    between atoms: C8_8  and  O10_10 
ROOT
HETATM    1  C1  UNL     1     -35.512  15.679  -2.767  1.00 20.00    -0.069 C 
HETATM    2  C2  UNL     1     -34.877  16.276  -1.940  1.00 20.00    -0.108 C 
HETATM    3  C9  UNL     1     -34.103  17.002  -0.934  1.00 20.00     0.112 C 
ENDROOT
BRANCH   1   4
HETATM    4  C8  UNL     1     -36.291  14.947  -3.781  1.00 20.00     0.121 C 
HETATM    5  C6  UNL     1     -36.490  15.808  -5.039  1.00 20.00     0.051 C 
HETATM    6  C4  UNL     1     -35.210  15.979  -5.856  1.00 20.00     0.004 C 
HETATM    7  C3  UNL     1     -34.576  14.633  -6.196  1.00 20.00     0.000 C 
HETATM    8  C5  UNL     1     -34.333  13.789  -4.949  1.00 20.00     0.004 C 
HETATM    9  C7  UNL     1     -35.612  13.613  -4.130  1.00 20.00     0.051 C 
BRANCH   4  10
HETATM   10  O10 UNL     1     -37.573  14.667  -3.216  1.00 20.00    -0.378 OA
HETATM   11  H24 UNL     1     -38.221  15.126  -3.771  1.00 20.00     0.211 HD
ENDBRANCH   4  10
ENDBRANCH   1   4
TORSDOF 2
ENDMDL
MODEL 5
REMARK VINA RESULT:      -4.5      1.830      4.034
REMARK  2 active torsions:
REMARK  status: ('A' for Active; 'I' for Inactive)
REMARK    1  A    between atoms: C1_1  and  C8_8 
REMARK    2  A    between atoms: C8_8  and  O10_10 
ROOT
HETATM    1  C1  UNL     1     -35.257  14.520  -5.482  1.00 20.00    -0.069 C 
HETATM    2  C2  UNL     1     -35.446  14.967  -6.581  1.00 20.00    -0.108 C 
HETATM    3  C9  UNL     1     -35.675  15.513  -7.918  1.00 20.00     0.112 C 
ENDROOT
BRANCH   1   4
HETATM    4  C8  UNL     1     -35.026  13.971  -4.134  1.00 20.00     0.121 C 
HETATM    5  C6  UNL     1     -33.523  13.931  -3.814  1.00 20.00     0.051 C 
HETATM    6  C4  UNL     1     -32.927  15.317  -3.570  1.00 20.00     0.004 C 
HETATM    7  C3  UNL     1     -33.704  16.083  -2.503  1.00 20.00     0.000 C 
HETATM    8  C5  UNL     1     -35.192  16.166  -2.835  1.00 20.00     0.004 C 
HETATM    9  C7  UNL     1     -35.792  14.782  -3.078  1.00 20.00     0.051 C 
BRANCH   4  10
HETATM   10  O10 UNL     1     -35.525  12.632  -4.126  1.00 20.00    -0.378 OA
HETATM   11  H24 UNL     1     -36.341  12.642  -4.649  1.00 20.00     0.211 HD
ENDBRANCH   4  10
ENDBRANCH   1   4
TORSDOF 2
ENDMDL
MODEL 6
REMARK VINA RESULT:      -4.4      2.057      2.964
REMARK  2 active torsions:
REMARK  status: ('A' for Active; 'I' for Inactive)
REMARK    1  A    between atoms: C1_1  and  C8_8 
REMARK    2  A    between atoms: C8_8  and  O10_10 
ROOT
HETATM    1  C1  UNL     1     -35.074  16.383  -1.764  1.00 20.00    -0.069 C 
HETATM    2  C2  UNL     1     -34.820  16.944  -0.732  1.00 20.00    -0.108 C 
HETATM    3  C9  UNL     1     -34.509  17.628   0.522  1.00 20.00     0.112 C 
ENDROOT
BRANCH   1   4
HETATM    4  C8  UNL     1     -35.386  15.694  -3.029  1.00 20.00     0.121 C 
HETATM    5  C6  UNL     1     -35.500  16.703  -4.183  1.00 20.00     0.051 C 
HETATM    6  C4  UNL     1     -34.151  17.287  -4.602  1.00 20.00     0.004 C 
HETATM    7  C3  UNL     1     -33.138  16.190  -4.917  1.00 20.00     0.000 C 
HETATM    8  C5  UNL     1     -32.985  15.208  -3.759  1.00 20.00     0.004 C 
HETATM    9  C7  UNL     1     -34.332  14.620  -3.338  1.00 20.00     0.051 C 
BRANCH   4  10
HETATM   10  O10 UNL     1     -36.651  15.051  -2.864  1.00 20.00    -0.378 OA
HETATM   11  H24 UNL     1     -36.465  14.108  -2.750  1.00 20.00     0.211 HD
ENDBRANCH   4  10
ENDBRANCH   1   4
TORSDOF 2
ENDMDL
MODEL 7
REMARK VINA RESULT:      -4.4      1.385      1.723
REMARK  2 active torsions:
REMARK  status: ('A' for Active; 'I' for Inactive)
REMARK    1  A    between atoms: C1_1  and  C8_8 
REMARK    2  A    between atoms: C8_8  and  O10_10 
ROOT
HETATM    1  C1  UNL     1     -34.703  15.433  -2.606  1.00 20.00    -0.069 C 
HETATM    2  C2  UNL     1     -34.646  16.160  -1.652  1.00 20.00    -0.108 C 
HETATM    3  C9  UNL     1     -34.574  17.045  -0.490  1.00 20.00     0.112 C 
ENDROOT
BRANCH   1   4
HETATM    4  C8  UNL     1     -34.775  14.541  -3.778  1.00 20.00     0.121 C 
HETATM    5  C6  UNL     1     -36.237  14.244  -4.146  1.00 20.00     0.051 C 
HETATM    6  C4  UNL     1     -36.953  15.444  -4.765  1.00 20.00     0.004 C 
HETATM    7  C3  UNL     1     -36.181  16.007  -5.955  1.00 20.00     0.000 C 
HETATM    8  C5  UNL     1     -34.739  16.346  -5.588  1.00 20.00     0.004 C 
HETATM    9  C7  UNL     1     -34.019  15.148  -4.970  1.00 20.00     0.051 C 
BRANCH   4  10
HETATM   10  O10 UNL     1     -34.141  13.312  -3.418  1.00 20.00    -0.378 OA
HETATM   11  H24 UNL     1     -33.330  13.259  -3.946  1.00 20.00     0.211 HD
ENDBRANCH   4  10
ENDBRANCH   1   4
TORSDOF 2
ENDMDL
MODEL 8
REMARK VINA RESULT:      -4.1      2.215      3.758
REMARK  2 active torsions:
REMARK  status: ('A' for Active; 'I' for Inactive)
REMARK    1  A    between atoms: C1_1  and  C8_8 
REMARK    2  A    between atoms: C8_8  and  O10_10 
ROOT
HETATM    1  C1  UNL     1     -36.143  15.954  -4.804  1.00 20.00    -0.069 C 
HETATM    2  C2  UNL     1     -36.269  16.702  -5.736  1.00 20.00    -0.108 C 
HETATM    3  C9  UNL     1     -36.422  17.614  -6.868  1.00 20.00     0.112 C 
ENDROOT
BRANCH   1   4
HETATM    4  C8  UNL     1     -35.989  15.036  -3.662  1.00 20.00     0.121 C 
HETATM    5  C6  UNL     1     -35.675  13.612  -4.148  1.00 20.00     0.051 C 
HETATM    6  C4  UNL     1     -34.261  13.470  -4.711  1.00 20.00     0.004 C 
HETATM    7  C3  UNL     1     -33.210  13.966  -3.721  1.00 20.00     0.000 C 
HETATM    8  C5  UNL     1     -33.489  15.396  -3.266  1.00 20.00     0.004 C 
HETATM    9  C7  UNL     1     -34.902  15.542  -2.701  1.00 20.00     0.051 C 
BRANCH   4  10
HETATM   10  O10 UNL     1     -37.234  15.010  -2.962  1.00 20.00    -0.378 OA
HETATM   11  H24 UNL     1     -37.027  14.780  -2.045  1.00 20.00     0.211 HD
ENDBRANCH   4  10
ENDBRANCH   1   4
TORSDOF 2
ENDMDL
MODEL 9
REMARK VINA RESULT:      -4.1      1.621      2.977
REMARK  2 active torsions:
REMARK  status: ('A' for Active; 'I' for Inactive)
REMARK    1  A    between atoms: C1_1  and  C8_8 
REMARK    2  A    between atoms: C8_8  and  O10_10 
ROOT
HETATM    1  C1  UNL     1     -33.545  16.860  -5.066  1.00 20.00    -0.069 C 
HETATM    2  C2  UNL     1     -33.615  17.891  -5.679  1.00 20.00    -0.108 C 
HETATM    3  C9  UNL     1     -33.700  19.144  -6.426  1.00 20.00     0.112 C 
ENDROOT
BRANCH   1   4
HETATM    4  C8  UNL     1     -33.460  15.595  -4.314  1.00 20.00     0.121 C 
HETATM    5  C6  UNL     1     -33.997  15.776  -2.885  1.00 20.00     0.051 C 
HETATM    6  C4  UNL     1     -35.516  15.937  -2.833  1.00 20.00     0.004 C 
HETATM    7  C3  UNL     1     -36.227  14.797  -3.556  1.00 20.00     0.000 C 
HETATM    8  C5  UNL     1     -35.732  14.638  -4.991  1.00 20.00     0.004 C 
HETATM    9  C7  UNL     1     -34.213  14.474  -5.047  1.00 20.00     0.051 C 
BRANCH   4  10
HETATM   10  O10 UNL     1     -32.080  15.236  -4.236  1.00 20.00    -0.378 OA
HETATM   11  H24 UNL     1     -31.948  14.519  -4.873  1.00 20.00     0.211 HD
ENDBRANCH   4  10
ENDBRANCH   1   4
TORSDOF 2
ENDMDL
