MODEL 1
REMARK VINA RESULT:      -4.0      0.000      0.000
REMARK  2 active torsions:
REMARK  status: ('A' for Active; 'I' for Inactive)
REMARK    1  A    between atoms: C1_1  and  C3_3 
REMARK    2  A    between atoms: C1_1  and  O5_5 
ROOT
HETATM    1  C1  UNL     1     -34.056   5.780   3.952  1.00 20.00     0.291 C 
HETATM    2  O4  UNL     1     -34.380   5.290   2.877  1.00 20.00    -0.262 OA
ENDROOT
BRANCH   1   3
HETATM    3  C3  UNL     1     -34.804   5.613   5.247  1.00 20.00     0.277 C 
HETATM    4 CL6  UNL     1     -34.839   3.901   5.700  1.00 20.00    -0.097 Cl
HETATM    5 CL7  UNL     1     -33.978   6.574   6.482  1.00 20.00    -0.097 Cl
ENDBRANCH   1   3
BRANCH   1   6
HETATM    6  O5  UNL     1     -32.943   6.543   4.171  1.00 20.00    -0.324 OA
HETATM    7  C2  UNL     1     -32.285   7.030   2.996  1.00 20.00     0.213 C 
ENDBRANCH   1   6
TORSDOF 2
ENDMDL
MODEL 2
REMARK VINA RESULT:      -4.0      0.767      1.729
REMARK  2 active torsions:
REMARK  status: ('A' for Active; 'I' for Inactive)
REMARK    1  A    between atoms: C1_1  and  C3_3 
REMARK    2  A    between atoms: C1_1  and  O5_5 
ROOT
HETATM    1  C1  UNL     1     -34.453   5.842   4.111  1.00 20.00     0.291 C 
HETATM    2  O4  UNL     1     -35.434   5.434   3.502  1.00 20.00    -0.262 OA
ENDROOT
BRANCH   1   3
HETATM    3  C3  UNL     1     -34.015   5.374   5.473  1.00 20.00     0.277 C 
HETATM    4 CL6  UNL     1     -33.956   6.751   6.587  1.00 20.00    -0.097 Cl
HETATM    5 CL7  UNL     1     -35.174   4.160   6.033  1.00 20.00    -0.097 Cl
ENDBRANCH   1   3
BRANCH   1   6
HETATM    6  O5  UNL     1     -33.565   6.775   3.649  1.00 20.00    -0.324 OA
HETATM    7  C2  UNL     1     -32.320   6.257   3.168  1.00 20.00     0.213 C 
ENDBRANCH   1   6
TORSDOF 2
ENDMDL
MODEL 3
REMARK VINA RESULT:      -3.6      1.525      2.091
REMARK  2 active torsions:
REMARK  status: ('A' for Active; 'I' for Inactive)
REMARK    1  A    between atoms: C1_1  and  C3_3 
REMARK    2  A    between atoms: C1_1  and  O5_5 
ROOT
HETATM    1  C1  UNL     1     -33.827   6.293   5.117  1.00 20.00     0.291 C 
HETATM    2  O4  UNL     1     -33.638   6.696   6.258  1.00 20.00    -0.262 OA
ENDROOT
BRANCH   1   3
HETATM    3  C3  UNL     1     -34.575   5.041   4.746  1.00 20.00     0.277 C 
HETATM    4 CL6  UNL     1     -35.205   4.266   6.210  1.00 20.00    -0.097 Cl
HETATM    5 CL7  UNL     1     -35.894   5.495   3.657  1.00 20.00    -0.097 Cl
ENDBRANCH   1   3
BRANCH   1   6
HETATM    6  O5  UNL     1     -33.415   6.925   3.975  1.00 20.00    -0.324 OA
HETATM    7  C2  UNL     1     -32.311   6.316   3.297  1.00 20.00     0.213 C 
ENDBRANCH   1   6
TORSDOF 2
ENDMDL
MODEL 4
REMARK VINA RESULT:      -3.5      2.323      3.543
REMARK  2 active torsions:
REMARK  status: ('A' for Active; 'I' for Inactive)
REMARK    1  A    between atoms: C1_1  and  C3_3 
REMARK    2  A    between atoms: C1_1  and  O5_5 
ROOT
HETATM    1  C1  UNL     1     -34.167   6.153   5.104  1.00 20.00     0.291 C 
HETATM    2  O4  UNL     1     -33.707   6.625   6.136  1.00 20.00    -0.262 OA
ENDROOT
BRANCH   1   3
HETATM    3  C3  UNL     1     -33.780   6.565   3.708  1.00 20.00     0.277 C 
HETATM    4 CL6  UNL     1     -32.036   6.870   3.637  1.00 20.00    -0.097 Cl
HETATM    5 CL7  UNL     1     -34.236   5.256   2.607  1.00 20.00    -0.097 Cl
ENDBRANCH   1   3
BRANCH   1   6
HETATM    6  O5  UNL     1     -35.092   5.148   5.035  1.00 20.00    -0.324 OA
HETATM    7  C2  UNL     1     -34.875   4.046   5.924  1.00 20.00     0.213 C 
ENDBRANCH   1   6
TORSDOF 2
ENDMDL
MODEL 5
REMARK VINA RESULT:      -3.4     12.002     12.752
REMARK  2 active torsions:
REMARK  status: ('A' for Active; 'I' for Inactive)
REMARK    1  A    between atoms: C1_1  and  C3_3 
REMARK    2  A    between atoms: C1_1  and  O5_5 
ROOT
HETATM    1  C1  UNL     1     -35.427  13.654  -4.329  1.00 20.00     0.291 C 
HETATM    2  O4  UNL     1     -34.943  12.544  -4.510  1.00 20.00    -0.262 OA
ENDROOT
BRANCH   1   3
HETATM    3  C3  UNL     1     -34.720  14.963  -4.560  1.00 20.00     0.277 C 
HETATM    4 CL6  UNL     1     -33.234  15.016  -3.597  1.00 20.00    -0.097 Cl
HETATM    5 CL7  UNL     1     -34.357  15.090  -6.287  1.00 20.00    -0.097 Cl
ENDBRANCH   1   3
BRANCH   1   6
HETATM    6  O5  UNL     1     -36.706  13.902  -3.912  1.00 20.00    -0.324 OA
HETATM    7  C2  UNL     1     -36.988  15.259  -3.555  1.00 20.00     0.213 C 
ENDBRANCH   1   6
TORSDOF 2
ENDMDL
MODEL 6
REMARK VINA RESULT:      -3.3     12.260     12.669
REMARK  2 active torsions:
REMARK  status: ('A' for Active; 'I' for Inactive)
REMARK    1  A    between atoms: C1_1  and  C3_3 
REMARK    2  A    between atoms: C1_1  and  O5_5 
ROOT
HETATM    1  C1  UNL     1     -34.352  13.472  -4.466  1.00 20.00     0.291 C 
HETATM    2  O4  UNL     1     -35.131  12.532  -4.559  1.00 20.00    -0.262 OA
ENDROOT
BRANCH   1   3
HETATM    3  C3  UNL     1     -34.560  14.839  -5.059  1.00 20.00     0.277 C 
HETATM    4 CL6  UNL     1     -34.423  14.752  -6.823  1.00 20.00    -0.097 Cl
HETATM    5 CL7  UNL     1     -36.167  15.404  -4.580  1.00 20.00    -0.097 Cl
ENDBRANCH   1   3
BRANCH   1   6
HETATM    6  O5  UNL     1     -33.167  13.454  -3.782  1.00 20.00    -0.324 OA
HETATM    7  C2  UNL     1     -32.544  14.729  -3.593  1.00 20.00     0.213 C 
ENDBRANCH   1   6
TORSDOF 2
ENDMDL
MODEL 7
REMARK VINA RESULT:      -3.3      2.483      3.290
REMARK  2 active torsions:
REMARK  status: ('A' for Active; 'I' for Inactive)
REMARK    1  A    between atoms: C1_1  and  C3_3 
REMARK    2  A    between atoms: C1_1  and  O5_5 
ROOT
HETATM    1  C1  UNL     1     -34.109   6.066   5.736  1.00 20.00     0.291 C 
HETATM    2  O4  UNL     1     -33.573   6.976   6.355  1.00 20.00    -0.262 OA
ENDROOT
BRANCH   1   3
HETATM    3  C3  UNL     1     -33.808   5.685   4.311  1.00 20.00     0.277 C 
HETATM    4 CL6  UNL     1     -35.287   5.783   3.341  1.00 20.00    -0.097 Cl
HETATM    5 CL7  UNL     1     -32.577   6.798   3.697  1.00 20.00    -0.097 Cl
ENDBRANCH   1   3
BRANCH   1   6
HETATM    6  O5  UNL     1     -35.057   5.217   6.237  1.00 20.00    -0.324 OA
HETATM    7  C2  UNL     1     -34.879   3.833   5.915  1.00 20.00     0.213 C 
ENDBRANCH   1   6
TORSDOF 2
ENDMDL
MODEL 8
REMARK VINA RESULT:      -3.3      2.670      3.009
REMARK  2 active torsions:
REMARK  status: ('A' for Active; 'I' for Inactive)
REMARK    1  A    between atoms: C1_1  and  C3_3 
REMARK    2  A    between atoms: C1_1  and  O5_5 
ROOT
HETATM    1  C1  UNL     1     -34.685   4.754   5.246  1.00 20.00     0.291 C 
HETATM    2  O4  UNL     1     -35.031   3.602   5.014  1.00 20.00    -0.262 OA
ENDROOT
BRANCH   1   3
HETATM    3  C3  UNL     1     -34.633   5.869   4.237  1.00 20.00     0.277 C 
HETATM    4 CL6  UNL     1     -33.247   5.635   3.158  1.00 20.00    -0.097 Cl
HETATM    5 CL7  UNL     1     -36.150   5.852   3.326  1.00 20.00    -0.097 Cl
ENDBRANCH   1   3
BRANCH   1   6
HETATM    6  O5  UNL     1     -34.310   5.237   6.470  1.00 20.00    -0.324 OA
HETATM    7  C2  UNL     1     -33.955   6.624   6.504  1.00 20.00     0.213 C 
ENDBRANCH   1   6
TORSDOF 2
ENDMDL
MODEL 9
REMARK VINA RESULT:      -3.3      1.700      1.873
REMARK  2 active torsions:
REMARK  status: ('A' for Active; 'I' for Inactive)
REMARK    1  A    between atoms: C1_1  and  C3_3 
REMARK    2  A    between atoms: C1_1  and  O5_5 
ROOT
HETATM    1  C1  UNL     1     -32.586   6.485   3.418  1.00 20.00     0.291 C 
HETATM    2  O4  UNL     1     -32.055   5.437   3.074  1.00 20.00    -0.262 OA
ENDROOT
BRANCH   1   3
HETATM    3  C3  UNL     1     -33.937   6.606   4.069  1.00 20.00     0.277 C 
HETATM    4 CL6  UNL     1     -34.994   5.304   3.498  1.00 20.00    -0.097 Cl
HETATM    5 CL7  UNL     1     -33.711   6.510   5.821  1.00 20.00    -0.097 Cl
ENDBRANCH   1   3
BRANCH   1   6
HETATM    6  O5  UNL     1     -32.032   7.730   3.298  1.00 20.00    -0.324 OA
HETATM    7  C2  UNL     1     -32.042   8.287   1.979  1.00 20.00     0.213 C 
ENDBRANCH   1   6
TORSDOF 2
ENDMDL
