MODEL 1
REMARK VINA RESULT:      -5.3      0.000      0.000
REMARK  3 active torsions:
REMARK  status: ('A' for Active; 'I' for Inactive)
REMARK    1  A    between atoms: C2_2  and  C8_8 
REMARK    2  A    between atoms: C4_4  and  C7_7 
REMARK    3  A    between atoms: C7_7  and  C8_8 
ROOT
HETATM    1  C7  UNL     1     -32.681   6.426   4.076  1.00 20.00     0.034 C 
ENDROOT
BRANCH   1   2
HETATM    2  C4  UNL     1     -32.473   6.927   2.674  1.00 20.00    -0.030 C 
HETATM    3  C3  UNL     1     -32.121   8.186   2.377  1.00 20.00    -0.035 C 
HETATM    4  C5  UNL     1     -31.914   8.684   0.984  1.00 20.00     0.035 C 
ENDBRANCH   1   2
BRANCH   1   5
HETATM    5  C8  UNL     1     -34.171   6.274   4.440  1.00 20.00     0.007 C 
HETATM    6  C6  UNL     1     -34.884   5.419   3.390  1.00 20.00     0.014 C 
BRANCH   5   7
HETATM    7  C2  UNL     1     -34.346   5.644   5.801  1.00 20.00    -0.032 C 
HETATM    8  C1  UNL     1     -34.940   4.462   6.006  1.00 20.00     0.007 C 
ENDBRANCH   5   7
ENDBRANCH   1   5
TORSDOF 3
ENDMDL
MODEL 2
REMARK VINA RESULT:      -5.0      1.037      1.423
REMARK  3 active torsions:
REMARK  status: ('A' for Active; 'I' for Inactive)
REMARK    1  A    between atoms: C2_2  and  C8_8 
REMARK    2  A    between atoms: C4_4  and  C7_7 
REMARK    3  A    between atoms: C7_7  and  C8_8 
ROOT
HETATM    1  C7  UNL     1     -33.187   5.737   4.044  1.00 20.00     0.034 C 
ENDROOT
BRANCH   1   2
HETATM    2  C4  UNL     1     -33.166   6.825   3.005  1.00 20.00    -0.030 C 
HETATM    3  C3  UNL     1     -32.065   7.514   2.669  1.00 20.00    -0.035 C 
HETATM    4  C5  UNL     1     -32.044   8.594   1.638  1.00 20.00     0.035 C 
ENDBRANCH   1   2
BRANCH   1   5
HETATM    5  C8  UNL     1     -34.495   5.716   4.857  1.00 20.00     0.007 C 
HETATM    6  C6  UNL     1     -35.137   4.329   4.784  1.00 20.00     0.014 C 
BRANCH   5   7
HETATM    7  C2  UNL     1     -34.252   6.078   6.303  1.00 20.00    -0.032 C 
HETATM    8  C1  UNL     1     -33.590   7.172   6.698  1.00 20.00     0.007 C 
ENDBRANCH   5   7
ENDBRANCH   1   5
TORSDOF 3
ENDMDL
MODEL 3
REMARK VINA RESULT:      -4.6      1.018      4.844
REMARK  3 active torsions:
REMARK  status: ('A' for Active; 'I' for Inactive)
REMARK    1  A    between atoms: C2_2  and  C8_8 
REMARK    2  A    between atoms: C4_4  and  C7_7 
REMARK    3  A    between atoms: C7_7  and  C8_8 
ROOT
HETATM    1  C7  UNL     1     -33.125   6.357   2.974  1.00 20.00     0.034 C 
ENDROOT
BRANCH   1   2
HETATM    2  C4  UNL     1     -33.572   5.898   4.334  1.00 20.00    -0.030 C 
HETATM    3  C3  UNL     1     -34.670   5.157   4.547  1.00 20.00    -0.035 C 
HETATM    4  C5  UNL     1     -35.115   4.701   5.898  1.00 20.00     0.035 C 
ENDBRANCH   1   2
BRANCH   1   5
HETATM    5  C8  UNL     1     -32.428   7.731   3.008  1.00 20.00     0.007 C 
HETATM    6  C6  UNL     1     -31.197   7.673   3.915  1.00 20.00     0.014 C 
BRANCH   5   7
HETATM    7  C2  UNL     1     -32.010   8.173   1.626  1.00 20.00    -0.032 C 
HETATM    8  C1  UNL     1     -32.274   9.383   1.117  1.00 20.00     0.007 C 
ENDBRANCH   5   7
ENDBRANCH   1   5
TORSDOF 3
ENDMDL
MODEL 4
REMARK VINA RESULT:      -4.5      1.204      1.696
REMARK  3 active torsions:
REMARK  status: ('A' for Active; 'I' for Inactive)
REMARK    1  A    between atoms: C2_2  and  C8_8 
REMARK    2  A    between atoms: C4_4  and  C7_7 
REMARK    3  A    between atoms: C7_7  and  C8_8 
ROOT
HETATM    1  C7  UNL     1     -32.199   6.364   3.372  1.00 20.00     0.034 C 
ENDROOT
BRANCH   1   2
HETATM    2  C4  UNL     1     -32.651   7.614   2.670  1.00 20.00    -0.030 C 
HETATM    3  C3  UNL     1     -31.893   8.297   1.799  1.00 20.00    -0.035 C 
HETATM    4  C5  UNL     1     -32.341   9.539   1.102  1.00 20.00     0.035 C 
ENDBRANCH   1   2
BRANCH   1   5
HETATM    5  C8  UNL     1     -33.323   5.701   4.191  1.00 20.00     0.007 C 
HETATM    6  C6  UNL     1     -33.694   6.584   5.385  1.00 20.00     0.014 C 
BRANCH   5   7
HETATM    7  C2  UNL     1     -34.552   5.458   3.348  1.00 20.00    -0.032 C 
HETATM    8  C1  UNL     1     -35.801   5.467   3.828  1.00 20.00     0.007 C 
ENDBRANCH   5   7
ENDBRANCH   1   5
TORSDOF 3
ENDMDL
MODEL 5
REMARK VINA RESULT:      -4.5      0.918      1.635
REMARK  3 active torsions:
REMARK  status: ('A' for Active; 'I' for Inactive)
REMARK    1  A    between atoms: C2_2  and  C8_8 
REMARK    2  A    between atoms: C4_4  and  C7_7 
REMARK    3  A    between atoms: C7_7  and  C8_8 
ROOT
HETATM    1  C7  UNL     1     -34.012   6.273   4.160  1.00 20.00     0.034 C 
ENDROOT
BRANCH   1   2
HETATM    2  C4  UNL     1     -32.815   6.731   3.374  1.00 20.00    -0.030 C 
HETATM    3  C3  UNL     1     -32.830   7.775   2.533  1.00 20.00    -0.035 C 
HETATM    4  C5  UNL     1     -31.641   8.230   1.752  1.00 20.00     0.035 C 
ENDBRANCH   1   2
BRANCH   1   5
HETATM    5  C8  UNL     1     -33.663   5.897   5.613  1.00 20.00     0.007 C 
HETATM    6  C6  UNL     1     -33.727   7.137   6.507  1.00 20.00     0.014 C 
BRANCH   5   7
HETATM    7  C2  UNL     1     -34.601   4.843   6.151  1.00 20.00    -0.032 C 
HETATM    8  C1  UNL     1     -35.119   3.855   5.411  1.00 20.00     0.007 C 
ENDBRANCH   5   7
ENDBRANCH   1   5
TORSDOF 3
ENDMDL
MODEL 6
REMARK VINA RESULT:      -4.3      0.871      4.615
REMARK  3 active torsions:
REMARK  status: ('A' for Active; 'I' for Inactive)
REMARK    1  A    between atoms: C2_2  and  C8_8 
REMARK    2  A    between atoms: C4_4  and  C7_7 
REMARK    3  A    between atoms: C7_7  and  C8_8 
ROOT
HETATM    1  C7  UNL     1     -33.804   7.144   3.670  1.00 20.00     0.034 C 
ENDROOT
BRANCH   1   2
HETATM    2  C4  UNL     1     -34.305   5.809   4.148  1.00 20.00    -0.030 C 
HETATM    3  C3  UNL     1     -34.512   5.509   5.438  1.00 20.00    -0.035 C 
HETATM    4  C5  UNL     1     -35.011   4.184   5.914  1.00 20.00     0.035 C 
ENDBRANCH   1   2
BRANCH   1   5
HETATM    5  C8  UNL     1     -32.323   7.106   3.246  1.00 20.00     0.007 C 
HETATM    6  C6  UNL     1     -31.891   5.664   2.973  1.00 20.00     0.014 C 
BRANCH   5   7
HETATM    7  C2  UNL     1     -32.081   7.942   2.011  1.00 20.00    -0.032 C 
HETATM    8  C1  UNL     1     -32.450   9.223   1.893  1.00 20.00     0.007 C 
ENDBRANCH   5   7
ENDBRANCH   1   5
TORSDOF 3
ENDMDL
MODEL 7
REMARK VINA RESULT:      -4.0     10.638     11.579
REMARK  3 active torsions:
REMARK  status: ('A' for Active; 'I' for Inactive)
REMARK    1  A    between atoms: C2_2  and  C8_8 
REMARK    2  A    between atoms: C4_4  and  C7_7 
REMARK    3  A    between atoms: C7_7  and  C8_8 
ROOT
HETATM    1  C7  UNL     1     -33.743  16.178  -2.956  1.00 20.00     0.034 C 
ENDROOT
BRANCH   1   2
HETATM    2  C4  UNL     1     -33.858  16.977  -1.688  1.00 20.00    -0.030 C 
HETATM    3  C3  UNL     1     -34.694  16.669  -0.686  1.00 20.00    -0.035 C 
HETATM    4  C5  UNL     1     -34.810  17.462   0.574  1.00 20.00     0.035 C 
ENDBRANCH   1   2
BRANCH   1   5
HETATM    5  C8  UNL     1     -34.714  14.983  -2.997  1.00 20.00     0.007 C 
HETATM    6  C6  UNL     1     -35.979  15.360  -3.771  1.00 20.00     0.014 C 
BRANCH   5   7
HETATM    7  C2  UNL     1     -34.076  13.774  -3.641  1.00 20.00    -0.032 C 
HETATM    8  C1  UNL     1     -34.505  13.222  -4.782  1.00 20.00     0.007 C 
ENDBRANCH   5   7
ENDBRANCH   1   5
TORSDOF 3
ENDMDL
MODEL 8
REMARK VINA RESULT:      -3.9     10.841     12.220
REMARK  3 active torsions:
REMARK  status: ('A' for Active; 'I' for Inactive)
REMARK    1  A    between atoms: C2_2  and  C8_8 
REMARK    2  A    between atoms: C4_4  and  C7_7 
REMARK    3  A    between atoms: C7_7  and  C8_8 
ROOT
HETATM    1  C7  UNL     1     -34.526  15.690  -2.537  1.00 20.00     0.034 C 
ENDROOT
BRANCH   1   2
HETATM    2  C4  UNL     1     -34.106  16.740  -1.546  1.00 20.00    -0.030 C 
HETATM    3  C3  UNL     1     -34.717  16.942  -0.370  1.00 20.00    -0.035 C 
HETATM    4  C5  UNL     1     -34.301  17.985   0.615  1.00 20.00     0.035 C 
ENDBRANCH   1   2
BRANCH   1   5
HETATM    5  C8  UNL     1     -33.365  15.218  -3.433  1.00 20.00     0.007 C 
HETATM    6  C6  UNL     1     -33.631  13.797  -3.934  1.00 20.00     0.014 C 
BRANCH   5   7
HETATM    7  C2  UNL     1     -33.172  16.137  -4.617  1.00 20.00    -0.032 C 
HETATM    8  C1  UNL     1     -33.866  16.042  -5.757  1.00 20.00     0.007 C 
ENDBRANCH   5   7
ENDBRANCH   1   5
TORSDOF 3
ENDMDL
MODEL 9
REMARK VINA RESULT:      -3.9     10.955     12.262
REMARK  3 active torsions:
REMARK  status: ('A' for Active; 'I' for Inactive)
REMARK    1  A    between atoms: C2_2  and  C8_8 
REMARK    2  A    between atoms: C4_4  and  C7_7 
REMARK    3  A    between atoms: C7_7  and  C8_8 
ROOT
HETATM    1  C7  UNL     1     -33.403  15.126  -3.897  1.00 20.00     0.034 C 
ENDROOT
BRANCH   1   2
HETATM    2  C4  UNL     1     -34.225  15.481  -2.689  1.00 20.00    -0.030 C 
HETATM    3  C3  UNL     1     -33.950  16.511  -1.876  1.00 20.00    -0.035 C 
HETATM    4  C5  UNL     1     -34.765  16.864  -0.676  1.00 20.00     0.035 C 
ENDBRANCH   1   2
BRANCH   1   5
HETATM    5  C8  UNL     1     -34.174  14.253  -4.906  1.00 20.00     0.007 C 
HETATM    6  C6  UNL     1     -35.269  13.461  -4.188  1.00 20.00     0.014 C 
BRANCH   5   7
HETATM    7  C2  UNL     1     -34.797  15.091  -5.998  1.00 20.00    -0.032 C 
HETATM    8  C1  UNL     1     -34.497  14.969  -7.297  1.00 20.00     0.007 C 
ENDBRANCH   5   7
ENDBRANCH   1   5
TORSDOF 3
ENDMDL
