MODEL 1
REMARK VINA RESULT:      -4.0      0.000      0.000
REMARK  3 active torsions:
REMARK  status: ('A' for Active; 'I' for Inactive)
REMARK    1  A    between atoms: C2_2  and  C6_6 
REMARK    2  A    between atoms: C2_2  and  C7_7 
REMARK    3  A    between atoms: C6_6  and  C8_8 
ROOT
HETATM    1  C6  UNL     1     -33.784   7.224   3.773  1.00 20.00     0.042 C 
ENDROOT
BRANCH   1   2
HETATM    2  C2  UNL     1     -34.213   6.246   4.849  1.00 20.00    -0.075 C 
HETATM    3  C1  UNL     1     -33.873   6.435   6.135  1.00 20.00     0.015 C 
BRANCH   2   4
HETATM    4  C7  UNL     1     -34.986   5.025   4.435  1.00 20.00     0.147 C 
HETATM    5 CL9  UNL     1     -35.002   3.821   5.746  1.00 20.00    -0.126 Cl
ENDBRANCH   2   4
ENDBRANCH   1   2
BRANCH   1   6
HETATM    6  C8  UNL     1     -32.318   7.128   3.255  1.00 20.00    -0.048 C 
HETATM    7  C3  UNL     1     -31.931   5.674   2.932  1.00 20.00     0.015 C 
HETATM    8  C4  UNL     1     -32.218   7.955   1.958  1.00 20.00     0.015 C 
HETATM    9  C5  UNL     1     -31.314   7.698   4.269  1.00 20.00     0.015 C 
ENDBRANCH   1   6
TORSDOF 3
ENDMDL
MODEL 2
REMARK VINA RESULT:      -4.0      0.058      1.442
REMARK  3 active torsions:
REMARK  status: ('A' for Active; 'I' for Inactive)
REMARK    1  A    between atoms: C2_2  and  C6_6 
REMARK    2  A    between atoms: C2_2  and  C7_7 
REMARK    3  A    between atoms: C6_6  and  C8_8 
ROOT
HETATM    1  C6  UNL     1     -33.789   7.243   3.741  1.00 20.00     0.042 C 
ENDROOT
BRANCH   1   2
HETATM    2  C2  UNL     1     -34.199   6.245   4.805  1.00 20.00    -0.075 C 
HETATM    3  C1  UNL     1     -33.850   6.418   6.092  1.00 20.00     0.015 C 
BRANCH   2   4
HETATM    4  C7  UNL     1     -34.962   5.022   4.379  1.00 20.00     0.147 C 
HETATM    5 CL9  UNL     1     -34.983   3.812   5.684  1.00 20.00    -0.126 Cl
ENDBRANCH   2   4
ENDBRANCH   1   2
BRANCH   1   6
HETATM    6  C8  UNL     1     -32.322   7.180   3.219  1.00 20.00    -0.048 C 
HETATM    7  C3  UNL     1     -31.331   7.713   4.269  1.00 20.00     0.015 C 
HETATM    8  C4  UNL     1     -31.981   5.702   2.939  1.00 20.00     0.015 C 
HETATM    9  C5  UNL     1     -32.142   7.972   1.915  1.00 20.00     0.015 C 
ENDBRANCH   1   6
TORSDOF 3
ENDMDL
MODEL 3
REMARK VINA RESULT:      -4.0      0.052      1.442
REMARK  3 active torsions:
REMARK  status: ('A' for Active; 'I' for Inactive)
REMARK    1  A    between atoms: C2_2  and  C6_6 
REMARK    2  A    between atoms: C2_2  and  C7_7 
REMARK    3  A    between atoms: C6_6  and  C8_8 
ROOT
HETATM    1  C6  UNL     1     -33.774   7.273   3.795  1.00 20.00     0.042 C 
ENDROOT
BRANCH   1   2
HETATM    2  C2  UNL     1     -34.201   6.255   4.835  1.00 20.00    -0.075 C 
HETATM    3  C1  UNL     1     -33.868   6.403   6.129  1.00 20.00     0.015 C 
BRANCH   2   4
HETATM    4  C7  UNL     1     -34.960   5.043   4.375  1.00 20.00     0.147 C 
HETATM    5 CL9  UNL     1     -35.014   3.813   5.661  1.00 20.00    -0.126 Cl
ENDBRANCH   2   4
ENDBRANCH   1   2
BRANCH   1   6
HETATM    6  C8  UNL     1     -32.334   7.149   3.213  1.00 20.00    -0.048 C 
HETATM    7  C3  UNL     1     -32.182   7.964   1.917  1.00 20.00     0.015 C 
HETATM    8  C4  UNL     1     -31.350   7.712   4.258  1.00 20.00     0.015 C 
HETATM    9  C5  UNL     1     -31.954   5.686   2.931  1.00 20.00     0.015 C 
ENDBRANCH   1   6
TORSDOF 3
ENDMDL
MODEL 4
REMARK VINA RESULT:      -3.9      0.515      1.886
REMARK  3 active torsions:
REMARK  status: ('A' for Active; 'I' for Inactive)
REMARK    1  A    between atoms: C2_2  and  C6_6 
REMARK    2  A    between atoms: C2_2  and  C7_7 
REMARK    3  A    between atoms: C6_6  and  C8_8 
ROOT
HETATM    1  C6  UNL     1     -33.759   7.371   3.693  1.00 20.00     0.042 C 
ENDROOT
BRANCH   1   2
HETATM    2  C2  UNL     1     -34.397   6.141   4.310  1.00 20.00    -0.075 C 
HETATM    3  C1  UNL     1     -35.193   5.335   3.588  1.00 20.00     0.015 C 
BRANCH   2   4
HETATM    4  C7  UNL     1     -34.162   5.874   5.770  1.00 20.00     0.147 C 
HETATM    5 CL9  UNL     1     -34.958   4.360   6.264  1.00 20.00    -0.126 Cl
ENDBRANCH   2   4
ENDBRANCH   1   2
BRANCH   1   6
HETATM    6  C8  UNL     1     -32.296   7.241   3.176  1.00 20.00    -0.048 C 
HETATM    7  C3  UNL     1     -31.283   7.717   4.232  1.00 20.00     0.015 C 
HETATM    8  C4  UNL     1     -32.026   5.751   2.884  1.00 20.00     0.015 C 
HETATM    9  C5  UNL     1     -32.074   8.034   1.879  1.00 20.00     0.015 C 
ENDBRANCH   1   6
TORSDOF 3
ENDMDL
MODEL 5
REMARK VINA RESULT:      -3.7     11.295     13.200
REMARK  3 active torsions:
REMARK  status: ('A' for Active; 'I' for Inactive)
REMARK    1  A    between atoms: C2_2  and  C6_6 
REMARK    2  A    between atoms: C2_2  and  C7_7 
REMARK    3  A    between atoms: C6_6  and  C8_8 
ROOT
HETATM    1  C6  UNL     1     -33.253  16.309  -4.900  1.00 20.00     0.042 C 
ENDROOT
BRANCH   1   2
HETATM    2  C2  UNL     1     -33.578  15.460  -3.686  1.00 20.00    -0.075 C 
HETATM    3  C1  UNL     1     -33.917  16.024  -2.514  1.00 20.00     0.015 C 
BRANCH   2   4
HETATM    4  C7  UNL     1     -33.459  13.967  -3.808  1.00 20.00     0.147 C 
HETATM    5 CL9  UNL     1     -35.047  13.238  -4.146  1.00 20.00    -0.126 Cl
ENDBRANCH   2   4
ENDBRANCH   1   2
BRANCH   1   6
HETATM    6  C8  UNL     1     -34.362  16.474  -5.981  1.00 20.00    -0.048 C 
HETATM    7  C3  UNL     1     -35.764  16.497  -5.348  1.00 20.00     0.015 C 
HETATM    8  C4  UNL     1     -34.132  17.822  -6.695  1.00 20.00     0.015 C 
HETATM    9  C5  UNL     1     -34.308  15.356  -7.034  1.00 20.00     0.015 C 
ENDBRANCH   1   6
TORSDOF 3
ENDMDL
MODEL 6
REMARK VINA RESULT:      -3.7     11.707     12.702
REMARK  3 active torsions:
REMARK  status: ('A' for Active; 'I' for Inactive)
REMARK    1  A    between atoms: C2_2  and  C6_6 
REMARK    2  A    between atoms: C2_2  and  C7_7 
REMARK    3  A    between atoms: C6_6  and  C8_8 
ROOT
HETATM    1  C6  UNL     1     -35.783  15.287  -3.192  1.00 20.00     0.042 C 
ENDROOT
BRANCH   1   2
HETATM    2  C2  UNL     1     -35.559  14.440  -4.429  1.00 20.00    -0.075 C 
HETATM    3  C1  UNL     1     -35.082  13.187  -4.337  1.00 20.00     0.015 C 
BRANCH   2   4
HETATM    4  C7  UNL     1     -35.834  15.055  -5.773  1.00 20.00     0.147 C 
HETATM    5 CL9  UNL     1     -34.339  15.151  -6.734  1.00 20.00    -0.126 Cl
ENDBRANCH   2   4
ENDBRANCH   1   2
BRANCH   1   6
HETATM    6  C8  UNL     1     -34.659  16.290  -2.793  1.00 20.00    -0.048 C 
HETATM    7  C3  UNL     1     -34.913  17.684  -3.393  1.00 20.00     0.015 C 
HETATM    8  C4  UNL     1     -34.661  16.417  -1.256  1.00 20.00     0.015 C 
HETATM    9  C5  UNL     1     -33.271  15.801  -3.234  1.00 20.00     0.015 C 
ENDBRANCH   1   6
TORSDOF 3
ENDMDL
MODEL 7
REMARK VINA RESULT:      -3.7     11.546     13.133
REMARK  3 active torsions:
REMARK  status: ('A' for Active; 'I' for Inactive)
REMARK    1  A    between atoms: C2_2  and  C6_6 
REMARK    2  A    between atoms: C2_2  and  C7_7 
REMARK    3  A    between atoms: C6_6  and  C8_8 
ROOT
HETATM    1  C6  UNL     1     -33.541  15.511  -4.265  1.00 20.00     0.042 C 
ENDROOT
BRANCH   1   2
HETATM    2  C2  UNL     1     -33.690  17.002  -4.036  1.00 20.00    -0.075 C 
HETATM    3  C1  UNL     1     -33.514  17.881  -5.038  1.00 20.00     0.015 C 
BRANCH   2   4
HETATM    4  C7  UNL     1     -33.988  17.482  -2.643  1.00 20.00     0.147 C 
HETATM    5 CL9  UNL     1     -34.517  16.128  -1.615  1.00 20.00    -0.126 Cl
ENDBRANCH   2   4
ENDBRANCH   1   2
BRANCH   1   6
HETATM    6  C8  UNL     1     -34.665  14.789  -5.067  1.00 20.00    -0.048 C 
HETATM    7  C3  UNL     1     -34.409  14.862  -6.582  1.00 20.00     0.015 C 
HETATM    8  C4  UNL     1     -34.667  13.304  -4.648  1.00 20.00     0.015 C 
HETATM    9  C5  UNL     1     -36.052  15.377  -4.765  1.00 20.00     0.015 C 
ENDBRANCH   1   6
TORSDOF 3
ENDMDL
MODEL 8
REMARK VINA RESULT:      -3.7     11.725     12.602
REMARK  3 active torsions:
REMARK  status: ('A' for Active; 'I' for Inactive)
REMARK    1  A    between atoms: C2_2  and  C6_6 
REMARK    2  A    between atoms: C2_2  and  C7_7 
REMARK    3  A    between atoms: C6_6  and  C8_8 
ROOT
HETATM    1  C6  UNL     1     -35.472  15.267  -2.974  1.00 20.00     0.042 C 
ENDROOT
BRANCH   1   2
HETATM    2  C2  UNL     1     -35.085  16.531  -2.232  1.00 20.00    -0.075 C 
HETATM    3  C1  UNL     1     -34.622  16.483  -0.972  1.00 20.00     0.015 C 
BRANCH   2   4
HETATM    4  C7  UNL     1     -35.284  17.851  -2.923  1.00 20.00     0.147 C 
HETATM    5 CL9  UNL     1     -33.715  18.570  -3.360  1.00 20.00    -0.126 Cl
ENDBRANCH   2   4
ENDBRANCH   1   2
BRANCH   1   6
HETATM    6  C8  UNL     1     -34.502  14.754  -4.080  1.00 20.00    -0.048 C 
HETATM    7  C3  UNL     1     -33.032  14.953  -3.672  1.00 20.00     0.015 C 
HETATM    8  C4  UNL     1     -34.752  13.244  -4.267  1.00 20.00     0.015 C 
HETATM    9  C5  UNL     1     -34.745  15.454  -5.426  1.00 20.00     0.015 C 
ENDBRANCH   1   6
TORSDOF 3
ENDMDL
MODEL 9
REMARK VINA RESULT:      -3.6     11.173     12.968
REMARK  3 active torsions:
REMARK  status: ('A' for Active; 'I' for Inactive)
REMARK    1  A    between atoms: C2_2  and  C6_6 
REMARK    2  A    between atoms: C2_2  and  C7_7 
REMARK    3  A    between atoms: C6_6  and  C8_8 
ROOT
HETATM    1  C6  UNL     1     -35.169  13.999  -5.261  1.00 20.00     0.042 C 
ENDROOT
BRANCH   1   2
HETATM    2  C2  UNL     1     -34.448  14.329  -3.968  1.00 20.00    -0.075 C 
HETATM    3  C1  UNL     1     -33.241  13.806  -3.693  1.00 20.00     0.015 C 
BRANCH   2   4
HETATM    4  C7  UNL     1     -35.142  15.214  -2.972  1.00 20.00     0.147 C 
HETATM    5 CL9  UNL     1     -33.969  16.272  -2.151  1.00 20.00    -0.126 Cl
ENDBRANCH   2   4
ENDBRANCH   1   2
BRANCH   1   6
HETATM    6  C8  UNL     1     -35.310  15.135  -6.317  1.00 20.00    -0.048 C 
HETATM    7  C3  UNL     1     -34.084  16.064  -6.309  1.00 20.00     0.015 C 
HETATM    8  C4  UNL     1     -35.411  14.479  -7.709  1.00 20.00     0.015 C 
HETATM    9  C5  UNL     1     -36.576  15.977  -6.088  1.00 20.00     0.015 C 
ENDBRANCH   1   6
TORSDOF 3
ENDMDL
