MODEL 1
REMARK VINA RESULT:      -4.8      0.000      0.000
REMARK  1 active torsions:
REMARK  status: ('A' for Active; 'I' for Inactive)
REMARK    1  A    between atoms: C8_8  and  O10_10 
ROOT
HETATM    1  C1  UNL     1     -34.503  13.215  -4.884  1.00 20.00     0.005 C 
HETATM    2  C2  UNL     1     -36.364  14.780  -4.279  1.00 20.00     0.005 C 
HETATM    3  C3  UNL     1     -33.736  13.681  -3.639  1.00 20.00     0.008 C 
HETATM    4  C4  UNL     1     -35.566  15.243  -3.052  1.00 20.00     0.008 C 
HETATM    5  C5  UNL     1     -34.533  15.544  -5.808  1.00 20.00     0.042 C 
HETATM    6  C6  UNL     1     -35.411  14.341  -5.405  1.00 20.00    -0.012 C 
HETATM    7  C7  UNL     1     -34.056  15.164  -3.348  1.00 20.00     0.019 C 
HETATM    8  C8  UNL     1     -33.708  16.030  -4.592  1.00 20.00     0.058 C 
HETATM    9  C9  UNL     1     -33.911  17.528  -4.351  1.00 20.00     0.046 C 
ENDROOT
BRANCH   8  10
HETATM   10  O10 UNL     1     -32.320  15.851  -4.905  1.00 20.00    -0.390 OA
HETATM   11  H26 UNL     1     -31.848  16.558  -4.442  1.00 20.00     0.210 HD
ENDBRANCH   8  10
TORSDOF 1
ENDMDL
MODEL 2
REMARK VINA RESULT:      -4.7      1.139      1.497
REMARK  1 active torsions:
REMARK  status: ('A' for Active; 'I' for Inactive)
REMARK    1  A    between atoms: C8_8  and  O10_10 
ROOT
HETATM    1  C1  UNL     1     -35.149  13.634  -3.913  1.00 20.00     0.005 C 
HETATM    2  C2  UNL     1     -35.256  15.758  -2.587  1.00 20.00     0.005 C 
HETATM    3  C3  UNL     1     -33.625  13.790  -3.998  1.00 20.00     0.008 C 
HETATM    4  C4  UNL     1     -33.731  15.900  -2.706  1.00 20.00     0.008 C 
HETATM    5  C5  UNL     1     -35.495  15.825  -5.080  1.00 20.00     0.042 C 
HETATM    6  C6  UNL     1     -35.822  15.013  -3.809  1.00 20.00    -0.012 C 
HETATM    7  C7  UNL     1     -33.250  15.288  -4.035  1.00 20.00     0.019 C 
HETATM    8  C8  UNL     1     -33.962  15.977  -5.232  1.00 20.00     0.058 C 
HETATM    9  C9  UNL     1     -33.569  17.449  -5.393  1.00 20.00     0.046 C 
ENDROOT
BRANCH   8  10
HETATM   10  O10 UNL     1     -33.574  15.316  -6.443  1.00 20.00    -0.390 OA
HETATM   11  H26 UNL     1     -34.397  15.066  -6.888  1.00 20.00     0.210 HD
ENDBRANCH   8  10
TORSDOF 1
ENDMDL
MODEL 3
REMARK VINA RESULT:      -4.7      1.311      2.775
REMARK  1 active torsions:
REMARK  status: ('A' for Active; 'I' for Inactive)
REMARK    1  A    between atoms: C8_8  and  O10_10 
ROOT
HETATM    1  C1  UNL     1     -34.588  15.632  -2.631  1.00 20.00     0.005 C 
HETATM    2  C2  UNL     1     -33.332  13.769  -3.739  1.00 20.00     0.005 C 
HETATM    3  C3  UNL     1     -35.858  15.185  -3.368  1.00 20.00     0.008 C 
HETATM    4  C4  UNL     1     -34.612  13.355  -4.479  1.00 20.00     0.008 C 
HETATM    5  C5  UNL     1     -33.402  16.036  -4.801  1.00 20.00     0.042 C 
HETATM    6  C6  UNL     1     -33.339  15.281  -3.457  1.00 20.00    -0.012 C 
HETATM    7  C7  UNL     1     -35.486  14.595  -4.747  1.00 20.00     0.019 C 
HETATM    8  C8  UNL     1     -34.688  15.647  -5.569  1.00 20.00     0.058 C 
HETATM    9  C9  UNL     1     -34.361  15.170  -6.987  1.00 20.00     0.046 C 
ENDROOT
BRANCH   8  10
HETATM   10  O10 UNL     1     -35.489  16.827  -5.709  1.00 20.00    -0.390 OA
HETATM   11  H26 UNL     1     -36.392  16.521  -5.874  1.00 20.00     0.210 HD
ENDBRANCH   8  10
TORSDOF 1
ENDMDL
MODEL 4
REMARK VINA RESULT:      -4.7      0.964      1.404
REMARK  1 active torsions:
REMARK  status: ('A' for Active; 'I' for Inactive)
REMARK    1  A    between atoms: C8_8  and  O10_10 
ROOT
HETATM    1  C1  UNL     1     -34.786  14.063  -6.142  1.00 20.00     0.005 C 
HETATM    2  C2  UNL     1     -36.356  15.599  -4.936  1.00 20.00     0.005 C 
HETATM    3  C3  UNL     1     -34.607  13.263  -4.844  1.00 20.00     0.008 C 
HETATM    4  C4  UNL     1     -36.142  14.793  -3.646  1.00 20.00     0.008 C 
HETATM    5  C5  UNL     1     -33.913  16.142  -5.049  1.00 20.00     0.042 C 
HETATM    6  C6  UNL     1     -35.101  15.535  -5.824  1.00 20.00    -0.012 C 
HETATM    7  C7  UNL     1     -34.718  14.206  -3.625  1.00 20.00     0.019 C 
HETATM    8  C8  UNL     1     -33.666  15.345  -3.745  1.00 20.00     0.058 C 
HETATM    9  C9  UNL     1     -33.650  16.272  -2.527  1.00 20.00     0.046 C 
ENDROOT
BRANCH   8  10
HETATM   10  O10 UNL     1     -32.360  14.760  -3.831  1.00 20.00    -0.390 OA
HETATM   11  H26 UNL     1     -32.000  15.032  -4.686  1.00 20.00     0.210 HD
ENDBRANCH   8  10
TORSDOF 1
ENDMDL
MODEL 5
REMARK VINA RESULT:      -4.6      1.746      3.037
REMARK  1 active torsions:
REMARK  status: ('A' for Active; 'I' for Inactive)
REMARK    1  A    between atoms: C8_8  and  O10_10 
ROOT
HETATM    1  C1  UNL     1     -33.683  13.653  -3.663  1.00 20.00     0.005 C 
HETATM    2  C2  UNL     1     -33.394  15.958  -4.601  1.00 20.00     0.005 C 
HETATM    3  C3  UNL     1     -34.520  13.280  -4.894  1.00 20.00     0.008 C 
HETATM    4  C4  UNL     1     -34.252  15.565  -5.812  1.00 20.00     0.008 C 
HETATM    5  C5  UNL     1     -35.296  15.469  -3.046  1.00 20.00     0.042 C 
HETATM    6  C6  UNL     1     -33.818  15.154  -3.359  1.00 20.00    -0.012 C 
HETATM    7  C7  UNL     1     -35.300  14.516  -5.394  1.00 20.00     0.019 C 
HETATM    8  C8  UNL     1     -36.189  15.074  -4.247  1.00 20.00     0.058 C 
HETATM    9  C9  UNL     1     -37.066  16.249  -4.690  1.00 20.00     0.046 C 
ENDROOT
BRANCH   8  10
HETATM   10  O10 UNL     1     -37.081  14.041  -3.809  1.00 20.00    -0.390 OA
HETATM   11  H26 UNL     1     -37.689  14.459  -3.183  1.00 20.00     0.210 HD
ENDBRANCH   8  10
TORSDOF 1
ENDMDL
MODEL 6
REMARK VINA RESULT:      -4.6      1.794      2.816
REMARK  1 active torsions:
REMARK  status: ('A' for Active; 'I' for Inactive)
REMARK    1  A    between atoms: C8_8  and  O10_10 
ROOT
HETATM    1  C1  UNL     1     -37.096  15.202  -5.419  1.00 20.00     0.005 C 
HETATM    2  C2  UNL     1     -35.068  16.643  -5.119  1.00 20.00     0.005 C 
HETATM    3  C3  UNL     1     -37.059  14.876  -3.920  1.00 20.00     0.008 C 
HETATM    4  C4  UNL     1     -35.043  16.283  -3.626  1.00 20.00     0.008 C 
HETATM    5  C5  UNL     1     -34.808  14.231  -5.745  1.00 20.00     0.042 C 
HETATM    6  C6  UNL     1     -35.678  15.491  -5.938  1.00 20.00    -0.012 C 
HETATM    7  C7  UNL     1     -35.598  14.861  -3.420  1.00 20.00     0.019 C 
HETATM    8  C8  UNL     1     -34.771  13.837  -4.248  1.00 20.00     0.058 C 
HETATM    9  C9  UNL     1     -33.329  13.697  -3.752  1.00 20.00     0.046 C 
ENDROOT
BRANCH   8  10
HETATM   10  O10 UNL     1     -35.375  12.544  -4.120  1.00 20.00    -0.390 OA
HETATM   11  H26 UNL     1     -34.726  11.910  -4.457  1.00 20.00     0.210 HD
ENDBRANCH   8  10
TORSDOF 1
ENDMDL
MODEL 7
REMARK VINA RESULT:      -4.6      1.570      2.599
REMARK  1 active torsions:
REMARK  status: ('A' for Active; 'I' for Inactive)
REMARK    1  A    between atoms: C8_8  and  O10_10 
ROOT
HETATM    1  C1  UNL     1     -34.592  14.691  -5.796  1.00 20.00     0.005 C 
HETATM    2  C2  UNL     1     -33.447  13.563  -3.874  1.00 20.00     0.005 C 
HETATM    3  C3  UNL     1     -33.784  15.963  -5.502  1.00 20.00     0.008 C 
HETATM    4  C4  UNL     1     -32.667  14.855  -3.590  1.00 20.00     0.008 C 
HETATM    5  C5  UNL     1     -35.623  14.751  -3.513  1.00 20.00     0.042 C 
HETATM    6  C6  UNL     1     -34.813  13.888  -4.503  1.00 20.00    -0.012 C 
HETATM    7  C7  UNL     1     -33.516  16.078  -3.985  1.00 20.00     0.019 C 
HETATM    8  C8  UNL     1     -34.866  16.067  -3.212  1.00 20.00     0.058 C 
HETATM    9  C9  UNL     1     -34.690  16.270  -1.705  1.00 20.00     0.046 C 
ENDROOT
BRANCH   8  10
HETATM   10  O10 UNL     1     -35.674  17.154  -3.680  1.00 20.00    -0.390 OA
HETATM   11  H26 UNL     1     -36.447  17.183  -3.098  1.00 20.00     0.210 HD
ENDBRANCH   8  10
TORSDOF 1
ENDMDL
MODEL 8
REMARK VINA RESULT:      -4.5     11.603     12.639
REMARK  1 active torsions:
REMARK  status: ('A' for Active; 'I' for Inactive)
REMARK    1  A    between atoms: C8_8  and  O10_10 
ROOT
HETATM    1  C1  UNL     1     -41.272   3.922  -1.988  1.00 20.00     0.005 C 
HETATM    2  C2  UNL     1     -43.415   4.278  -0.741  1.00 20.00     0.005 C 
HETATM    3  C3  UNL     1     -40.528   4.687  -0.886  1.00 20.00     0.008 C 
HETATM    4  C4  UNL     1     -42.648   5.058   0.338  1.00 20.00     0.008 C 
HETATM    5  C5  UNL     1     -42.699   5.920  -2.492  1.00 20.00     0.042 C 
HETATM    6  C6  UNL     1     -42.720   4.426  -2.105  1.00 20.00    -0.012 C 
HETATM    7  C7  UNL     1     -41.444   5.781  -0.294  1.00 20.00     0.019 C 
HETATM    8  C8  UNL     1     -41.924   6.733  -1.426  1.00 20.00     0.058 C 
HETATM    9  C9  UNL     1     -42.765   7.901  -0.905  1.00 20.00     0.046 C 
ENDROOT
BRANCH   8  10
HETATM   10  O10 UNL     1     -40.776   7.308  -2.063  1.00 20.00    -0.390 OA
HETATM   11  H26 UNL     1     -40.089   6.626  -2.044  1.00 20.00     0.210 HD
ENDBRANCH   8  10
TORSDOF 1
ENDMDL
MODEL 9
REMARK VINA RESULT:      -4.4      1.673      2.835
REMARK  1 active torsions:
REMARK  status: ('A' for Active; 'I' for Inactive)
REMARK    1  A    between atoms: C8_8  and  O10_10 
ROOT
HETATM    1  C1  UNL     1     -33.203  15.896  -4.472  1.00 20.00     0.005 C 
HETATM    2  C2  UNL     1     -34.519  14.656  -6.207  1.00 20.00     0.005 C 
HETATM    3  C3  UNL     1     -33.484  14.759  -3.479  1.00 20.00     0.008 C 
HETATM    4  C4  UNL     1     -34.802  13.543  -5.187  1.00 20.00     0.008 C 
HETATM    5  C5  UNL     1     -35.655  16.341  -4.742  1.00 20.00     0.042 C 
HETATM    6  C6  UNL     1     -34.348  16.008  -5.492  1.00 20.00    -0.012 C 
HETATM    7  C7  UNL     1     -34.868  14.138  -3.767  1.00 20.00     0.019 C 
HETATM    8  C8  UNL     1     -35.963  15.241  -3.699  1.00 20.00     0.058 C 
HETATM    9  C9  UNL     1     -37.378  14.687  -3.883  1.00 20.00     0.046 C 
ENDROOT
BRANCH   8  10
HETATM   10  O10 UNL     1     -35.927  15.846  -2.400  1.00 20.00    -0.390 OA
HETATM   11  H26 UNL     1     -35.029  16.188  -2.288  1.00 20.00     0.210 HD
ENDBRANCH   8  10
TORSDOF 1
ENDMDL
