MODEL 1
REMARK VINA RESULT:      -4.4      0.000      0.000
REMARK  7 active torsions:
REMARK  status: ('A' for Active; 'I' for Inactive)
REMARK    1  A    between atoms: C1_1  and  C4_4 
REMARK    2  A    between atoms: C1_1  and  O10_10 
REMARK    3  A    between atoms: C4_4  and  C5_5 
REMARK    4  A    between atoms: C5_5  and  C6_6 
REMARK    5  A    between atoms: C6_6  and  C7_7 
REMARK    6  A    between atoms: C7_7  and  C8_8 
REMARK    7  A    between atoms: C8_8  and  O11_11 
ROOT
HETATM    1  C5  UNL     1     -34.031   5.400   2.914  1.00 20.00     0.010 C 
ENDROOT
BRANCH   1   2
HETATM    2  C4  UNL     1     -34.856   5.828   4.127  1.00 20.00     0.111 C 
BRANCH   2   3
HETATM    3  C1  UNL     1     -34.979   4.745   5.177  1.00 20.00     0.258 C 
HETATM    4  O9  UNL     1     -35.150   3.555   4.945  1.00 20.00    -0.265 OA
BRANCH   3   5
HETATM    5  O10 UNL     1     -34.838   5.307   6.413  1.00 20.00    -0.326 OA
HETATM    6  C2  UNL     1     -34.050   6.502   6.460  1.00 20.00     0.213 C 
ENDBRANCH   3   5
ENDBRANCH   2   3
ENDBRANCH   1   2
BRANCH   1   7
HETATM    7  C6  UNL     1     -32.544   5.728   3.072  1.00 20.00     0.002 C 
BRANCH   7   8
HETATM    8  C7  UNL     1     -32.331   7.217   3.343  1.00 20.00     0.026 C 
BRANCH   8   9
HETATM    9  C8  UNL     1     -31.761   7.933   2.128  1.00 20.00     0.167 C 
BRANCH   9  10
HETATM   10  O11 UNL     1     -32.461   9.156   1.944  1.00 20.00    -0.396 OA
HETATM   11  C3  UNL     1     -32.482   9.546   0.577  1.00 20.00     0.201 C 
ENDBRANCH   9  10
ENDBRANCH   8   9
ENDBRANCH   7   8
ENDBRANCH   1   7
TORSDOF 7
ENDMDL
MODEL 2
REMARK VINA RESULT:      -4.1      1.180      4.856
REMARK  7 active torsions:
REMARK  status: ('A' for Active; 'I' for Inactive)
REMARK    1  A    between atoms: C1_1  and  C4_4 
REMARK    2  A    between atoms: C1_1  and  O10_10 
REMARK    3  A    between atoms: C4_4  and  C5_5 
REMARK    4  A    between atoms: C5_5  and  C6_6 
REMARK    5  A    between atoms: C6_6  and  C7_7 
REMARK    6  A    between atoms: C7_7  and  C8_8 
REMARK    7  A    between atoms: C8_8  and  O11_11 
ROOT
HETATM    1  C5  UNL     1     -34.119   5.608   2.762  1.00 20.00     0.010 C 
ENDROOT
BRANCH   1   2
HETATM    2  C4  UNL     1     -32.685   5.749   3.272  1.00 20.00     0.111 C 
BRANCH   2   3
HETATM    3  C1  UNL     1     -32.147   7.159   3.156  1.00 20.00     0.258 C 
HETATM    4  O9  UNL     1     -31.293   7.648   3.882  1.00 20.00    -0.265 OA
BRANCH   3   5
HETATM    5  O10 UNL     1     -32.748   7.777   2.097  1.00 20.00    -0.326 OA
HETATM    6  C2  UNL     1     -31.929   8.708   1.381  1.00 20.00     0.213 C 
ENDBRANCH   3   5
ENDBRANCH   2   3
ENDBRANCH   1   2
BRANCH   1   7
HETATM    7  C6  UNL     1     -35.142   5.558   3.900  1.00 20.00     0.002 C 
BRANCH   7   8
HETATM    8  C7  UNL     1     -34.931   4.329   4.782  1.00 20.00     0.026 C 
BRANCH   8   9
HETATM    9  C8  UNL     1     -34.496   4.714   6.188  1.00 20.00     0.167 C 
BRANCH   9  10
HETATM   10  O11 UNL     1     -34.742   6.099   6.383  1.00 20.00    -0.396 OA
HETATM   11  C3  UNL     1     -33.543   6.809   6.665  1.00 20.00     0.201 C 
ENDBRANCH   9  10
ENDBRANCH   8   9
ENDBRANCH   7   8
ENDBRANCH   1   7
TORSDOF 7
ENDMDL
MODEL 3
REMARK VINA RESULT:      -3.9     10.669     11.825
REMARK  7 active torsions:
REMARK  status: ('A' for Active; 'I' for Inactive)
REMARK    1  A    between atoms: C1_1  and  C4_4 
REMARK    2  A    between atoms: C1_1  and  O10_10 
REMARK    3  A    between atoms: C4_4  and  C5_5 
REMARK    4  A    between atoms: C5_5  and  C6_6 
REMARK    5  A    between atoms: C6_6  and  C7_7 
REMARK    6  A    between atoms: C7_7  and  C8_8 
REMARK    7  A    between atoms: C8_8  and  O11_11 
ROOT
HETATM    1  C5  UNL     1     -33.974  15.754  -2.720  1.00 20.00     0.010 C 
ENDROOT
BRANCH   1   2
HETATM    2  C4  UNL     1     -34.900  14.718  -3.356  1.00 20.00     0.111 C 
BRANCH   2   3
HETATM    3  C1  UNL     1     -34.156  13.558  -3.982  1.00 20.00     0.258 C 
HETATM    4  O9  UNL     1     -33.066  13.139  -3.615  1.00 20.00    -0.265 OA
BRANCH   3   5
HETATM    5  O10 UNL     1     -34.911  13.043  -4.996  1.00 20.00    -0.326 OA
HETATM    6  C2  UNL     1     -35.243  13.959  -6.045  1.00 20.00     0.213 C 
ENDBRANCH   3   5
ENDBRANCH   2   3
ENDBRANCH   1   2
BRANCH   1   7
HETATM    7  C6  UNL     1     -34.593  16.410  -1.483  1.00 20.00     0.002 C 
BRANCH   7   8
HETATM    8  C7  UNL     1     -33.667  17.476  -0.900  1.00 20.00     0.026 C 
BRANCH   8   9
HETATM    9  C8  UNL     1     -34.284  18.153   0.315  1.00 20.00     0.167 C 
BRANCH   9  10
HETATM   10  O11 UNL     1     -35.197  17.254   0.929  1.00 20.00    -0.396 OA
HETATM   11  C3  UNL     1     -35.459  17.617   2.279  1.00 20.00     0.201 C 
ENDBRANCH   9  10
ENDBRANCH   8   9
ENDBRANCH   7   8
ENDBRANCH   1   7
TORSDOF 7
ENDMDL
MODEL 4
REMARK VINA RESULT:      -3.9     10.691     11.939
REMARK  7 active torsions:
REMARK  status: ('A' for Active; 'I' for Inactive)
REMARK    1  A    between atoms: C1_1  and  C4_4 
REMARK    2  A    between atoms: C1_1  and  O10_10 
REMARK    3  A    between atoms: C4_4  and  C5_5 
REMARK    4  A    between atoms: C5_5  and  C6_6 
REMARK    5  A    between atoms: C6_6  and  C7_7 
REMARK    6  A    between atoms: C7_7  and  C8_8 
REMARK    7  A    between atoms: C8_8  and  O11_11 
ROOT
HETATM    1  C5  UNL     1     -33.533  15.760  -2.997  1.00 20.00     0.010 C 
ENDROOT
BRANCH   1   2
HETATM    2  C4  UNL     1     -34.558  14.685  -3.356  1.00 20.00     0.111 C 
BRANCH   2   3
HETATM    3  C1  UNL     1     -33.941  13.467  -4.009  1.00 20.00     0.258 C 
HETATM    4  O9  UNL     1     -32.867  12.969  -3.700  1.00 20.00    -0.265 OA
BRANCH   3   5
HETATM    5  O10 UNL     1     -34.790  13.003  -4.973  1.00 20.00    -0.326 OA
HETATM    6  C2  UNL     1     -35.159  13.953  -5.979  1.00 20.00     0.213 C 
ENDBRANCH   3   5
ENDBRANCH   2   3
ENDBRANCH   1   2
BRANCH   1   7
HETATM    7  C6  UNL     1     -34.176  16.985  -2.341  1.00 20.00     0.002 C 
BRANCH   7   8
HETATM    8  C7  UNL     1     -34.524  16.713  -0.879  1.00 20.00     0.026 C 
BRANCH   8   9
HETATM    9  C8  UNL     1     -34.009  17.815   0.036  1.00 20.00     0.167 C 
BRANCH   9  10
HETATM   10  O11 UNL     1     -32.899  18.448  -0.585  1.00 20.00    -0.396 OA
HETATM   11  C3  UNL     1     -31.985  18.961   0.376  1.00 20.00     0.201 C 
ENDBRANCH   9  10
ENDBRANCH   8   9
ENDBRANCH   7   8
ENDBRANCH   1   7
TORSDOF 7
ENDMDL
MODEL 5
REMARK VINA RESULT:      -3.9     10.855     12.269
REMARK  7 active torsions:
REMARK  status: ('A' for Active; 'I' for Inactive)
REMARK    1  A    between atoms: C1_1  and  C4_4 
REMARK    2  A    between atoms: C1_1  and  O10_10 
REMARK    3  A    between atoms: C4_4  and  C5_5 
REMARK    4  A    between atoms: C5_5  and  C6_6 
REMARK    5  A    between atoms: C6_6  and  C7_7 
REMARK    6  A    between atoms: C7_7  and  C8_8 
REMARK    7  A    between atoms: C8_8  and  O11_11 
ROOT
HETATM    1  C5  UNL     1     -33.289  15.415  -3.363  1.00 20.00     0.010 C 
ENDROOT
BRANCH   1   2
HETATM    2  C4  UNL     1     -33.248  13.925  -3.700  1.00 20.00     0.111 C 
BRANCH   2   3
HETATM    3  C1  UNL     1     -34.307  13.510  -4.697  1.00 20.00     0.258 C 
HETATM    4  O9  UNL     1     -35.078  12.570  -4.557  1.00 20.00    -0.265 OA
BRANCH   3   5
HETATM    5  O10 UNL     1     -34.279  14.371  -5.757  1.00 20.00    -0.326 OA
HETATM    6  C2  UNL     1     -35.426  14.334  -6.612  1.00 20.00     0.213 C 
ENDBRANCH   3   5
ENDBRANCH   2   3
ENDBRANCH   1   2
BRANCH   1   7
HETATM    7  C6  UNL     1     -34.526  15.796  -2.546  1.00 20.00     0.002 C 
BRANCH   7   8
HETATM    8  C7  UNL     1     -35.355  16.863  -3.260  1.00 20.00     0.026 C 
BRANCH   8   9
HETATM    9  C8  UNL     1     -36.834  16.509  -3.275  1.00 20.00     0.167 C 
BRANCH   9  10
HETATM   10  O11 UNL     1     -36.969  15.097  -3.359  1.00 20.00    -0.396 OA
HETATM   11  C3  UNL     1     -38.175  14.725  -4.013  1.00 20.00     0.201 C 
ENDBRANCH   9  10
ENDBRANCH   8   9
ENDBRANCH   7   8
ENDBRANCH   1   7
TORSDOF 7
ENDMDL
MODEL 6
REMARK VINA RESULT:      -3.9     10.973     12.174
REMARK  7 active torsions:
REMARK  status: ('A' for Active; 'I' for Inactive)
REMARK    1  A    between atoms: C1_1  and  C4_4 
REMARK    2  A    between atoms: C1_1  and  O10_10 
REMARK    3  A    between atoms: C4_4  and  C5_5 
REMARK    4  A    between atoms: C5_5  and  C6_6 
REMARK    5  A    between atoms: C6_6  and  C7_7 
REMARK    6  A    between atoms: C7_7  and  C8_8 
REMARK    7  A    between atoms: C8_8  and  O11_11 
ROOT
HETATM    1  C5  UNL     1     -33.327  15.469  -3.450  1.00 20.00     0.010 C 
ENDROOT
BRANCH   1   2
HETATM    2  C4  UNL     1     -34.352  14.338  -3.376  1.00 20.00     0.111 C 
BRANCH   2   3
HETATM    3  C1  UNL     1     -34.562  13.636  -4.701  1.00 20.00     0.258 C 
HETATM    4  O9  UNL     1     -34.895  12.467  -4.834  1.00 20.00    -0.265 OA
BRANCH   3   5
HETATM    5  O10 UNL     1     -34.348  14.528  -5.712  1.00 20.00    -0.326 OA
HETATM    6  C2  UNL     1     -35.228  14.408  -6.836  1.00 20.00     0.213 C 
ENDBRANCH   3   5
ENDBRANCH   2   3
ENDBRANCH   1   2
BRANCH   1   7
HETATM    7  C6  UNL     1     -33.647  16.612  -2.483  1.00 20.00     0.002 C 
BRANCH   7   8
HETATM    8  C7  UNL     1     -34.798  16.243  -1.550  1.00 20.00     0.026 C 
BRANCH   8   9
HETATM    9  C8  UNL     1     -34.728  17.012  -0.238  1.00 20.00     0.167 C 
BRANCH   9  10
HETATM   10  O11 UNL     1     -34.103  18.266  -0.473  1.00 20.00    -0.396 OA
HETATM   11  C3  UNL     1     -33.295  18.661   0.629  1.00 20.00     0.201 C 
ENDBRANCH   9  10
ENDBRANCH   8   9
ENDBRANCH   7   8
ENDBRANCH   1   7
TORSDOF 7
ENDMDL
MODEL 7
REMARK VINA RESULT:      -3.8     11.255     12.391
REMARK  7 active torsions:
REMARK  status: ('A' for Active; 'I' for Inactive)
REMARK    1  A    between atoms: C1_1  and  C4_4 
REMARK    2  A    between atoms: C1_1  and  O10_10 
REMARK    3  A    between atoms: C4_4  and  C5_5 
REMARK    4  A    between atoms: C5_5  and  C6_6 
REMARK    5  A    between atoms: C6_6  and  C7_7 
REMARK    6  A    between atoms: C7_7  and  C8_8 
REMARK    7  A    between atoms: C8_8  and  O11_11 
ROOT
HETATM    1  C5  UNL     1     -33.566  17.481  -0.901  1.00 20.00     0.010 C 
ENDROOT
BRANCH   1   2
HETATM    2  C4  UNL     1     -33.665  18.289   0.392  1.00 20.00     0.111 C 
BRANCH   2   3
HETATM    3  C1  UNL     1     -32.357  18.937   0.792  1.00 20.00     0.258 C 
HETATM    4  O9  UNL     1     -31.419  19.155   0.037  1.00 20.00    -0.265 OA
BRANCH   3   5
HETATM    5  O10 UNL     1     -32.411  19.263   2.116  1.00 20.00    -0.326 OA
HETATM    6  C2  UNL     1     -31.305  18.814   2.907  1.00 20.00     0.213 C 
ENDBRANCH   3   5
ENDBRANCH   2   3
ENDBRANCH   1   2
BRANCH   1   7
HETATM    7  C6  UNL     1     -34.743  16.518  -1.080  1.00 20.00     0.002 C 
BRANCH   7   8
HETATM    8  C7  UNL     1     -34.646  15.765  -2.406  1.00 20.00     0.026 C 
BRANCH   8   9
HETATM    9  C8  UNL     1     -33.454  16.229  -3.230  1.00 20.00     0.167 C 
BRANCH   9  10
HETATM   10  O11 UNL     1     -32.732  15.089  -3.676  1.00 20.00    -0.396 OA
HETATM   11  C3  UNL     1     -33.588  13.972  -3.874  1.00 20.00     0.201 C 
ENDBRANCH   9  10
ENDBRANCH   8   9
ENDBRANCH   7   8
ENDBRANCH   1   7
TORSDOF 7
ENDMDL
MODEL 8
REMARK VINA RESULT:      -3.8     11.387     12.739
REMARK  7 active torsions:
REMARK  status: ('A' for Active; 'I' for Inactive)
REMARK    1  A    between atoms: C1_1  and  C4_4 
REMARK    2  A    between atoms: C1_1  and  O10_10 
REMARK    3  A    between atoms: C4_4  and  C5_5 
REMARK    4  A    between atoms: C5_5  and  C6_6 
REMARK    5  A    between atoms: C6_6  and  C7_7 
REMARK    6  A    between atoms: C7_7  and  C8_8 
REMARK    7  A    between atoms: C8_8  and  O11_11 
ROOT
HETATM    1  C5  UNL     1     -33.657  17.117  -2.162  1.00 20.00     0.010 C 
ENDROOT
BRANCH   1   2
HETATM    2  C4  UNL     1     -33.819  15.737  -2.797  1.00 20.00     0.111 C 
BRANCH   2   3
HETATM    3  C1  UNL     1     -33.447  15.708  -4.264  1.00 20.00     0.258 C 
HETATM    4  O9  UNL     1     -32.887  16.614  -4.867  1.00 20.00    -0.265 OA
BRANCH   3   5
HETATM    5  O10 UNL     1     -33.809  14.501  -4.789  1.00 20.00    -0.326 OA
HETATM    6  C2  UNL     1     -34.756  13.753  -4.019  1.00 20.00     0.213 C 
ENDBRANCH   3   5
ENDBRANCH   2   3
ENDBRANCH   1   2
BRANCH   1   7
HETATM    7  C6  UNL     1     -34.348  17.219  -0.799  1.00 20.00     0.002 C 
BRANCH   7   8
HETATM    8  C7  UNL     1     -33.583  18.148   0.142  1.00 20.00     0.026 C 
BRANCH   8   9
HETATM    9  C8  UNL     1     -32.708  19.129  -0.625  1.00 20.00     0.167 C 
BRANCH   9  10
HETATM   10  O11 UNL     1     -31.465  19.263   0.051  1.00 20.00    -0.396 OA
HETATM   11  C3  UNL     1     -31.630  19.212   1.462  1.00 20.00     0.201 C 
ENDBRANCH   9  10
ENDBRANCH   8   9
ENDBRANCH   7   8
ENDBRANCH   1   7
TORSDOF 7
ENDMDL
MODEL 9
REMARK VINA RESULT:      -3.8      1.182      1.959
REMARK  7 active torsions:
REMARK  status: ('A' for Active; 'I' for Inactive)
REMARK    1  A    between atoms: C1_1  and  C4_4 
REMARK    2  A    between atoms: C1_1  and  O10_10 
REMARK    3  A    between atoms: C4_4  and  C5_5 
REMARK    4  A    between atoms: C5_5  and  C6_6 
REMARK    5  A    between atoms: C6_6  and  C7_7 
REMARK    6  A    between atoms: C7_7  and  C8_8 
REMARK    7  A    between atoms: C8_8  and  O11_11 
ROOT
HETATM    1  C5  UNL     1     -32.622   6.210   4.001  1.00 20.00     0.010 C 
ENDROOT
BRANCH   1   2
HETATM    2  C4  UNL     1     -34.066   6.089   4.485  1.00 20.00     0.111 C 
BRANCH   2   3
HETATM    3  C1  UNL     1     -34.200   6.180   5.990  1.00 20.00     0.258 C 
HETATM    4  O9  UNL     1     -33.718   7.061   6.689  1.00 20.00    -0.265 OA
BRANCH   3   5
HETATM    5  O10 UNL     1     -34.968   5.140   6.429  1.00 20.00    -0.326 OA
HETATM    6  C2  UNL     1     -35.048   4.016   5.546  1.00 20.00     0.213 C 
ENDBRANCH   3   5
ENDBRANCH   2   3
ENDBRANCH   1   2
BRANCH   1   7
HETATM    7  C6  UNL     1     -32.531   6.648   2.537  1.00 20.00     0.002 C 
BRANCH   7   8
HETATM    8  C7  UNL     1     -31.930   8.048   2.414  1.00 20.00     0.026 C 
BRANCH   8   9
HETATM    9  C8  UNL     1     -31.763   8.463   0.960  1.00 20.00     0.167 C 
BRANCH   9  10
HETATM   10  O11 UNL     1     -32.474   9.673   0.742  1.00 20.00    -0.396 OA
HETATM   11  C3  UNL     1     -32.802  10.314   1.968  1.00 20.00     0.201 C 
ENDBRANCH   9  10
ENDBRANCH   8   9
ENDBRANCH   7   8
ENDBRANCH   1   7
TORSDOF 7
ENDMDL
