MODEL 1
REMARK VINA RESULT:      -4.5      0.000      0.000
REMARK  1 active torsions:
REMARK  status: ('A' for Active; 'I' for Inactive)
REMARK    1  A    between atoms: C1_1  and  C2_2 
ROOT
HETATM    1  C1  UNL     1     -33.647   5.818   4.500  1.00 20.00    -0.005 C 
HETATM    2  C3  UNL     1     -34.791   5.144   4.689  1.00 20.00    -0.031 C 
HETATM    3  C5  UNL     1     -35.045   4.256   5.863  1.00 20.00     0.036 C 
ENDROOT
BRANCH   1   4
HETATM    4  C2  UNL     1     -33.413   6.673   3.359  1.00 20.00    -0.005 C 
HETATM    5  C4  UNL     1     -32.225   7.235   3.095  1.00 20.00    -0.031 C 
HETATM    6  C6  UNL     1     -31.970   8.120   1.919  1.00 20.00     0.036 C 
ENDBRANCH   1   4
TORSDOF 1
ENDMDL
MODEL 2
REMARK VINA RESULT:      -4.5      0.045      4.303
REMARK  1 active torsions:
REMARK  status: ('A' for Active; 'I' for Inactive)
REMARK    1  A    between atoms: C1_1  and  C2_2 
ROOT
HETATM    1  C1  UNL     1     -33.391   6.628   3.306  1.00 20.00    -0.005 C 
HETATM    2  C3  UNL     1     -32.230   7.263   3.093  1.00 20.00    -0.031 C 
HETATM    3  C5  UNL     1     -31.969   8.136   1.908  1.00 20.00     0.036 C 
ENDROOT
BRANCH   1   4
HETATM    4  C2  UNL     1     -33.630   5.785   4.455  1.00 20.00    -0.005 C 
HETATM    5  C4  UNL     1     -34.798   5.166   4.680  1.00 20.00    -0.031 C 
HETATM    6  C6  UNL     1     -35.059   4.293   5.864  1.00 20.00     0.036 C 
ENDBRANCH   1   4
TORSDOF 1
ENDMDL
MODEL 3
REMARK VINA RESULT:      -3.6     11.164     11.696
REMARK  1 active torsions:
REMARK  status: ('A' for Active; 'I' for Inactive)
REMARK    1  A    between atoms: C1_1  and  C2_2 
ROOT
HETATM    1  C1  UNL     1     -33.767  16.330  -2.351  1.00 20.00    -0.005 C 
HETATM    2  C3  UNL     1     -34.703  16.293  -1.392  1.00 20.00    -0.031 C 
HETATM    3  C5  UNL     1     -34.700  17.189  -0.196  1.00 20.00     0.036 C 
ENDROOT
BRANCH   1   4
HETATM    4  C2  UNL     1     -33.781  15.457  -3.503  1.00 20.00    -0.005 C 
HETATM    5  C4  UNL     1     -34.349  14.243  -3.496  1.00 20.00    -0.031 C 
HETATM    6  C6  UNL     1     -34.369  13.330  -4.679  1.00 20.00     0.036 C 
ENDBRANCH   1   4
TORSDOF 1
ENDMDL
MODEL 4
REMARK VINA RESULT:      -3.6     11.158     11.758
REMARK  1 active torsions:
REMARK  status: ('A' for Active; 'I' for Inactive)
REMARK    1  A    between atoms: C1_1  and  C2_2 
ROOT
HETATM    1  C1  UNL     1     -33.821  15.458  -3.515  1.00 20.00    -0.005 C 
HETATM    2  C3  UNL     1     -34.362  14.232  -3.496  1.00 20.00    -0.031 C 
HETATM    3  C5  UNL     1     -34.410  13.329  -4.685  1.00 20.00     0.036 C 
ENDROOT
BRANCH   1   4
HETATM    4  C2  UNL     1     -33.782  16.322  -2.358  1.00 20.00    -0.005 C 
HETATM    5  C4  UNL     1     -34.713  16.300  -1.393  1.00 20.00    -0.031 C 
HETATM    6  C6  UNL     1     -34.684  17.188  -0.192  1.00 20.00     0.036 C 
ENDBRANCH   1   4
TORSDOF 1
ENDMDL
MODEL 5
REMARK VINA RESULT:      -3.3     11.672     11.892
REMARK  1 active torsions:
REMARK  status: ('A' for Active; 'I' for Inactive)
REMARK    1  A    between atoms: C1_1  and  C2_2 
ROOT
HETATM    1  C1  UNL     1     -34.718  16.682  -0.752  1.00 20.00    -0.005 C 
HETATM    2  C3  UNL     1     -34.528  17.562   0.242  1.00 20.00    -0.031 C 
HETATM    3  C5  UNL     1     -35.354  17.595   1.487  1.00 20.00     0.036 C 
ENDROOT
BRANCH   1   4
HETATM    4  C2  UNL     1     -33.913  16.660  -1.952  1.00 20.00    -0.005 C 
HETATM    5  C4  UNL     1     -33.935  15.649  -2.832  1.00 20.00    -0.031 C 
HETATM    6  C6  UNL     1     -33.107  15.614  -4.076  1.00 20.00     0.036 C 
ENDBRANCH   1   4
TORSDOF 1
ENDMDL
MODEL 6
REMARK VINA RESULT:      -3.3     11.613     12.209
REMARK  1 active torsions:
REMARK  status: ('A' for Active; 'I' for Inactive)
REMARK    1  A    between atoms: C1_1  and  C2_2 
ROOT
HETATM    1  C1  UNL     1     -33.962  16.642  -1.883  1.00 20.00    -0.005 C 
HETATM    2  C3  UNL     1     -33.984  15.622  -2.752  1.00 20.00    -0.031 C 
HETATM    3  C5  UNL     1     -33.204  15.603  -4.027  1.00 20.00     0.036 C 
ENDROOT
BRANCH   1   4
HETATM    4  C2  UNL     1     -34.721  16.649  -0.653  1.00 20.00    -0.005 C 
HETATM    5  C4  UNL     1     -34.602  17.607   0.277  1.00 20.00    -0.031 C 
HETATM    6  C6  UNL     1     -35.381  17.625   1.553  1.00 20.00     0.036 C 
ENDBRANCH   1   4
TORSDOF 1
ENDMDL
MODEL 7
REMARK VINA RESULT:      -3.2     10.040     10.789
REMARK  1 active torsions:
REMARK  status: ('A' for Active; 'I' for Inactive)
REMARK    1  A    between atoms: C1_1  and  C2_2 
ROOT
HETATM    1  C1  UNL     1     -42.207   3.043  -2.711  1.00 20.00    -0.005 C 
HETATM    2  C3  UNL     1     -41.303   2.338  -3.405  1.00 20.00    -0.031 C 
HETATM    3  C5  UNL     1     -41.571   0.985  -3.981  1.00 20.00     0.036 C 
ENDROOT
BRANCH   1   4
HETATM    4  C2  UNL     1     -41.935   4.350  -2.159  1.00 20.00    -0.005 C 
HETATM    5  C4  UNL     1     -41.021   4.567  -1.202  1.00 20.00    -0.031 C 
HETATM    6  C6  UNL     1     -40.731   5.913  -0.622  1.00 20.00     0.036 C 
ENDBRANCH   1   4
TORSDOF 1
ENDMDL
MODEL 8
REMARK VINA RESULT:      -3.2     10.051     10.964
REMARK  1 active torsions:
REMARK  status: ('A' for Active; 'I' for Inactive)
REMARK    1  A    between atoms: C1_1  and  C2_2 
ROOT
HETATM    1  C1  UNL     1     -41.905   4.351  -2.198  1.00 20.00    -0.005 C 
HETATM    2  C3  UNL     1     -41.043   4.569  -1.194  1.00 20.00    -0.031 C 
HETATM    3  C5  UNL     1     -40.745   5.924  -0.639  1.00 20.00     0.036 C 
ENDROOT
BRANCH   1   4
HETATM    4  C2  UNL     1     -42.184   3.036  -2.727  1.00 20.00    -0.005 C 
HETATM    5  C4  UNL     1     -41.293   2.325  -3.433  1.00 20.00    -0.031 C 
HETATM    6  C6  UNL     1     -41.570   0.964  -3.986  1.00 20.00     0.036 C 
ENDBRANCH   1   4
TORSDOF 1
ENDMDL
MODEL 9
REMARK VINA RESULT:      -3.2      9.616     10.521
REMARK  1 active torsions:
REMARK  status: ('A' for Active; 'I' for Inactive)
REMARK    1  A    between atoms: C1_1  and  C2_2 
ROOT
HETATM    1  C1  UNL     1     -41.194   5.257  -1.089  1.00 20.00    -0.005 C 
HETATM    2  C3  UNL     1     -41.429   6.426  -1.701  1.00 20.00    -0.031 C 
HETATM    3  C5  UNL     1     -41.680   7.706  -0.973  1.00 20.00     0.036 C 
ENDROOT
BRANCH   1   4
HETATM    4  C2  UNL     1     -40.953   4.025  -1.805  1.00 20.00    -0.005 C 
HETATM    5  C4  UNL     1     -41.859   3.458  -2.615  1.00 20.00    -0.031 C 
HETATM    6  C6  UNL     1     -41.623   2.185  -3.360  1.00 20.00     0.036 C 
ENDBRANCH   1   4
TORSDOF 1
ENDMDL
