MODEL 1
REMARK VINA RESULT:      -2.7      0.000      0.000
REMARK  1 active torsions:
REMARK  status: ('A' for Active; 'I' for Inactive)
REMARK    1  A    between atoms: C5_5  and  S6_6 
ROOT
HETATM    1  C1  UNL     1     -32.661  14.414  -3.547  1.00 20.00     0.026 C 
HETATM    2  C2  UNL     1     -33.304  16.456  -4.864  1.00 20.00     0.026 C 
HETATM    3  C3  UNL     1     -33.824  16.331  -2.408  1.00 20.00     0.026 C 
HETATM    4  C5  UNL     1     -33.695  15.531  -3.708  1.00 20.00    -0.003 C 
ENDROOT
BRANCH   4   5
HETATM    5  S6  UNL     1     -35.322  14.776  -4.097  1.00 20.00    -0.165 SA
HETATM    6  C4  UNL     1     -34.710  13.233  -4.807  1.00 20.00     0.090 C 
ENDBRANCH   4   5
TORSDOF 1
ENDMDL
MODEL 2
REMARK VINA RESULT:      -2.7      0.161      1.740
REMARK  1 active torsions:
REMARK  status: ('A' for Active; 'I' for Inactive)
REMARK    1  A    between atoms: C5_5  and  S6_6 
ROOT
HETATM    1  C1  UNL     1     -33.866  16.337  -2.280  1.00 20.00     0.026 C 
HETATM    2  C2  UNL     1     -32.617  14.576  -3.566  1.00 20.00     0.026 C 
HETATM    3  C3  UNL     1     -33.432  16.645  -4.737  1.00 20.00     0.026 C 
HETATM    4  C5  UNL     1     -33.727  15.629  -3.630  1.00 20.00    -0.003 C 
ENDROOT
BRANCH   4   5
HETATM    5  S6  UNL     1     -35.308  14.781  -4.015  1.00 20.00    -0.165 SA
HETATM    6  C4  UNL     1     -34.610  13.288  -4.752  1.00 20.00     0.090 C 
ENDBRANCH   4   5
TORSDOF 1
ENDMDL
MODEL 3
REMARK VINA RESULT:      -2.7      0.081      1.789
REMARK  1 active torsions:
REMARK  status: ('A' for Active; 'I' for Inactive)
REMARK    1  A    between atoms: C5_5  and  S6_6 
ROOT
HETATM    1  C1  UNL     1     -33.311  16.521  -4.822  1.00 20.00     0.026 C 
HETATM    2  C2  UNL     1     -33.797  16.355  -2.362  1.00 20.00     0.026 C 
HETATM    3  C3  UNL     1     -32.673  14.448  -3.550  1.00 20.00     0.026 C 
HETATM    4  C5  UNL     1     -33.696  15.580  -3.678  1.00 20.00    -0.003 C 
ENDROOT
BRANCH   4   5
HETATM    5  S6  UNL     1     -35.339  14.849  -4.046  1.00 20.00    -0.165 SA
HETATM    6  C4  UNL     1     -34.762  13.264  -4.690  1.00 20.00     0.090 C 
ENDBRANCH   4   5
TORSDOF 1
ENDMDL
MODEL 4
REMARK VINA RESULT:      -2.7      1.591      2.277
REMARK  1 active torsions:
REMARK  status: ('A' for Active; 'I' for Inactive)
REMARK    1  A    between atoms: C5_5  and  S6_6 
ROOT
HETATM    1  C1  UNL     1     -35.761  14.002  -4.181  1.00 20.00     0.026 C 
HETATM    2  C2  UNL     1     -33.307  13.735  -3.705  1.00 20.00     0.026 C 
HETATM    3  C3  UNL     1     -34.606  15.583  -2.603  1.00 20.00     0.026 C 
HETATM    4  C5  UNL     1     -34.454  14.736  -3.870  1.00 20.00    -0.003 C 
ENDROOT
BRANCH   4   5
HETATM    5  S6  UNL     1     -34.054  15.847  -5.276  1.00 20.00    -0.165 SA
HETATM    6  C4  UNL     1     -34.627  14.770  -6.606  1.00 20.00     0.090 C 
ENDBRANCH   4   5
TORSDOF 1
ENDMDL
MODEL 5
REMARK VINA RESULT:      -2.7      1.600      2.524
REMARK  1 active torsions:
REMARK  status: ('A' for Active; 'I' for Inactive)
REMARK    1  A    between atoms: C5_5  and  S6_6 
ROOT
HETATM    1  C1  UNL     1     -34.528  15.581  -2.631  1.00 20.00     0.026 C 
HETATM    2  C2  UNL     1     -35.761  14.035  -4.182  1.00 20.00     0.026 C 
HETATM    3  C3  UNL     1     -33.310  13.688  -3.751  1.00 20.00     0.026 C 
HETATM    4  C5  UNL     1     -34.426  14.727  -3.897  1.00 20.00    -0.003 C 
ENDROOT
BRANCH   4   5
HETATM    5  S6  UNL     1     -34.028  15.822  -5.315  1.00 20.00    -0.165 SA
HETATM    6  C4  UNL     1     -34.664  14.760  -6.628  1.00 20.00     0.090 C 
ENDBRANCH   4   5
TORSDOF 1
ENDMDL
MODEL 6
REMARK VINA RESULT:      -2.7     11.576     12.587
REMARK  1 active torsions:
REMARK  status: ('A' for Active; 'I' for Inactive)
REMARK    1  A    between atoms: C5_5  and  S6_6 
ROOT
HETATM    1  C1  UNL     1     -42.623   5.482   0.276  1.00 20.00     0.026 C 
HETATM    2  C2  UNL     1     -40.714   4.571  -1.081  1.00 20.00     0.026 C 
HETATM    3  C3  UNL     1     -41.026   7.055  -0.863  1.00 20.00     0.026 C 
HETATM    4  C5  UNL     1     -41.737   5.702  -0.953  1.00 20.00    -0.003 C 
ENDROOT
BRANCH   4   5
HETATM    5  S6  UNL     1     -42.799   5.694  -2.451  1.00 20.00    -0.165 SA
HETATM    6  C4  UNL     1     -42.353   7.328  -3.074  1.00 20.00     0.090 C 
ENDBRANCH   4   5
TORSDOF 1
ENDMDL
MODEL 7
REMARK VINA RESULT:      -2.7      1.084      2.614
REMARK  1 active torsions:
REMARK  status: ('A' for Active; 'I' for Inactive)
REMARK    1  A    between atoms: C5_5  and  S6_6 
ROOT
HETATM    1  C1  UNL     1     -32.726  14.998  -3.681  1.00 20.00     0.026 C 
HETATM    2  C2  UNL     1     -34.827  15.652  -2.467  1.00 20.00     0.026 C 
HETATM    3  C3  UNL     1     -34.798  13.591  -3.905  1.00 20.00     0.026 C 
HETATM    4  C5  UNL     1     -34.256  15.013  -3.736  1.00 20.00    -0.003 C 
ENDROOT
BRANCH   4   5
HETATM    5  S6  UNL     1     -34.783  16.020  -5.178  1.00 20.00    -0.165 SA
HETATM    6  C4  UNL     1     -33.436  17.220  -5.142  1.00 20.00     0.090 C 
ENDBRANCH   4   5
TORSDOF 1
ENDMDL
MODEL 8
REMARK VINA RESULT:      -2.7     11.555     12.490
REMARK  1 active torsions:
REMARK  status: ('A' for Active; 'I' for Inactive)
REMARK    1  A    between atoms: C5_5  and  S6_6 
ROOT
HETATM    1  C1  UNL     1     -40.746   4.597  -1.072  1.00 20.00     0.026 C 
HETATM    2  C2  UNL     1     -41.050   7.084  -0.869  1.00 20.00     0.026 C 
HETATM    3  C3  UNL     1     -42.716   5.525   0.185  1.00 20.00     0.026 C 
HETATM    4  C5  UNL     1     -41.765   5.737  -0.997  1.00 20.00    -0.003 C 
ENDROOT
BRANCH   4   5
HETATM    5  S6  UNL     1     -42.748   5.749  -2.548  1.00 20.00    -0.165 SA
HETATM    6  C4  UNL     1     -42.300   7.406  -3.106  1.00 20.00     0.090 C 
ENDBRANCH   4   5
TORSDOF 1
ENDMDL
MODEL 9
REMARK VINA RESULT:      -2.7      1.079      2.738
REMARK  1 active torsions:
REMARK  status: ('A' for Active; 'I' for Inactive)
REMARK    1  A    between atoms: C5_5  and  S6_6 
ROOT
HETATM    1  C1  UNL     1     -34.329  15.464  -5.756  1.00 20.00     0.026 C 
HETATM    2  C2  UNL     1     -32.975  15.089  -3.672  1.00 20.00     0.026 C 
HETATM    3  C3  UNL     1     -34.510  13.285  -4.515  1.00 20.00     0.026 C 
HETATM    4  C5  UNL     1     -34.302  14.797  -4.379  1.00 20.00    -0.003 C 
ENDROOT
BRANCH   4   5
HETATM    5  S6  UNL     1     -35.664  15.489  -3.362  1.00 20.00    -0.165 SA
HETATM    6  C4  UNL     1     -34.659  16.089  -1.987  1.00 20.00     0.090 C 
ENDBRANCH   4   5
TORSDOF 1
ENDMDL
