MODEL 1
REMARK VINA RESULT:      -4.5      0.000      0.000
REMARK  1 active torsions:
REMARK  status: ('A' for Active; 'I' for Inactive)
REMARK    1  A    between atoms: C1_1  and  N7_7 
ROOT
HETATM    1  C2  UNL     1     -35.217   4.845   6.115  1.00 20.00     0.003 C 
HETATM    2  C3  UNL     1     -35.098   4.177   4.744  1.00 20.00     0.020 C 
HETATM    3  C4  UNL     1     -33.978   5.687   6.422  1.00 20.00     0.020 C 
HETATM    4  C5  UNL     1     -34.804   5.203   3.653  1.00 20.00     0.123 C 
HETATM    5  C6  UNL     1     -33.700   6.691   5.307  1.00 20.00     0.123 C 
HETATM    6  N7  UNL     1     -33.656   6.028   4.009  1.00 20.00    -0.381 N 
ENDROOT
BRANCH   6   7
HETATM    7  C1  UNL     1     -32.629   6.225   3.145  1.00 20.00     0.168 C 
HETATM    8  S8  UNL     1     -32.129   7.734   2.650  1.00 20.00    -0.074 SA
ENDBRANCH   6   7
TORSDOF 1
ENDMDL
MODEL 2
REMARK VINA RESULT:      -3.6     11.854     12.506
REMARK  1 active torsions:
REMARK  status: ('A' for Active; 'I' for Inactive)
REMARK    1  A    between atoms: C1_1  and  N7_7 
ROOT
HETATM    1  C2  UNL     1     -34.766  13.501  -4.491  1.00 20.00     0.003 C 
HETATM    2  C3  UNL     1     -33.415  13.636  -3.787  1.00 20.00     0.020 C 
HETATM    3  C4  UNL     1     -35.818  14.393  -3.832  1.00 20.00     0.020 C 
HETATM    4  C5  UNL     1     -32.976  15.096  -3.710  1.00 20.00     0.123 C 
HETATM    5  C6  UNL     1     -35.344  15.842  -3.754  1.00 20.00     0.123 C 
HETATM    6  N7  UNL     1     -34.027  15.926  -3.134  1.00 20.00    -0.381 N 
ENDROOT
BRANCH   6   7
HETATM    7  C1  UNL     1     -33.775  16.787  -2.117  1.00 20.00     0.168 C 
HETATM    8  S8  UNL     1     -34.668  16.830  -0.713  1.00 20.00    -0.074 SA
ENDBRANCH   6   7
TORSDOF 1
ENDMDL
MODEL 3
REMARK VINA RESULT:      -3.5      0.672      1.889
REMARK  1 active torsions:
REMARK  status: ('A' for Active; 'I' for Inactive)
REMARK    1  A    between atoms: C1_1  and  N7_7 
ROOT
HETATM    1  C2  UNL     1     -34.994   4.710   5.974  1.00 20.00     0.003 C 
HETATM    2  C3  UNL     1     -34.354   6.048   6.348  1.00 20.00     0.020 C 
HETATM    3  C4  UNL     1     -35.466   4.716   4.520  1.00 20.00     0.020 C 
HETATM    4  C5  UNL     1     -33.239   6.418   5.374  1.00 20.00     0.123 C 
HETATM    5  C6  UNL     1     -34.335   5.106   3.572  1.00 20.00     0.123 C 
HETATM    6  N7  UNL     1     -33.708   6.353   3.995  1.00 20.00    -0.381 N 
ENDROOT
BRANCH   6   7
HETATM    7  C1  UNL     1     -33.508   7.377   3.128  1.00 20.00     0.168 C 
HETATM    8  S8  UNL     1     -32.014   7.770   2.508  1.00 20.00    -0.074 SA
ENDBRANCH   6   7
TORSDOF 1
ENDMDL
MODEL 4
REMARK VINA RESULT:      -3.4      9.538     10.482
REMARK  1 active torsions:
REMARK  status: ('A' for Active; 'I' for Inactive)
REMARK    1  A    between atoms: C1_1  and  N7_7 
ROOT
HETATM    1  C2  UNL     1     -41.106   7.205  -0.813  1.00 20.00     0.003 C 
HETATM    2  C3  UNL     1     -42.341   7.128  -1.710  1.00 20.00     0.020 C 
HETATM    3  C4  UNL     1     -40.860   5.871  -0.106  1.00 20.00     0.020 C 
HETATM    4  C5  UNL     1     -42.243   5.960  -2.687  1.00 20.00     0.123 C 
HETATM    5  C6  UNL     1     -40.783   4.720  -1.105  1.00 20.00     0.123 C 
HETATM    6  N7  UNL     1     -41.947   4.717  -1.985  1.00 20.00    -0.381 N 
ENDROOT
BRANCH   6   7
HETATM    7  C1  UNL     1     -42.676   3.592  -2.193  1.00 20.00     0.168 C 
HETATM    8  S8  UNL     1     -42.171   2.345  -3.173  1.00 20.00    -0.074 SA
ENDBRANCH   6   7
TORSDOF 1
ENDMDL
MODEL 5
REMARK VINA RESULT:      -3.4     12.488     12.860
REMARK  1 active torsions:
REMARK  status: ('A' for Active; 'I' for Inactive)
REMARK    1  A    between atoms: C1_1  and  N7_7 
ROOT
HETATM    1  C2  UNL     1     -34.703  15.917  -2.212  1.00 20.00     0.003 C 
HETATM    2  C3  UNL     1     -33.473  15.633  -3.076  1.00 20.00     0.020 C 
HETATM    3  C4  UNL     1     -35.980  15.881  -3.052  1.00 20.00     0.020 C 
HETATM    4  C5  UNL     1     -33.628  14.324  -3.846  1.00 20.00     0.123 C 
HETATM    5  C6  UNL     1     -36.100  14.569  -3.822  1.00 20.00     0.123 C 
HETATM    6  N7  UNL     1     -34.886  14.301  -4.584  1.00 20.00    -0.381 N 
ENDROOT
BRANCH   6   7
HETATM    7  C1  UNL     1     -34.930  13.975  -5.900  1.00 20.00     0.168 C 
HETATM    8  S8  UNL     1     -34.599  15.057  -7.121  1.00 20.00    -0.074 SA
ENDBRANCH   6   7
TORSDOF 1
ENDMDL
MODEL 6
REMARK VINA RESULT:      -3.4     12.265     13.482
REMARK  1 active torsions:
REMARK  status: ('A' for Active; 'I' for Inactive)
REMARK    1  A    between atoms: C1_1  and  N7_7 
ROOT
HETATM    1  C2  UNL     1     -34.609  13.252  -4.812  1.00 20.00     0.003 C 
HETATM    2  C3  UNL     1     -34.153  13.976  -3.545  1.00 20.00     0.020 C 
HETATM    3  C4  UNL     1     -35.136  14.244  -5.850  1.00 20.00     0.020 C 
HETATM    4  C5  UNL     1     -33.142  15.073  -3.869  1.00 20.00     0.123 C 
HETATM    5  C6  UNL     1     -34.111  15.336  -6.141  1.00 20.00     0.123 C 
HETATM    6  N7  UNL     1     -33.653  15.962  -4.906  1.00 20.00    -0.381 N 
ENDROOT
BRANCH   6   7
HETATM    7  C1  UNL     1     -33.636  17.310  -4.757  1.00 20.00     0.168 C 
HETATM    8  S8  UNL     1     -33.951  18.073  -3.311  1.00 20.00    -0.074 SA
ENDBRANCH   6   7
TORSDOF 1
ENDMDL
MODEL 7
REMARK VINA RESULT:      -3.3     11.951     13.085
REMARK  1 active torsions:
REMARK  status: ('A' for Active; 'I' for Inactive)
REMARK    1  A    between atoms: C1_1  and  N7_7 
ROOT
HETATM    1  C2  UNL     1     -34.805  14.071  -5.805  1.00 20.00     0.003 C 
HETATM    2  C3  UNL     1     -35.137  13.748  -4.348  1.00 20.00     0.020 C 
HETATM    3  C4  UNL     1     -34.496  15.558  -5.980  1.00 20.00     0.020 C 
HETATM    4  C5  UNL     1     -34.032  14.228  -3.411  1.00 20.00     0.123 C 
HETATM    5  C6  UNL     1     -33.401  16.012  -5.019  1.00 20.00     0.123 C 
HETATM    6  N7  UNL     1     -33.722  15.633  -3.648  1.00 20.00    -0.381 N 
ENDROOT
BRANCH   6   7
HETATM    7  C1  UNL     1     -33.664  16.528  -2.631  1.00 20.00     0.168 C 
HETATM    8  S8  UNL     1     -34.708  16.506  -1.334  1.00 20.00    -0.074 SA
ENDBRANCH   6   7
TORSDOF 1
ENDMDL
MODEL 8
REMARK VINA RESULT:      -3.3     12.454     13.612
REMARK  1 active torsions:
REMARK  status: ('A' for Active; 'I' for Inactive)
REMARK    1  A    between atoms: C1_1  and  N7_7 
ROOT
HETATM    1  C2  UNL     1     -33.345  13.777  -3.741  1.00 20.00     0.003 C 
HETATM    2  C3  UNL     1     -33.231  15.284  -3.508  1.00 20.00     0.020 C 
HETATM    3  C4  UNL     1     -34.639  13.433  -4.479  1.00 20.00     0.020 C 
HETATM    4  C5  UNL     1     -33.380  16.058  -4.816  1.00 20.00     0.123 C 
HETATM    5  C6  UNL     1     -34.768  14.233  -5.773  1.00 20.00     0.123 C 
HETATM    6  N7  UNL     1     -34.592  15.659  -5.522  1.00 20.00    -0.381 N 
ENDROOT
BRANCH   6   7
HETATM    7  C1  UNL     1     -35.478  16.576  -5.985  1.00 20.00     0.168 C 
HETATM    8  S8  UNL     1     -36.466  17.475  -4.992  1.00 20.00    -0.074 SA
ENDBRANCH   6   7
TORSDOF 1
ENDMDL
MODEL 9
REMARK VINA RESULT:      -3.3      9.727     10.555
REMARK  1 active torsions:
REMARK  status: ('A' for Active; 'I' for Inactive)
REMARK    1  A    between atoms: C1_1  and  N7_7 
ROOT
HETATM    1  C2  UNL     1     -40.815   5.587  -0.311  1.00 20.00     0.003 C 
HETATM    2  C3  UNL     1     -41.145   4.678  -1.496  1.00 20.00     0.020 C 
HETATM    3  C4  UNL     1     -40.910   7.060  -0.708  1.00 20.00     0.020 C 
HETATM    4  C5  UNL     1     -42.499   5.032  -2.104  1.00 20.00     0.123 C 
HETATM    5  C6  UNL     1     -42.268   7.380  -1.328  1.00 20.00     0.123 C 
HETATM    6  N7  UNL     1     -42.576   6.455  -2.412  1.00 20.00    -0.381 N 
ENDROOT
BRANCH   6   7
HETATM    7  C1  UNL     1     -42.983   6.897  -3.629  1.00 20.00     0.168 C 
HETATM    8  S8  UNL     1     -42.553   8.379  -4.253  1.00 20.00    -0.074 SA
ENDBRANCH   6   7
TORSDOF 1
ENDMDL
