MODEL 1
REMARK VINA RESULT:      -4.0      0.000      0.000
REMARK  2 active torsions:
REMARK  status: ('A' for Active; 'I' for Inactive)
REMARK    1  A    between atoms: C1_1  and  C3_3 
REMARK    2  A    between atoms: C2_2  and  C4_4 
ROOT
HETATM    1  C1  UNL     1     -33.908   6.073   4.347  1.00 20.00    -0.015 C 
HETATM    2  C2  UNL     1     -33.027   6.184   3.341  1.00 20.00    -0.015 C 
ENDROOT
BRANCH   1   3
HETATM    3  C3  UNL     1     -35.026   5.083   4.362  1.00 20.00     0.141 C 
HETATM    4 CL5  UNL     1     -35.028   4.195   5.901  1.00 20.00    -0.126 Cl
ENDBRANCH   1   3
BRANCH   2   5
HETATM    5  C4  UNL     1     -31.920   7.185   3.319  1.00 20.00     0.141 C 
HETATM    6 CL6  UNL     1     -32.084   8.236   1.895  1.00 20.00    -0.126 Cl
ENDBRANCH   2   5
TORSDOF 2
ENDMDL
MODEL 2
REMARK VINA RESULT:      -4.0      0.026      4.396
REMARK  2 active torsions:
REMARK  status: ('A' for Active; 'I' for Inactive)
REMARK    1  A    between atoms: C1_1  and  C3_3 
REMARK    2  A    between atoms: C2_2  and  C4_4 
ROOT
HETATM    1  C1  UNL     1     -33.048   6.182   3.341  1.00 20.00    -0.015 C 
HETATM    2  C2  UNL     1     -33.930   6.076   4.345  1.00 20.00    -0.015 C 
ENDROOT
BRANCH   1   3
HETATM    3  C3  UNL     1     -31.934   7.177   3.319  1.00 20.00     0.141 C 
HETATM    4 CL5  UNL     1     -32.082   8.221   1.890  1.00 20.00    -0.126 Cl
ENDBRANCH   1   3
BRANCH   2   5
HETATM    5  C4  UNL     1     -35.054   5.093   4.358  1.00 20.00     0.141 C 
HETATM    6 CL6  UNL     1     -35.030   4.166   5.874  1.00 20.00    -0.126 Cl
ENDBRANCH   2   5
TORSDOF 2
ENDMDL
MODEL 3
REMARK VINA RESULT:      -3.8      1.132      4.120
REMARK  2 active torsions:
REMARK  status: ('A' for Active; 'I' for Inactive)
REMARK    1  A    between atoms: C1_1  and  C3_3 
REMARK    2  A    between atoms: C2_2  and  C4_4 
ROOT
HETATM    1  C1  UNL     1     -33.391   6.136   3.946  1.00 20.00    -0.015 C 
HETATM    2  C2  UNL     1     -34.547   5.508   3.685  1.00 20.00    -0.015 C 
ENDROOT
BRANCH   1   3
HETATM    3  C3  UNL     1     -32.598   6.871   2.916  1.00 20.00     0.141 C 
HETATM    4 CL5  UNL     1     -31.283   7.775   3.697  1.00 20.00    -0.126 Cl
ENDBRANCH   1   3
BRANCH   2   5
HETATM    5  C4  UNL     1     -35.331   4.758   4.711  1.00 20.00     0.141 C 
HETATM    6 CL6  UNL     1     -34.765   5.191   6.339  1.00 20.00    -0.126 Cl
ENDBRANCH   2   5
TORSDOF 2
ENDMDL
MODEL 4
REMARK VINA RESULT:      -3.5      1.224      4.413
REMARK  2 active torsions:
REMARK  status: ('A' for Active; 'I' for Inactive)
REMARK    1  A    between atoms: C1_1  and  C3_3 
REMARK    2  A    between atoms: C2_2  and  C4_4 
ROOT
HETATM    1  C1  UNL     1     -32.292   7.385   3.123  1.00 20.00    -0.015 C 
HETATM    2  C2  UNL     1     -33.305   6.513   3.233  1.00 20.00    -0.015 C 
ENDROOT
BRANCH   1   3
HETATM    3  C3  UNL     1     -31.880   8.016   1.834  1.00 20.00     0.141 C 
HETATM    4 CL5  UNL     1     -32.558   9.654   1.718  1.00 20.00    -0.126 Cl
ENDBRANCH   1   3
BRANCH   2   5
HETATM    5  C4  UNL     1     -33.705   5.869   4.519  1.00 20.00     0.141 C 
HETATM    6 CL6  UNL     1     -35.285   5.077   4.332  1.00 20.00    -0.126 Cl
ENDBRANCH   2   5
TORSDOF 2
ENDMDL
MODEL 5
REMARK VINA RESULT:      -3.4      1.200      1.549
REMARK  2 active torsions:
REMARK  status: ('A' for Active; 'I' for Inactive)
REMARK    1  A    between atoms: C1_1  and  C3_3 
REMARK    2  A    between atoms: C2_2  and  C4_4 
ROOT
HETATM    1  C1  UNL     1     -33.320   6.593   3.280  1.00 20.00    -0.015 C 
HETATM    2  C2  UNL     1     -32.205   7.318   3.115  1.00 20.00    -0.015 C 
ENDROOT
BRANCH   1   3
HETATM    3  C3  UNL     1     -33.677   5.900   4.554  1.00 20.00     0.141 C 
HETATM    4 CL5  UNL     1     -35.216   5.034   4.363  1.00 20.00    -0.126 Cl
ENDBRANCH   1   3
BRANCH   2   5
HETATM    5  C4  UNL     1     -31.840   7.996   1.836  1.00 20.00     0.141 C 
HETATM    6 CL6  UNL     1     -32.602   9.599   1.763  1.00 20.00    -0.126 Cl
ENDBRANCH   2   5
TORSDOF 2
ENDMDL
MODEL 6
REMARK VINA RESULT:      -3.0      2.104      3.758
REMARK  2 active torsions:
REMARK  status: ('A' for Active; 'I' for Inactive)
REMARK    1  A    between atoms: C1_1  and  C3_3 
REMARK    2  A    between atoms: C2_2  and  C4_4 
ROOT
HETATM    1  C1  UNL     1     -34.373   5.895   4.090  1.00 20.00    -0.015 C 
HETATM    2  C2  UNL     1     -34.352   5.074   5.150  1.00 20.00    -0.015 C 
ENDROOT
BRANCH   1   3
HETATM    3  C3  UNL     1     -33.963   5.482   2.715  1.00 20.00     0.141 C 
HETATM    4 CL5  UNL     1     -32.264   5.916   2.434  1.00 20.00    -0.126 Cl
ENDBRANCH   1   3
BRANCH   2   5
HETATM    5  C4  UNL     1     -34.744   5.492   6.529  1.00 20.00     0.141 C 
HETATM    6 CL6  UNL     1     -33.974   7.041   6.933  1.00 20.00    -0.126 Cl
ENDBRANCH   2   5
TORSDOF 2
ENDMDL
MODEL 7
REMARK VINA RESULT:      -3.0      2.143      2.364
REMARK  2 active torsions:
REMARK  status: ('A' for Active; 'I' for Inactive)
REMARK    1  A    between atoms: C1_1  and  C3_3 
REMARK    2  A    between atoms: C2_2  and  C4_4 
ROOT
HETATM    1  C1  UNL     1     -34.285   5.137   5.161  1.00 20.00    -0.015 C 
HETATM    2  C2  UNL     1     -34.425   5.904   4.070  1.00 20.00    -0.015 C 
ENDROOT
BRANCH   1   3
HETATM    3  C3  UNL     1     -34.701   5.562   6.531  1.00 20.00     0.141 C 
HETATM    4 CL5  UNL     1     -33.937   7.112   6.941  1.00 20.00    -0.126 Cl
ENDBRANCH   1   3
BRANCH   2   5
HETATM    5  C4  UNL     1     -33.993   5.485   2.703  1.00 20.00     0.141 C 
HETATM    6 CL6  UNL     1     -32.277   5.882   2.464  1.00 20.00    -0.126 Cl
ENDBRANCH   2   5
TORSDOF 2
ENDMDL
MODEL 8
REMARK VINA RESULT:      -3.0     11.358     11.671
REMARK  2 active torsions:
REMARK  status: ('A' for Active; 'I' for Inactive)
REMARK    1  A    between atoms: C1_1  and  C3_3 
REMARK    2  A    between atoms: C2_2  and  C4_4 
ROOT
HETATM    1  C1  UNL     1     -34.699  16.328  -1.400  1.00 20.00    -0.015 C 
HETATM    2  C2  UNL     1     -34.056  15.912  -2.501  1.00 20.00    -0.015 C 
ENDROOT
BRANCH   1   3
HETATM    3  C3  UNL     1     -34.188  17.403  -0.499  1.00 20.00     0.141 C 
HETATM    4 CL5  UNL     1     -35.135  17.435   1.004  1.00 20.00    -0.126 Cl
ENDBRANCH   1   3
BRANCH   2   5
HETATM    5  C4  UNL     1     -34.558  14.825  -3.391  1.00 20.00     0.141 C 
HETATM    6 CL6  UNL     1     -33.246  13.682  -3.750  1.00 20.00    -0.126 Cl
ENDBRANCH   2   5
TORSDOF 2
ENDMDL
MODEL 9
REMARK VINA RESULT:      -3.0     11.337     11.758
REMARK  2 active torsions:
REMARK  status: ('A' for Active; 'I' for Inactive)
REMARK    1  A    between atoms: C1_1  and  C3_3 
REMARK    2  A    between atoms: C2_2  and  C4_4 
ROOT
HETATM    1  C1  UNL     1     -34.054  15.870  -2.475  1.00 20.00    -0.015 C 
HETATM    2  C2  UNL     1     -34.727  16.330  -1.410  1.00 20.00    -0.015 C 
ENDROOT
BRANCH   1   3
HETATM    3  C3  UNL     1     -34.570  14.800  -3.380  1.00 20.00     0.141 C 
HETATM    4 CL5  UNL     1     -33.269  13.652  -3.763  1.00 20.00    -0.126 Cl
ENDBRANCH   1   3
BRANCH   2   5
HETATM    5  C4  UNL     1     -34.203  17.387  -0.495  1.00 20.00     0.141 C 
HETATM    6 CL6  UNL     1     -35.148  17.407   1.010  1.00 20.00    -0.126 Cl
ENDBRANCH   2   5
TORSDOF 2
ENDMDL
