MODEL 1
REMARK VINA RESULT:      -3.6      0.000      0.000
REMARK  1 active torsions:
REMARK  status: ('A' for Active; 'I' for Inactive)
REMARK    1  A    between atoms: C7_7  and  C8_8 
ROOT
HETATM    1  C1  UNL     1     -36.351  15.124  -3.406  1.00 20.00     0.015 C 
HETATM    2  C2  UNL     1     -35.486  15.202  -5.735  1.00 20.00     0.015 C 
HETATM    3  C3  UNL     1     -34.963  13.255  -4.281  1.00 20.00     0.015 C 
HETATM    4  C7  UNL     1     -35.120  14.795  -4.287  1.00 20.00    -0.045 C 
ENDROOT
BRANCH   4   5
HETATM    5  C8  UNL     1     -33.801  15.532  -3.772  1.00 20.00    -0.045 C 
HETATM    6  C4  UNL     1     -33.326  16.627  -4.756  1.00 20.00     0.015 C 
HETATM    7  C5  UNL     1     -32.620  14.547  -3.592  1.00 20.00     0.015 C 
HETATM    8  C6  UNL     1     -34.021  16.223  -2.403  1.00 20.00     0.015 C 
ENDBRANCH   4   5
TORSDOF 1
ENDMDL
MODEL 2
REMARK VINA RESULT:      -3.6      0.056      3.070
REMARK  1 active torsions:
REMARK  status: ('A' for Active; 'I' for Inactive)
REMARK    1  A    between atoms: C7_7  and  C8_8 
ROOT
HETATM    1  C1  UNL     1     -33.379  16.679  -4.682  1.00 20.00     0.015 C 
HETATM    2  C2  UNL     1     -34.075  16.179  -2.348  1.00 20.00     0.015 C 
HETATM    3  C3  UNL     1     -32.637  14.573  -3.587  1.00 20.00     0.015 C 
HETATM    4  C7  UNL     1     -33.837  15.540  -3.737  1.00 20.00    -0.045 C 
ENDROOT
BRANCH   4   5
HETATM    5  C8  UNL     1     -35.138  14.795  -4.286  1.00 20.00    -0.045 C 
HETATM    6  C4  UNL     1     -35.482  15.217  -5.734  1.00 20.00     0.015 C 
HETATM    7  C5  UNL     1     -36.387  15.099  -3.422  1.00 20.00     0.015 C 
HETATM    8  C6  UNL     1     -34.964  13.256  -4.296  1.00 20.00     0.015 C 
ENDBRANCH   4   5
TORSDOF 1
ENDMDL
MODEL 3
REMARK VINA RESULT:      -3.6      0.024      2.158
REMARK  1 active torsions:
REMARK  status: ('A' for Active; 'I' for Inactive)
REMARK    1  A    between atoms: C7_7  and  C8_8 
ROOT
HETATM    1  C1  UNL     1     -35.463  15.172  -5.750  1.00 20.00     0.015 C 
HETATM    2  C2  UNL     1     -34.943  13.241  -4.273  1.00 20.00     0.015 C 
HETATM    3  C3  UNL     1     -36.352  15.107  -3.428  1.00 20.00     0.015 C 
HETATM    4  C7  UNL     1     -35.110  14.779  -4.294  1.00 20.00    -0.045 C 
ENDROOT
BRANCH   4   5
HETATM    5  C8  UNL     1     -33.803  15.532  -3.771  1.00 20.00    -0.045 C 
HETATM    6  C4  UNL     1     -34.034  16.214  -2.402  1.00 20.00     0.015 C 
HETATM    7  C5  UNL     1     -33.340  16.638  -4.751  1.00 20.00     0.015 C 
HETATM    8  C6  UNL     1     -32.608  14.563  -3.593  1.00 20.00     0.015 C 
ENDBRANCH   4   5
TORSDOF 1
ENDMDL
MODEL 4
REMARK VINA RESULT:      -3.6      0.040      2.152
REMARK  1 active torsions:
REMARK  status: ('A' for Active; 'I' for Inactive)
REMARK    1  A    between atoms: C7_7  and  C8_8 
ROOT
HETATM    1  C1  UNL     1     -34.950  13.272  -4.273  1.00 20.00     0.015 C 
HETATM    2  C2  UNL     1     -36.319  15.139  -3.370  1.00 20.00     0.015 C 
HETATM    3  C3  UNL     1     -35.497  15.223  -5.715  1.00 20.00     0.015 C 
HETATM    4  C7  UNL     1     -35.106  14.813  -4.274  1.00 20.00    -0.045 C 
ENDROOT
BRANCH   4   5
HETATM    5  C8  UNL     1     -33.777  15.549  -3.783  1.00 20.00    -0.045 C 
HETATM    6  C4  UNL     1     -33.978  16.268  -2.428  1.00 20.00     0.015 C 
HETATM    7  C5  UNL     1     -33.302  16.621  -4.794  1.00 20.00     0.015 C 
HETATM    8  C6  UNL     1     -32.602  14.558  -3.595  1.00 20.00     0.015 C 
ENDBRANCH   4   5
TORSDOF 1
ENDMDL
MODEL 5
REMARK VINA RESULT:      -3.6      0.014      3.070
REMARK  1 active torsions:
REMARK  status: ('A' for Active; 'I' for Inactive)
REMARK    1  A    between atoms: C7_7  and  C8_8 
ROOT
HETATM    1  C1  UNL     1     -34.024  16.213  -2.386  1.00 20.00     0.015 C 
HETATM    2  C2  UNL     1     -32.618  14.553  -3.590  1.00 20.00     0.015 C 
HETATM    3  C3  UNL     1     -33.332  16.640  -4.736  1.00 20.00     0.015 C 
HETATM    4  C7  UNL     1     -33.803  15.534  -3.761  1.00 20.00    -0.045 C 
ENDROOT
BRANCH   4   5
HETATM    5  C8  UNL     1     -35.120  14.798  -4.283  1.00 20.00    -0.045 C 
HETATM    6  C4  UNL     1     -34.963  13.259  -4.288  1.00 20.00     0.015 C 
HETATM    7  C5  UNL     1     -35.483  15.217  -5.729  1.00 20.00     0.015 C 
HETATM    8  C6  UNL     1     -36.352  15.120  -3.401  1.00 20.00     0.015 C 
ENDBRANCH   4   5
TORSDOF 1
ENDMDL
MODEL 6
REMARK VINA RESULT:      -3.6      0.044      3.070
REMARK  1 active torsions:
REMARK  status: ('A' for Active; 'I' for Inactive)
REMARK    1  A    between atoms: C7_7  and  C8_8 
ROOT
HETATM    1  C1  UNL     1     -33.369  16.683  -4.703  1.00 20.00     0.015 C 
HETATM    2  C2  UNL     1     -34.053  16.204  -2.361  1.00 20.00     0.015 C 
HETATM    3  C3  UNL     1     -32.620  14.588  -3.592  1.00 20.00     0.015 C 
HETATM    4  C7  UNL     1     -33.822  15.552  -3.746  1.00 20.00    -0.045 C 
ENDROOT
BRANCH   4   5
HETATM    5  C8  UNL     1     -35.125  14.802  -4.281  1.00 20.00    -0.045 C 
HETATM    6  C4  UNL     1     -36.369  15.108  -3.414  1.00 20.00     0.015 C 
HETATM    7  C5  UNL     1     -34.948  13.264  -4.283  1.00 20.00     0.015 C 
HETATM    8  C6  UNL     1     -35.477  15.214  -5.731  1.00 20.00     0.015 C 
ENDBRANCH   4   5
TORSDOF 1
ENDMDL
MODEL 7
REMARK VINA RESULT:      -3.6      0.052      3.070
REMARK  1 active torsions:
REMARK  status: ('A' for Active; 'I' for Inactive)
REMARK    1  A    between atoms: C7_7  and  C8_8 
ROOT
HETATM    1  C1  UNL     1     -32.627  14.607  -3.595  1.00 20.00     0.015 C 
HETATM    2  C2  UNL     1     -33.385  16.695  -4.711  1.00 20.00     0.015 C 
HETATM    3  C3  UNL     1     -34.068  16.220  -2.368  1.00 20.00     0.015 C 
HETATM    4  C7  UNL     1     -33.833  15.566  -3.752  1.00 20.00    -0.045 C 
ENDROOT
BRANCH   4   5
HETATM    5  C8  UNL     1     -35.134  14.809  -4.284  1.00 20.00    -0.045 C 
HETATM    6  C4  UNL     1     -34.952  13.272  -4.284  1.00 20.00     0.015 C 
HETATM    7  C5  UNL     1     -35.491  15.218  -5.733  1.00 20.00     0.015 C 
HETATM    8  C6  UNL     1     -36.378  15.113  -3.413  1.00 20.00     0.015 C 
ENDBRANCH   4   5
TORSDOF 1
ENDMDL
MODEL 8
REMARK VINA RESULT:      -3.6      1.029      2.755
REMARK  1 active torsions:
REMARK  status: ('A' for Active; 'I' for Inactive)
REMARK    1  A    between atoms: C7_7  and  C8_8 
ROOT
HETATM    1  C1  UNL     1     -33.284  16.691  -5.217  1.00 20.00     0.015 C 
HETATM    2  C2  UNL     1     -34.432  14.954  -6.575  1.00 20.00     0.015 C 
HETATM    3  C3  UNL     1     -35.767  16.560  -5.227  1.00 20.00     0.015 C 
HETATM    4  C7  UNL     1     -34.477  15.704  -5.222  1.00 20.00    -0.045 C 
ENDROOT
BRANCH   4   5
HETATM    5  C8  UNL     1     -34.430  14.702  -3.979  1.00 20.00    -0.045 C 
HETATM    6  C4  UNL     1     -35.293  13.440  -4.217  1.00 20.00     0.015 C 
HETATM    7  C5  UNL     1     -34.954  15.365  -2.681  1.00 20.00     0.015 C 
HETATM    8  C6  UNL     1     -32.991  14.213  -3.683  1.00 20.00     0.015 C 
ENDBRANCH   4   5
TORSDOF 1
ENDMDL
MODEL 9
REMARK VINA RESULT:      -3.5      1.030      2.808
REMARK  1 active torsions:
REMARK  status: ('A' for Active; 'I' for Inactive)
REMARK    1  A    between atoms: C7_7  and  C8_8 
ROOT
HETATM    1  C1  UNL     1     -34.407  14.932  -6.574  1.00 20.00     0.015 C 
HETATM    2  C2  UNL     1     -35.781  16.553  -5.283  1.00 20.00     0.015 C 
HETATM    3  C3  UNL     1     -33.300  16.683  -5.198  1.00 20.00     0.015 C 
HETATM    4  C7  UNL     1     -34.493  15.696  -5.229  1.00 20.00    -0.045 C 
ENDROOT
BRANCH   4   5
HETATM    5  C8  UNL     1     -34.482  14.706  -3.977  1.00 20.00    -0.045 C 
HETATM    6  C4  UNL     1     -35.440  13.508  -4.176  1.00 20.00     0.015 C 
HETATM    7  C5  UNL     1     -34.918  15.417  -2.673  1.00 20.00     0.015 C 
HETATM    8  C6  UNL     1     -33.074  14.116  -3.718  1.00 20.00     0.015 C 
ENDBRANCH   4   5
TORSDOF 1
ENDMDL
