MODEL 1
REMARK VINA RESULT:      -4.6      0.000      0.000
REMARK  2 active torsions:
REMARK  status: ('A' for Active; 'I' for Inactive)
REMARK    1  A    between atoms: C6_6  and  C7_7 
REMARK    2  A    between atoms: C7_7  and  C8_8 
ROOT
HETATM    1  C1  UNL     1     -37.016  14.681  -3.820  1.00 20.00     0.069 C 
HETATM    2  C2  UNL     1     -34.509  13.242  -4.848  1.00 20.00     0.002 C 
HETATM    3  C3  UNL     1     -34.888  14.199  -5.977  1.00 20.00     0.002 C 
HETATM    4  C4  UNL     1     -34.636  14.039  -3.550  1.00 20.00     0.024 C 
HETATM    5  C5  UNL     1     -35.227  15.532  -5.310  1.00 20.00     0.024 C 
HETATM    6  C6  UNL     1     -35.622  15.170  -3.873  1.00 20.00     0.050 C 
HETATM    7  N9  UNL     1     -38.111  14.297  -3.777  1.00 20.00    -0.196 NA
ENDROOT
BRANCH   6   8
HETATM    8  C7  UNL     1     -35.465  16.354  -2.921  1.00 20.00     0.039 C 
BRANCH   8   9
HETATM    9  C8  UNL     1     -34.303  16.194  -1.951  1.00 20.00     0.116 C 
HETATM   10 CL10 UNL     1     -34.691  16.821  -0.333  1.00 20.00    -0.130 Cl
ENDBRANCH   8   9
ENDBRANCH   6   8
TORSDOF 2
ENDMDL
MODEL 2
REMARK VINA RESULT:      -4.5     11.642     12.607
REMARK  2 active torsions:
REMARK  status: ('A' for Active; 'I' for Inactive)
REMARK    1  A    between atoms: C6_6  and  C7_7 
REMARK    2  A    between atoms: C7_7  and  C8_8 
ROOT
HETATM    1  C1  UNL     1     -35.744   5.819   3.625  1.00 20.00     0.069 C 
HETATM    2  C2  UNL     1     -34.688   5.651   6.501  1.00 20.00     0.002 C 
HETATM    3  C3  UNL     1     -34.936   4.198   6.101  1.00 20.00     0.002 C 
HETATM    4  C4  UNL     1     -33.992   6.310   5.310  1.00 20.00     0.024 C 
HETATM    5  C5  UNL     1     -34.378   4.043   4.686  1.00 20.00     0.024 C 
HETATM    6  C6  UNL     1     -34.391   5.459   4.097  1.00 20.00     0.050 C 
HETATM    7  N9  UNL     1     -36.807   6.103   3.254  1.00 20.00    -0.196 NA
ENDROOT
BRANCH   6   8
HETATM    8  C7  UNL     1     -33.398   5.608   2.945  1.00 20.00     0.039 C 
BRANCH   8   9
HETATM    9  C8  UNL     1     -32.209   6.493   3.288  1.00 20.00     0.116 C 
HETATM   10 CL10 UNL     1     -32.120   7.928   2.241  1.00 20.00    -0.130 Cl
ENDBRANCH   8   9
ENDBRANCH   6   8
TORSDOF 2
ENDMDL
MODEL 3
REMARK VINA RESULT:      -4.4      0.791      1.360
REMARK  2 active torsions:
REMARK  status: ('A' for Active; 'I' for Inactive)
REMARK    1  A    between atoms: C6_6  and  C7_7 
REMARK    2  A    between atoms: C7_7  and  C8_8 
ROOT
HETATM    1  C1  UNL     1     -36.722  14.532  -4.040  1.00 20.00     0.069 C 
HETATM    2  C2  UNL     1     -35.334  14.333  -6.769  1.00 20.00     0.002 C 
HETATM    3  C3  UNL     1     -35.559  15.830  -6.566  1.00 20.00     0.002 C 
HETATM    4  C4  UNL     1     -34.811  13.794  -5.438  1.00 20.00     0.024 C 
HETATM    5  C5  UNL     1     -35.161  16.129  -5.119  1.00 20.00     0.024 C 
HETATM    6  C6  UNL     1     -35.308  14.791  -4.383  1.00 20.00     0.050 C 
HETATM    7  N9  UNL     1     -37.832  14.328  -3.771  1.00 20.00    -0.196 NA
ENDROOT
BRANCH   6   8
HETATM    8  C7  UNL     1     -34.463  14.744  -3.111  1.00 20.00     0.039 C 
BRANCH   8   9
HETATM    9  C8  UNL     1     -34.053  16.122  -2.612  1.00 20.00     0.116 C 
HETATM   10 CL10 UNL     1     -34.635  16.436  -0.961  1.00 20.00    -0.130 Cl
ENDBRANCH   8   9
ENDBRANCH   6   8
TORSDOF 2
ENDMDL
MODEL 4
REMARK VINA RESULT:      -4.3      2.114      2.606
REMARK  2 active torsions:
REMARK  status: ('A' for Active; 'I' for Inactive)
REMARK    1  A    between atoms: C6_6  and  C7_7 
REMARK    2  A    between atoms: C7_7  and  C8_8 
ROOT
HETATM    1  C1  UNL     1     -33.839  16.332  -4.751  1.00 20.00     0.069 C 
HETATM    2  C2  UNL     1     -35.594  13.846  -4.353  1.00 20.00     0.002 C 
HETATM    3  C3  UNL     1     -34.173  13.295  -4.457  1.00 20.00     0.002 C 
HETATM    4  C4  UNL     1     -35.514  15.064  -3.433  1.00 20.00     0.024 C 
HETATM    5  C5  UNL     1     -33.298  14.206  -3.594  1.00 20.00     0.024 C 
HETATM    6  C6  UNL     1     -34.057  15.536  -3.524  1.00 20.00     0.050 C 
HETATM    7  N9  UNL     1     -33.668  16.957  -5.714  1.00 20.00    -0.196 NA
ENDROOT
BRANCH   6   8
HETATM    8  C7  UNL     1     -33.648  16.364  -2.306  1.00 20.00     0.039 C 
BRANCH   8   9
HETATM    9  C8  UNL     1     -34.737  16.451  -1.247  1.00 20.00     0.116 C 
HETATM   10 CL10 UNL     1     -34.298  17.556   0.075  1.00 20.00    -0.130 Cl
ENDBRANCH   8   9
ENDBRANCH   6   8
TORSDOF 2
ENDMDL
MODEL 5
REMARK VINA RESULT:      -4.3      2.006      2.743
REMARK  2 active torsions:
REMARK  status: ('A' for Active; 'I' for Inactive)
REMARK    1  A    between atoms: C6_6  and  C7_7 
REMARK    2  A    between atoms: C7_7  and  C8_8 
ROOT
HETATM    1  C1  UNL     1     -34.701  13.792  -5.001  1.00 20.00     0.069 C 
HETATM    2  C2  UNL     1     -35.740  14.626  -7.765  1.00 20.00     0.002 C 
HETATM    3  C3  UNL     1     -36.768  15.191  -6.786  1.00 20.00     0.002 C 
HETATM    4  C4  UNL     1     -34.367  14.942  -7.173  1.00 20.00     0.024 C 
HETATM    5  C5  UNL     1     -35.969  15.823  -5.646  1.00 20.00     0.024 C 
HETATM    6  C6  UNL     1     -34.612  15.109  -5.667  1.00 20.00     0.050 C 
HETATM    7  N9  UNL     1     -34.769  12.759  -4.477  1.00 20.00    -0.196 NA
ENDROOT
BRANCH   6   8
HETATM    8  C7  UNL     1     -33.518  15.940  -5.000  1.00 20.00     0.039 C 
BRANCH   8   9
HETATM    9  C8  UNL     1     -34.048  16.878  -3.926  1.00 20.00     0.116 C 
HETATM   10 CL10 UNL     1     -34.012  16.135  -2.311  1.00 20.00    -0.130 Cl
ENDBRANCH   8   9
ENDBRANCH   6   8
TORSDOF 2
ENDMDL
MODEL 6
REMARK VINA RESULT:      -4.3      1.584      2.066
REMARK  2 active torsions:
REMARK  status: ('A' for Active; 'I' for Inactive)
REMARK    1  A    between atoms: C6_6  and  C7_7 
REMARK    2  A    between atoms: C7_7  and  C8_8 
ROOT
HETATM    1  C1  UNL     1     -34.862  13.823  -4.354  1.00 20.00     0.069 C 
HETATM    2  C2  UNL     1     -33.794  16.170  -6.018  1.00 20.00     0.002 C 
HETATM    3  C3  UNL     1     -35.305  16.203  -6.241  1.00 20.00     0.002 C 
HETATM    4  C4  UNL     1     -33.587  15.943  -4.521  1.00 20.00     0.024 C 
HETATM    5  C5  UNL     1     -35.943  15.995  -4.866  1.00 20.00     0.024 C 
HETATM    6  C6  UNL     1     -34.877  15.267  -4.039  1.00 20.00     0.050 C 
HETATM    7  N9  UNL     1     -34.850  12.689  -4.602  1.00 20.00    -0.196 NA
ENDROOT
BRANCH   6   8
HETATM    8  C7  UNL     1     -35.093  15.454  -2.538  1.00 20.00     0.039 C 
BRANCH   8   9
HETATM    9  C8  UNL     1     -34.147  16.472  -1.918  1.00 20.00     0.116 C 
HETATM   10 CL10 UNL     1     -34.639  16.926  -0.270  1.00 20.00    -0.130 Cl
ENDBRANCH   8   9
ENDBRANCH   6   8
TORSDOF 2
ENDMDL
MODEL 7
REMARK VINA RESULT:      -4.2      1.878      2.366
REMARK  2 active torsions:
REMARK  status: ('A' for Active; 'I' for Inactive)
REMARK    1  A    between atoms: C6_6  and  C7_7 
REMARK    2  A    between atoms: C7_7  and  C8_8 
ROOT
HETATM    1  C1  UNL     1     -33.899  13.951  -4.031  1.00 20.00     0.069 C 
HETATM    2  C2  UNL     1     -34.058  15.444  -6.707  1.00 20.00     0.002 C 
HETATM    3  C3  UNL     1     -35.262  14.503  -6.724  1.00 20.00     0.002 C 
HETATM    4  C4  UNL     1     -34.025  16.070  -5.313  1.00 20.00     0.024 C 
HETATM    5  C5  UNL     1     -35.902  14.603  -5.339  1.00 20.00     0.024 C 
HETATM    6  C6  UNL     1     -34.775  15.078  -4.413  1.00 20.00     0.050 C 
HETATM    7  N9  UNL     1     -33.211  13.066  -3.729  1.00 20.00    -0.196 NA
ENDROOT
BRANCH   6   8
HETATM    8  C7  UNL     1     -35.316  15.749  -3.152  1.00 20.00     0.039 C 
BRANCH   8   9
HETATM    9  C8  UNL     1     -34.256  16.523  -2.382  1.00 20.00     0.116 C 
HETATM   10 CL10 UNL     1     -34.595  16.567  -0.637  1.00 20.00    -0.130 Cl
ENDBRANCH   8   9
ENDBRANCH   6   8
TORSDOF 2
ENDMDL
MODEL 8
REMARK VINA RESULT:      -4.1      1.937      2.432
REMARK  2 active torsions:
REMARK  status: ('A' for Active; 'I' for Inactive)
REMARK    1  A    between atoms: C6_6  and  C7_7 
REMARK    2  A    between atoms: C7_7  and  C8_8 
ROOT
HETATM    1  C1  UNL     1     -37.099  14.742  -4.057  1.00 20.00     0.069 C 
HETATM    2  C2  UNL     1     -34.277  13.654  -3.542  1.00 20.00     0.002 C 
HETATM    3  C3  UNL     1     -34.585  13.245  -4.981  1.00 20.00     0.002 C 
HETATM    4  C4  UNL     1     -34.735  15.105  -3.402  1.00 20.00     0.024 C 
HETATM    5  C5  UNL     1     -35.215  14.469  -5.647  1.00 20.00     0.024 C 
HETATM    6  C6  UNL     1     -35.798  15.293  -4.492  1.00 20.00     0.050 C 
HETATM    7  N9  UNL     1     -38.121  14.310  -3.716  1.00 20.00    -0.196 NA
ENDROOT
BRANCH   6   8
HETATM    8  C7  UNL     1     -35.973  16.763  -4.871  1.00 20.00     0.039 C 
BRANCH   8   9
HETATM    9  C8  UNL     1     -35.119  17.182  -6.059  1.00 20.00     0.116 C 
HETATM   10 CL10 UNL     1     -33.506  17.739  -5.560  1.00 20.00    -0.130 Cl
ENDBRANCH   8   9
ENDBRANCH   6   8
TORSDOF 2
ENDMDL
MODEL 9
REMARK VINA RESULT:      -4.1      2.952      4.121
REMARK  2 active torsions:
REMARK  status: ('A' for Active; 'I' for Inactive)
REMARK    1  A    between atoms: C6_6  and  C7_7 
REMARK    2  A    between atoms: C7_7  and  C8_8 
ROOT
HETATM    1  C1  UNL     1     -34.653  13.787  -4.752  1.00 20.00     0.069 C 
HETATM    2  C2  UNL     1     -35.229  16.147  -2.878  1.00 20.00     0.002 C 
HETATM    3  C3  UNL     1     -33.716  15.954  -2.791  1.00 20.00     0.002 C 
HETATM    4  C4  UNL     1     -35.589  16.050  -4.359  1.00 20.00     0.024 C 
HETATM    5  C5  UNL     1     -33.229  15.749  -4.226  1.00 20.00     0.024 C 
HETATM    6  C6  UNL     1     -34.454  15.233  -4.991  1.00 20.00     0.050 C 
HETATM    7  N9  UNL     1     -34.809  12.653  -4.565  1.00 20.00    -0.196 NA
ENDROOT
BRANCH   6   8
HETATM    8  C7  UNL     1     -34.337  15.485  -6.494  1.00 20.00     0.039 C 
BRANCH   8   9
HETATM    9  C8  UNL     1     -35.151  14.509  -7.331  1.00 20.00     0.116 C 
HETATM   10 CL10 UNL     1     -36.817  15.074  -7.587  1.00 20.00    -0.130 Cl
ENDBRANCH   8   9
ENDBRANCH   6   8
TORSDOF 2
ENDMDL
