MODEL 1
REMARK VINA RESULT:      -4.4      0.000      0.000
REMARK  2 active torsions:
REMARK  status: ('A' for Active; 'I' for Inactive)
REMARK    1  A    between atoms: C3_3  and  C5_5 
REMARK    2  A    between atoms: C5_5  and  N6_6 
ROOT
HETATM    1  C1  UNL     1     -32.441   7.040   2.968  1.00 20.00     0.157 C 
HETATM    2  N6  UNL     1     -32.692   6.136   3.675  1.00 20.00    -0.271 NA
HETATM    3  S7  UNL     1     -32.073   8.261   2.014  1.00 20.00    -0.055 SA
ENDROOT
BRANCH   2   4
HETATM    4  C5  UNL     1     -34.121   5.891   3.878  1.00 20.00     0.183 C 
BRANCH   4   5
HETATM    5  C3  UNL     1     -34.380   5.488   5.303  1.00 20.00    -0.073 C 
HETATM    6  C2  UNL     1     -34.932   4.305   5.611  1.00 20.00     0.015 C 
HETATM    7  C4  UNL     1     -34.019   6.486   6.366  1.00 20.00     0.044 C 
ENDBRANCH   4   5
ENDBRANCH   2   4
TORSDOF 2
ENDMDL
MODEL 2
REMARK VINA RESULT:      -4.4      0.071      1.329
REMARK  2 active torsions:
REMARK  status: ('A' for Active; 'I' for Inactive)
REMARK    1  A    between atoms: C3_3  and  C5_5 
REMARK    2  A    between atoms: C5_5  and  N6_6 
ROOT
HETATM    1  C1  UNL     1     -32.434   7.038   2.970  1.00 20.00     0.157 C 
HETATM    2  N6  UNL     1     -32.694   6.130   3.669  1.00 20.00    -0.271 NA
HETATM    3  S7  UNL     1     -32.055   8.263   2.026  1.00 20.00    -0.055 SA
ENDROOT
BRANCH   2   4
HETATM    4  C5  UNL     1     -34.122   5.938   3.925  1.00 20.00     0.183 C 
BRANCH   4   5
HETATM    5  C3  UNL     1     -34.349   5.614   5.376  1.00 20.00    -0.073 C 
HETATM    6  C2  UNL     1     -34.016   6.475   6.350  1.00 20.00     0.015 C 
HETATM    7  C4  UNL     1     -34.937   4.267   5.686  1.00 20.00     0.044 C 
ENDBRANCH   4   5
ENDBRANCH   2   4
TORSDOF 2
ENDMDL
MODEL 3
REMARK VINA RESULT:      -3.4      2.557      4.108
REMARK  2 active torsions:
REMARK  status: ('A' for Active; 'I' for Inactive)
REMARK    1  A    between atoms: C3_3  and  C5_5 
REMARK    2  A    between atoms: C5_5  and  N6_6 
ROOT
HETATM    1  C1  UNL     1     -34.362   5.599   4.722  1.00 20.00     0.157 C 
HETATM    2  N6  UNL     1     -34.079   6.456   3.970  1.00 20.00    -0.271 NA
HETATM    3  S7  UNL     1     -34.767   4.454   5.752  1.00 20.00    -0.055 SA
ENDROOT
BRANCH   2   4
HETATM    4  C5  UNL     1     -32.908   6.182   3.136  1.00 20.00     0.183 C 
BRANCH   4   5
HETATM    5  C3  UNL     1     -32.021   7.395   3.075  1.00 20.00    -0.073 C 
HETATM    6  C2  UNL     1     -31.223   7.736   4.098  1.00 20.00     0.015 C 
HETATM    7  C4  UNL     1     -32.094   8.226   1.825  1.00 20.00     0.044 C 
ENDBRANCH   4   5
ENDBRANCH   2   4
TORSDOF 2
ENDMDL
MODEL 4
REMARK VINA RESULT:      -3.1     11.586     11.802
REMARK  2 active torsions:
REMARK  status: ('A' for Active; 'I' for Inactive)
REMARK    1  A    between atoms: C3_3  and  C5_5 
REMARK    2  A    between atoms: C5_5  and  N6_6 
ROOT
HETATM    1  C1  UNL     1     -34.402  16.639  -1.274  1.00 20.00     0.157 C 
HETATM    2  N6  UNL     1     -34.070  16.128  -2.279  1.00 20.00    -0.271 NA
HETATM    3  S7  UNL     1     -34.825  17.342   0.091  1.00 20.00    -0.055 SA
ENDROOT
BRANCH   2   4
HETATM    4  C5  UNL     1     -35.096  15.302  -2.918  1.00 20.00     0.183 C 
BRANCH   4   5
HETATM    5  C3  UNL     1     -34.454  14.174  -3.677  1.00 20.00    -0.073 C 
HETATM    6  C2  UNL     1     -35.182  13.297  -4.384  1.00 20.00     0.015 C 
HETATM    7  C4  UNL     1     -32.959  14.058  -3.582  1.00 20.00     0.044 C 
ENDBRANCH   4   5
ENDBRANCH   2   4
TORSDOF 2
ENDMDL
MODEL 5
REMARK VINA RESULT:      -3.1     11.578     11.858
REMARK  2 active torsions:
REMARK  status: ('A' for Active; 'I' for Inactive)
REMARK    1  A    between atoms: C3_3  and  C5_5 
REMARK    2  A    between atoms: C5_5  and  N6_6 
ROOT
HETATM    1  C1  UNL     1     -34.354  16.657  -1.327  1.00 20.00     0.157 C 
HETATM    2  N6  UNL     1     -33.999  16.158  -2.329  1.00 20.00    -0.271 NA
HETATM    3  S7  UNL     1     -34.809  17.347   0.035  1.00 20.00    -0.055 SA
ENDROOT
BRANCH   2   4
HETATM    4  C5  UNL     1     -34.973  15.256  -2.947  1.00 20.00     0.183 C 
BRANCH   4   5
HETATM    5  C3  UNL     1     -34.264  14.143  -3.667  1.00 20.00    -0.073 C 
HETATM    6  C2  UNL     1     -32.934  13.989  -3.587  1.00 20.00     0.015 C 
HETATM    7  C4  UNL     1     -35.112  13.229  -4.504  1.00 20.00     0.044 C 
ENDBRANCH   4   5
ENDBRANCH   2   4
TORSDOF 2
ENDMDL
MODEL 6
REMARK VINA RESULT:      -3.1     11.678     12.411
REMARK  2 active torsions:
REMARK  status: ('A' for Active; 'I' for Inactive)
REMARK    1  A    between atoms: C3_3  and  C5_5 
REMARK    2  A    between atoms: C5_5  and  N6_6 
ROOT
HETATM    1  C1  UNL     1     -33.914  16.403  -2.426  1.00 20.00     0.157 C 
HETATM    2  N6  UNL     1     -33.414  16.203  -3.470  1.00 20.00    -0.271 NA
HETATM    3  S7  UNL     1     -34.591  16.702  -1.015  1.00 20.00    -0.055 SA
ENDROOT
BRANCH   2   4
HETATM    4  C5  UNL     1     -33.195  14.791  -3.788  1.00 20.00     0.183 C 
BRANCH   4   5
HETATM    5  C3  UNL     1     -34.297  14.284  -4.676  1.00 20.00    -0.073 C 
HETATM    6  C2  UNL     1     -35.122  13.302  -4.284  1.00 20.00     0.015 C 
HETATM    7  C4  UNL     1     -34.412  14.909  -6.038  1.00 20.00     0.044 C 
ENDBRANCH   4   5
ENDBRANCH   2   4
TORSDOF 2
ENDMDL
MODEL 7
REMARK VINA RESULT:      -3.1     11.589     12.293
REMARK  2 active torsions:
REMARK  status: ('A' for Active; 'I' for Inactive)
REMARK    1  A    between atoms: C3_3  and  C5_5 
REMARK    2  A    between atoms: C5_5  and  N6_6 
ROOT
HETATM    1  C1  UNL     1     -34.996  13.628  -5.561  1.00 20.00     0.157 C 
HETATM    2  N6  UNL     1     -34.751  13.080  -4.552  1.00 20.00    -0.271 NA
HETATM    3  S7  UNL     1     -35.349  14.353  -6.935  1.00 20.00    -0.055 SA
ENDROOT
BRANCH   2   4
HETATM    4  C5  UNL     1     -33.595  13.611  -3.827  1.00 20.00     0.183 C 
BRANCH   4   5
HETATM    5  C3  UNL     1     -33.779  15.079  -3.564  1.00 20.00    -0.073 C 
HETATM    6  C2  UNL     1     -33.071  16.007  -4.224  1.00 20.00     0.015 C 
HETATM    7  C4  UNL     1     -34.773  15.459  -2.502  1.00 20.00     0.044 C 
ENDBRANCH   4   5
ENDBRANCH   2   4
TORSDOF 2
ENDMDL
MODEL 8
REMARK VINA RESULT:      -3.1     11.759     12.033
REMARK  2 active torsions:
REMARK  status: ('A' for Active; 'I' for Inactive)
REMARK    1  A    between atoms: C3_3  and  C5_5 
REMARK    2  A    between atoms: C5_5  and  N6_6 
ROOT
HETATM    1  C1  UNL     1     -33.795  15.344  -3.076  1.00 20.00     0.157 C 
HETATM    2  N6  UNL     1     -33.783  16.313  -2.413  1.00 20.00    -0.271 NA
HETATM    3  S7  UNL     1     -33.789  14.040  -3.992  1.00 20.00    -0.055 SA
ENDROOT
BRANCH   2   4
HETATM    4  C5  UNL     1     -34.788  16.344  -1.349  1.00 20.00     0.183 C 
BRANCH   4   5
HETATM    5  C3  UNL     1     -34.398  17.346  -0.298  1.00 20.00    -0.073 C 
HETATM    6  C2  UNL     1     -35.122  17.511   0.819  1.00 20.00     0.015 C 
HETATM    7  C4  UNL     1     -33.175  18.176  -0.572  1.00 20.00     0.044 C 
ENDBRANCH   4   5
ENDBRANCH   2   4
TORSDOF 2
ENDMDL
MODEL 9
REMARK VINA RESULT:      -3.0     10.168     10.751
REMARK  2 active torsions:
REMARK  status: ('A' for Active; 'I' for Inactive)
REMARK    1  A    between atoms: C3_3  and  C5_5 
REMARK    2  A    between atoms: C5_5  and  N6_6 
ROOT
HETATM    1  C1  UNL     1     -41.843   2.871  -3.027  1.00 20.00     0.157 C 
HETATM    2  N6  UNL     1     -42.072   3.817  -2.368  1.00 20.00    -0.271 NA
HETATM    3  S7  UNL     1     -41.560   1.590  -3.930  1.00 20.00    -0.055 SA
ENDROOT
BRANCH   2   4
HETATM    4  C5  UNL     1     -40.969   4.250  -1.508  1.00 20.00     0.183 C 
BRANCH   4   5
HETATM    5  C3  UNL     1     -41.124   5.705  -1.161  1.00 20.00    -0.073 C 
HETATM    6  C2  UNL     1     -40.721   6.193   0.022  1.00 20.00     0.015 C 
HETATM    7  C4  UNL     1     -41.781   6.581  -2.190  1.00 20.00     0.044 C 
ENDBRANCH   4   5
ENDBRANCH   2   4
TORSDOF 2
ENDMDL
