MODEL 1
REMARK VINA RESULT:      -4.0      0.000      0.000
REMARK  2 active torsions:
REMARK  status: ('A' for Active; 'I' for Inactive)
REMARK    1  A    between atoms: C4_4  and  C5_5 
REMARK    2  A    between atoms: C4_4  and  C6_6 
ROOT
HETATM    1  C1  UNL     1     -34.537  13.687  -4.301  1.00 20.00     0.068 C 
HETATM    2  C2  UNL     1     -32.483  14.811  -3.572  1.00 20.00     0.031 C 
HETATM    3  C3  UNL     1     -34.046  15.942  -5.162  1.00 20.00     0.031 C 
HETATM    4  C6  UNL     1     -33.965  15.007  -3.945  1.00 20.00     0.043 C 
HETATM    5  N7  UNL     1     -34.985  12.654  -4.580  1.00 20.00    -0.196 NA
ENDROOT
BRANCH   4   6
HETATM    6  C4  UNL     1     -34.707  15.600  -2.719  1.00 20.00     0.039 C 
BRANCH   6   7
HETATM    7  C5  UNL     1     -33.918  16.644  -1.928  1.00 20.00     0.116 C 
HETATM    8 CL8  UNL     1     -34.644  16.872  -0.316  1.00 20.00    -0.130 Cl
ENDBRANCH   6   7
ENDBRANCH   4   6
TORSDOF 2
ENDMDL
MODEL 2
REMARK VINA RESULT:      -3.9     11.703     12.327
REMARK  2 active torsions:
REMARK  status: ('A' for Active; 'I' for Inactive)
REMARK    1  A    between atoms: C4_4  and  C5_5 
REMARK    2  A    between atoms: C4_4  and  C6_6 
ROOT
HETATM    1  C1  UNL     1     -34.225   6.159   5.546  1.00 20.00     0.068 C 
HETATM    2  C2  UNL     1     -34.717   3.922   4.669  1.00 20.00     0.031 C 
HETATM    3  C3  UNL     1     -35.904   5.925   3.759  1.00 20.00     0.031 C 
HETATM    4  C6  UNL     1     -34.564   5.413   4.311  1.00 20.00     0.043 C 
HETATM    5  N7  UNL     1     -33.960   6.743   6.512  1.00 20.00    -0.196 NA
ENDROOT
BRANCH   4   6
HETATM    6  C4  UNL     1     -33.425   5.555   3.269  1.00 20.00     0.039 C 
BRANCH   6   7
HETATM    7  C5  UNL     1     -32.366   6.605   3.607  1.00 20.00     0.116 C 
HETATM    8 CL8  UNL     1     -32.220   7.781   2.275  1.00 20.00    -0.130 Cl
ENDBRANCH   6   7
ENDBRANCH   4   6
TORSDOF 2
ENDMDL
MODEL 3
REMARK VINA RESULT:      -3.8      1.671      2.008
REMARK  2 active torsions:
REMARK  status: ('A' for Active; 'I' for Inactive)
REMARK    1  A    between atoms: C4_4  and  C5_5 
REMARK    2  A    between atoms: C4_4  and  C6_6 
ROOT
HETATM    1  C1  UNL     1     -36.760  14.455  -3.991  1.00 20.00     0.068 C 
HETATM    2  C2  UNL     1     -34.742  13.227  -4.651  1.00 20.00     0.031 C 
HETATM    3  C3  UNL     1     -35.132  15.554  -5.476  1.00 20.00     0.031 C 
HETATM    4  C6  UNL     1     -35.314  14.608  -4.279  1.00 20.00     0.043 C 
HETATM    5  N7  UNL     1     -37.891  14.334  -3.766  1.00 20.00    -0.196 NA
ENDROOT
BRANCH   4   6
HETATM    6  C4  UNL     1     -34.569  15.128  -3.022  1.00 20.00     0.039 C 
BRANCH   6   7
HETATM    7  C5  UNL     1     -35.154  16.397  -2.402  1.00 20.00     0.116 C 
HETATM    8 CL8  UNL     1     -34.633  16.548  -0.704  1.00 20.00    -0.130 Cl
ENDBRANCH   6   7
ENDBRANCH   4   6
TORSDOF 2
ENDMDL
MODEL 4
REMARK VINA RESULT:      -3.7      2.643      3.304
REMARK  2 active torsions:
REMARK  status: ('A' for Active; 'I' for Inactive)
REMARK    1  A    between atoms: C4_4  and  C5_5 
REMARK    2  A    between atoms: C4_4  and  C6_6 
ROOT
HETATM    1  C1  UNL     1     -34.711  13.795  -4.075  1.00 20.00     0.068 C 
HETATM    2  C2  UNL     1     -34.855  15.602  -2.422  1.00 20.00     0.031 C 
HETATM    3  C3  UNL     1     -32.728  15.198  -3.672  1.00 20.00     0.031 C 
HETATM    4  C6  UNL     1     -34.261  15.176  -3.778  1.00 20.00     0.043 C 
HETATM    5  N7  UNL     1     -35.065  12.715  -4.306  1.00 20.00    -0.196 NA
ENDROOT
BRANCH   4   6
HETATM    6  C4  UNL     1     -34.772  16.153  -4.868  1.00 20.00     0.039 C 
BRANCH   6   7
HETATM    7  C5  UNL     1     -33.887  16.257  -6.111  1.00 20.00     0.116 C 
HETATM    8 CL8  UNL     1     -34.355  15.018  -7.304  1.00 20.00    -0.130 Cl
ENDBRANCH   6   7
ENDBRANCH   4   6
TORSDOF 2
ENDMDL
MODEL 5
REMARK VINA RESULT:      -3.7      1.621      2.231
REMARK  2 active torsions:
REMARK  status: ('A' for Active; 'I' for Inactive)
REMARK    1  A    between atoms: C4_4  and  C5_5 
REMARK    2  A    between atoms: C4_4  and  C6_6 
ROOT
HETATM    1  C1  UNL     1     -34.714  13.841  -4.993  1.00 20.00     0.068 C 
HETATM    2  C2  UNL     1     -34.390  15.035  -7.111  1.00 20.00     0.031 C 
HETATM    3  C3  UNL     1     -35.938  15.944  -5.371  1.00 20.00     0.031 C 
HETATM    4  C6  UNL     1     -34.617  15.192  -5.595  1.00 20.00     0.043 C 
HETATM    5  N7  UNL     1     -34.789  12.784  -4.522  1.00 20.00    -0.196 NA
ENDROOT
BRANCH   4   6
HETATM    6  C4  UNL     1     -33.412  15.962  -4.993  1.00 20.00     0.039 C 
BRANCH   6   7
HETATM    7  C5  UNL     1     -33.773  16.994  -3.924  1.00 20.00     0.116 C 
HETATM    8 CL8  UNL     1     -33.842  16.218  -2.320  1.00 20.00    -0.130 Cl
ENDBRANCH   6   7
ENDBRANCH   4   6
TORSDOF 2
ENDMDL
MODEL 6
REMARK VINA RESULT:      -3.6      3.310      4.003
REMARK  2 active torsions:
REMARK  status: ('A' for Active; 'I' for Inactive)
REMARK    1  A    between atoms: C4_4  and  C5_5 
REMARK    2  A    between atoms: C4_4  and  C6_6 
ROOT
HETATM    1  C1  UNL     1     -36.839  14.493  -3.944  1.00 20.00     0.068 C 
HETATM    2  C2  UNL     1     -34.844  15.430  -2.869  1.00 20.00     0.031 C 
HETATM    3  C3  UNL     1     -34.676  13.359  -4.260  1.00 20.00     0.031 C 
HETATM    4  C6  UNL     1     -35.385  14.716  -4.122  1.00 20.00     0.043 C 
HETATM    5  N7  UNL     1     -37.978  14.319  -3.804  1.00 20.00    -0.196 NA
ENDROOT
BRANCH   4   6
HETATM    6  C4  UNL     1     -35.128  15.622  -5.355  1.00 20.00     0.039 C 
BRANCH   6   7
HETATM    7  C5  UNL     1     -34.402  14.942  -6.516  1.00 20.00     0.116 C 
HETATM    8 CL8  UNL     1     -35.580  14.353  -7.718  1.00 20.00    -0.130 Cl
ENDBRANCH   6   7
ENDBRANCH   4   6
TORSDOF 2
ENDMDL
MODEL 7
REMARK VINA RESULT:      -3.6      2.357      2.995
REMARK  2 active torsions:
REMARK  status: ('A' for Active; 'I' for Inactive)
REMARK    1  A    between atoms: C4_4  and  C5_5 
REMARK    2  A    between atoms: C4_4  and  C6_6 
ROOT
HETATM    1  C1  UNL     1     -36.528  14.602  -3.763  1.00 20.00     0.068 C 
HETATM    2  C2  UNL     1     -34.812  15.778  -2.464  1.00 20.00     0.031 C 
HETATM    3  C3  UNL     1     -34.250  13.670  -3.684  1.00 20.00     0.031 C 
HETATM    4  C6  UNL     1     -35.089  14.956  -3.737  1.00 20.00     0.043 C 
HETATM    5  N7  UNL     1     -37.654  14.326  -3.783  1.00 20.00    -0.196 NA
ENDROOT
BRANCH   4   6
HETATM    6  C4  UNL     1     -34.728  15.823  -4.972  1.00 20.00     0.039 C 
BRANCH   6   7
HETATM    7  C5  UNL     1     -33.328  16.437  -4.943  1.00 20.00     0.116 C 
HETATM    8 CL8  UNL     1     -33.435  18.216  -5.002  1.00 20.00    -0.130 Cl
ENDBRANCH   6   7
ENDBRANCH   4   6
TORSDOF 2
ENDMDL
MODEL 8
REMARK VINA RESULT:      -3.6     12.270     13.207
REMARK  2 active torsions:
REMARK  status: ('A' for Active; 'I' for Inactive)
REMARK    1  A    between atoms: C4_4  and  C5_5 
REMARK    2  A    between atoms: C4_4  and  C6_6 
ROOT
HETATM    1  C1  UNL     1     -42.744   5.134  -2.855  1.00 20.00     0.068 C 
HETATM    2  C2  UNL     1     -43.155   3.592  -0.992  1.00 20.00     0.031 C 
HETATM    3  C3  UNL     1     -41.719   2.895  -2.916  1.00 20.00     0.031 C 
HETATM    4  C6  UNL     1     -42.118   4.080  -2.022  1.00 20.00     0.043 C 
HETATM    5  N7  UNL     1     -43.234   5.959  -3.506  1.00 20.00    -0.196 NA
ENDROOT
BRANCH   4   6
HETATM    6  C4  UNL     1     -40.897   4.655  -1.257  1.00 20.00     0.039 C 
BRANCH   6   7
HETATM    7  C5  UNL     1     -41.237   5.674  -0.169  1.00 20.00     0.116 C 
HETATM    8 CL8  UNL     1     -40.978   7.330  -0.775  1.00 20.00    -0.130 Cl
ENDBRANCH   6   7
ENDBRANCH   4   6
TORSDOF 2
ENDMDL
MODEL 9
REMARK VINA RESULT:      -3.6      1.473      2.124
REMARK  2 active torsions:
REMARK  status: ('A' for Active; 'I' for Inactive)
REMARK    1  A    between atoms: C4_4  and  C5_5 
REMARK    2  A    between atoms: C4_4  and  C6_6 
ROOT
HETATM    1  C1  UNL     1     -33.985  15.703  -5.077  1.00 20.00     0.068 C 
HETATM    2  C2  UNL     1     -34.604  13.465  -4.288  1.00 20.00     0.031 C 
HETATM    3  C3  UNL     1     -32.474  14.530  -3.526  1.00 20.00     0.031 C 
HETATM    4  C6  UNL     1     -33.940  14.800  -3.903  1.00 20.00     0.043 C 
HETATM    5  N7  UNL     1     -34.021  16.409  -5.996  1.00 20.00    -0.196 NA
ENDROOT
BRANCH   4   6
HETATM    6  C4  UNL     1     -34.728  15.419  -2.719  1.00 20.00     0.039 C 
BRANCH   6   7
HETATM    7  C5  UNL     1     -34.034  16.589  -2.021  1.00 20.00     0.116 C 
HETATM    8 CL8  UNL     1     -34.673  16.785  -0.368  1.00 20.00    -0.130 Cl
ENDBRANCH   6   7
ENDBRANCH   4   6
TORSDOF 2
ENDMDL
