MODEL 1
REMARK VINA RESULT:      -4.5      0.000      0.000
REMARK  3 active torsions:
REMARK  status: ('A' for Active; 'I' for Inactive)
REMARK    1  A    between atoms: C6_6  and  C7_7 
REMARK    2  A    between atoms: C6_6  and  C8_8 
REMARK    3  A    between atoms: C7_7  and  C9_9 
ROOT
HETATM    1  C7  UNL     1     -33.826   7.089   3.709  1.00 20.00     0.008 C 
ENDROOT
BRANCH   1   2
HETATM    2  C6  UNL     1     -34.447   5.694   3.872  1.00 20.00     0.004 C 
BRANCH   2   3
HETATM    3  C8  UNL     1     -34.932   5.407   5.308  1.00 20.00    -0.023 C 
HETATM    4  C1  UNL     1     -34.160   6.205   6.359  1.00 20.00     0.009 C 
HETATM    5  C2  UNL     1     -34.813   3.911   5.606  1.00 20.00     0.009 C 
ENDBRANCH   2   3
ENDBRANCH   1   2
BRANCH   1   6
HETATM    6  C9  UNL     1     -32.359   7.119   3.198  1.00 20.00    -0.051 C 
HETATM    7  C3  UNL     1     -32.229   7.979   1.930  1.00 20.00     0.014 C 
HETATM    8  C4  UNL     1     -31.941   5.675   2.855  1.00 20.00     0.014 C 
HETATM    9  C5  UNL     1     -31.402   7.656   4.276  1.00 20.00     0.014 C 
ENDBRANCH   1   6
TORSDOF 3
ENDMDL
MODEL 2
REMARK VINA RESULT:      -4.5      0.034      1.444
REMARK  3 active torsions:
REMARK  status: ('A' for Active; 'I' for Inactive)
REMARK    1  A    between atoms: C6_6  and  C7_7 
REMARK    2  A    between atoms: C6_6  and  C8_8 
REMARK    3  A    between atoms: C7_7  and  C9_9 
ROOT
HETATM    1  C7  UNL     1     -33.828   7.082   3.705  1.00 20.00     0.008 C 
ENDROOT
BRANCH   1   2
HETATM    2  C6  UNL     1     -34.476   5.698   3.863  1.00 20.00     0.004 C 
BRANCH   2   3
HETATM    3  C8  UNL     1     -34.953   5.410   5.302  1.00 20.00    -0.023 C 
HETATM    4  C1  UNL     1     -34.169   6.201   6.349  1.00 20.00     0.009 C 
HETATM    5  C2  UNL     1     -34.838   3.912   5.596  1.00 20.00     0.009 C 
ENDBRANCH   2   3
ENDBRANCH   1   2
BRANCH   1   6
HETATM    6  C9  UNL     1     -32.372   7.087   3.165  1.00 20.00    -0.051 C 
HETATM    7  C3  UNL     1     -31.901   5.664   2.820  1.00 20.00     0.014 C 
HETATM    8  C4  UNL     1     -31.453   7.653   4.265  1.00 20.00     0.014 C 
HETATM    9  C5  UNL     1     -32.241   7.979   1.918  1.00 20.00     0.014 C 
ENDBRANCH   1   6
TORSDOF 3
ENDMDL
MODEL 3
REMARK VINA RESULT:      -4.4      0.827      4.183
REMARK  3 active torsions:
REMARK  status: ('A' for Active; 'I' for Inactive)
REMARK    1  A    between atoms: C6_6  and  C7_7 
REMARK    2  A    between atoms: C6_6  and  C8_8 
REMARK    3  A    between atoms: C7_7  and  C9_9 
ROOT
HETATM    1  C7  UNL     1     -33.190   5.392   4.029  1.00 20.00     0.008 C 
ENDROOT
BRANCH   1   2
HETATM    2  C6  UNL     1     -33.247   6.434   2.901  1.00 20.00     0.004 C 
BRANCH   2   3
HETATM    3  C8  UNL     1     -31.939   7.238   2.750  1.00 20.00    -0.023 C 
HETATM    4  C1  UNL     1     -31.383   7.713   4.092  1.00 20.00     0.009 C 
HETATM    5  C2  UNL     1     -32.175   8.442   1.835  1.00 20.00     0.009 C 
ENDBRANCH   2   3
ENDBRANCH   1   2
BRANCH   1   6
HETATM    6  C9  UNL     1     -34.457   5.297   4.923  1.00 20.00    -0.051 C 
HETATM    7  C3  UNL     1     -34.670   3.863   5.435  1.00 20.00     0.014 C 
HETATM    8  C4  UNL     1     -35.677   5.698   4.070  1.00 20.00     0.014 C 
HETATM    9  C5  UNL     1     -34.369   6.256   6.122  1.00 20.00     0.014 C 
ENDBRANCH   1   6
TORSDOF 3
ENDMDL
MODEL 4
REMARK VINA RESULT:      -4.4      0.824      4.186
REMARK  3 active torsions:
REMARK  status: ('A' for Active; 'I' for Inactive)
REMARK    1  A    between atoms: C6_6  and  C7_7 
REMARK    2  A    between atoms: C6_6  and  C8_8 
REMARK    3  A    between atoms: C7_7  and  C9_9 
ROOT
HETATM    1  C7  UNL     1     -33.175   5.427   4.057  1.00 20.00     0.008 C 
ENDROOT
BRANCH   1   2
HETATM    2  C6  UNL     1     -33.216   6.430   2.894  1.00 20.00     0.004 C 
BRANCH   2   3
HETATM    3  C8  UNL     1     -31.919   7.252   2.752  1.00 20.00    -0.023 C 
HETATM    4  C1  UNL     1     -31.382   7.738   4.098  1.00 20.00     0.009 C 
HETATM    5  C2  UNL     1     -32.163   8.450   1.832  1.00 20.00     0.009 C 
ENDBRANCH   2   3
ENDBRANCH   1   2
BRANCH   1   6
HETATM    6  C9  UNL     1     -34.474   5.319   4.901  1.00 20.00    -0.051 C 
HETATM    7  C3  UNL     1     -35.712   5.689   4.068  1.00 20.00     0.014 C 
HETATM    8  C4  UNL     1     -34.364   6.306   6.080  1.00 20.00     0.014 C 
HETATM    9  C5  UNL     1     -34.653   3.902   5.472  1.00 20.00     0.014 C 
ENDBRANCH   1   6
TORSDOF 3
ENDMDL
MODEL 5
REMARK VINA RESULT:      -4.3      0.825      4.181
REMARK  3 active torsions:
REMARK  status: ('A' for Active; 'I' for Inactive)
REMARK    1  A    between atoms: C6_6  and  C7_7 
REMARK    2  A    between atoms: C6_6  and  C8_8 
REMARK    3  A    between atoms: C7_7  and  C9_9 
ROOT
HETATM    1  C7  UNL     1     -33.182   5.404   4.033  1.00 20.00     0.008 C 
ENDROOT
BRANCH   1   2
HETATM    2  C6  UNL     1     -33.216   6.416   2.878  1.00 20.00     0.004 C 
BRANCH   2   3
HETATM    3  C8  UNL     1     -31.919   7.242   2.754  1.00 20.00    -0.023 C 
HETATM    4  C1  UNL     1     -31.404   7.733   4.107  1.00 20.00     0.009 C 
HETATM    5  C2  UNL     1     -32.152   8.436   1.826  1.00 20.00     0.009 C 
ENDBRANCH   2   3
ENDBRANCH   1   2
BRANCH   1   6
HETATM    6  C9  UNL     1     -34.469   5.326   4.899  1.00 20.00    -0.051 C 
HETATM    7  C3  UNL     1     -34.374   6.254   6.121  1.00 20.00     0.014 C 
HETATM    8  C4  UNL     1     -34.625   3.876   5.398  1.00 20.00     0.014 C 
HETATM    9  C5  UNL     1     -35.718   5.693   4.079  1.00 20.00     0.014 C 
ENDBRANCH   1   6
TORSDOF 3
ENDMDL
MODEL 6
REMARK VINA RESULT:      -3.8     11.100     12.127
REMARK  3 active torsions:
REMARK  status: ('A' for Active; 'I' for Inactive)
REMARK    1  A    between atoms: C6_6  and  C7_7 
REMARK    2  A    between atoms: C6_6  and  C8_8 
REMARK    3  A    between atoms: C7_7  and  C9_9 
ROOT
HETATM    1  C7  UNL     1     -33.735  16.082  -2.612  1.00 20.00     0.008 C 
ENDROOT
BRANCH   1   2
HETATM    2  C6  UNL     1     -34.742  16.246  -1.464  1.00 20.00     0.004 C 
BRANCH   2   3
HETATM    3  C8  UNL     1     -34.592  17.583  -0.709  1.00 20.00    -0.023 C 
HETATM    4  C1  UNL     1     -33.148  18.085  -0.686  1.00 20.00     0.009 C 
HETATM    5  C2  UNL     1     -35.107  17.430   0.724  1.00 20.00     0.009 C 
ENDBRANCH   2   3
ENDBRANCH   1   2
BRANCH   1   6
HETATM    6  C9  UNL     1     -34.184  15.155  -3.775  1.00 20.00    -0.051 C 
HETATM    7  C3  UNL     1     -35.669  14.780  -3.646  1.00 20.00     0.014 C 
HETATM    8  C4  UNL     1     -33.345  13.864  -3.711  1.00 20.00     0.014 C 
HETATM    9  C5  UNL     1     -33.945  15.820  -5.142  1.00 20.00     0.014 C 
ENDBRANCH   1   6
TORSDOF 3
ENDMDL
MODEL 7
REMARK VINA RESULT:      -3.8     11.062     12.116
REMARK  3 active torsions:
REMARK  status: ('A' for Active; 'I' for Inactive)
REMARK    1  A    between atoms: C6_6  and  C7_7 
REMARK    2  A    between atoms: C6_6  and  C8_8 
REMARK    3  A    between atoms: C7_7  and  C9_9 
ROOT
HETATM    1  C7  UNL     1     -33.786  16.003  -2.640  1.00 20.00     0.008 C 
ENDROOT
BRANCH   1   2
HETATM    2  C6  UNL     1     -34.901  16.358  -1.643  1.00 20.00     0.004 C 
BRANCH   2   3
HETATM    3  C8  UNL     1     -34.382  17.067  -0.376  1.00 20.00    -0.023 C 
HETATM    4  C1  UNL     1     -35.499  17.752   0.413  1.00 20.00     0.009 C 
HETATM    5  C2  UNL     1     -33.316  18.097  -0.759  1.00 20.00     0.009 C 
ENDBRANCH   2   3
ENDBRANCH   1   2
BRANCH   1   6
HETATM    6  C9  UNL     1     -34.199  15.066  -3.807  1.00 20.00    -0.051 C 
HETATM    7  C3  UNL     1     -33.971  15.740  -5.170  1.00 20.00     0.014 C 
HETATM    8  C4  UNL     1     -35.701  14.751  -3.662  1.00 20.00     0.014 C 
HETATM    9  C5  UNL     1     -33.420  13.740  -3.760  1.00 20.00     0.014 C 
ENDBRANCH   1   6
TORSDOF 3
ENDMDL
MODEL 8
REMARK VINA RESULT:      -3.7     11.435     12.818
REMARK  3 active torsions:
REMARK  status: ('A' for Active; 'I' for Inactive)
REMARK    1  A    between atoms: C6_6  and  C7_7 
REMARK    2  A    between atoms: C6_6  and  C8_8 
REMARK    3  A    between atoms: C7_7  and  C9_9 
ROOT
HETATM    1  C7  UNL     1     -33.866  15.608  -4.858  1.00 20.00     0.008 C 
ENDROOT
BRANCH   1   2
HETATM    2  C6  UNL     1     -33.298  15.407  -3.445  1.00 20.00     0.004 C 
BRANCH   2   3
HETATM    3  C8  UNL     1     -33.623  16.571  -2.486  1.00 20.00    -0.023 C 
HETATM    4  C1  UNL     1     -34.762  16.237  -1.522  1.00 20.00     0.009 C 
HETATM    5  C2  UNL     1     -33.981  17.822  -3.293  1.00 20.00     0.009 C 
ENDBRANCH   2   3
ENDBRANCH   1   2
BRANCH   1   6
HETATM    6  C9  UNL     1     -35.037  14.667  -5.254  1.00 20.00    -0.051 C 
HETATM    7  C3  UNL     1     -34.889  13.286  -4.595  1.00 20.00     0.014 C 
HETATM    8  C4  UNL     1     -35.009  14.485  -6.784  1.00 20.00     0.014 C 
HETATM    9  C5  UNL     1     -36.397  15.273  -4.864  1.00 20.00     0.014 C 
ENDBRANCH   1   6
TORSDOF 3
ENDMDL
MODEL 9
REMARK VINA RESULT:      -3.7     11.149     12.341
REMARK  3 active torsions:
REMARK  status: ('A' for Active; 'I' for Inactive)
REMARK    1  A    between atoms: C6_6  and  C7_7 
REMARK    2  A    between atoms: C6_6  and  C8_8 
REMARK    3  A    between atoms: C7_7  and  C9_9 
ROOT
HETATM    1  C7  UNL     1     -34.753  16.305  -1.405  1.00 20.00     0.008 C 
ENDROOT
BRANCH   1   2
HETATM    2  C6  UNL     1     -33.759  16.121  -2.561  1.00 20.00     0.004 C 
BRANCH   2   3
HETATM    3  C8  UNL     1     -34.294  15.210  -3.685  1.00 20.00    -0.023 C 
HETATM    4  C1  UNL     1     -35.777  14.877  -3.514  1.00 20.00     0.009 C 
HETATM    5  C2  UNL     1     -33.478  13.916  -3.737  1.00 20.00     0.009 C 
ENDBRANCH   2   3
ENDBRANCH   1   2
BRANCH   1   6
HETATM    6  C9  UNL     1     -34.627  17.636  -0.612  1.00 20.00    -0.051 C 
HETATM    7  C3  UNL     1     -35.144  17.478   0.827  1.00 20.00     0.014 C 
HETATM    8  C4  UNL     1     -35.481  18.702  -1.325  1.00 20.00     0.014 C 
HETATM    9  C5  UNL     1     -33.170  18.128  -0.577  1.00 20.00     0.014 C 
ENDBRANCH   1   6
TORSDOF 3
ENDMDL
