MODEL 1
REMARK VINA RESULT:      -4.7      0.000      0.000
REMARK  4 active torsions:
REMARK  status: ('A' for Active; 'I' for Inactive)
REMARK    1  A    between atoms: C1_1  and  C9_9 
REMARK    2  A    between atoms: C2_2  and  C7_7 
REMARK    3  A    between atoms: C2_2  and  C9_9 
REMARK    4  A    between atoms: C7_7  and  C8_8 
ROOT
HETATM    1  C5  UNL     1     -34.399  14.902  -6.622  1.00 20.00     0.031 C 
HETATM    2  C6  UNL     1     -36.251  15.147  -4.959  1.00 20.00     0.031 C 
HETATM    3  C9  UNL     1     -34.733  14.959  -5.125  1.00 20.00     0.073 C 
ENDROOT
BRANCH   3   4
HETATM    4  C1  UNL     1     -34.354  13.656  -4.398  1.00 20.00     0.138 C 
HETATM    5  C3  UNL     1     -33.045  13.598  -3.649  1.00 20.00     0.092 C 
HETATM    6  O10 UNL     1     -35.078  12.659  -4.450  1.00 20.00    -0.297 OA
ENDBRANCH   3   4
BRANCH   3   7
HETATM    7  C2  UNL     1     -33.998  16.171  -4.506  1.00 20.00     0.142 C 
HETATM    8  O11 UNL     1     -32.931  16.584  -4.965  1.00 20.00    -0.297 OA
BRANCH   7   9
HETATM    9  C7  UNL     1     -34.636  16.828  -3.285  1.00 20.00     0.079 C 
BRANCH   9  10
HETATM   10  C8  UNL     1     -33.790  16.708  -2.019  1.00 20.00     0.003 C 
HETATM   11  C4  UNL     1     -34.634  16.704  -0.752  1.00 20.00     0.005 C 
ENDBRANCH   9  10
ENDBRANCH   7   9
ENDBRANCH   3   7
TORSDOF 4
ENDMDL
MODEL 2
REMARK VINA RESULT:      -4.7      1.485      2.334
REMARK  4 active torsions:
REMARK  status: ('A' for Active; 'I' for Inactive)
REMARK    1  A    between atoms: C1_1  and  C9_9 
REMARK    2  A    between atoms: C2_2  and  C7_7 
REMARK    3  A    between atoms: C2_2  and  C9_9 
REMARK    4  A    between atoms: C7_7  and  C8_8 
ROOT
HETATM    1  C5  UNL     1     -32.532  14.434  -3.541  1.00 20.00     0.031 C 
HETATM    2  C6  UNL     1     -33.459  16.064  -5.196  1.00 20.00     0.031 C 
HETATM    3  C9  UNL     1     -33.823  14.978  -4.169  1.00 20.00     0.073 C 
ENDROOT
BRANCH   3   4
HETATM    4  C1  UNL     1     -34.604  13.885  -4.920  1.00 20.00     0.138 C 
HETATM    5  C3  UNL     1     -35.214  14.220  -6.260  1.00 20.00     0.092 C 
HETATM    6  O10 UNL     1     -34.769  12.765  -4.432  1.00 20.00    -0.297 OA
ENDBRANCH   3   4
BRANCH   3   7
HETATM    7  C2  UNL     1     -34.686  15.603  -3.048  1.00 20.00     0.142 C 
HETATM    8  O11 UNL     1     -35.894  15.378  -2.960  1.00 20.00    -0.297 OA
BRANCH   7   9
HETATM    9  C7  UNL     1     -33.985  16.532  -2.061  1.00 20.00     0.079 C 
BRANCH   9  10
HETATM   10  C8  UNL     1     -34.694  16.631  -0.712  1.00 20.00     0.003 C 
HETATM   11  C4  UNL     1     -34.215  17.818   0.113  1.00 20.00     0.005 C 
ENDBRANCH   9  10
ENDBRANCH   7   9
ENDBRANCH   3   7
TORSDOF 4
ENDMDL
MODEL 3
REMARK VINA RESULT:      -4.6      1.584      1.871
REMARK  4 active torsions:
REMARK  status: ('A' for Active; 'I' for Inactive)
REMARK    1  A    between atoms: C1_1  and  C9_9 
REMARK    2  A    between atoms: C2_2  and  C7_7 
REMARK    3  A    between atoms: C2_2  and  C9_9 
REMARK    4  A    between atoms: C7_7  and  C8_8 
ROOT
HETATM    1  C5  UNL     1     -34.117  16.126  -5.022  1.00 20.00     0.031 C 
HETATM    2  C6  UNL     1     -35.959  14.733  -5.980  1.00 20.00     0.031 C 
HETATM    3  C9  UNL     1     -35.096  14.981  -4.731  1.00 20.00     0.073 C 
ENDROOT
BRANCH   3   4
HETATM    4  C1  UNL     1     -34.366  13.663  -4.414  1.00 20.00     0.138 C 
HETATM    5  C3  UNL     1     -33.078  13.718  -3.629  1.00 20.00     0.092 C 
HETATM    6  O10 UNL     1     -34.793  12.580  -4.820  1.00 20.00    -0.297 OA
ENDBRANCH   3   4
BRANCH   3   7
HETATM    7  C2  UNL     1     -36.008  15.404  -3.556  1.00 20.00     0.142 C 
HETATM    8  O11 UNL     1     -37.045  14.795  -3.288  1.00 20.00    -0.297 OA
BRANCH   7   9
HETATM    9  C7  UNL     1     -35.582  16.626  -2.745  1.00 20.00     0.079 C 
BRANCH   9  10
HETATM   10  C8  UNL     1     -34.789  16.274  -1.488  1.00 20.00     0.003 C 
HETATM   11  C4  UNL     1     -33.725  17.312  -1.159  1.00 20.00     0.005 C 
ENDBRANCH   9  10
ENDBRANCH   7   9
ENDBRANCH   3   7
TORSDOF 4
ENDMDL
MODEL 4
REMARK VINA RESULT:      -4.5      1.412      2.850
REMARK  4 active torsions:
REMARK  status: ('A' for Active; 'I' for Inactive)
REMARK    1  A    between atoms: C1_1  and  C9_9 
REMARK    2  A    between atoms: C2_2  and  C7_7 
REMARK    3  A    between atoms: C2_2  and  C9_9 
REMARK    4  A    between atoms: C7_7  and  C8_8 
ROOT
HETATM    1  C5  UNL     1     -34.789  13.509  -4.426  1.00 20.00     0.031 C 
HETATM    2  C6  UNL     1     -32.636  14.365  -3.484  1.00 20.00     0.031 C 
HETATM    3  C9  UNL     1     -34.002  14.775  -4.060  1.00 20.00     0.073 C 
ENDROOT
BRANCH   3   4
HETATM    4  C1  UNL     1     -33.729  15.660  -5.290  1.00 20.00     0.138 C 
HETATM    5  C3  UNL     1     -34.423  15.330  -6.589  1.00 20.00     0.092 C 
HETATM    6  O10 UNL     1     -32.933  16.601  -5.239  1.00 20.00    -0.297 OA
ENDBRANCH   3   4
BRANCH   3   7
HETATM    7  C2  UNL     1     -34.799  15.552  -2.986  1.00 20.00     0.142 C 
HETATM    8  O11 UNL     1     -36.027  15.482  -2.915  1.00 20.00    -0.297 OA
BRANCH   7   9
HETATM    9  C7  UNL     1     -34.003  16.431  -2.024  1.00 20.00     0.079 C 
BRANCH   9  10
HETATM   10  C8  UNL     1     -34.710  16.664  -0.690  1.00 20.00     0.003 C 
HETATM   11  C4  UNL     1     -34.124  17.838   0.082  1.00 20.00     0.005 C 
ENDBRANCH   9  10
ENDBRANCH   7   9
ENDBRANCH   3   7
TORSDOF 4
ENDMDL
MODEL 5
REMARK VINA RESULT:      -4.4      1.114      2.143
REMARK  4 active torsions:
REMARK  status: ('A' for Active; 'I' for Inactive)
REMARK    1  A    between atoms: C1_1  and  C9_9 
REMARK    2  A    between atoms: C2_2  and  C7_7 
REMARK    3  A    between atoms: C2_2  and  C9_9 
REMARK    4  A    between atoms: C7_7  and  C8_8 
ROOT
HETATM    1  C5  UNL     1     -34.474  13.133  -4.642  1.00 20.00     0.031 C 
HETATM    2  C6  UNL     1     -35.121  14.512  -6.626  1.00 20.00     0.031 C 
HETATM    3  C9  UNL     1     -34.957  14.518  -5.096  1.00 20.00     0.073 C 
ENDROOT
BRANCH   3   4
HETATM    4  C1  UNL     1     -36.327  14.878  -4.493  1.00 20.00     0.138 C 
HETATM    5  C3  UNL     1     -36.847  16.284  -4.663  1.00 20.00     0.092 C 
HETATM    6  O10 UNL     1     -36.979  14.054  -3.848  1.00 20.00    -0.297 OA
ENDBRANCH   3   4
BRANCH   3   7
HETATM    7  C2  UNL     1     -33.887  15.561  -4.700  1.00 20.00     0.142 C 
HETATM    8  O11 UNL     1     -33.436  16.368  -5.515  1.00 20.00    -0.297 OA
BRANCH   7   9
HETATM    9  C7  UNL     1     -33.391  15.542  -3.256  1.00 20.00     0.079 C 
BRANCH   9  10
HETATM   10  C8  UNL     1     -33.813  16.770  -2.453  1.00 20.00     0.003 C 
HETATM   11  C4  UNL     1     -34.679  16.413  -1.253  1.00 20.00     0.005 C 
ENDBRANCH   9  10
ENDBRANCH   7   9
ENDBRANCH   3   7
TORSDOF 4
ENDMDL
MODEL 6
REMARK VINA RESULT:      -4.4      1.333      3.663
REMARK  4 active torsions:
REMARK  status: ('A' for Active; 'I' for Inactive)
REMARK    1  A    between atoms: C1_1  and  C9_9 
REMARK    2  A    between atoms: C2_2  and  C7_7 
REMARK    3  A    between atoms: C2_2  and  C9_9 
REMARK    4  A    between atoms: C7_7  and  C8_8 
ROOT
HETATM    1  C5  UNL     1     -34.579  15.785  -2.293  1.00 20.00     0.031 C 
HETATM    2  C6  UNL     1     -32.974  14.489  -3.708  1.00 20.00     0.031 C 
HETATM    3  C9  UNL     1     -34.359  15.159  -3.677  1.00 20.00     0.073 C 
ENDROOT
BRANCH   3   4
HETATM    4  C1  UNL     1     -35.399  14.067  -3.989  1.00 20.00     0.138 C 
HETATM    5  C3  UNL     1     -36.859  14.448  -4.034  1.00 20.00     0.092 C 
HETATM    6  O10 UNL     1     -35.064  12.893  -4.162  1.00 20.00    -0.297 OA
ENDBRANCH   3   4
BRANCH   3   7
HETATM    7  C2  UNL     1     -34.407  16.285  -4.736  1.00 20.00     0.142 C 
HETATM    8  O11 UNL     1     -34.884  17.393  -4.482  1.00 20.00    -0.297 OA
BRANCH   7   9
HETATM    9  C7  UNL     1     -33.855  15.965  -6.123  1.00 20.00     0.079 C 
BRANCH   9  10
HETATM   10  C8  UNL     1     -34.923  15.961  -7.215  1.00 20.00     0.003 C 
HETATM   11  C4  UNL     1     -35.291  14.554  -7.665  1.00 20.00     0.005 C 
ENDBRANCH   9  10
ENDBRANCH   7   9
ENDBRANCH   3   7
TORSDOF 4
ENDMDL
MODEL 7
REMARK VINA RESULT:      -4.3      1.591      3.794
REMARK  4 active torsions:
REMARK  status: ('A' for Active; 'I' for Inactive)
REMARK    1  A    between atoms: C1_1  and  C9_9 
REMARK    2  A    between atoms: C2_2  and  C7_7 
REMARK    3  A    between atoms: C2_2  and  C9_9 
REMARK    4  A    between atoms: C7_7  and  C8_8 
ROOT
HETATM    1  C5  UNL     1     -33.384  16.168  -4.961  1.00 20.00     0.031 C 
HETATM    2  C6  UNL     1     -32.742  14.279  -3.453  1.00 20.00     0.031 C 
HETATM    3  C9  UNL     1     -33.913  14.949  -4.193  1.00 20.00     0.073 C 
ENDROOT
BRANCH   3   4
HETATM    4  C1  UNL     1     -34.955  15.344  -3.131  1.00 20.00     0.138 C 
HETATM    5  C3  UNL     1     -34.492  16.082  -1.899  1.00 20.00     0.092 C 
HETATM    6  O10 UNL     1     -36.143  15.036  -3.254  1.00 20.00    -0.297 OA
ENDBRANCH   3   4
BRANCH   3   7
HETATM    7  C2  UNL     1     -34.512  13.952  -5.212  1.00 20.00     0.142 C 
HETATM    8  O11 UNL     1     -34.690  12.765  -4.930  1.00 20.00    -0.297 OA
BRANCH   7   9
HETATM    9  C7  UNL     1     -34.858  14.491  -6.598  1.00 20.00     0.079 C 
BRANCH   9  10
HETATM   10  C8  UNL     1     -36.345  14.790  -6.778  1.00 20.00     0.003 C 
HETATM   11  C4  UNL     1     -36.663  16.273  -6.641  1.00 20.00     0.005 C 
ENDBRANCH   9  10
ENDBRANCH   7   9
ENDBRANCH   3   7
TORSDOF 4
ENDMDL
MODEL 8
REMARK VINA RESULT:      -4.3      1.618      2.493
REMARK  4 active torsions:
REMARK  status: ('A' for Active; 'I' for Inactive)
REMARK    1  A    between atoms: C1_1  and  C9_9 
REMARK    2  A    between atoms: C2_2  and  C7_7 
REMARK    3  A    between atoms: C2_2  and  C9_9 
REMARK    4  A    between atoms: C7_7  and  C8_8 
ROOT
HETATM    1  C5  UNL     1     -36.545  14.645  -3.917  1.00 20.00     0.031 C 
HETATM    2  C6  UNL     1     -34.673  13.274  -4.850  1.00 20.00     0.031 C 
HETATM    3  C9  UNL     1     -35.114  14.698  -4.469  1.00 20.00     0.073 C 
ENDROOT
BRANCH   3   4
HETATM    4  C1  UNL     1     -35.017  15.559  -5.741  1.00 20.00     0.138 C 
HETATM    5  C3  UNL     1     -34.528  14.917  -7.016  1.00 20.00     0.092 C 
HETATM    6  O10 UNL     1     -35.294  16.761  -5.724  1.00 20.00    -0.297 OA
ENDBRANCH   3   4
BRANCH   3   7
HETATM    7  C2  UNL     1     -34.183  15.242  -3.360  1.00 20.00     0.142 C 
HETATM    8  O11 UNL     1     -32.956  15.205  -3.469  1.00 20.00    -0.297 OA
BRANCH   7   9
HETATM    9  C7  UNL     1     -34.845  15.813  -2.109  1.00 20.00     0.079 C 
BRANCH   9  10
HETATM   10  C8  UNL     1     -34.004  16.879  -1.409  1.00 20.00     0.003 C 
HETATM   11  C4  UNL     1     -34.616  17.331  -0.090  1.00 20.00     0.005 C 
ENDBRANCH   9  10
ENDBRANCH   7   9
ENDBRANCH   3   7
TORSDOF 4
ENDMDL
MODEL 9
REMARK VINA RESULT:      -4.2      1.351      3.621
REMARK  4 active torsions:
REMARK  status: ('A' for Active; 'I' for Inactive)
REMARK    1  A    between atoms: C1_1  and  C9_9 
REMARK    2  A    between atoms: C2_2  and  C7_7 
REMARK    3  A    between atoms: C2_2  and  C9_9 
REMARK    4  A    between atoms: C7_7  and  C8_8 
ROOT
HETATM    1  C5  UNL     1     -32.865  13.956  -3.556  1.00 20.00     0.031 C 
HETATM    2  C6  UNL     1     -34.305  15.800  -2.671  1.00 20.00     0.031 C 
HETATM    3  C9  UNL     1     -34.076  14.850  -3.859  1.00 20.00     0.073 C 
ENDROOT
BRANCH   3   4
HETATM    4  C1  UNL     1     -33.850  15.726  -5.104  1.00 20.00     0.138 C 
HETATM    5  C3  UNL     1     -33.435  17.164  -4.913  1.00 20.00     0.092 C 
HETATM    6  O10 UNL     1     -34.038  15.285  -6.241  1.00 20.00    -0.297 OA
ENDBRANCH   3   4
BRANCH   3   7
HETATM    7  C2  UNL     1     -35.318  13.945  -4.038  1.00 20.00     0.142 C 
HETATM    8  O11 UNL     1     -35.216  12.764  -4.375  1.00 20.00    -0.297 OA
BRANCH   7   9
HETATM    9  C7  UNL     1     -36.686  14.579  -3.798  1.00 20.00     0.079 C 
BRANCH   9  10
HETATM   10  C8  UNL     1     -37.377  15.034  -5.083  1.00 20.00     0.003 C 
HETATM   11  C4  UNL     1     -37.428  16.550  -5.211  1.00 20.00     0.005 C 
ENDBRANCH   9  10
ENDBRANCH   7   9
ENDBRANCH   3   7
TORSDOF 4
ENDMDL
