MODEL 1
REMARK VINA RESULT:      -3.1      0.000      0.000
REMARK  1 active torsions:
REMARK  status: ('A' for Active; 'I' for Inactive)
REMARK    1  A    between atoms: C3_3  and  C4_4 
ROOT
HETATM    1  C1  UNL     1     -34.721   3.939   5.353  1.00 20.00     0.033 C 
HETATM    2  C2  UNL     1     -34.277   6.360   5.869  1.00 20.00     0.033 C 
HETATM    3  C4  UNL     1     -34.457   5.325   4.754  1.00 20.00     0.042 C 
HETATM    4 CL6  UNL     1     -35.925   5.794   3.807  1.00 20.00    -0.119 Cl
ENDROOT
BRANCH   3   5
HETATM    5  C3  UNL     1     -33.271   5.317   3.774  1.00 20.00     0.139 C 
HETATM    6 CL5  UNL     1     -32.729   6.946   3.295  1.00 20.00    -0.129 Cl
ENDBRANCH   3   5
TORSDOF 1
ENDMDL
MODEL 2
REMARK VINA RESULT:      -3.1      1.353      1.877
REMARK  1 active torsions:
REMARK  status: ('A' for Active; 'I' for Inactive)
REMARK    1  A    between atoms: C3_3  and  C4_4 
ROOT
HETATM    1  C1  UNL     1     -35.748   5.768   3.925  1.00 20.00     0.033 C 
HETATM    2  C2  UNL     1     -34.738   3.953   5.342  1.00 20.00     0.033 C 
HETATM    3  C4  UNL     1     -34.492   5.309   4.673  1.00 20.00     0.042 C 
HETATM    4 CL6  UNL     1     -34.172   6.513   5.985  1.00 20.00    -0.119 Cl
ENDROOT
BRANCH   3   5
HETATM    5  C3  UNL     1     -33.251   5.290   3.765  1.00 20.00     0.139 C 
HETATM    6 CL5  UNL     1     -32.549   6.905   3.480  1.00 20.00    -0.129 Cl
ENDBRANCH   3   5
TORSDOF 1
ENDMDL
MODEL 3
REMARK VINA RESULT:      -3.0      2.131      2.702
REMARK  1 active torsions:
REMARK  status: ('A' for Active; 'I' for Inactive)
REMARK    1  A    between atoms: C3_3  and  C4_4 
ROOT
HETATM    1  C1  UNL     1     -36.062   5.926   3.617  1.00 20.00     0.033 C 
HETATM    2  C2  UNL     1     -33.898   5.032   2.699  1.00 20.00     0.033 C 
HETATM    3  C4  UNL     1     -34.668   5.398   3.973  1.00 20.00     0.042 C 
HETATM    4 CL6  UNL     1     -34.890   3.879   4.929  1.00 20.00    -0.119 Cl
ENDROOT
BRANCH   3   5
HETATM    5  C3  UNL     1     -33.885   6.381   4.861  1.00 20.00     0.139 C 
HETATM    6 CL5  UNL     1     -34.244   6.215   6.599  1.00 20.00    -0.129 Cl
ENDBRANCH   3   5
TORSDOF 1
ENDMDL
MODEL 4
REMARK VINA RESULT:      -3.0      1.984      2.259
REMARK  1 active torsions:
REMARK  status: ('A' for Active; 'I' for Inactive)
REMARK    1  A    between atoms: C3_3  and  C4_4 
ROOT
HETATM    1  C1  UNL     1     -34.860   4.095   4.924  1.00 20.00     0.033 C 
HETATM    2  C2  UNL     1     -36.058   5.927   3.685  1.00 20.00     0.033 C 
HETATM    3  C4  UNL     1     -34.689   5.361   4.078  1.00 20.00     0.042 C 
HETATM    4 CL6  UNL     1     -33.840   4.883   2.554  1.00 20.00    -0.119 Cl
ENDROOT
BRANCH   3   5
HETATM    5  C3  UNL     1     -33.807   6.410   4.776  1.00 20.00     0.139 C 
HETATM    6 CL5  UNL     1     -34.083   6.520   6.534  1.00 20.00    -0.129 Cl
ENDBRANCH   3   5
TORSDOF 1
ENDMDL
MODEL 5
REMARK VINA RESULT:      -2.9      1.709      2.322
REMARK  1 active torsions:
REMARK  status: ('A' for Active; 'I' for Inactive)
REMARK    1  A    between atoms: C3_3  and  C4_4 
ROOT
HETATM    1  C1  UNL     1     -33.992   4.993   2.645  1.00 20.00     0.033 C 
HETATM    2  C2  UNL     1     -34.926   4.063   4.786  1.00 20.00     0.033 C 
HETATM    3  C4  UNL     1     -34.691   5.335   3.965  1.00 20.00     0.042 C 
HETATM    4 CL6  UNL     1     -36.311   6.027   3.558  1.00 20.00    -0.119 Cl
ENDROOT
BRANCH   3   5
HETATM    5  C3  UNL     1     -33.929   6.407   4.764  1.00 20.00     0.139 C 
HETATM    6 CL5  UNL     1     -34.183   6.300   6.525  1.00 20.00    -0.129 Cl
ENDBRANCH   3   5
TORSDOF 1
ENDMDL
MODEL 6
REMARK VINA RESULT:      -2.9     11.957     12.719
REMARK  1 active torsions:
REMARK  status: ('A' for Active; 'I' for Inactive)
REMARK    1  A    between atoms: C3_3  and  C4_4 
ROOT
HETATM    1  C1  UNL     1     -33.511  13.646  -3.787  1.00 20.00     0.033 C 
HETATM    2  C2  UNL     1     -35.774  14.738  -3.673  1.00 20.00     0.033 C 
HETATM    3  C4  UNL     1     -34.276  14.969  -3.902  1.00 20.00     0.042 C 
HETATM    4 CL6  UNL     1     -34.070  15.570  -5.595  1.00 20.00    -0.119 Cl
ENDROOT
BRANCH   3   5
HETATM    5  C3  UNL     1     -33.707  16.050  -2.966  1.00 20.00     0.139 C 
HETATM    6 CL5  UNL     1     -34.602  16.210  -1.433  1.00 20.00    -0.129 Cl
ENDBRANCH   3   5
TORSDOF 1
ENDMDL
MODEL 7
REMARK VINA RESULT:      -2.9     12.207     12.796
REMARK  1 active torsions:
REMARK  status: ('A' for Active; 'I' for Inactive)
REMARK    1  A    between atoms: C3_3  and  C4_4 
ROOT
HETATM    1  C1  UNL     1     -35.699  14.775  -3.632  1.00 20.00     0.033 C 
HETATM    2  C2  UNL     1     -34.078  15.656  -5.341  1.00 20.00     0.033 C 
HETATM    3  C4  UNL     1     -34.239  15.156  -3.902  1.00 20.00     0.042 C 
HETATM    4 CL6  UNL     1     -33.246  13.654  -3.733  1.00 20.00    -0.119 Cl
ENDROOT
BRANCH   3   5
HETATM    5  C3  UNL     1     -33.705  16.169  -2.874  1.00 20.00     0.139 C 
HETATM    6 CL5  UNL     1     -34.659  16.230  -1.369  1.00 20.00    -0.129 Cl
ENDBRANCH   3   5
TORSDOF 1
ENDMDL
MODEL 8
REMARK VINA RESULT:      -2.9     12.357     13.003
REMARK  1 active torsions:
REMARK  status: ('A' for Active; 'I' for Inactive)
REMARK    1  A    between atoms: C3_3  and  C4_4 
ROOT
HETATM    1  C1  UNL     1     -34.681  14.520  -5.737  1.00 20.00     0.033 C 
HETATM    2  C2  UNL     1     -33.203  16.221  -4.619  1.00 20.00     0.033 C 
HETATM    3  C4  UNL     1     -34.126  15.018  -4.398  1.00 20.00     0.042 C 
HETATM    4 CL6  UNL     1     -33.124  13.685  -3.697  1.00 20.00    -0.119 Cl
ENDROOT
BRANCH   3   5
HETATM    5  C3  UNL     1     -35.243  15.323  -3.385  1.00 20.00     0.139 C 
HETATM    6 CL5  UNL     1     -34.645  15.979  -1.839  1.00 20.00    -0.129 Cl
ENDBRANCH   3   5
TORSDOF 1
ENDMDL
MODEL 9
REMARK VINA RESULT:      -2.8     12.026     12.783
REMARK  1 active torsions:
REMARK  status: ('A' for Active; 'I' for Inactive)
REMARK    1  A    between atoms: C3_3  and  C4_4 
ROOT
HETATM    1  C1  UNL     1     -34.174  15.456  -5.470  1.00 20.00     0.033 C 
HETATM    2  C2  UNL     1     -33.414  13.756  -3.779  1.00 20.00     0.033 C 
HETATM    3  C4  UNL     1     -34.216  15.044  -3.995  1.00 20.00     0.042 C 
HETATM    4 CL6  UNL     1     -35.940  14.689  -3.579  1.00 20.00    -0.119 Cl
ENDROOT
BRANCH   3   5
HETATM    5  C3  UNL     1     -33.751  16.177  -3.063  1.00 20.00     0.139 C 
HETATM    6 CL5  UNL     1     -34.596  16.203  -1.493  1.00 20.00    -0.129 Cl
ENDBRANCH   3   5
TORSDOF 1
ENDMDL
