MODEL 1
REMARK VINA RESULT:      -5.3      0.000      0.000
REMARK  3 active torsions:
REMARK  status: ('A' for Active; 'I' for Inactive)
REMARK    1  A    between atoms: C2_2  and  C8_8 
REMARK    2  A    between atoms: C4_4  and  C7_7 
REMARK    3  A    between atoms: C7_7  and  C8_8 
ROOT
HETATM    1  C7  UNL     1     -32.855   6.126   4.079  1.00 20.00     0.034 C 
ENDROOT
BRANCH   1   2
HETATM    2  C4  UNL     1     -32.837   6.906   2.793  1.00 20.00    -0.030 C 
HETATM    3  C3  UNL     1     -31.986   7.909   2.540  1.00 20.00    -0.035 C 
HETATM    4  C5  UNL     1     -31.967   8.681   1.262  1.00 20.00     0.035 C 
ENDBRANCH   1   2
BRANCH   1   5
HETATM    5  C8  UNL     1     -34.190   6.262   4.839  1.00 20.00     0.007 C 
HETATM    6  C6  UNL     1     -33.921   6.561   6.317  1.00 20.00     0.014 C 
BRANCH   5   7
HETATM    7  C2  UNL     1     -35.021   5.008   4.726  1.00 20.00    -0.032 C 
HETATM    8  C1  UNL     1     -34.957   3.988   5.589  1.00 20.00     0.007 C 
ENDBRANCH   5   7
ENDBRANCH   1   5
TORSDOF 3
ENDMDL
MODEL 2
REMARK VINA RESULT:      -5.0      0.914      2.178
REMARK  3 active torsions:
REMARK  status: ('A' for Active; 'I' for Inactive)
REMARK    1  A    between atoms: C2_2  and  C8_8 
REMARK    2  A    between atoms: C4_4  and  C7_7 
REMARK    3  A    between atoms: C7_7  and  C8_8 
ROOT
HETATM    1  C7  UNL     1     -34.734   5.511   3.945  1.00 20.00     0.034 C 
ENDROOT
BRANCH   1   2
HETATM    2  C4  UNL     1     -33.978   6.655   3.327  1.00 20.00    -0.030 C 
HETATM    3  C3  UNL     1     -32.660   6.635   3.086  1.00 20.00    -0.035 C 
HETATM    4  C5  UNL     1     -31.910   7.771   2.471  1.00 20.00     0.035 C 
ENDBRANCH   1   2
BRANCH   1   5
HETATM    5  C8  UNL     1     -34.200   5.130   5.341  1.00 20.00     0.007 C 
HETATM    6  C6  UNL     1     -34.908   3.868   5.844  1.00 20.00     0.014 C 
BRANCH   5   7
HETATM    7  C2  UNL     1     -34.405   6.247   6.335  1.00 20.00    -0.032 C 
HETATM    8  C1  UNL     1     -33.441   7.089   6.723  1.00 20.00     0.007 C 
ENDBRANCH   5   7
ENDBRANCH   1   5
TORSDOF 3
ENDMDL
MODEL 3
REMARK VINA RESULT:      -5.0      0.883      1.358
REMARK  3 active torsions:
REMARK  status: ('A' for Active; 'I' for Inactive)
REMARK    1  A    between atoms: C2_2  and  C8_8 
REMARK    2  A    between atoms: C4_4  and  C7_7 
REMARK    3  A    between atoms: C7_7  and  C8_8 
ROOT
HETATM    1  C7  UNL     1     -32.890   6.734   4.213  1.00 20.00     0.034 C 
ENDROOT
BRANCH   1   2
HETATM    2  C4  UNL     1     -32.485   7.010   2.791  1.00 20.00    -0.030 C 
HETATM    3  C3  UNL     1     -32.169   8.227   2.327  1.00 20.00    -0.035 C 
HETATM    4  C5  UNL     1     -31.765   8.499   0.915  1.00 20.00     0.035 C 
ENDBRANCH   1   2
BRANCH   1   5
HETATM    5  C8  UNL     1     -33.840   5.527   4.337  1.00 20.00     0.007 C 
HETATM    6  C6  UNL     1     -34.981   5.653   3.324  1.00 20.00     0.014 C 
BRANCH   5   7
HETATM    7  C2  UNL     1     -34.416   5.418   5.728  1.00 20.00    -0.032 C 
HETATM    8  C1  UNL     1     -35.122   4.368   6.165  1.00 20.00     0.007 C 
ENDBRANCH   5   7
ENDBRANCH   1   5
TORSDOF 3
ENDMDL
MODEL 4
REMARK VINA RESULT:      -4.7      0.971      4.676
REMARK  3 active torsions:
REMARK  status: ('A' for Active; 'I' for Inactive)
REMARK    1  A    between atoms: C2_2  and  C8_8 
REMARK    2  A    between atoms: C4_4  and  C7_7 
REMARK    3  A    between atoms: C7_7  and  C8_8 
ROOT
HETATM    1  C7  UNL     1     -33.217   6.315   2.931  1.00 20.00     0.034 C 
ENDROOT
BRANCH   1   2
HETATM    2  C4  UNL     1     -33.609   6.183   4.377  1.00 20.00    -0.030 C 
HETATM    3  C3  UNL     1     -34.480   5.272   4.835  1.00 20.00    -0.035 C 
HETATM    4  C5  UNL     1     -34.867   5.140   6.271  1.00 20.00     0.035 C 
ENDBRANCH   1   2
BRANCH   1   5
HETATM    5  C8  UNL     1     -32.004   7.243   2.726  1.00 20.00     0.007 C 
HETATM    6  C6  UNL     1     -31.392   7.610   4.081  1.00 20.00     0.014 C 
BRANCH   5   7
HETATM    7  C2  UNL     1     -32.390   8.505   1.994  1.00 20.00    -0.032 C 
HETATM    8  C1  UNL     1     -31.898   8.858   0.801  1.00 20.00     0.007 C 
ENDBRANCH   5   7
ENDBRANCH   1   5
TORSDOF 3
ENDMDL
MODEL 5
REMARK VINA RESULT:      -4.4      0.879      4.748
REMARK  3 active torsions:
REMARK  status: ('A' for Active; 'I' for Inactive)
REMARK    1  A    between atoms: C2_2  and  C8_8 
REMARK    2  A    between atoms: C4_4  and  C7_7 
REMARK    3  A    between atoms: C7_7  and  C8_8 
ROOT
HETATM    1  C7  UNL     1     -33.853   7.043   3.821  1.00 20.00     0.034 C 
ENDROOT
BRANCH   1   2
HETATM    2  C4  UNL     1     -34.419   5.744   4.326  1.00 20.00    -0.030 C 
HETATM    3  C3  UNL     1     -34.517   5.427   5.625  1.00 20.00    -0.035 C 
HETATM    4  C5  UNL     1     -35.081   4.138   6.125  1.00 20.00     0.035 C 
ENDBRANCH   1   2
BRANCH   1   5
HETATM    5  C8  UNL     1     -32.820   6.844   2.694  1.00 20.00     0.007 C 
HETATM    6  C6  UNL     1     -31.849   5.720   3.068  1.00 20.00     0.014 C 
BRANCH   5   7
HETATM    7  C2  UNL     1     -32.041   8.109   2.428  1.00 20.00    -0.032 C 
HETATM    8  C1  UNL     1     -32.020   8.740   1.249  1.00 20.00     0.007 C 
ENDBRANCH   5   7
ENDBRANCH   1   5
TORSDOF 3
ENDMDL
MODEL 6
REMARK VINA RESULT:      -4.1     11.027     11.967
REMARK  3 active torsions:
REMARK  status: ('A' for Active; 'I' for Inactive)
REMARK    1  A    between atoms: C2_2  and  C8_8 
REMARK    2  A    between atoms: C4_4  and  C7_7 
REMARK    3  A    between atoms: C7_7  and  C8_8 
ROOT
HETATM    1  C7  UNL     1     -34.526  15.704  -2.497  1.00 20.00     0.034 C 
ENDROOT
BRANCH   1   2
HETATM    2  C4  UNL     1     -34.086  16.739  -1.498  1.00 20.00    -0.030 C 
HETATM    3  C3  UNL     1     -34.721  16.978  -0.342  1.00 20.00    -0.035 C 
HETATM    4  C5  UNL     1     -34.282  18.005   0.650  1.00 20.00     0.035 C 
ENDBRANCH   1   2
BRANCH   1   5
HETATM    5  C8  UNL     1     -33.375  15.225  -3.403  1.00 20.00     0.007 C 
HETATM    6  C6  UNL     1     -33.263  16.134  -4.631  1.00 20.00     0.014 C 
BRANCH   5   7
HETATM    7  C2  UNL     1     -33.582  13.800  -3.854  1.00 20.00    -0.032 C 
HETATM    8  C1  UNL     1     -34.727  13.337  -4.368  1.00 20.00     0.007 C 
ENDBRANCH   5   7
ENDBRANCH   1   5
TORSDOF 3
ENDMDL
MODEL 7
REMARK VINA RESULT:      -4.0     10.980     11.856
REMARK  3 active torsions:
REMARK  status: ('A' for Active; 'I' for Inactive)
REMARK    1  A    between atoms: C2_2  and  C8_8 
REMARK    2  A    between atoms: C4_4  and  C7_7 
REMARK    3  A    between atoms: C7_7  and  C8_8 
ROOT
HETATM    1  C7  UNL     1     -35.017  15.152  -2.986  1.00 20.00     0.034 C 
ENDROOT
BRANCH   1   2
HETATM    2  C4  UNL     1     -34.333  16.245  -2.211  1.00 20.00    -0.030 C 
HETATM    3  C3  UNL     1     -34.657  16.585  -0.956  1.00 20.00    -0.035 C 
HETATM    4  C5  UNL     1     -33.977  17.669  -0.186  1.00 20.00     0.035 C 
ENDBRANCH   1   2
BRANCH   1   5
HETATM    5  C8  UNL     1     -34.037  14.066  -3.473  1.00 20.00     0.007 C 
HETATM    6  C6  UNL     1     -32.648  14.675  -3.690  1.00 20.00     0.014 C 
BRANCH   5   7
HETATM    7  C2  UNL     1     -34.510  13.431  -4.758  1.00 20.00    -0.032 C 
HETATM    8  C1  UNL     1     -34.850  14.121  -5.853  1.00 20.00     0.007 C 
ENDBRANCH   5   7
ENDBRANCH   1   5
TORSDOF 3
ENDMDL
MODEL 8
REMARK VINA RESULT:      -3.8     10.981     12.700
REMARK  3 active torsions:
REMARK  status: ('A' for Active; 'I' for Inactive)
REMARK    1  A    between atoms: C2_2  and  C8_8 
REMARK    2  A    between atoms: C4_4  and  C7_7 
REMARK    3  A    between atoms: C7_7  and  C8_8 
ROOT
HETATM    1  C7  UNL     1     -33.320  16.117  -4.811  1.00 20.00     0.034 C 
ENDROOT
BRANCH   1   2
HETATM    2  C4  UNL     1     -34.442  15.679  -5.713  1.00 20.00    -0.030 C 
HETATM    3  C3  UNL     1     -34.259  15.177  -6.942  1.00 20.00    -0.035 C 
HETATM    4  C5  UNL     1     -35.374  14.741  -7.835  1.00 20.00     0.035 C 
ENDBRANCH   1   2
BRANCH   1   5
HETATM    5  C8  UNL     1     -33.317  15.374  -3.461  1.00 20.00     0.007 C 
HETATM    6  C6  UNL     1     -33.282  13.861  -3.698  1.00 20.00     0.014 C 
BRANCH   5   7
HETATM    7  C2  UNL     1     -34.531  15.722  -2.635  1.00 20.00    -0.032 C 
HETATM    8  C1  UNL     1     -34.483  16.405  -1.486  1.00 20.00     0.007 C 
ENDBRANCH   5   7
ENDBRANCH   1   5
TORSDOF 3
ENDMDL
MODEL 9
REMARK VINA RESULT:      -3.8     10.929     12.350
REMARK  3 active torsions:
REMARK  status: ('A' for Active; 'I' for Inactive)
REMARK    1  A    between atoms: C2_2  and  C8_8 
REMARK    2  A    between atoms: C4_4  and  C7_7 
REMARK    3  A    between atoms: C7_7  and  C8_8 
ROOT
HETATM    1  C7  UNL     1     -33.815  15.959  -2.762  1.00 20.00     0.034 C 
ENDROOT
BRANCH   1   2
HETATM    2  C4  UNL     1     -34.649  16.276  -1.551  1.00 20.00    -0.030 C 
HETATM    3  C3  UNL     1     -34.281  17.141  -0.596  1.00 20.00    -0.035 C 
HETATM    4  C5  UNL     1     -35.110  17.457   0.605  1.00 20.00     0.035 C 
ENDBRANCH   1   2
BRANCH   1   5
HETATM    5  C8  UNL     1     -34.442  14.863  -3.646  1.00 20.00     0.007 C 
HETATM    6  C6  UNL     1     -33.468  13.689  -3.792  1.00 20.00     0.014 C 
BRANCH   5   7
HETATM    7  C2  UNL     1     -34.797  15.391  -5.014  1.00 20.00    -0.032 C 
HETATM    8  C1  UNL     1     -33.937  16.032  -5.815  1.00 20.00     0.007 C 
ENDBRANCH   5   7
ENDBRANCH   1   5
TORSDOF 3
ENDMDL
