MODEL 1
REMARK VINA RESULT:      -2.9      0.000      0.000
REMARK  1 active torsions:
REMARK  status: ('A' for Active; 'I' for Inactive)
REMARK    1  A    between atoms: C1_1  and  C3_3 
ROOT
HETATM    1  C2  UNL     1     -34.075  13.666  -4.175  1.00 20.00     0.208 A 
HETATM    2  C3  UNL     1     -35.443  13.980  -4.723  1.00 20.00     0.206 A 
HETATM    3  O5  UNL     1     -35.068  12.648  -4.339  1.00 20.00    -0.374 OA
ENDROOT
BRANCH   2   4
HETATM    4  C1  UNL     1     -36.467  14.568  -3.861  1.00 20.00     0.265 C 
HETATM    5  O4  UNL     1     -37.619  14.149  -3.796  1.00 20.00    -0.304 OA
ENDBRANCH   2   4
TORSDOF 1
ENDMDL
MODEL 2
REMARK VINA RESULT:      -2.6      0.623      2.694
REMARK  1 active torsions:
REMARK  status: ('A' for Active; 'I' for Inactive)
REMARK    1  A    between atoms: C1_1  and  C3_3 
ROOT
HETATM    1  C2  UNL     1     -37.285  15.487  -4.352  1.00 20.00     0.208 A 
HETATM    2  C3  UNL     1     -36.220  14.614  -3.740  1.00 20.00     0.206 A 
HETATM    3  O5  UNL     1     -37.597  14.206  -3.793  1.00 20.00    -0.374 OA
ENDROOT
BRANCH   2   4
HETATM    4  C1  UNL     1     -35.343  13.813  -4.593  1.00 20.00     0.265 C 
HETATM    5  O4  UNL     1     -35.047  12.647  -4.352  1.00 20.00    -0.304 OA
ENDBRANCH   2   4
TORSDOF 1
ENDMDL
MODEL 3
REMARK VINA RESULT:      -2.6      1.686      2.891
REMARK  1 active torsions:
REMARK  status: ('A' for Active; 'I' for Inactive)
REMARK    1  A    between atoms: C1_1  and  C3_3 
ROOT
HETATM    1  C2  UNL     1     -35.178  13.756  -5.405  1.00 20.00     0.208 A 
HETATM    2  C3  UNL     1     -34.695  13.844  -3.980  1.00 20.00     0.206 A 
HETATM    3  O5  UNL     1     -35.086  12.595  -4.572  1.00 20.00    -0.374 OA
ENDROOT
BRANCH   2   4
HETATM    4  C1  UNL     1     -33.264  13.928  -3.690  1.00 20.00     0.265 C 
HETATM    5  O4  UNL     1     -32.558  12.947  -3.483  1.00 20.00    -0.304 OA
ENDBRANCH   2   4
TORSDOF 1
ENDMDL
MODEL 4
REMARK VINA RESULT:      -2.6     12.180     12.676
REMARK  1 active torsions:
REMARK  status: ('A' for Active; 'I' for Inactive)
REMARK    1  A    between atoms: C1_1  and  C3_3 
ROOT
HETATM    1  C2  UNL     1     -34.742   4.179   5.824  1.00 20.00     0.208 A 
HETATM    2  C3  UNL     1     -34.845   5.396   4.942  1.00 20.00     0.206 A 
HETATM    3  O5  UNL     1     -34.808   5.498   6.374  1.00 20.00    -0.374 OA
ENDROOT
BRANCH   2   4
HETATM    4  C1  UNL     1     -33.653   5.937   4.290  1.00 20.00     0.265 C 
HETATM    5  O4  UNL     1     -33.511   5.984   3.072  1.00 20.00    -0.304 OA
ENDBRANCH   2   4
TORSDOF 1
ENDMDL
MODEL 5
REMARK VINA RESULT:      -2.6     11.848     12.296
REMARK  1 active torsions:
REMARK  status: ('A' for Active; 'I' for Inactive)
REMARK    1  A    between atoms: C1_1  and  C3_3 
ROOT
HETATM    1  C2  UNL     1     -33.292   6.150   3.734  1.00 20.00     0.208 A 
HETATM    2  C3  UNL     1     -34.637   5.801   4.317  1.00 20.00     0.206 A 
HETATM    3  O5  UNL     1     -34.232   5.343   3.017  1.00 20.00    -0.374 OA
ENDROOT
BRANCH   2   4
HETATM    4  C1  UNL     1     -34.757   4.725   5.301  1.00 20.00     0.265 C 
HETATM    5  O4  UNL     1     -35.172   3.603   5.029  1.00 20.00    -0.304 OA
ENDBRANCH   2   4
TORSDOF 1
ENDMDL
MODEL 6
REMARK VINA RESULT:      -2.6     12.764     13.205
REMARK  1 active torsions:
REMARK  status: ('A' for Active; 'I' for Inactive)
REMARK    1  A    between atoms: C1_1  and  C3_3 
ROOT
HETATM    1  C2  UNL     1     -33.803   6.531   6.373  1.00 20.00     0.208 A 
HETATM    2  C3  UNL     1     -34.833   5.645   5.722  1.00 20.00     0.206 A 
HETATM    3  O5  UNL     1     -33.774   6.258   4.969  1.00 20.00    -0.374 OA
ENDROOT
BRANCH   2   4
HETATM    4  C1  UNL     1     -34.717   4.190   5.811  1.00 20.00     0.265 C 
HETATM    5  O4  UNL     1     -35.047   3.429   4.907  1.00 20.00    -0.304 OA
ENDBRANCH   2   4
TORSDOF 1
ENDMDL
MODEL 7
REMARK VINA RESULT:      -2.6     12.907     13.290
REMARK  1 active torsions:
REMARK  status: ('A' for Active; 'I' for Inactive)
REMARK    1  A    between atoms: C1_1  and  C3_3 
ROOT
HETATM    1  C2  UNL     1     -35.253   4.661   4.293  1.00 20.00     0.208 A 
HETATM    2  C3  UNL     1     -35.210   5.000   5.761  1.00 20.00     0.206 A 
HETATM    3  O5  UNL     1     -34.954   3.670   5.282  1.00 20.00    -0.374 OA
ENDROOT
BRANCH   2   4
HETATM    4  C1  UNL     1     -34.032   5.649   6.334  1.00 20.00     0.265 C 
HETATM    5  O4  UNL     1     -33.999   6.834   6.651  1.00 20.00    -0.304 OA
ENDBRANCH   2   4
TORSDOF 1
ENDMDL
MODEL 8
REMARK VINA RESULT:      -2.6     11.525     11.956
REMARK  1 active torsions:
REMARK  status: ('A' for Active; 'I' for Inactive)
REMARK    1  A    between atoms: C1_1  and  C3_3 
ROOT
HETATM    1  C2  UNL     1     -32.771   6.239   3.442  1.00 20.00     0.208 A 
HETATM    2  C3  UNL     1     -34.092   6.291   4.165  1.00 20.00     0.206 A 
HETATM    3  O5  UNL     1     -33.928   5.566   2.936  1.00 20.00    -0.374 OA
ENDROOT
BRANCH   2   4
HETATM    4  C1  UNL     1     -34.335   5.428   5.321  1.00 20.00     0.265 C 
HETATM    5  O4  UNL     1     -34.553   5.856   6.450  1.00 20.00    -0.304 OA
ENDBRANCH   2   4
TORSDOF 1
ENDMDL
MODEL 9
REMARK VINA RESULT:      -2.6      1.971      2.648
REMARK  1 active torsions:
REMARK  status: ('A' for Active; 'I' for Inactive)
REMARK    1  A    between atoms: C1_1  and  C3_3 
ROOT
HETATM    1  C2  UNL     1     -33.288  15.780  -4.265  1.00 20.00     0.208 A 
HETATM    2  C3  UNL     1     -33.587  14.409  -3.717  1.00 20.00     0.206 A 
HETATM    3  O5  UNL     1     -33.681  15.587  -2.902  1.00 20.00    -0.374 OA
ENDROOT
BRANCH   2   4
HETATM    4  C1  UNL     1     -34.880  13.776  -3.976  1.00 20.00     0.265 C 
HETATM    5  O4  UNL     1     -35.000  12.632  -4.401  1.00 20.00    -0.304 OA
ENDBRANCH   2   4
TORSDOF 1
ENDMDL
