MODEL 1
REMARK VINA RESULT:      -5.0      0.000      0.000
REMARK  3 active torsions:
REMARK  status: ('A' for Active; 'I' for Inactive)
REMARK    1  A    between atoms: C3_3  and  C8_8 
REMARK    2  A    between atoms: C6_6  and  C7_7 
REMARK    3  A    between atoms: C7_7  and  C8_8 
ROOT
HETATM    1  C5  UNL     1     -33.652   7.274   6.642  1.00 20.00     0.010 C 
HETATM    2  C8  UNL     1     -33.677   6.182   5.572  1.00 20.00    -0.014 C 
ENDROOT
BRANCH   2   3
HETATM    3  C3  UNL     1     -34.874   5.256   5.808  1.00 20.00    -0.011 A 
HETATM    4  C1  UNL     1     -35.382   4.377   4.698  1.00 20.00     0.005 A 
HETATM    5  C2  UNL     1     -34.676   3.767   5.877  1.00 20.00     0.005 A 
ENDBRANCH   2   3
BRANCH   2   6
HETATM    6  C7  UNL     1     -33.736   6.757   4.145  1.00 20.00     0.004 C 
BRANCH   6   7
HETATM    7  C6  UNL     1     -32.464   6.502   3.332  1.00 20.00    -0.004 C 
HETATM    8  C4  UNL     1     -32.079   7.722   2.509  1.00 20.00     0.005 C 
ENDBRANCH   6   7
ENDBRANCH   2   6
TORSDOF 3
ENDMDL
MODEL 2
REMARK VINA RESULT:      -4.7      1.003      2.212
REMARK  3 active torsions:
REMARK  status: ('A' for Active; 'I' for Inactive)
REMARK    1  A    between atoms: C3_3  and  C8_8 
REMARK    2  A    between atoms: C6_6  and  C7_7 
REMARK    3  A    between atoms: C7_7  and  C8_8 
ROOT
HETATM    1  C5  UNL     1     -35.199   5.426   3.470  1.00 20.00     0.010 C 
HETATM    2  C8  UNL     1     -34.032   6.265   3.991  1.00 20.00    -0.014 C 
ENDROOT
BRANCH   2   3
HETATM    3  C3  UNL     1     -33.668   5.817   5.409  1.00 20.00    -0.011 A 
HETATM    4  C1  UNL     1     -33.911   6.730   6.579  1.00 20.00     0.005 A 
HETATM    5  C2  UNL     1     -34.749   5.495   6.403  1.00 20.00     0.005 A 
ENDBRANCH   2   3
BRANCH   2   6
HETATM    6  C7  UNL     1     -32.793   6.180   3.081  1.00 20.00     0.004 C 
BRANCH   6   7
HETATM    7  C6  UNL     1     -31.893   7.415   3.159  1.00 20.00    -0.004 C 
HETATM    8  C4  UNL     1     -32.087   8.319   1.950  1.00 20.00     0.005 C 
ENDBRANCH   6   7
ENDBRANCH   2   6
TORSDOF 3
ENDMDL
MODEL 3
REMARK VINA RESULT:      -4.4      1.090      3.944
REMARK  3 active torsions:
REMARK  status: ('A' for Active; 'I' for Inactive)
REMARK    1  A    between atoms: C3_3  and  C8_8 
REMARK    2  A    between atoms: C6_6  and  C7_7 
REMARK    3  A    between atoms: C7_7  and  C8_8 
ROOT
HETATM    1  C5  UNL     1     -35.636   5.819   3.417  1.00 20.00     0.010 C 
HETATM    2  C8  UNL     1     -34.223   5.721   3.992  1.00 20.00    -0.014 C 
ENDROOT
BRANCH   2   3
HETATM    3  C3  UNL     1     -33.239   6.443   3.067  1.00 20.00    -0.011 A 
HETATM    4  C1  UNL     1     -32.066   7.188   3.642  1.00 20.00     0.005 A 
HETATM    5  C2  UNL     1     -31.845   5.910   2.882  1.00 20.00     0.005 A 
ENDBRANCH   2   3
BRANCH   2   6
HETATM    6  C7  UNL     1     -34.125   6.302   5.415  1.00 20.00     0.004 C 
BRANCH   6   7
HETATM    7  C6  UNL     1     -34.680   5.369   6.494  1.00 20.00    -0.004 C 
HETATM    8  C4  UNL     1     -34.690   3.922   6.023  1.00 20.00     0.005 C 
ENDBRANCH   6   7
ENDBRANCH   2   6
TORSDOF 3
ENDMDL
MODEL 4
REMARK VINA RESULT:      -4.2      0.770      3.667
REMARK  3 active torsions:
REMARK  status: ('A' for Active; 'I' for Inactive)
REMARK    1  A    between atoms: C3_3  and  C8_8 
REMARK    2  A    between atoms: C6_6  and  C7_7 
REMARK    3  A    between atoms: C7_7  and  C8_8 
ROOT
HETATM    1  C5  UNL     1     -33.735   6.843   6.186  1.00 20.00     0.010 C 
HETATM    2  C8  UNL     1     -33.940   6.699   4.678  1.00 20.00    -0.014 C 
ENDROOT
BRANCH   2   3
HETATM    3  C3  UNL     1     -32.584   6.546   3.985  1.00 20.00    -0.011 A 
HETATM    4  C1  UNL     1     -32.499   5.946   2.609  1.00 20.00     0.005 A 
HETATM    5  C2  UNL     1     -32.233   7.412   2.807  1.00 20.00     0.005 A 
ENDBRANCH   2   3
BRANCH   2   6
HETATM    6  C7  UNL     1     -34.848   5.509   4.318  1.00 20.00     0.004 C 
BRANCH   6   7
HETATM    7  C6  UNL     1     -35.247   4.659   5.527  1.00 20.00    -0.004 C 
HETATM    8  C4  UNL     1     -34.299   3.484   5.716  1.00 20.00     0.005 C 
ENDBRANCH   6   7
ENDBRANCH   2   6
TORSDOF 3
ENDMDL
MODEL 5
REMARK VINA RESULT:      -4.1      1.097      4.086
REMARK  3 active torsions:
REMARK  status: ('A' for Active; 'I' for Inactive)
REMARK    1  A    between atoms: C3_3  and  C8_8 
REMARK    2  A    between atoms: C6_6  and  C7_7 
REMARK    3  A    between atoms: C7_7  and  C8_8 
ROOT
HETATM    1  C5  UNL     1     -34.549   5.432   2.739  1.00 20.00     0.010 C 
HETATM    2  C8  UNL     1     -33.490   5.638   3.822  1.00 20.00    -0.014 C 
ENDROOT
BRANCH   2   3
HETATM    3  C3  UNL     1     -32.234   6.259   3.204  1.00 20.00    -0.011 A 
HETATM    4  C1  UNL     1     -32.308   7.594   2.517  1.00 20.00     0.005 A 
HETATM    5  C2  UNL     1     -31.597   7.466   3.835  1.00 20.00     0.005 A 
ENDBRANCH   2   3
BRANCH   2   6
HETATM    6  C7  UNL     1     -33.994   6.521   4.978  1.00 20.00     0.004 C 
BRANCH   6   7
HETATM    7  C6  UNL     1     -34.313   5.734   6.252  1.00 20.00    -0.004 C 
HETATM    8  C4  UNL     1     -34.860   4.352   5.927  1.00 20.00     0.005 C 
ENDBRANCH   6   7
ENDBRANCH   2   6
TORSDOF 3
ENDMDL
MODEL 6
REMARK VINA RESULT:      -3.9     11.733     12.856
REMARK  3 active torsions:
REMARK  status: ('A' for Active; 'I' for Inactive)
REMARK    1  A    between atoms: C3_3  and  C8_8 
REMARK    2  A    between atoms: C6_6  and  C7_7 
REMARK    3  A    between atoms: C7_7  and  C8_8 
ROOT
HETATM    1  C5  UNL     1     -33.392  16.698  -4.385  1.00 20.00     0.010 C 
HETATM    2  C8  UNL     1     -33.609  16.083  -3.002  1.00 20.00    -0.014 C 
ENDROOT
BRANCH   2   3
HETATM    3  C3  UNL     1     -34.264  17.112  -2.077  1.00 20.00    -0.011 A 
HETATM    4  C1  UNL     1     -34.665  16.729  -0.680  1.00 20.00     0.005 A 
HETATM    5  C2  UNL     1     -33.508  17.662  -0.900  1.00 20.00     0.005 A 
ENDBRANCH   2   3
BRANCH   2   6
HETATM    6  C7  UNL     1     -34.467  14.806  -3.054  1.00 20.00     0.004 C 
BRANCH   6   7
HETATM    7  C6  UNL     1     -33.811  13.661  -3.829  1.00 20.00    -0.004 C 
HETATM    8  C4  UNL     1     -34.680  13.210  -4.993  1.00 20.00     0.005 C 
ENDBRANCH   6   7
ENDBRANCH   2   6
TORSDOF 3
ENDMDL
MODEL 7
REMARK VINA RESULT:      -3.7     11.734     12.612
REMARK  3 active torsions:
REMARK  status: ('A' for Active; 'I' for Inactive)
REMARK    1  A    between atoms: C3_3  and  C8_8 
REMARK    2  A    between atoms: C6_6  and  C7_7 
REMARK    3  A    between atoms: C7_7  and  C8_8 
ROOT
HETATM    1  C5  UNL     1     -36.245  16.556  -3.505  1.00 20.00     0.010 C 
HETATM    2  C8  UNL     1     -35.227  15.568  -2.934  1.00 20.00    -0.014 C 
ENDROOT
BRANCH   2   3
HETATM    3  C3  UNL     1     -34.583  14.774  -4.074  1.00 20.00    -0.011 A 
HETATM    4  C1  UNL     1     -33.508  13.764  -3.781  1.00 20.00     0.005 A 
HETATM    5  C2  UNL     1     -34.868  13.306  -4.229  1.00 20.00     0.005 A 
ENDBRANCH   2   3
BRANCH   2   6
HETATM    6  C7  UNL     1     -34.136  16.263  -2.099  1.00 20.00     0.004 C 
BRANCH   6   7
HETATM    7  C6  UNL     1     -34.612  16.692  -0.709  1.00 20.00    -0.004 C 
HETATM    8  C4  UNL     1     -33.858  17.919  -0.220  1.00 20.00     0.005 C 
ENDBRANCH   6   7
ENDBRANCH   2   6
TORSDOF 3
ENDMDL
MODEL 8
REMARK VINA RESULT:      -3.7      1.423      2.407
REMARK  3 active torsions:
REMARK  status: ('A' for Active; 'I' for Inactive)
REMARK    1  A    between atoms: C3_3  and  C8_8 
REMARK    2  A    between atoms: C6_6  and  C7_7 
REMARK    3  A    between atoms: C7_7  and  C8_8 
ROOT
HETATM    1  C5  UNL     1     -31.607   7.679   4.390  1.00 20.00     0.010 C 
HETATM    2  C8  UNL     1     -32.404   6.686   3.543  1.00 20.00    -0.014 C 
ENDROOT
BRANCH   2   3
HETATM    3  C3  UNL     1     -33.828   6.565   4.092  1.00 20.00    -0.011 A 
HETATM    4  C1  UNL     1     -34.756   5.506   3.564  1.00 20.00     0.005 A 
HETATM    5  C2  UNL     1     -34.208   5.397   4.960  1.00 20.00     0.005 A 
ENDBRANCH   2   3
BRANCH   2   6
HETATM    6  C7  UNL     1     -32.449   7.085   2.056  1.00 20.00     0.004 C 
BRANCH   6   7
HETATM    7  C6  UNL     1     -31.782   8.432   1.766  1.00 20.00    -0.004 C 
HETATM    8  C4  UNL     1     -32.492   9.170   0.641  1.00 20.00     0.005 C 
ENDBRANCH   6   7
ENDBRANCH   2   6
TORSDOF 3
ENDMDL
MODEL 9
REMARK VINA RESULT:      -3.6     11.656     13.572
REMARK  3 active torsions:
REMARK  status: ('A' for Active; 'I' for Inactive)
REMARK    1  A    between atoms: C3_3  and  C8_8 
REMARK    2  A    between atoms: C6_6  and  C7_7 
REMARK    3  A    between atoms: C7_7  and  C8_8 
ROOT
HETATM    1  C5  UNL     1     -34.307  13.613  -3.732  1.00 20.00     0.010 C 
HETATM    2  C8  UNL     1     -33.715  14.961  -4.145  1.00 20.00    -0.014 C 
ENDROOT
BRANCH   2   3
HETATM    3  C3  UNL     1     -34.578  15.588  -5.243  1.00 20.00    -0.011 A 
HETATM    4  C1  UNL     1     -34.144  16.863  -5.913  1.00 20.00     0.005 A 
HETATM    5  C2  UNL     1     -34.116  15.567  -6.674  1.00 20.00     0.005 A 
ENDBRANCH   2   3
BRANCH   2   6
HETATM    6  C7  UNL     1     -33.586  15.936  -2.960  1.00 20.00     0.004 C 
BRANCH   6   7
HETATM    7  C6  UNL     1     -34.845  16.009  -2.092  1.00 20.00    -0.004 C 
HETATM    8  C4  UNL     1     -34.565  16.705  -0.769  1.00 20.00     0.005 C 
ENDBRANCH   6   7
ENDBRANCH   2   6
TORSDOF 3
ENDMDL
