MODEL 1
REMARK VINA RESULT:      -4.7      0.000      0.000
REMARK  2 active torsions:
REMARK  status: ('A' for Active; 'I' for Inactive)
REMARK    1  A    between atoms: C6_6  and  C11_11 
REMARK    2  A    between atoms: C11_11  and  O12_12 
ROOT
HETATM    1  C1  UNL     1     -33.613  18.369  -2.399  1.00 20.00    -0.024 C 
HETATM    2  C2  UNL     1     -33.940  18.180  -1.109  1.00 20.00    -0.087 C 
HETATM    3  C3  UNL     1     -33.726  17.305  -3.451  1.00 20.00     0.035 C 
HETATM    4  C4  UNL     1     -34.490  16.866  -0.610  1.00 20.00     0.034 C 
HETATM    5  C5  UNL     1     -34.927  15.917  -1.729  1.00 20.00     0.012 C 
HETATM    6  C6  UNL     1     -33.904  15.894  -2.869  1.00 20.00     0.023 C 
HETATM    7  C7  UNL     1     -33.778  19.261  -0.082  1.00 20.00     0.043 C 
ENDROOT
BRANCH   6   8
HETATM    8  C11 UNL     1     -34.313  14.905  -3.958  1.00 20.00     0.057 C 
HETATM    9  C8  UNL     1     -35.806  14.596  -3.871  1.00 20.00     0.046 C 
HETATM   10  C9  UNL     1     -33.493  13.619  -3.864  1.00 20.00     0.046 C 
BRANCH   8  11
HETATM   11  O12 UNL     1     -34.073  15.506  -5.232  1.00 20.00    -0.385 OA
HETATM   12  C10 UNL     1     -34.669  14.753  -6.276  1.00 20.00     0.202 C 
ENDBRANCH   8  11
ENDBRANCH   6   8
TORSDOF 2
ENDMDL
MODEL 2
REMARK VINA RESULT:      -4.6      0.992      1.540
REMARK  2 active torsions:
REMARK  status: ('A' for Active; 'I' for Inactive)
REMARK    1  A    between atoms: C6_6  and  C11_11 
REMARK    2  A    between atoms: C11_11  and  O12_12 
ROOT
HETATM    1  C1  UNL     1     -33.617  18.491  -2.059  1.00 20.00    -0.024 C 
HETATM    2  C2  UNL     1     -33.999  17.999  -0.868  1.00 20.00    -0.087 C 
HETATM    3  C3  UNL     1     -33.697  17.718  -3.343  1.00 20.00     0.035 C 
HETATM    4  C4  UNL     1     -34.582  16.615  -0.726  1.00 20.00     0.034 C 
HETATM    5  C5  UNL     1     -34.983  15.976  -2.059  1.00 20.00     0.012 C 
HETATM    6  C6  UNL     1     -33.913  16.211  -3.130  1.00 20.00     0.023 C 
HETATM    7  C7  UNL     1     -33.868  18.794   0.398  1.00 20.00     0.043 C 
ENDROOT
BRANCH   6   8
HETATM    8  C11 UNL     1     -34.287  15.526  -4.443  1.00 20.00     0.057 C 
HETATM    9  C8  UNL     1     -33.664  16.260  -5.629  1.00 20.00     0.046 C 
HETATM   10  C9  UNL     1     -35.805  15.443  -4.601  1.00 20.00     0.046 C 
BRANCH   8  11
HETATM   11  O12 UNL     1     -33.758  14.200  -4.433  1.00 20.00    -0.385 OA
HETATM   12  C10 UNL     1     -34.748  13.247  -4.782  1.00 20.00     0.202 C 
ENDBRANCH   8  11
ENDBRANCH   6   8
TORSDOF 2
ENDMDL
MODEL 3
REMARK VINA RESULT:      -4.6      1.787      4.893
REMARK  2 active torsions:
REMARK  status: ('A' for Active; 'I' for Inactive)
REMARK    1  A    between atoms: C6_6  and  C11_11 
REMARK    2  A    between atoms: C11_11  and  O12_12 
ROOT
HETATM    1  C1  UNL     1     -35.832  14.790  -3.625  1.00 20.00    -0.024 C 
HETATM    2  C2  UNL     1     -34.680  14.238  -4.042  1.00 20.00    -0.087 C 
HETATM    3  C3  UNL     1     -35.903  15.932  -2.652  1.00 20.00     0.035 C 
HETATM    4  C4  UNL     1     -33.337  14.750  -3.584  1.00 20.00     0.034 C 
HETATM    5  C5  UNL     1     -33.403  16.111  -2.884  1.00 20.00     0.012 C 
HETATM    6  C6  UNL     1     -34.581  16.175  -1.907  1.00 20.00     0.023 C 
HETATM    7  C7  UNL     1     -34.656  13.074  -4.989  1.00 20.00     0.043 C 
ENDROOT
BRANCH   6   8
HETATM    8  C11 UNL     1     -34.614  17.512  -1.169  1.00 20.00     0.057 C 
HETATM    9  C8  UNL     1     -34.942  17.303   0.308  1.00 20.00     0.046 C 
HETATM   10  C9  UNL     1     -35.620  18.465  -1.812  1.00 20.00     0.046 C 
BRANCH   8  11
HETATM   11  O12 UNL     1     -33.316  18.104  -1.241  1.00 20.00    -0.385 OA
HETATM   12  C10 UNL     1     -32.899  18.587   0.025  1.00 20.00     0.202 C 
ENDBRANCH   8  11
ENDBRANCH   6   8
TORSDOF 2
ENDMDL
MODEL 4
REMARK VINA RESULT:      -4.5      1.617      2.642
REMARK  2 active torsions:
REMARK  status: ('A' for Active; 'I' for Inactive)
REMARK    1  A    between atoms: C6_6  and  C11_11 
REMARK    2  A    between atoms: C11_11  and  O12_12 
ROOT
HETATM    1  C1  UNL     1     -34.140  16.716  -1.598  1.00 20.00    -0.024 C 
HETATM    2  C2  UNL     1     -33.888  17.861  -2.255  1.00 20.00    -0.087 C 
HETATM    3  C3  UNL     1     -34.807  15.526  -2.226  1.00 20.00     0.035 C 
HETATM    4  C4  UNL     1     -34.233  18.038  -3.713  1.00 20.00     0.034 C 
HETATM    5  C5  UNL     1     -34.583  16.729  -4.426  1.00 20.00     0.012 C 
HETATM    6  C6  UNL     1     -35.495  15.853  -3.561  1.00 20.00     0.023 C 
HETATM    7  C7  UNL     1     -33.250  19.039  -1.579  1.00 20.00     0.043 C 
ENDROOT
BRANCH   6   8
HETATM    8  C11 UNL     1     -35.889  14.573  -4.295  1.00 20.00     0.057 C 
HETATM    9  C8  UNL     1     -34.833  13.489  -4.091  1.00 20.00     0.046 C 
HETATM   10  C9  UNL     1     -36.101  14.842  -5.784  1.00 20.00     0.046 C 
BRANCH   8  11
HETATM   11  O12 UNL     1     -37.114  14.088  -3.742  1.00 20.00    -0.385 OA
HETATM   12  C10 UNL     1     -38.169  15.015  -3.936  1.00 20.00     0.202 C 
ENDBRANCH   8  11
ENDBRANCH   6   8
TORSDOF 2
ENDMDL
MODEL 5
REMARK VINA RESULT:      -4.5      2.048      4.992
REMARK  2 active torsions:
REMARK  status: ('A' for Active; 'I' for Inactive)
REMARK    1  A    between atoms: C6_6  and  C11_11 
REMARK    2  A    between atoms: C11_11  and  O12_12 
ROOT
HETATM    1  C1  UNL     1     -35.899  14.852  -3.581  1.00 20.00    -0.024 C 
HETATM    2  C2  UNL     1     -34.741  14.325  -4.012  1.00 20.00    -0.087 C 
HETATM    3  C3  UNL     1     -35.985  15.940  -2.549  1.00 20.00     0.035 C 
HETATM    4  C4  UNL     1     -33.405  14.815  -3.511  1.00 20.00     0.034 C 
HETATM    5  C5  UNL     1     -33.483  16.136  -2.740  1.00 20.00     0.012 C 
HETATM    6  C6  UNL     1     -34.673  16.146  -1.775  1.00 20.00     0.023 C 
HETATM    7  C7  UNL     1     -34.702  13.214  -5.019  1.00 20.00     0.043 C 
ENDROOT
BRANCH   6   8
HETATM    8  C11 UNL     1     -34.718  17.441  -0.968  1.00 20.00     0.057 C 
HETATM    9  C8  UNL     1     -35.789  18.381  -1.518  1.00 20.00     0.046 C 
HETATM   10  C9  UNL     1     -33.353  18.128  -0.963  1.00 20.00     0.046 C 
BRANCH   8  11
HETATM   11  O12 UNL     1     -35.074  17.127   0.379  1.00 20.00    -0.385 OA
HETATM   12  C10 UNL     1     -34.596  18.111   1.282  1.00 20.00     0.202 C 
ENDBRANCH   8  11
ENDBRANCH   6   8
TORSDOF 2
ENDMDL
MODEL 6
REMARK VINA RESULT:      -4.4      1.469      2.500
REMARK  2 active torsions:
REMARK  status: ('A' for Active; 'I' for Inactive)
REMARK    1  A    between atoms: C6_6  and  C11_11 
REMARK    2  A    between atoms: C11_11  and  O12_12 
ROOT
HETATM    1  C1  UNL     1     -34.667  15.931  -1.910  1.00 20.00    -0.024 C 
HETATM    2  C2  UNL     1     -34.036  17.114  -2.010  1.00 20.00    -0.087 C 
HETATM    3  C3  UNL     1     -35.071  15.100  -3.093  1.00 20.00     0.035 C 
HETATM    4  C4  UNL     1     -33.647  17.700  -3.345  1.00 20.00     0.034 C 
HETATM    5  C5  UNL     1     -33.743  16.706  -4.506  1.00 20.00     0.012 C 
HETATM    6  C6  UNL     1     -35.028  15.875  -4.420  1.00 20.00     0.023 C 
HETATM    7  C7  UNL     1     -33.681  17.928  -0.801  1.00 20.00     0.043 C 
ENDROOT
BRANCH   6   8
HETATM    8  C11 UNL     1     -35.150  14.924  -5.608  1.00 20.00     0.057 C 
HETATM    9  C8  UNL     1     -34.780  13.500  -5.197  1.00 20.00     0.046 C 
HETATM   10  C9  UNL     1     -34.276  15.389  -6.772  1.00 20.00     0.046 C 
BRANCH   8  11
HETATM   11  O12 UNL     1     -36.511  14.906  -6.040  1.00 20.00    -0.385 OA
HETATM   12  C10 UNL     1     -37.036  16.219  -6.145  1.00 20.00     0.202 C 
ENDBRANCH   8  11
ENDBRANCH   6   8
TORSDOF 2
ENDMDL
MODEL 7
REMARK VINA RESULT:      -4.4      1.130      1.926
REMARK  2 active torsions:
REMARK  status: ('A' for Active; 'I' for Inactive)
REMARK    1  A    between atoms: C6_6  and  C11_11 
REMARK    2  A    between atoms: C11_11  and  O12_12 
ROOT
HETATM    1  C1  UNL     1     -34.555  16.239  -1.475  1.00 20.00    -0.024 C 
HETATM    2  C2  UNL     1     -33.978  17.435  -1.689  1.00 20.00    -0.087 C 
HETATM    3  C3  UNL     1     -34.991  15.317  -2.577  1.00 20.00     0.035 C 
HETATM    4  C4  UNL     1     -33.687  17.944  -3.079  1.00 20.00     0.034 C 
HETATM    5  C5  UNL     1     -33.808  16.871  -4.165  1.00 20.00     0.012 C 
HETATM    6  C6  UNL     1     -35.052  16.003  -3.952  1.00 20.00     0.023 C 
HETATM    7  C7  UNL     1     -33.589  18.340  -0.558  1.00 20.00     0.043 C 
ENDROOT
BRANCH   6   8
HETATM    8  C11 UNL     1     -35.201  14.970  -5.066  1.00 20.00     0.057 C 
HETATM    9  C8  UNL     1     -36.532  15.151  -5.793  1.00 20.00     0.046 C 
HETATM   10  C9  UNL     1     -35.081  13.550  -4.513  1.00 20.00     0.046 C 
BRANCH   8  11
HETATM   11  O12 UNL     1     -34.159  15.175  -6.021  1.00 20.00    -0.385 OA
HETATM   12  C10 UNL     1     -34.611  14.916  -7.340  1.00 20.00     0.202 C 
ENDBRANCH   8  11
ENDBRANCH   6   8
TORSDOF 2
ENDMDL
MODEL 8
REMARK VINA RESULT:      -4.3     12.847     14.707
REMARK  2 active torsions:
REMARK  status: ('A' for Active; 'I' for Inactive)
REMARK    1  A    between atoms: C6_6  and  C11_11 
REMARK    2  A    between atoms: C11_11  and  O12_12 
ROOT
HETATM    1  C1  UNL     1     -41.018   5.372  -1.209  1.00 20.00    -0.024 C 
HETATM    2  C2  UNL     1     -41.813   6.424  -1.468  1.00 20.00    -0.087 C 
HETATM    3  C3  UNL     1     -41.230   4.006  -1.794  1.00 20.00     0.035 C 
HETATM    4  C4  UNL     1     -42.987   6.326  -2.410  1.00 20.00     0.034 C 
HETATM    5  C5  UNL     1     -42.990   5.051  -3.259  1.00 20.00     0.012 C 
HETATM    6  C6  UNL     1     -42.623   3.824  -2.419  1.00 20.00     0.023 C 
HETATM    7  C7  UNL     1     -41.585   7.765  -0.834  1.00 20.00     0.043 C 
ENDROOT
BRANCH   6   8
HETATM    8  C11 UNL     1     -42.680   2.547  -3.254  1.00 20.00     0.057 C 
HETATM    9  C8  UNL     1     -43.417   1.443  -2.499  1.00 20.00     0.046 C 
HETATM   10  C9  UNL     1     -41.275   2.086  -3.641  1.00 20.00     0.046 C 
BRANCH   8  11
HETATM   11  O12 UNL     1     -43.415   2.815  -4.449  1.00 20.00    -0.385 OA
HETATM   12  C10 UNL     1     -43.417   1.693  -5.316  1.00 20.00     0.202 C 
ENDBRANCH   8  11
ENDBRANCH   6   8
TORSDOF 2
ENDMDL
MODEL 9
REMARK VINA RESULT:      -4.3      1.421      2.350
REMARK  2 active torsions:
REMARK  status: ('A' for Active; 'I' for Inactive)
REMARK    1  A    between atoms: C6_6  and  C11_11 
REMARK    2  A    between atoms: C11_11  and  O12_12 
ROOT
HETATM    1  C1  UNL     1     -33.417  18.968  -0.527  1.00 20.00    -0.024 C 
HETATM    2  C2  UNL     1     -34.081  18.182   0.338  1.00 20.00    -0.087 C 
HETATM    3  C3  UNL     1     -33.317  18.688  -1.998  1.00 20.00     0.035 C 
HETATM    4  C4  UNL     1     -34.823  16.948  -0.113  1.00 20.00     0.034 C 
HETATM    5  C5  UNL     1     -35.010  16.862  -1.631  1.00 20.00     0.012 C 
HETATM    6  C6  UNL     1     -33.728  17.254  -2.371  1.00 20.00     0.023 C 
HETATM    7  C7  UNL     1     -34.127  18.480   1.807  1.00 20.00     0.043 C 
ENDROOT
BRANCH   6   8
HETATM    8  C11 UNL     1     -33.898  17.115  -3.882  1.00 20.00     0.057 C 
HETATM    9  C8  UNL     1     -33.761  18.474  -4.566  1.00 20.00     0.046 C 
HETATM   10  C9  UNL     1     -35.245  16.478  -4.223  1.00 20.00     0.046 C 
BRANCH   8  11
HETATM   11  O12 UNL     1     -32.858  16.275  -4.383  1.00 20.00    -0.385 OA
HETATM   12  C10 UNL     1     -32.895  14.992  -3.779  1.00 20.00     0.202 C 
ENDBRANCH   8  11
ENDBRANCH   6   8
TORSDOF 2
ENDMDL
