MODEL 1
REMARK VINA RESULT:      -5.0      0.000      0.000
REMARK  0 active torsions:
REMARK  status: ('A' for Active; 'I' for Inactive)
ROOT
HETATM    1  C1  UNL     1     -33.886  16.297  -2.519  1.00 20.00     0.002 A 
HETATM    2  C2  UNL     1     -34.245  15.032  -2.985  1.00 20.00     0.016 A 
HETATM    3  C3  UNL     1     -33.737  17.371  -3.412  1.00 20.00     0.019 A 
HETATM    4  C4  UNL     1     -34.444  14.891  -4.346  1.00 20.00     0.017 A 
HETATM    5  C5  UNL     1     -34.303  15.939  -5.245  1.00 20.00    -0.026 A 
HETATM    6  C6  UNL     1     -33.945  17.196  -4.784  1.00 20.00     0.018 A 
HETATM    7  C7  UNL     1     -34.818  13.699  -5.092  1.00 20.00     0.160 A 
HETATM    8  C8  UNL     1     -34.571  15.532  -6.659  1.00 20.00     0.048 A 
HETATM    9  C9  UNL     1     -34.917  14.036  -6.560  1.00 20.00     0.088 A 
HETATM   10  O10 UNL     1     -35.016  12.609  -4.588  1.00 20.00    -0.292 OA
HETATM   11 BR11 UNL     1     -33.735  18.668  -5.950  1.00 20.00    -0.051 Br
ENDROOT
TORSDOF 0
ENDMDL
MODEL 2
REMARK VINA RESULT:      -5.0      1.056      2.879
REMARK  0 active torsions:
REMARK  status: ('A' for Active; 'I' for Inactive)
ROOT
HETATM    1  C1  UNL     1     -35.211  15.483  -7.918  1.00 20.00     0.002 A 
HETATM    2  C2  UNL     1     -35.145  14.384  -7.062  1.00 20.00     0.016 A 
HETATM    3  C3  UNL     1     -34.759  16.745  -7.498  1.00 20.00     0.019 A 
HETATM    4  C4  UNL     1     -34.621  14.595  -5.800  1.00 20.00     0.017 A 
HETATM    5  C5  UNL     1     -34.169  15.833  -5.364  1.00 20.00    -0.026 A 
HETATM    6  C6  UNL     1     -34.234  16.926  -6.214  1.00 20.00     0.018 A 
HETATM    7  C7  UNL     1     -34.440  13.638  -4.719  1.00 20.00     0.160 A 
HETATM    8  C8  UNL     1     -33.650  15.801  -3.962  1.00 20.00     0.048 A 
HETATM    9  C9  UNL     1     -33.827  14.336  -3.528  1.00 20.00     0.088 A 
HETATM   10  O10 UNL     1     -34.741  12.461  -4.788  1.00 20.00    -0.292 OA
HETATM   11 BR11 UNL     1     -33.637  18.640  -5.688  1.00 20.00    -0.051 Br
ENDROOT
TORSDOF 0
ENDMDL
MODEL 3
REMARK VINA RESULT:      -4.7      2.147      2.728
REMARK  0 active torsions:
REMARK  status: ('A' for Active; 'I' for Inactive)
ROOT
HETATM    1  C1  UNL     1     -37.493  16.046  -3.467  1.00 20.00     0.002 A 
HETATM    2  C2  UNL     1     -36.922  14.831  -3.844  1.00 20.00     0.016 A 
HETATM    3  C3  UNL     1     -36.691  17.096  -2.988  1.00 20.00     0.019 A 
HETATM    4  C4  UNL     1     -35.550  14.712  -3.724  1.00 20.00     0.017 A 
HETATM    5  C5  UNL     1     -34.738  15.736  -3.253  1.00 20.00    -0.026 A 
HETATM    6  C6  UNL     1     -35.305  16.944  -2.878  1.00 20.00     0.018 A 
HETATM    7  C7  UNL     1     -34.705  13.571  -4.040  1.00 20.00     0.160 A 
HETATM    8  C8  UNL     1     -33.291  15.361  -3.217  1.00 20.00     0.048 A 
HETATM    9  C9  UNL     1     -33.264  13.916  -3.744  1.00 20.00     0.088 A 
HETATM   10  O10 UNL     1     -35.117  12.512  -4.475  1.00 20.00    -0.292 OA
HETATM   11 BR11 UNL     1     -34.263  18.380  -2.228  1.00 20.00    -0.051 Br
ENDROOT
TORSDOF 0
ENDMDL
MODEL 4
REMARK VINA RESULT:      -4.7      2.522      2.719
REMARK  0 active torsions:
REMARK  status: ('A' for Active; 'I' for Inactive)
ROOT
HETATM    1  C1  UNL     1     -34.294  17.190  -1.852  1.00 20.00     0.002 A 
HETATM    2  C2  UNL     1     -33.702  16.020  -2.329  1.00 20.00     0.016 A 
HETATM    3  C3  UNL     1     -35.643  17.471  -2.126  1.00 20.00     0.019 A 
HETATM    4  C4  UNL     1     -34.495  15.166  -3.072  1.00 20.00     0.017 A 
HETATM    5  C5  UNL     1     -35.830  15.425  -3.354  1.00 20.00    -0.026 A 
HETATM    6  C6  UNL     1     -36.420  16.586  -2.881  1.00 20.00     0.018 A 
HETATM    7  C7  UNL     1     -34.138  13.896  -3.684  1.00 20.00     0.160 A 
HETATM    8  C8  UNL     1     -36.469  14.350  -4.174  1.00 20.00     0.048 A 
HETATM    9  C9  UNL     1     -35.342  13.326  -4.396  1.00 20.00     0.088 A 
HETATM   10  O10 UNL     1     -33.034  13.390  -3.619  1.00 20.00    -0.292 OA
HETATM   11 BR11 UNL     1     -38.230  17.003  -3.227  1.00 20.00    -0.051 Br
ENDROOT
TORSDOF 0
ENDMDL
MODEL 5
REMARK VINA RESULT:      -4.6      2.030      2.767
REMARK  0 active torsions:
REMARK  status: ('A' for Active; 'I' for Inactive)
ROOT
HETATM    1  C1  UNL     1     -33.657  18.268  -4.937  1.00 20.00     0.002 A 
HETATM    2  C2  UNL     1     -33.831  17.219  -5.839  1.00 20.00     0.016 A 
HETATM    3  C3  UNL     1     -33.872  18.072  -3.562  1.00 20.00     0.019 A 
HETATM    4  C4  UNL     1     -34.219  15.997  -5.323  1.00 20.00     0.017 A 
HETATM    5  C5  UNL     1     -34.437  15.781  -3.969  1.00 20.00    -0.026 A 
HETATM    6  C6  UNL     1     -34.265  16.823  -3.071  1.00 20.00     0.018 A 
HETATM    7  C7  UNL     1     -34.471  14.750  -6.028  1.00 20.00     0.160 A 
HETATM    8  C8  UNL     1     -34.850  14.377  -3.663  1.00 20.00     0.048 A 
HETATM    9  C9  UNL     1     -34.872  13.684  -5.037  1.00 20.00     0.088 A 
HETATM   10  O10 UNL     1     -34.367  14.611  -7.233  1.00 20.00    -0.292 OA
HETATM   11 BR11 UNL     1     -34.544  16.602  -1.215  1.00 20.00    -0.051 Br
ENDROOT
TORSDOF 0
ENDMDL
MODEL 6
REMARK VINA RESULT:      -4.5      2.322      3.469
REMARK  0 active torsions:
REMARK  status: ('A' for Active; 'I' for Inactive)
ROOT
HETATM    1  C1  UNL     1     -34.599  13.647  -3.821  1.00 20.00     0.002 A 
HETATM    2  C2  UNL     1     -34.238  14.820  -3.158  1.00 20.00     0.016 A 
HETATM    3  C3  UNL     1     -34.827  13.651  -5.207  1.00 20.00     0.019 A 
HETATM    4  C4  UNL     1     -34.119  15.967  -3.919  1.00 20.00     0.017 A 
HETATM    5  C5  UNL     1     -34.340  15.993  -5.290  1.00 20.00    -0.026 A 
HETATM    6  C6  UNL     1     -34.698  14.829  -5.950  1.00 20.00     0.018 A 
HETATM    7  C7  UNL     1     -33.763  17.311  -3.491  1.00 20.00     0.160 A 
HETATM    8  C8  UNL     1     -34.148  17.352  -5.884  1.00 20.00     0.048 A 
HETATM    9  C9  UNL     1     -33.761  18.235  -4.685  1.00 20.00     0.088 A 
HETATM   10  O10 UNL     1     -33.508  17.618  -2.341  1.00 20.00    -0.292 OA
HETATM   11 BR11 UNL     1     -35.015  14.790  -7.813  1.00 20.00    -0.051 Br
ENDROOT
TORSDOF 0
ENDMDL
MODEL 7
REMARK VINA RESULT:      -4.5      6.609      8.220
REMARK  0 active torsions:
REMARK  status: ('A' for Active; 'I' for Inactive)
ROOT
HETATM    1  C1  UNL     1     -32.079  18.794   4.295  1.00 20.00     0.002 A 
HETATM    2  C2  UNL     1     -31.599  18.946   2.994  1.00 20.00     0.016 A 
HETATM    3  C3  UNL     1     -33.435  18.508   4.528  1.00 20.00     0.019 A 
HETATM    4  C4  UNL     1     -32.509  18.804   1.962  1.00 20.00     0.017 A 
HETATM    5  C5  UNL     1     -33.852  18.522   2.170  1.00 20.00    -0.026 A 
HETATM    6  C6  UNL     1     -34.331  18.371   3.462  1.00 20.00     0.018 A 
HETATM    7  C7  UNL     1     -32.283  18.912   0.530  1.00 20.00     0.160 A 
HETATM    8  C8  UNL     1     -34.628  18.418   0.896  1.00 20.00     0.048 A 
HETATM    9  C9  UNL     1     -33.582  18.676  -0.203  1.00 20.00     0.088 A 
HETATM   10  O10 UNL     1     -31.204  19.154   0.022  1.00 20.00    -0.292 OA
HETATM   11 BR11 UNL     1     -36.146  17.986   3.819  1.00 20.00    -0.051 Br
ENDROOT
TORSDOF 0
ENDMDL
MODEL 8
REMARK VINA RESULT:      -4.3      2.882      4.322
REMARK  0 active torsions:
REMARK  status: ('A' for Active; 'I' for Inactive)
ROOT
HETATM    1  C1  UNL     1     -33.696  17.568  -5.917  1.00 20.00     0.002 A 
HETATM    2  C2  UNL     1     -33.666  18.210  -4.678  1.00 20.00     0.016 A 
HETATM    3  C3  UNL     1     -34.033  16.208  -6.009  1.00 20.00     0.019 A 
HETATM    4  C4  UNL     1     -33.979  17.452  -3.565  1.00 20.00     0.017 A 
HETATM    5  C5  UNL     1     -34.315  16.107  -3.634  1.00 20.00    -0.026 A 
HETATM    6  C6  UNL     1     -34.345  15.468  -4.863  1.00 20.00     0.018 A 
HETATM    7  C7  UNL     1     -34.023  17.861  -2.170  1.00 20.00     0.160 A 
HETATM    8  C8  UNL     1     -34.610  15.512  -2.294  1.00 20.00     0.048 A 
HETATM    9  C9  UNL     1     -34.418  16.682  -1.313  1.00 20.00     0.088 A 
HETATM   10  O10 UNL     1     -33.777  18.986  -1.778  1.00 20.00    -0.292 OA
HETATM   11 BR11 UNL     1     -34.792  13.640  -5.032  1.00 20.00    -0.051 Br
ENDROOT
TORSDOF 0
ENDMDL
MODEL 9
REMARK VINA RESULT:      -4.3      6.545      7.866
REMARK  0 active torsions:
REMARK  status: ('A' for Active; 'I' for Inactive)
ROOT
HETATM    1  C1  UNL     1     -35.468  17.721   2.900  1.00 20.00     0.002 A 
HETATM    2  C2  UNL     1     -35.158  17.835   1.545  1.00 20.00     0.016 A 
HETATM    3  C3  UNL     1     -34.535  18.097   3.881  1.00 20.00     0.019 A 
HETATM    4  C4  UNL     1     -33.908  18.329   1.221  1.00 20.00     0.017 A 
HETATM    5  C5  UNL     1     -32.972  18.707   2.174  1.00 20.00    -0.026 A 
HETATM    6  C6  UNL     1     -33.278  18.594   3.521  1.00 20.00     0.018 A 
HETATM    7  C7  UNL     1     -33.330  18.548  -0.096  1.00 20.00     0.160 A 
HETATM    8  C8  UNL     1     -31.698  19.208   1.571  1.00 20.00     0.048 A 
HETATM    9  C9  UNL     1     -31.934  19.104   0.054  1.00 20.00     0.088 A 
HETATM   10  O10 UNL     1     -33.903  18.312  -1.144  1.00 20.00    -0.292 OA
HETATM   11 BR11 UNL     1     -32.054  19.089   4.872  1.00 20.00    -0.051 Br
ENDROOT
TORSDOF 0
ENDMDL
