MODEL 1
REMARK VINA RESULT:      -3.4      0.000      0.000
REMARK  2 active torsions:
REMARK  status: ('A' for Active; 'I' for Inactive)
REMARK    1  A    between atoms: C3_3  and  C4_4 
REMARK    2  A    between atoms: C4_4  and  O5_5 
ROOT
HETATM    1  C1  UNL     1     -33.388  13.770  -3.729  1.00 20.00     0.046 C 
HETATM    2  C2  UNL     1     -34.758  14.171  -5.783  1.00 20.00     0.046 C 
HETATM    3  C4  UNL     1     -34.813  13.836  -4.291  1.00 20.00     0.063 C 
ENDROOT
BRANCH   3   4
HETATM    4  C3  UNL     1     -35.636  14.850  -3.481  1.00 20.00     0.151 C 
HETATM    5 CL6  UNL     1     -34.661  15.744  -2.284  1.00 20.00    -0.127 Cl
ENDBRANCH   3   4
BRANCH   3   6
HETATM    6  O5  UNL     1     -35.393  12.537  -4.155  1.00 20.00    -0.390 OA
HETATM    7  H15 UNL     1     -35.990  12.426  -4.909  1.00 20.00     0.210 HD
ENDBRANCH   3   6
TORSDOF 2
ENDMDL
MODEL 2
REMARK VINA RESULT:      -3.3      1.666      2.434
REMARK  2 active torsions:
REMARK  status: ('A' for Active; 'I' for Inactive)
REMARK    1  A    between atoms: C3_3  and  C4_4 
REMARK    2  A    between atoms: C4_4  and  O5_5 
ROOT
HETATM    1  C1  UNL     1     -35.635  14.837  -3.596  1.00 20.00     0.046 C 
HETATM    2  C2  UNL     1     -33.381  13.776  -3.819  1.00 20.00     0.046 C 
HETATM    3  C4  UNL     1     -34.812  13.792  -4.359  1.00 20.00     0.063 C 
ENDROOT
BRANCH   3   4
HETATM    4  C3  UNL     1     -34.879  14.088  -5.865  1.00 20.00     0.151 C 
HETATM    5 CL6  UNL     1     -34.075  15.617  -6.312  1.00 20.00    -0.127 Cl
ENDBRANCH   3   4
BRANCH   3   6
HETATM    6  O5  UNL     1     -35.392  12.512  -4.101  1.00 20.00    -0.390 OA
HETATM    7  H15 UNL     1     -36.264  12.518  -4.521  1.00 20.00     0.210 HD
ENDBRANCH   3   6
TORSDOF 2
ENDMDL
MODEL 3
REMARK VINA RESULT:      -3.3      0.582      1.781
REMARK  2 active torsions:
REMARK  status: ('A' for Active; 'I' for Inactive)
REMARK    1  A    between atoms: C3_3  and  C4_4 
REMARK    2  A    between atoms: C4_4  and  O5_5 
ROOT
HETATM    1  C1  UNL     1     -34.952  14.139  -5.886  1.00 20.00     0.046 C 
HETATM    2  C2  UNL     1     -36.201  14.716  -3.797  1.00 20.00     0.046 C 
HETATM    3  C4  UNL     1     -35.046  13.896  -4.375  1.00 20.00     0.063 C 
ENDROOT
BRANCH   3   4
HETATM    4  C3  UNL     1     -33.695  14.222  -3.719  1.00 20.00     0.151 C 
HETATM    5 CL6  UNL     1     -33.711  15.760  -2.814  1.00 20.00    -0.127 Cl
ENDBRANCH   3   4
BRANCH   3   6
HETATM    6  O5  UNL     1     -35.349  12.514  -4.177  1.00 20.00    -0.390 OA
HETATM    7  H15 UNL     1     -36.286  12.406  -4.396  1.00 20.00     0.210 HD
ENDBRANCH   3   6
TORSDOF 2
ENDMDL
MODEL 4
REMARK VINA RESULT:      -3.1      2.823      3.211
REMARK  2 active torsions:
REMARK  status: ('A' for Active; 'I' for Inactive)
REMARK    1  A    between atoms: C3_3  and  C4_4 
REMARK    2  A    between atoms: C4_4  and  O5_5 
ROOT
HETATM    1  C1  UNL     1     -34.128  13.808  -3.880  1.00 20.00     0.046 C 
HETATM    2  C2  UNL     1     -33.737  15.954  -2.657  1.00 20.00     0.046 C 
HETATM    3  C4  UNL     1     -33.365  15.138  -3.895  1.00 20.00     0.063 C 
ENDROOT
BRANCH   3   4
HETATM    4  C3  UNL     1     -33.654  15.880  -5.209  1.00 20.00     0.151 C 
HETATM    5 CL6  UNL     1     -34.398  14.837  -6.451  1.00 20.00    -0.127 Cl
ENDBRANCH   3   4
BRANCH   3   6
HETATM    6  O5  UNL     1     -31.969  14.837  -3.817  1.00 20.00    -0.390 OA
HETATM    7  H15 UNL     1     -31.594  15.059  -4.682  1.00 20.00     0.210 HD
ENDBRANCH   3   6
TORSDOF 2
ENDMDL
MODEL 5
REMARK VINA RESULT:      -3.1     11.551     12.071
REMARK  2 active torsions:
REMARK  status: ('A' for Active; 'I' for Inactive)
REMARK    1  A    between atoms: C3_3  and  C4_4 
REMARK    2  A    between atoms: C4_4  and  O5_5 
ROOT
HETATM    1  C1  UNL     1     -34.186   6.282   5.361  1.00 20.00     0.046 C 
HETATM    2  C2  UNL     1     -34.852   3.920   4.879  1.00 20.00     0.046 C 
HETATM    3  C4  UNL     1     -34.693   5.319   4.281  1.00 20.00     0.063 C 
ENDROOT
BRANCH   3   4
HETATM    4  C3  UNL     1     -33.738   5.350   3.078  1.00 20.00     0.151 C 
HETATM    5 CL6  UNL     1     -32.363   6.463   3.306  1.00 20.00    -0.127 Cl
ENDBRANCH   3   4
BRANCH   3   6
HETATM    6  O5  UNL     1     -35.986   5.770   3.873  1.00 20.00    -0.390 OA
HETATM    7  H15 UNL     1     -36.628   5.252   4.382  1.00 20.00     0.210 HD
ENDBRANCH   3   6
TORSDOF 2
ENDMDL
MODEL 6
REMARK VINA RESULT:      -3.1     11.969     12.246
REMARK  2 active torsions:
REMARK  status: ('A' for Active; 'I' for Inactive)
REMARK    1  A    between atoms: C3_3  and  C4_4 
REMARK    2  A    between atoms: C4_4  and  O5_5 
ROOT
HETATM    1  C1  UNL     1     -42.020   4.506   0.187  1.00 20.00     0.046 C 
HETATM    2  C2  UNL     1     -41.017   6.362  -1.156  1.00 20.00     0.046 C 
HETATM    3  C4  UNL     1     -41.309   4.861  -1.124  1.00 20.00     0.063 C 
ENDROOT
BRANCH   3   4
HETATM    4  C3  UNL     1     -42.162   4.392  -2.314  1.00 20.00     0.151 C 
HETATM    5 CL6  UNL     1     -41.618   2.834  -2.992  1.00 20.00    -0.127 Cl
ENDBRANCH   3   4
BRANCH   3   6
HETATM    6  O5  UNL     1     -40.056   4.172  -1.138  1.00 20.00    -0.390 OA
HETATM    7  H15 UNL     1     -39.386   4.831  -1.368  1.00 20.00     0.210 HD
ENDBRANCH   3   6
TORSDOF 2
ENDMDL
MODEL 7
REMARK VINA RESULT:      -3.1     11.725     12.152
REMARK  2 active torsions:
REMARK  status: ('A' for Active; 'I' for Inactive)
REMARK    1  A    between atoms: C3_3  and  C4_4 
REMARK    2  A    between atoms: C4_4  and  O5_5 
ROOT
HETATM    1  C1  UNL     1     -34.943   4.089   4.865  1.00 20.00     0.046 C 
HETATM    2  C2  UNL     1     -34.061   4.979   2.700  1.00 20.00     0.046 C 
HETATM    3  C4  UNL     1     -34.774   5.346   4.004  1.00 20.00     0.063 C 
ENDROOT
BRANCH   3   4
HETATM    4  C3  UNL     1     -34.030   6.423   4.808  1.00 20.00     0.151 C 
HETATM    5 CL6  UNL     1     -34.221   6.233   6.572  1.00 20.00    -0.127 Cl
ENDBRANCH   3   4
BRANCH   3   6
HETATM    6  O5  UNL     1     -36.080   5.821   3.669  1.00 20.00    -0.390 OA
HETATM    7  H15 UNL     1     -36.351   5.335   2.876  1.00 20.00     0.210 HD
ENDBRANCH   3   6
TORSDOF 2
ENDMDL
MODEL 8
REMARK VINA RESULT:      -3.0      2.078      2.515
REMARK  2 active torsions:
REMARK  status: ('A' for Active; 'I' for Inactive)
REMARK    1  A    between atoms: C3_3  and  C4_4 
REMARK    2  A    between atoms: C4_4  and  O5_5 
ROOT
HETATM    1  C1  UNL     1     -34.437  14.900  -5.902  1.00 20.00     0.046 C 
HETATM    2  C2  UNL     1     -33.526  13.886  -3.805  1.00 20.00     0.046 C 
HETATM    3  C4  UNL     1     -33.780  15.198  -4.549  1.00 20.00     0.063 C 
ENDROOT
BRANCH   3   4
HETATM    4  C3  UNL     1     -34.662  16.174  -3.755  1.00 20.00     0.151 C 
HETATM    5 CL6  UNL     1     -34.519  15.965  -1.988  1.00 20.00    -0.127 Cl
ENDBRANCH   3   4
BRANCH   3   6
HETATM    6  O5  UNL     1     -32.513  15.807  -4.807  1.00 20.00    -0.390 OA
HETATM    7  H15 UNL     1     -32.662  16.763  -4.791  1.00 20.00     0.210 HD
ENDBRANCH   3   6
TORSDOF 2
ENDMDL
MODEL 9
REMARK VINA RESULT:      -3.0     11.752     11.974
REMARK  2 active torsions:
REMARK  status: ('A' for Active; 'I' for Inactive)
REMARK    1  A    between atoms: C3_3  and  C4_4 
REMARK    2  A    between atoms: C4_4  and  O5_5 
ROOT
HETATM    1  C1  UNL     1     -40.848   6.313  -0.653  1.00 20.00     0.046 C 
HETATM    2  C2  UNL     1     -42.136   4.943  -2.302  1.00 20.00     0.046 C 
HETATM    3  C4  UNL     1     -41.359   4.906  -0.985  1.00 20.00     0.063 C 
ENDROOT
BRANCH   3   4
HETATM    4  C3  UNL     1     -42.198   4.375   0.188  1.00 20.00     0.151 C 
HETATM    5 CL6  UNL     1     -43.104   5.658   1.036  1.00 20.00    -0.127 Cl
ENDBRANCH   3   4
BRANCH   3   6
HETATM    6  O5  UNL     1     -40.219   4.065  -1.173  1.00 20.00    -0.390 OA
HETATM    7  H15 UNL     1     -40.293   3.703  -2.068  1.00 20.00     0.210 HD
ENDBRANCH   3   6
TORSDOF 2
ENDMDL
