MODEL 1
REMARK VINA RESULT:      -3.0      0.000      0.000
REMARK  3 active torsions:
REMARK  status: ('A' for Active; 'I' for Inactive)
REMARK    1  A    between atoms: C1_1  and  S7_7 
REMARK    2  A    between atoms: C1_1  and  S8_8 
REMARK    3  A    between atoms: C5_5  and  S8_8 
ROOT
HETATM    1  S8  UNL     1     -35.734  15.679  -3.611  1.00 20.00    -0.103 SA
ENDROOT
BRANCH   1   2
HETATM    2  C1  UNL     1     -34.762  16.913  -2.829  1.00 20.00     0.102 C 
HETATM    3  S6  UNL     1     -34.133  18.230  -3.647  1.00 20.00    -0.065 SA
BRANCH   2   4
HETATM    4  S7  UNL     1     -34.562  16.695  -1.096  1.00 20.00    -0.124 SA
HETATM    5  H18 UNL     1     -33.321  17.196  -1.013  1.00 20.00     0.108 HD
ENDBRANCH   2   4
ENDBRANCH   1   2
BRANCH   1   6
HETATM    6  C5  UNL     1     -34.392  14.784  -4.486  1.00 20.00     0.003 C 
HETATM    7  C2  UNL     1     -33.089  14.963  -3.701  1.00 20.00     0.026 C 
HETATM    8  C3  UNL     1     -34.769  13.303  -4.559  1.00 20.00     0.026 C 
HETATM    9  C4  UNL     1     -34.250  15.368  -5.895  1.00 20.00     0.026 C 
ENDBRANCH   1   6
TORSDOF 3
ENDMDL
MODEL 2
REMARK VINA RESULT:      -3.0      0.032      1.533
REMARK  3 active torsions:
REMARK  status: ('A' for Active; 'I' for Inactive)
REMARK    1  A    between atoms: C1_1  and  S7_7 
REMARK    2  A    between atoms: C1_1  and  S8_8 
REMARK    3  A    between atoms: C5_5  and  S8_8 
ROOT
HETATM    1  S8  UNL     1     -35.741  15.669  -3.585  1.00 20.00    -0.103 SA
ENDROOT
BRANCH   1   2
HETATM    2  C1  UNL     1     -34.779  16.920  -2.819  1.00 20.00     0.102 C 
HETATM    3  S6  UNL     1     -34.179  18.243  -3.649  1.00 20.00    -0.065 SA
BRANCH   2   4
HETATM    4  S7  UNL     1     -34.556  16.712  -1.088  1.00 20.00    -0.124 SA
HETATM    5  H18 UNL     1     -35.171  17.841  -0.709  1.00 20.00     0.108 HD
ENDBRANCH   2   4
ENDBRANCH   1   2
BRANCH   1   6
HETATM    6  C5  UNL     1     -34.393  14.781  -4.460  1.00 20.00     0.003 C 
HETATM    7  C2  UNL     1     -34.747  13.293  -4.526  1.00 20.00     0.026 C 
HETATM    8  C3  UNL     1     -34.270  15.362  -5.871  1.00 20.00     0.026 C 
HETATM    9  C4  UNL     1     -33.088  14.985  -3.685  1.00 20.00     0.026 C 
ENDBRANCH   1   6
TORSDOF 3
ENDMDL
MODEL 3
REMARK VINA RESULT:      -2.9      0.048      1.534
REMARK  3 active torsions:
REMARK  status: ('A' for Active; 'I' for Inactive)
REMARK    1  A    between atoms: C1_1  and  S7_7 
REMARK    2  A    between atoms: C1_1  and  S8_8 
REMARK    3  A    between atoms: C5_5  and  S8_8 
ROOT
HETATM    1  S8  UNL     1     -35.716  15.631  -3.607  1.00 20.00    -0.103 SA
ENDROOT
BRANCH   1   2
HETATM    2  C1  UNL     1     -34.776  16.895  -2.834  1.00 20.00     0.102 C 
HETATM    3  S6  UNL     1     -34.188  18.225  -3.659  1.00 20.00    -0.065 SA
BRANCH   2   4
HETATM    4  S7  UNL     1     -34.563  16.689  -1.101  1.00 20.00    -0.124 SA
HETATM    5  H18 UNL     1     -33.814  17.782  -0.900  1.00 20.00     0.108 HD
ENDBRANCH   2   4
ENDBRANCH   1   2
BRANCH   1   6
HETATM    6  C5  UNL     1     -34.355  14.780  -4.496  1.00 20.00     0.003 C 
HETATM    7  C2  UNL     1     -34.213  15.403  -5.888  1.00 20.00     0.026 C 
HETATM    8  C3  UNL     1     -33.064  14.968  -3.696  1.00 20.00     0.026 C 
HETATM    9  C4  UNL     1     -34.698  13.292  -4.610  1.00 20.00     0.026 C 
ENDBRANCH   1   6
TORSDOF 3
ENDMDL
MODEL 4
REMARK VINA RESULT:      -2.9      1.204      2.173
REMARK  3 active torsions:
REMARK  status: ('A' for Active; 'I' for Inactive)
REMARK    1  A    between atoms: C1_1  and  S7_7 
REMARK    2  A    between atoms: C1_1  and  S8_8 
REMARK    3  A    between atoms: C5_5  and  S8_8 
ROOT
HETATM    1  S8  UNL     1     -33.149  15.266  -3.729  1.00 20.00    -0.103 SA
ENDROOT
BRANCH   1   2
HETATM    2  C1  UNL     1     -33.922  16.628  -2.940  1.00 20.00     0.102 C 
HETATM    3  S6  UNL     1     -34.575  16.539  -1.402  1.00 20.00    -0.065 SA
BRANCH   2   4
HETATM    4  S7  UNL     1     -33.893  18.122  -3.867  1.00 20.00    -0.124 SA
HETATM    5  H18 UNL     1     -34.085  18.956  -2.836  1.00 20.00     0.108 HD
ENDBRANCH   2   4
ENDBRANCH   1   2
BRANCH   1   6
HETATM    6  C5  UNL     1     -34.559  14.709  -4.763  1.00 20.00     0.003 C 
HETATM    7  C2  UNL     1     -34.564  13.178  -4.804  1.00 20.00     0.026 C 
HETATM    8  C3  UNL     1     -35.854  15.227  -4.132  1.00 20.00     0.026 C 
HETATM    9  C4  UNL     1     -34.389  15.280  -6.174  1.00 20.00     0.026 C 
ENDBRANCH   1   6
TORSDOF 3
ENDMDL
MODEL 5
REMARK VINA RESULT:      -2.9      1.965      3.586
REMARK  3 active torsions:
REMARK  status: ('A' for Active; 'I' for Inactive)
REMARK    1  A    between atoms: C1_1  and  S7_7 
REMARK    2  A    between atoms: C1_1  and  S8_8 
REMARK    3  A    between atoms: C5_5  and  S8_8 
ROOT
HETATM    1  S8  UNL     1     -33.362  15.508  -3.440  1.00 20.00    -0.103 SA
ENDROOT
BRANCH   1   2
HETATM    2  C1  UNL     1     -34.144  14.961  -4.911  1.00 20.00     0.102 C 
HETATM    3  S6  UNL     1     -34.276  15.914  -6.280  1.00 20.00    -0.065 SA
BRANCH   2   4
HETATM    4  S7  UNL     1     -34.716  13.299  -4.861  1.00 20.00    -0.124 SA
HETATM    5  H18 UNL     1     -35.929  13.530  -5.381  1.00 20.00     0.108 HD
ENDBRANCH   2   4
ENDBRANCH   1   2
BRANCH   1   6
HETATM    6  C5  UNL     1     -34.760  16.453  -2.719  1.00 20.00     0.003 C 
HETATM    7  C2  UNL     1     -34.737  17.874  -3.289  1.00 20.00     0.026 C 
HETATM    8  C3  UNL     1     -36.065  15.749  -3.099  1.00 20.00     0.026 C 
HETATM    9  C4  UNL     1     -34.597  16.486  -1.196  1.00 20.00     0.026 C 
ENDBRANCH   1   6
TORSDOF 3
ENDMDL
MODEL 6
REMARK VINA RESULT:      -2.9      1.174      2.264
REMARK  3 active torsions:
REMARK  status: ('A' for Active; 'I' for Inactive)
REMARK    1  A    between atoms: C1_1  and  S7_7 
REMARK    2  A    between atoms: C1_1  and  S8_8 
REMARK    3  A    between atoms: C5_5  and  S8_8 
ROOT
HETATM    1  S8  UNL     1     -33.214  15.304  -3.619  1.00 20.00    -0.103 SA
ENDROOT
BRANCH   1   2
HETATM    2  C1  UNL     1     -33.958  16.677  -2.820  1.00 20.00     0.102 C 
HETATM    3  S6  UNL     1     -34.539  16.614  -1.253  1.00 20.00    -0.065 SA
BRANCH   2   4
HETATM    4  S7  UNL     1     -33.977  18.154  -3.775  1.00 20.00    -0.124 SA
HETATM    5  H18 UNL     1     -33.521  18.972  -2.816  1.00 20.00     0.108 HD
ENDBRANCH   2   4
ENDBRANCH   1   2
BRANCH   1   6
HETATM    6  C5  UNL     1     -34.680  14.693  -4.540  1.00 20.00     0.003 C 
HETATM    7  C2  UNL     1     -34.745  15.413  -5.890  1.00 20.00     0.026 C 
HETATM    8  C3  UNL     1     -34.524  13.185  -4.748  1.00 20.00     0.026 C 
HETATM    9  C4  UNL     1     -35.936  14.990  -3.715  1.00 20.00     0.026 C 
ENDBRANCH   1   6
TORSDOF 3
ENDMDL
MODEL 7
REMARK VINA RESULT:      -2.9      2.108      3.597
REMARK  3 active torsions:
REMARK  status: ('A' for Active; 'I' for Inactive)
REMARK    1  A    between atoms: C1_1  and  S7_7 
REMARK    2  A    between atoms: C1_1  and  S8_8 
REMARK    3  A    between atoms: C5_5  and  S8_8 
ROOT
HETATM    1  S8  UNL     1     -33.986  16.049  -5.289  1.00 20.00    -0.103 SA
ENDROOT
BRANCH   1   2
HETATM    2  C1  UNL     1     -35.516  15.553  -5.990  1.00 20.00     0.102 C 
HETATM    3  S6  UNL     1     -36.996  16.042  -5.384  1.00 20.00    -0.065 SA
BRANCH   2   4
HETATM    4  S7  UNL     1     -35.370  14.556  -7.431  1.00 20.00    -0.124 SA
HETATM    5  H18 UNL     1     -35.591  13.377  -6.834  1.00 20.00     0.108 HD
ENDBRANCH   2   4
ENDBRANCH   1   2
BRANCH   1   6
HETATM    6  C5  UNL     1     -33.945  14.888  -3.868  1.00 20.00     0.003 C 
HETATM    7  C2  UNL     1     -34.705  13.615  -4.252  1.00 20.00     0.026 C 
HETATM    8  C3  UNL     1     -32.483  14.560  -3.556  1.00 20.00     0.026 C 
HETATM    9  C4  UNL     1     -34.608  15.563  -2.664  1.00 20.00     0.026 C 
ENDBRANCH   1   6
TORSDOF 3
ENDMDL
MODEL 8
REMARK VINA RESULT:      -2.9      2.107      3.458
REMARK  3 active torsions:
REMARK  status: ('A' for Active; 'I' for Inactive)
REMARK    1  A    between atoms: C1_1  and  S7_7 
REMARK    2  A    between atoms: C1_1  and  S8_8 
REMARK    3  A    between atoms: C5_5  and  S8_8 
ROOT
HETATM    1  S8  UNL     1     -33.985  16.050  -5.290  1.00 20.00    -0.103 SA
ENDROOT
BRANCH   1   2
HETATM    2  C1  UNL     1     -35.514  15.550  -5.990  1.00 20.00     0.102 C 
HETATM    3  S6  UNL     1     -36.995  16.040  -5.387  1.00 20.00    -0.065 SA
BRANCH   2   4
HETATM    4  S7  UNL     1     -35.365  14.547  -7.427  1.00 20.00    -0.124 SA
HETATM    5  H18 UNL     1     -34.086  14.192  -7.243  1.00 20.00     0.108 HD
ENDBRANCH   2   4
ENDBRANCH   1   2
BRANCH   1   6
HETATM    6  C5  UNL     1     -33.940  14.890  -3.869  1.00 20.00     0.003 C 
HETATM    7  C2  UNL     1     -32.479  14.559  -3.552  1.00 20.00     0.026 C 
HETATM    8  C3  UNL     1     -34.602  15.571  -2.668  1.00 20.00     0.026 C 
HETATM    9  C4  UNL     1     -34.705  13.619  -4.248  1.00 20.00     0.026 C 
ENDBRANCH   1   6
TORSDOF 3
ENDMDL
MODEL 9
REMARK VINA RESULT:      -2.8      2.660      3.364
REMARK  3 active torsions:
REMARK  status: ('A' for Active; 'I' for Inactive)
REMARK    1  A    between atoms: C1_1  and  S7_7 
REMARK    2  A    between atoms: C1_1  and  S8_8 
REMARK    3  A    between atoms: C5_5  and  S8_8 
ROOT
HETATM    1  S8  UNL     1     -34.821  13.666  -4.711  1.00 20.00    -0.103 SA
ENDROOT
BRANCH   1   2
HETATM    2  C1  UNL     1     -35.679  14.600  -5.924  1.00 20.00     0.102 C 
HETATM    3  S6  UNL     1     -35.185  14.692  -7.519  1.00 20.00    -0.065 SA
BRANCH   2   4
HETATM    4  S7  UNL     1     -37.147  15.376  -5.344  1.00 20.00    -0.124 SA
HETATM    5  H18 UNL     1     -36.922  16.577  -5.895  1.00 20.00     0.108 HD
ENDBRANCH   2   4
ENDBRANCH   1   2
BRANCH   1   6
HETATM    6  C5  UNL     1     -33.848  15.026  -3.954  1.00 20.00     0.003 C 
HETATM    7  C2  UNL     1     -34.610  15.554  -2.735  1.00 20.00     0.026 C 
HETATM    8  C3  UNL     1     -32.488  14.467  -3.528  1.00 20.00     0.026 C 
HETATM    9  C4  UNL     1     -33.666  16.137  -4.992  1.00 20.00     0.026 C 
ENDBRANCH   1   6
TORSDOF 3
ENDMDL
