MODEL 1
REMARK VINA RESULT:      -4.6      0.000      0.000
REMARK  2 active torsions:
REMARK  status: ('A' for Active; 'I' for Inactive)
REMARK    1  A    between atoms: C5_5  and  C9_9 
REMARK    2  A    between atoms: C9_9  and  O10_10 
ROOT
HETATM    1  C1  UNL     1     -33.994  18.053  -2.113  1.00 20.00    -0.024 C 
HETATM    2  C2  UNL     1     -34.472  17.050  -1.366  1.00 20.00    -0.087 C 
HETATM    3  C3  UNL     1     -33.685  17.609  -3.505  1.00 20.00     0.035 C 
HETATM    4  C4  UNL     1     -34.559  15.775  -2.146  1.00 20.00     0.041 C 
HETATM    5  C5  UNL     1     -34.419  16.264  -3.594  1.00 20.00     0.026 C 
HETATM    6  C6  UNL     1     -34.849  17.105   0.069  1.00 20.00     0.043 C 
ENDROOT
BRANCH   5   7
HETATM    7  C9  UNL     1     -33.719  15.262  -4.499  1.00 20.00     0.055 C 
HETATM    8  C7  UNL     1     -34.497  15.068  -5.802  1.00 20.00     0.045 C 
HETATM    9  C8  UNL     1     -33.526  13.919  -3.790  1.00 20.00     0.045 C 
BRANCH   7  10
HETATM   10  O10 UNL     1     -32.430  15.776  -4.847  1.00 20.00    -0.390 OA
HETATM   11  H26 UNL     1     -31.891  15.010  -5.094  1.00 20.00     0.210 HD
ENDBRANCH   7  10
ENDBRANCH   5   7
TORSDOF 2
ENDMDL
MODEL 2
REMARK VINA RESULT:      -4.5      1.603      2.011
REMARK  2 active torsions:
REMARK  status: ('A' for Active; 'I' for Inactive)
REMARK    1  A    between atoms: C5_5  and  C9_9 
REMARK    2  A    between atoms: C9_9  and  O10_10 
ROOT
HETATM    1  C1  UNL     1     -33.718  17.100  -2.681  1.00 20.00    -0.024 C 
HETATM    2  C2  UNL     1     -34.482  16.525  -1.743  1.00 20.00    -0.087 C 
HETATM    3  C3  UNL     1     -33.709  16.311  -3.948  1.00 20.00     0.035 C 
HETATM    4  C4  UNL     1     -35.106  15.258  -2.241  1.00 20.00     0.041 C 
HETATM    5  C5  UNL     1     -34.902  15.365  -3.759  1.00 20.00     0.026 C 
HETATM    6  C6  UNL     1     -34.698  16.998  -0.353  1.00 20.00     0.043 C 
ENDROOT
BRANCH   5   7
HETATM    7  C9  UNL     1     -34.708  14.016  -4.432  1.00 20.00     0.055 C 
HETATM    8  C7  UNL     1     -33.422  13.345  -3.946  1.00 20.00     0.045 C 
HETATM    9  C8  UNL     1     -34.691  14.156  -5.957  1.00 20.00     0.045 C 
BRANCH   7  10
HETATM   10  O10 UNL     1     -35.795  13.160  -4.072  1.00 20.00    -0.390 OA
HETATM   11  H26 UNL     1     -36.254  12.943  -4.897  1.00 20.00     0.210 HD
ENDBRANCH   7  10
ENDBRANCH   5   7
TORSDOF 2
ENDMDL
MODEL 3
REMARK VINA RESULT:      -4.4      1.860      2.380
REMARK  2 active torsions:
REMARK  status: ('A' for Active; 'I' for Inactive)
REMARK    1  A    between atoms: C5_5  and  C9_9 
REMARK    2  A    between atoms: C9_9  and  O10_10 
ROOT
HETATM    1  C1  UNL     1     -36.102  17.110  -3.109  1.00 20.00    -0.024 C 
HETATM    2  C2  UNL     1     -35.228  16.859  -2.126  1.00 20.00    -0.087 C 
HETATM    3  C3  UNL     1     -36.175  15.984  -4.086  1.00 20.00     0.035 C 
HETATM    4  C4  UNL     1     -34.579  15.521  -2.293  1.00 20.00     0.041 C 
HETATM    5  C5  UNL     1     -35.489  14.841  -3.327  1.00 20.00     0.026 C 
HETATM    6  C6  UNL     1     -34.863  17.760  -1.003  1.00 20.00     0.043 C 
ENDROOT
BRANCH   5   7
HETATM    7  C9  UNL     1     -34.743  13.881  -4.240  1.00 20.00     0.055 C 
HETATM    8  C7  UNL     1     -33.295  13.705  -3.779  1.00 20.00     0.045 C 
HETATM    9  C8  UNL     1     -34.785  14.355  -5.694  1.00 20.00     0.045 C 
BRANCH   7  10
HETATM   10  O10 UNL     1     -35.369  12.596  -4.168  1.00 20.00    -0.390 OA
HETATM   11  H26 UNL     1     -34.783  12.038  -3.637  1.00 20.00     0.210 HD
ENDBRANCH   7  10
ENDBRANCH   5   7
TORSDOF 2
ENDMDL
MODEL 4
REMARK VINA RESULT:      -4.4      1.213      2.057
REMARK  2 active torsions:
REMARK  status: ('A' for Active; 'I' for Inactive)
REMARK    1  A    between atoms: C5_5  and  C9_9 
REMARK    2  A    between atoms: C9_9  and  O10_10 
ROOT
HETATM    1  C1  UNL     1     -34.793  16.638  -0.658  1.00 20.00    -0.024 C 
HETATM    2  C2  UNL     1     -33.974  17.698  -0.683  1.00 20.00    -0.087 C 
HETATM    3  C3  UNL     1     -34.789  15.906  -1.959  1.00 20.00     0.035 C 
HETATM    4  C4  UNL     1     -33.292  17.838  -2.008  1.00 20.00     0.041 C 
HETATM    5  C5  UNL     1     -33.540  16.466  -2.652  1.00 20.00     0.026 C 
HETATM    6  C6  UNL     1     -33.750  18.680   0.409  1.00 20.00     0.043 C 
ENDROOT
BRANCH   5   7
HETATM    7  C9  UNL     1     -33.675  16.531  -4.165  1.00 20.00     0.055 C 
HETATM    8  C7  UNL     1     -33.677  17.982  -4.650  1.00 20.00     0.045 C 
HETATM    9  C8  UNL     1     -34.939  15.810  -4.639  1.00 20.00     0.045 C 
BRANCH   7  10
HETATM   10  O10 UNL     1     -32.542  15.888  -4.757  1.00 20.00    -0.390 OA
HETATM   11  H26 UNL     1     -31.855  15.868  -4.075  1.00 20.00     0.210 HD
ENDBRANCH   7  10
ENDBRANCH   5   7
TORSDOF 2
ENDMDL
MODEL 5
REMARK VINA RESULT:      -4.3     11.574     12.746
REMARK  2 active torsions:
REMARK  status: ('A' for Active; 'I' for Inactive)
REMARK    1  A    between atoms: C5_5  and  C9_9 
REMARK    2  A    between atoms: C9_9  and  O10_10 
ROOT
HETATM    1  C1  UNL     1     -34.169   6.183   6.380  1.00 20.00    -0.024 C 
HETATM    2  C2  UNL     1     -34.550   5.193   5.562  1.00 20.00    -0.087 C 
HETATM    3  C3  UNL     1     -33.297   7.173   5.683  1.00 20.00     0.035 C 
HETATM    4  C4  UNL     1     -33.991   5.370   4.185  1.00 20.00     0.041 C 
HETATM    5  C5  UNL     1     -33.527   6.834   4.204  1.00 20.00     0.026 C 
HETATM    6  C6  UNL     1     -35.383   4.015   5.913  1.00 20.00     0.043 C 
ENDROOT
BRANCH   5   7
HETATM    7  C9  UNL     1     -32.303   7.084   3.337  1.00 20.00     0.055 C 
HETATM    8  C7  UNL     1     -31.160   7.673   4.164  1.00 20.00     0.045 C 
HETATM    9  C8  UNL     1     -32.638   8.004   2.160  1.00 20.00     0.045 C 
BRANCH   7  10
HETATM   10  O10 UNL     1     -31.846   5.833   2.813  1.00 20.00    -0.390 OA
HETATM   11  H26 UNL     1     -30.886   5.823   2.935  1.00 20.00     0.210 HD
ENDBRANCH   7  10
ENDBRANCH   5   7
TORSDOF 2
ENDMDL
MODEL 6
REMARK VINA RESULT:      -4.3      1.196      1.699
REMARK  2 active torsions:
REMARK  status: ('A' for Active; 'I' for Inactive)
REMARK    1  A    between atoms: C5_5  and  C9_9 
REMARK    2  A    between atoms: C9_9  and  O10_10 
ROOT
HETATM    1  C1  UNL     1     -35.916  17.294  -2.449  1.00 20.00    -0.024 C 
HETATM    2  C2  UNL     1     -34.874  16.839  -1.741  1.00 20.00    -0.087 C 
HETATM    3  C3  UNL     1     -35.730  17.073  -3.913  1.00 20.00     0.035 C 
HETATM    4  C4  UNL     1     -33.827  16.238  -2.625  1.00 20.00     0.041 C 
HETATM    5  C5  UNL     1     -34.580  16.057  -3.951  1.00 20.00     0.026 C 
HETATM    6  C6  UNL     1     -34.689  16.921  -0.270  1.00 20.00     0.043 C 
ENDROOT
BRANCH   5   7
HETATM    7  C9  UNL     1     -33.687  16.212  -5.172  1.00 20.00     0.055 C 
HETATM    8  C7  UNL     1     -33.577  17.681  -5.584  1.00 20.00     0.045 C 
HETATM    9  C8  UNL     1     -34.198  15.368  -6.342  1.00 20.00     0.045 C 
BRANCH   7  10
HETATM   10  O10 UNL     1     -32.369  15.765  -4.838  1.00 20.00    -0.390 OA
HETATM   11  H26 UNL     1     -32.468  14.868  -4.488  1.00 20.00     0.210 HD
ENDBRANCH   7  10
ENDBRANCH   5   7
TORSDOF 2
ENDMDL
MODEL 7
REMARK VINA RESULT:      -4.3      1.733      4.217
REMARK  2 active torsions:
REMARK  status: ('A' for Active; 'I' for Inactive)
REMARK    1  A    between atoms: C5_5  and  C9_9 
REMARK    2  A    between atoms: C9_9  and  O10_10 
ROOT
HETATM    1  C1  UNL     1     -34.712  15.730  -7.441  1.00 20.00    -0.024 C 
HETATM    2  C2  UNL     1     -34.470  16.994  -7.068  1.00 20.00    -0.087 C 
HETATM    3  C3  UNL     1     -34.486  14.769  -6.322  1.00 20.00     0.035 C 
HETATM    4  C4  UNL     1     -34.045  17.073  -5.634  1.00 20.00     0.041 C 
HETATM    5  C5  UNL     1     -34.443  15.691  -5.096  1.00 20.00     0.026 C 
HETATM    6  C6  UNL     1     -34.550  18.208  -7.918  1.00 20.00     0.043 C 
ENDROOT
BRANCH   5   7
HETATM    7  C9  UNL     1     -33.515  15.186  -4.002  1.00 20.00     0.055 C 
HETATM    8  C7  UNL     1     -33.673  13.677  -3.806  1.00 20.00     0.045 C 
HETATM    9  C8  UNL     1     -33.763  15.922  -2.683  1.00 20.00     0.045 C 
BRANCH   7  10
HETATM   10  O10 UNL     1     -32.161  15.422  -4.400  1.00 20.00    -0.390 OA
HETATM   11  H26 UNL     1     -31.608  14.900  -3.801  1.00 20.00     0.210 HD
ENDBRANCH   7  10
ENDBRANCH   5   7
TORSDOF 2
ENDMDL
MODEL 8
REMARK VINA RESULT:      -4.3      1.218      1.303
REMARK  2 active torsions:
REMARK  status: ('A' for Active; 'I' for Inactive)
REMARK    1  A    between atoms: C5_5  and  C9_9 
REMARK    2  A    between atoms: C9_9  and  O10_10 
ROOT
HETATM    1  C1  UNL     1     -33.636  17.255  -2.782  1.00 20.00    -0.024 C 
HETATM    2  C2  UNL     1     -34.482  16.593  -1.982  1.00 20.00    -0.087 C 
HETATM    3  C3  UNL     1     -33.709  16.767  -4.191  1.00 20.00     0.035 C 
HETATM    4  C4  UNL     1     -35.256  15.557  -2.735  1.00 20.00     0.041 C 
HETATM    5  C5  UNL     1     -35.018  15.965  -4.196  1.00 20.00     0.026 C 
HETATM    6  C6  UNL     1     -34.656  16.775  -0.519  1.00 20.00     0.043 C 
ENDROOT
BRANCH   5   7
HETATM    7  C9  UNL     1     -34.988  14.782  -5.150  1.00 20.00     0.055 C 
HETATM    8  C7  UNL     1     -36.152  14.851  -6.141  1.00 20.00     0.045 C 
HETATM    9  C8  UNL     1     -35.018  13.455  -4.387  1.00 20.00     0.045 C 
BRANCH   7  10
HETATM   10  O10 UNL     1     -33.779  14.834  -5.913  1.00 20.00    -0.390 OA
HETATM   11  H26 UNL     1     -33.055  14.728  -5.279  1.00 20.00     0.210 HD
ENDBRANCH   7  10
ENDBRANCH   5   7
TORSDOF 2
ENDMDL
MODEL 9
REMARK VINA RESULT:      -4.2      1.841      2.668
REMARK  2 active torsions:
REMARK  status: ('A' for Active; 'I' for Inactive)
REMARK    1  A    between atoms: C5_5  and  C9_9 
REMARK    2  A    between atoms: C9_9  and  O10_10 
ROOT
HETATM    1  C1  UNL     1     -34.324  16.867  -2.192  1.00 20.00    -0.024 C 
HETATM    2  C2  UNL     1     -34.006  17.396  -3.381  1.00 20.00    -0.087 C 
HETATM    3  C3  UNL     1     -34.803  15.459  -2.322  1.00 20.00     0.035 C 
HETATM    4  C4  UNL     1     -34.221  16.418  -4.494  1.00 20.00     0.041 C 
HETATM    5  C5  UNL     1     -34.355  15.086  -3.742  1.00 20.00     0.026 C 
HETATM    6  C6  UNL     1     -33.533  18.778  -3.647  1.00 20.00     0.043 C 
ENDROOT
BRANCH   5   7
HETATM    7  C9  UNL     1     -35.294  14.105  -4.426  1.00 20.00     0.055 C 
HETATM    8  C7  UNL     1     -35.080  14.112  -5.941  1.00 20.00     0.045 C 
HETATM    9  C8  UNL     1     -36.756  14.416  -4.094  1.00 20.00     0.045 C 
BRANCH   7  10
HETATM   10  O10 UNL     1     -34.999  12.785  -3.962  1.00 20.00    -0.390 OA
HETATM   11  H26 UNL     1     -35.733  12.531  -3.382  1.00 20.00     0.210 HD
ENDBRANCH   7  10
ENDBRANCH   5   7
TORSDOF 2
ENDMDL
