MODEL 1
REMARK VINA RESULT:      -4.0      0.000      0.000
REMARK  1 active torsions:
REMARK  status: ('A' for Active; 'I' for Inactive)
REMARK    1  A    between atoms: C1_1  and  O7_7 
ROOT
HETATM    1  C1  UNL     1     -33.430   5.841   3.873  1.00 20.00     0.294 A 
HETATM    2  C2  UNL     1     -34.241   5.646   5.136  1.00 20.00     0.106 A 
HETATM    3  C3  UNL     1     -34.910   4.327   5.371  1.00 20.00     0.051 C 
HETATM    4  C4  UNL     1     -34.009   6.505   6.338  1.00 20.00     0.051 C 
HETATM    5  O6  UNL     1     -34.761   6.363   4.008  1.00 20.00    -0.343 OA
ENDROOT
BRANCH   1   6
HETATM    6  O7  UNL     1     -32.370   6.807   3.912  1.00 20.00    -0.363 OA
HETATM    7  C5  UNL     1     -32.229   7.455   2.661  1.00 20.00     0.204 C 
ENDBRANCH   1   6
TORSDOF 1
ENDMDL
MODEL 2
REMARK VINA RESULT:      -3.3     11.238     12.435
REMARK  1 active torsions:
REMARK  status: ('A' for Active; 'I' for Inactive)
REMARK    1  A    between atoms: C1_1  and  O7_7 
ROOT
HETATM    1  C1  UNL     1     -34.692  13.628  -5.468  1.00 20.00     0.294 A 
HETATM    2  C2  UNL     1     -34.386  13.976  -4.027  1.00 20.00     0.106 A 
HETATM    3  C3  UNL     1     -32.996  13.771  -3.512  1.00 20.00     0.051 C 
HETATM    4  C4  UNL     1     -35.250  14.933  -3.268  1.00 20.00     0.051 C 
HETATM    5  O6  UNL     1     -35.054  12.758  -4.384  1.00 20.00    -0.343 OA
ENDROOT
BRANCH   1   6
HETATM    6  O7  UNL     1     -35.775  14.326  -6.101  1.00 20.00    -0.363 OA
HETATM    7  C5  UNL     1     -35.547  14.462  -7.491  1.00 20.00     0.204 C 
ENDBRANCH   1   6
TORSDOF 1
ENDMDL
MODEL 3
REMARK VINA RESULT:      -3.2     11.780     12.608
REMARK  1 active torsions:
REMARK  status: ('A' for Active; 'I' for Inactive)
REMARK    1  A    between atoms: C1_1  and  O7_7 
ROOT
HETATM    1  C1  UNL     1     -36.850  15.112  -3.495  1.00 20.00     0.294 A 
HETATM    2  C2  UNL     1     -35.401  14.705  -3.660  1.00 20.00     0.106 A 
HETATM    3  C3  UNL     1     -34.358  15.388  -2.834  1.00 20.00     0.051 C 
HETATM    4  C4  UNL     1     -35.040  13.369  -4.229  1.00 20.00     0.051 C 
HETATM    5  O6  UNL     1     -36.053  15.572  -4.598  1.00 20.00    -0.343 OA
ENDROOT
BRANCH   1   6
HETATM    6  O7  UNL     1     -37.851  14.133  -3.809  1.00 20.00    -0.363 OA
HETATM    7  C5  UNL     1     -39.083  14.753  -4.130  1.00 20.00     0.204 C 
ENDBRANCH   1   6
TORSDOF 1
ENDMDL
MODEL 4
REMARK VINA RESULT:      -3.1      1.210      3.537
REMARK  1 active torsions:
REMARK  status: ('A' for Active; 'I' for Inactive)
REMARK    1  A    between atoms: C1_1  and  O7_7 
ROOT
HETATM    1  C1  UNL     1     -33.331   6.455   3.412  1.00 20.00     0.294 A 
HETATM    2  C2  UNL     1     -32.127   7.327   3.126  1.00 20.00     0.106 A 
HETATM    3  C3  UNL     1     -32.087   8.110   1.851  1.00 20.00     0.051 C 
HETATM    4  C4  UNL     1     -31.242   7.801   4.234  1.00 20.00     0.051 C 
HETATM    5  O6  UNL     1     -32.094   5.906   2.931  1.00 20.00    -0.343 OA
ENDROOT
BRANCH   1   6
HETATM    6  O7  UNL     1     -33.643   6.190   4.787  1.00 20.00    -0.363 OA
HETATM    7  C5  UNL     1     -34.692   5.245   4.896  1.00 20.00     0.204 C 
ENDBRANCH   1   6
TORSDOF 1
ENDMDL
MODEL 5
REMARK VINA RESULT:      -3.0      1.234      1.652
REMARK  1 active torsions:
REMARK  status: ('A' for Active; 'I' for Inactive)
REMARK    1  A    between atoms: C1_1  and  O7_7 
ROOT
HETATM    1  C1  UNL     1     -33.153   6.582   4.281  1.00 20.00     0.294 A 
HETATM    2  C2  UNL     1     -34.309   5.726   4.752  1.00 20.00     0.106 A 
HETATM    3  C3  UNL     1     -34.542   5.568   6.222  1.00 20.00     0.051 C 
HETATM    4  C4  UNL     1     -35.472   5.446   3.853  1.00 20.00     0.051 C 
HETATM    5  O6  UNL     1     -33.079   5.147   4.297  1.00 20.00    -0.343 OA
ENDROOT
BRANCH   1   6
HETATM    6  O7  UNL     1     -33.264   7.190   2.986  1.00 20.00    -0.363 OA
HETATM    7  C5  UNL     1     -32.020   7.716   2.564  1.00 20.00     0.204 C 
ENDBRANCH   1   6
TORSDOF 1
ENDMDL
MODEL 6
REMARK VINA RESULT:      -3.0      9.109      9.696
REMARK  1 active torsions:
REMARK  status: ('A' for Active; 'I' for Inactive)
REMARK    1  A    between atoms: C1_1  and  O7_7 
ROOT
HETATM    1  C1  UNL     1     -41.612   6.596  -0.896  1.00 20.00     0.294 A 
HETATM    2  C2  UNL     1     -41.429   5.157  -0.460  1.00 20.00     0.106 A 
HETATM    3  C3  UNL     1     -42.347   4.592   0.578  1.00 20.00     0.051 C 
HETATM    4  C4  UNL     1     -40.719   4.175  -1.337  1.00 20.00     0.051 C 
HETATM    5  O6  UNL     1     -40.583   6.208   0.028  1.00 20.00    -0.343 OA
ENDROOT
BRANCH   1   6
HETATM    6  O7  UNL     1     -41.170   6.948  -2.215  1.00 20.00    -0.363 OA
HETATM    7  C5  UNL     1     -42.241   7.456  -2.989  1.00 20.00     0.204 C 
ENDBRANCH   1   6
TORSDOF 1
ENDMDL
MODEL 7
REMARK VINA RESULT:      -3.0      9.494     10.268
REMARK  1 active torsions:
REMARK  status: ('A' for Active; 'I' for Inactive)
REMARK    1  A    between atoms: C1_1  and  O7_7 
ROOT
HETATM    1  C1  UNL     1     -41.565   4.673  -2.043  1.00 20.00     0.294 A 
HETATM    2  C2  UNL     1     -41.483   5.467  -0.757  1.00 20.00     0.106 A 
HETATM    3  C3  UNL     1     -41.141   6.922  -0.824  1.00 20.00     0.051 C 
HETATM    4  C4  UNL     1     -42.179   4.997   0.481  1.00 20.00     0.051 C 
HETATM    5  O6  UNL     1     -40.419   4.604  -1.181  1.00 20.00    -0.343 OA
ENDROOT
BRANCH   1   6
HETATM    6  O7  UNL     1     -42.414   3.516  -2.053  1.00 20.00    -0.363 OA
HETATM    7  C5  UNL     1     -42.002   2.594  -3.045  1.00 20.00     0.204 C 
ENDBRANCH   1   6
TORSDOF 1
ENDMDL
MODEL 8
REMARK VINA RESULT:      -3.0      1.180      3.473
REMARK  1 active torsions:
REMARK  status: ('A' for Active; 'I' for Inactive)
REMARK    1  A    between atoms: C1_1  and  O7_7 
ROOT
HETATM    1  C1  UNL     1     -33.973   5.805   4.813  1.00 20.00     0.294 A 
HETATM    2  C2  UNL     1     -33.388   6.081   3.445  1.00 20.00     0.106 A 
HETATM    3  C3  UNL     1     -32.059   6.761   3.349  1.00 20.00     0.051 C 
HETATM    4  C4  UNL     1     -33.831   5.299   2.249  1.00 20.00     0.051 C 
HETATM    5  O6  UNL     1     -34.419   6.906   4.005  1.00 20.00    -0.343 OA
ENDROOT
BRANCH   1   6
HETATM    6  O7  UNL     1     -34.886   4.704   4.932  1.00 20.00    -0.363 OA
HETATM    7  C5  UNL     1     -35.080   4.351   6.290  1.00 20.00     0.204 C 
ENDBRANCH   1   6
TORSDOF 1
ENDMDL
MODEL 9
REMARK VINA RESULT:      -3.0     12.091     13.374
REMARK  1 active torsions:
REMARK  status: ('A' for Active; 'I' for Inactive)
REMARK    1  A    between atoms: C1_1  and  O7_7 
ROOT
HETATM    1  C1  UNL     1     -33.988  16.053  -5.165  1.00 20.00     0.294 A 
HETATM    2  C2  UNL     1     -33.655  15.376  -3.853  1.00 20.00     0.106 A 
HETATM    3  C3  UNL     1     -34.016  16.060  -2.573  1.00 20.00     0.051 C 
HETATM    4  C4  UNL     1     -33.436  13.897  -3.787  1.00 20.00     0.051 C 
HETATM    5  O6  UNL     1     -32.660  16.070  -4.618  1.00 20.00    -0.343 OA
ENDROOT
BRANCH   1   6
HETATM    6  O7  UNL     1     -34.183  15.213  -6.312  1.00 20.00    -0.363 OA
HETATM    7  C5  UNL     1     -34.747  15.943  -7.386  1.00 20.00     0.204 C 
ENDBRANCH   1   6
TORSDOF 1
ENDMDL
