MODEL 1
REMARK VINA RESULT:      -3.2      0.000      0.000
REMARK  2 active torsions:
REMARK  status: ('A' for Active; 'I' for Inactive)
REMARK    1  A    between atoms: C2_2  and  C3_3 
REMARK    2  A    between atoms: C2_2  and  S5_5 
ROOT
HETATM    1  C1  UNL     1     -32.261   7.657   2.470  1.00 20.00     0.133 C 
HETATM    2  N4  UNL     1     -32.157   8.666   1.907  1.00 20.00    -0.184 NA
HETATM    3  S5  UNL     1     -32.401   6.183   3.285  1.00 20.00    -0.050 SA
ENDROOT
BRANCH   3   4
HETATM    4  C2  UNL     1     -34.008   6.476   4.085  1.00 20.00     0.105 C 
BRANCH   4   5
HETATM    5  C3  UNL     1     -34.859   5.216   4.156  1.00 20.00     0.126 C 
HETATM    6 CL6  UNL     1     -35.054   4.630   5.826  1.00 20.00    -0.130 Cl
ENDBRANCH   4   5
ENDBRANCH   3   4
TORSDOF 2
ENDMDL
MODEL 2
REMARK VINA RESULT:      -3.2      2.152      2.392
REMARK  2 active torsions:
REMARK  status: ('A' for Active; 'I' for Inactive)
REMARK    1  A    between atoms: C2_2  and  C3_3 
REMARK    2  A    between atoms: C2_2  and  S5_5 
ROOT
HETATM    1  C1  UNL     1     -33.325   6.083   3.322  1.00 20.00     0.133 C 
HETATM    2  N4  UNL     1     -32.270   6.503   3.086  1.00 20.00    -0.184 NA
HETATM    3  S5  UNL     1     -34.866   5.476   3.656  1.00 20.00    -0.050 SA
ENDROOT
BRANCH   3   4
HETATM    4  C2  UNL     1     -34.468   4.571   5.182  1.00 20.00     0.105 C 
BRANCH   4   5
HETATM    5  C3  UNL     1     -34.819   5.363   6.434  1.00 20.00     0.126 C 
HETATM    6 CL6  UNL     1     -33.838   6.839   6.594  1.00 20.00    -0.130 Cl
ENDBRANCH   4   5
ENDBRANCH   3   4
TORSDOF 2
ENDMDL
MODEL 3
REMARK VINA RESULT:      -3.2      3.896      4.488
REMARK  2 active torsions:
REMARK  status: ('A' for Active; 'I' for Inactive)
REMARK    1  A    between atoms: C2_2  and  C3_3 
REMARK    2  A    between atoms: C2_2  and  S5_5 
ROOT
HETATM    1  C1  UNL     1     -35.041   4.721   5.187  1.00 20.00     0.133 C 
HETATM    2  N4  UNL     1     -35.202   4.213   6.217  1.00 20.00    -0.184 NA
HETATM    3  S5  UNL     1     -34.817   5.455   3.681  1.00 20.00    -0.050 SA
ENDROOT
BRANCH   3   4
HETATM    4  C2  UNL     1     -33.389   6.498   4.107  1.00 20.00     0.105 C 
BRANCH   4   5
HETATM    5  C3  UNL     1     -32.281   6.417   3.066  1.00 20.00     0.126 C 
HETATM    6 CL6  UNL     1     -32.025   7.971   2.234  1.00 20.00    -0.130 Cl
ENDBRANCH   4   5
ENDBRANCH   3   4
TORSDOF 2
ENDMDL
MODEL 4
REMARK VINA RESULT:      -3.1     11.018     11.290
REMARK  2 active torsions:
REMARK  status: ('A' for Active; 'I' for Inactive)
REMARK    1  A    between atoms: C2_2  and  C3_3 
REMARK    2  A    between atoms: C2_2  and  S5_5 
ROOT
HETATM    1  C1  UNL     1     -34.225  13.679  -4.204  1.00 20.00     0.133 C 
HETATM    2  N4  UNL     1     -34.827  12.746  -4.540  1.00 20.00    -0.184 NA
HETATM    3  S5  UNL     1     -33.337  15.033  -3.722  1.00 20.00    -0.050 SA
ENDROOT
BRANCH   3   4
HETATM    4  C2  UNL     1     -34.533  15.724  -2.538  1.00 20.00     0.105 C 
BRANCH   4   5
HETATM    5  C3  UNL     1     -33.925  16.816  -1.670  1.00 20.00     0.126 C 
HETATM    6 CL6  UNL     1     -34.757  16.971  -0.103  1.00 20.00    -0.130 Cl
ENDBRANCH   4   5
ENDBRANCH   3   4
TORSDOF 2
ENDMDL
MODEL 5
REMARK VINA RESULT:      -3.0      3.478      3.889
REMARK  2 active torsions:
REMARK  status: ('A' for Active; 'I' for Inactive)
REMARK    1  A    between atoms: C2_2  and  C3_3 
REMARK    2  A    between atoms: C2_2  and  S5_5 
ROOT
HETATM    1  C1  UNL     1     -34.205   6.158   5.951  1.00 20.00     0.133 C 
HETATM    2  N4  UNL     1     -33.795   6.938   6.705  1.00 20.00    -0.184 NA
HETATM    3  S5  UNL     1     -34.809   5.016   4.862  1.00 20.00    -0.050 SA
ENDROOT
BRANCH   3   4
HETATM    4  C2  UNL     1     -34.172   5.754   3.327  1.00 20.00     0.105 C 
BRANCH   4   5
HETATM    5  C3  UNL     1     -32.689   6.082   3.412  1.00 20.00     0.126 C 
HETATM    6 CL6  UNL     1     -32.283   7.593   2.561  1.00 20.00    -0.130 Cl
ENDBRANCH   4   5
ENDBRANCH   3   4
TORSDOF 2
ENDMDL
MODEL 6
REMARK VINA RESULT:      -3.0     11.826     12.384
REMARK  2 active torsions:
REMARK  status: ('A' for Active; 'I' for Inactive)
REMARK    1  A    between atoms: C2_2  and  C3_3 
REMARK    2  A    between atoms: C2_2  and  S5_5 
ROOT
HETATM    1  C1  UNL     1     -34.832  13.598  -5.221  1.00 20.00     0.133 C 
HETATM    2  N4  UNL     1     -34.949  12.781  -4.406  1.00 20.00    -0.184 NA
HETATM    3  S5  UNL     1     -34.664  14.778  -6.418  1.00 20.00    -0.050 SA
ENDROOT
BRANCH   3   4
HETATM    4  C2  UNL     1     -34.403  16.216  -5.335  1.00 20.00     0.105 C 
BRANCH   4   5
HETATM    5  C3  UNL     1     -33.197  16.043  -4.423  1.00 20.00     0.126 C 
HETATM    6 CL6  UNL     1     -33.654  16.010  -2.702  1.00 20.00    -0.130 Cl
ENDBRANCH   4   5
ENDBRANCH   3   4
TORSDOF 2
ENDMDL
MODEL 7
REMARK VINA RESULT:      -2.9     11.699     11.934
REMARK  2 active torsions:
REMARK  status: ('A' for Active; 'I' for Inactive)
REMARK    1  A    between atoms: C2_2  and  C3_3 
REMARK    2  A    between atoms: C2_2  and  S5_5 
ROOT
HETATM    1  C1  UNL     1     -35.326  13.650  -4.221  1.00 20.00     0.133 C 
HETATM    2  N4  UNL     1     -34.901  12.659  -4.646  1.00 20.00    -0.184 NA
HETATM    3  S5  UNL     1     -35.957  15.093  -3.607  1.00 20.00    -0.050 SA
ENDROOT
BRANCH   3   4
HETATM    4  C2  UNL     1     -34.497  15.642  -2.673  1.00 20.00     0.105 C 
BRANCH   4   5
HETATM    5  C3  UNL     1     -33.212  15.518  -3.479  1.00 20.00     0.126 C 
HETATM    6 CL6  UNL     1     -33.206  16.584  -4.905  1.00 20.00    -0.130 Cl
ENDBRANCH   4   5
ENDBRANCH   3   4
TORSDOF 2
ENDMDL
MODEL 8
REMARK VINA RESULT:      -2.9     11.746     12.566
REMARK  2 active torsions:
REMARK  status: ('A' for Active; 'I' for Inactive)
REMARK    1  A    between atoms: C2_2  and  C3_3 
REMARK    2  A    between atoms: C2_2  and  S5_5 
ROOT
HETATM    1  C1  UNL     1     -34.544  13.830  -3.896  1.00 20.00     0.133 C 
HETATM    2  N4  UNL     1     -34.942  12.821  -4.306  1.00 20.00    -0.184 NA
HETATM    3  S5  UNL     1     -33.967  15.297  -3.287  1.00 20.00    -0.050 SA
ENDROOT
BRANCH   3   4
HETATM    4  C2  UNL     1     -33.424  16.038  -4.857  1.00 20.00     0.105 C 
BRANCH   4   5
HETATM    5  C3  UNL     1     -34.548  16.117  -5.880  1.00 20.00     0.126 C 
HETATM    6 CL6  UNL     1     -34.280  15.023  -7.260  1.00 20.00    -0.130 Cl
ENDBRANCH   4   5
ENDBRANCH   3   4
TORSDOF 2
ENDMDL
MODEL 9
REMARK VINA RESULT:      -2.9     11.163     11.504
REMARK  2 active torsions:
REMARK  status: ('A' for Active; 'I' for Inactive)
REMARK    1  A    between atoms: C2_2  and  C3_3 
REMARK    2  A    between atoms: C2_2  and  S5_5 
ROOT
HETATM    1  C1  UNL     1     -36.264  14.050  -4.260  1.00 20.00     0.133 C 
HETATM    2  N4  UNL     1     -37.288  14.312  -3.783  1.00 20.00    -0.184 NA
HETATM    3  S5  UNL     1     -34.779  13.664  -4.966  1.00 20.00    -0.050 SA
ENDROOT
BRANCH   3   4
HETATM    4  C2  UNL     1     -33.698  14.138  -3.582  1.00 20.00     0.105 C 
BRANCH   4   5
HETATM    5  C3  UNL     1     -33.718  15.636  -3.318  1.00 20.00     0.126 C 
HETATM    6 CL6  UNL     1     -34.526  16.039  -1.783  1.00 20.00    -0.130 Cl
ENDBRANCH   4   5
ENDBRANCH   3   4
TORSDOF 2
ENDMDL
