MODEL 1
REMARK VINA RESULT:      -4.2      0.000      0.000
REMARK  0 active torsions:
REMARK  status: ('A' for Active; 'I' for Inactive)
ROOT
HETATM    1  C1  UNL     1     -32.920  14.317  -3.665  1.00 20.00     0.005 C 
HETATM    2  C2  UNL     1     -33.133  15.725  -4.240  1.00 20.00     0.008 C 
HETATM    3  C3  UNL     1     -35.143  15.036  -3.214  1.00 20.00     0.012 C 
HETATM    4  C4  UNL     1     -34.868  13.432  -4.973  1.00 20.00     0.047 C 
HETATM    5  C5  UNL     1     -34.355  13.772  -3.556  1.00 20.00    -0.011 C 
HETATM    6  C6  UNL     1     -34.658  15.784  -4.464  1.00 20.00     0.025 C 
HETATM    7  C7  UNL     1     -35.111  14.825  -5.596  1.00 20.00     0.117 C 
HETATM    8 CL8  UNL     1     -36.859  15.057  -5.948  1.00 20.00    -0.101 Cl
HETATM    9 CL9  UNL     1     -34.222  15.045  -7.124  1.00 20.00    -0.101 Cl
ENDROOT
TORSDOF 0
ENDMDL
MODEL 2
REMARK VINA RESULT:      -4.2      2.228      3.078
REMARK  0 active torsions:
REMARK  status: ('A' for Active; 'I' for Inactive)
ROOT
HETATM    1  C1  UNL     1     -35.105  14.219  -6.172  1.00 20.00     0.005 C 
HETATM    2  C2  UNL     1     -34.635  13.242  -5.085  1.00 20.00     0.008 C 
HETATM    3  C3  UNL     1     -36.418  14.516  -4.210  1.00 20.00     0.012 C 
HETATM    4  C4  UNL     1     -34.743  16.173  -4.644  1.00 20.00     0.047 C 
HETATM    5  C5  UNL     1     -35.811  15.319  -5.360  1.00 20.00    -0.011 C 
HETATM    6  C6  UNL     1     -35.061  13.941  -3.777  1.00 20.00     0.025 C 
HETATM    7  C7  UNL     1     -34.242  15.235  -3.524  1.00 20.00     0.117 C 
HETATM    8 CL8  UNL     1     -34.640  15.917  -1.909  1.00 20.00    -0.101 Cl
HETATM    9 CL9  UNL     1     -32.479  14.992  -3.584  1.00 20.00    -0.101 Cl
ENDROOT
TORSDOF 0
ENDMDL
MODEL 3
REMARK VINA RESULT:      -4.2      2.111      2.804
REMARK  0 active torsions:
REMARK  status: ('A' for Active; 'I' for Inactive)
ROOT
HETATM    1  C1  UNL     1     -35.091  14.102  -5.798  1.00 20.00     0.005 C 
HETATM    2  C2  UNL     1     -34.035  15.210  -5.676  1.00 20.00     0.008 C 
HETATM    3  C3  UNL     1     -33.848  13.802  -3.791  1.00 20.00     0.012 C 
HETATM    4  C4  UNL     1     -36.056  14.703  -3.563  1.00 20.00     0.047 C 
HETATM    5  C5  UNL     1     -35.263  13.632  -4.343  1.00 20.00    -0.011 C 
HETATM    6  C6  UNL     1     -33.789  15.293  -4.154  1.00 20.00     0.025 C 
HETATM    7  C7  UNL     1     -35.028  15.845  -3.401  1.00 20.00     0.117 C 
HETATM    8 CL8  UNL     1     -34.640  16.097  -1.664  1.00 20.00    -0.101 Cl
HETATM    9 CL9  UNL     1     -35.630  17.392  -4.046  1.00 20.00    -0.101 Cl
ENDROOT
TORSDOF 0
ENDMDL
MODEL 4
REMARK VINA RESULT:      -4.2      1.150      2.317
REMARK  0 active torsions:
REMARK  status: ('A' for Active; 'I' for Inactive)
ROOT
HETATM    1  C1  UNL     1     -34.063  15.904  -2.504  1.00 20.00     0.005 C 
HETATM    2  C2  UNL     1     -35.413  15.365  -2.998  1.00 20.00     0.008 C 
HETATM    3  C3  UNL     1     -33.701  14.039  -3.938  1.00 20.00     0.012 C 
HETATM    4  C4  UNL     1     -33.263  16.207  -4.860  1.00 20.00     0.047 C 
HETATM    5  C5  UNL     1     -33.078  15.385  -3.566  1.00 20.00    -0.011 C 
HETATM    6  C6  UNL     1     -35.047  14.669  -4.326  1.00 20.00     0.025 C 
HETATM    7  C7  UNL     1     -34.612  15.690  -5.409  1.00 20.00     0.117 C 
HETATM    8 CL8  UNL     1     -34.371  14.862  -6.986  1.00 20.00    -0.101 Cl
HETATM    9 CL9  UNL     1     -35.783  17.007  -5.668  1.00 20.00    -0.101 Cl
ENDROOT
TORSDOF 0
ENDMDL
MODEL 5
REMARK VINA RESULT:      -4.1      1.854      3.018
REMARK  0 active torsions:
REMARK  status: ('A' for Active; 'I' for Inactive)
ROOT
HETATM    1  C1  UNL     1     -36.624  15.060  -5.065  1.00 20.00     0.005 C 
HETATM    2  C2  UNL     1     -35.547  14.739  -6.112  1.00 20.00     0.008 C 
HETATM    3  C3  UNL     1     -35.198  13.341  -4.242  1.00 20.00     0.012 C 
HETATM    4  C4  UNL     1     -34.873  15.534  -3.334  1.00 20.00     0.047 C 
HETATM    5  C5  UNL     1     -35.990  14.555  -3.757  1.00 20.00    -0.011 C 
HETATM    6  C6  UNL     1     -34.395  14.161  -5.263  1.00 20.00     0.025 C 
HETATM    7  C7  UNL     1     -33.751  15.242  -4.355  1.00 20.00     0.117 C 
HETATM    8 CL8  UNL     1     -32.304  14.576  -3.523  1.00 20.00    -0.101 Cl
HETATM    9 CL9  UNL     1     -33.240  16.705  -5.233  1.00 20.00    -0.101 Cl
ENDROOT
TORSDOF 0
ENDMDL
MODEL 6
REMARK VINA RESULT:      -4.1      1.629      2.713
REMARK  0 active torsions:
REMARK  status: ('A' for Active; 'I' for Inactive)
ROOT
HETATM    1  C1  UNL     1     -33.928  17.207  -3.287  1.00 20.00     0.005 C 
HETATM    2  C2  UNL     1     -34.414  16.147  -2.288  1.00 20.00     0.008 C 
HETATM    3  C3  UNL     1     -32.781  15.159  -3.677  1.00 20.00     0.012 C 
HETATM    4  C4  UNL     1     -34.520  15.730  -5.224  1.00 20.00     0.047 C 
HETATM    5  C5  UNL     1     -33.351  16.359  -4.433  1.00 20.00    -0.011 C 
HETATM    6  C6  UNL     1     -34.128  14.819  -3.021  1.00 20.00     0.025 C 
HETATM    7  C7  UNL     1     -35.041  14.639  -4.262  1.00 20.00     0.117 C 
HETATM    8 CL8  UNL     1     -34.805  13.007  -4.978  1.00 20.00    -0.101 Cl
HETATM    9 CL9  UNL     1     -36.777  14.824  -3.909  1.00 20.00    -0.101 Cl
ENDROOT
TORSDOF 0
ENDMDL
MODEL 7
REMARK VINA RESULT:      -4.0      1.808      2.483
REMARK  0 active torsions:
REMARK  status: ('A' for Active; 'I' for Inactive)
ROOT
HETATM    1  C1  UNL     1     -34.971  16.219  -1.816  1.00 20.00     0.005 C 
HETATM    2  C2  UNL     1     -33.588  16.401  -2.457  1.00 20.00     0.008 C 
HETATM    3  C3  UNL     1     -35.225  16.981  -4.056  1.00 20.00     0.012 C 
HETATM    4  C4  UNL     1     -35.675  14.663  -3.651  1.00 20.00     0.047 C 
HETATM    5  C5  UNL     1     -35.896  16.062  -3.035  1.00 20.00    -0.011 C 
HETATM    6  C6  UNL     1     -33.879  16.247  -3.965  1.00 20.00     0.025 C 
HETATM    7  C7  UNL     1     -34.292  14.796  -4.326  1.00 20.00     0.117 C 
HETATM    8 CL8  UNL     1     -34.444  14.616  -6.108  1.00 20.00    -0.101 Cl
HETATM    9 CL9  UNL     1     -33.142  13.560  -3.758  1.00 20.00    -0.101 Cl
ENDROOT
TORSDOF 0
ENDMDL
MODEL 8
REMARK VINA RESULT:      -4.0      2.325      3.205
REMARK  0 active torsions:
REMARK  status: ('A' for Active; 'I' for Inactive)
ROOT
HETATM    1  C1  UNL     1     -35.229  13.340  -4.195  1.00 20.00     0.005 C 
HETATM    2  C2  UNL     1     -36.259  14.442  -3.908  1.00 20.00     0.008 C 
HETATM    3  C3  UNL     1     -34.797  15.219  -5.590  1.00 20.00     0.012 C 
HETATM    4  C4  UNL     1     -33.336  14.912  -3.716  1.00 20.00     0.047 C 
HETATM    5  C5  UNL     1     -34.061  14.119  -4.825  1.00 20.00    -0.011 C 
HETATM    6  C6  UNL     1     -35.522  15.729  -4.336  1.00 20.00     0.025 C 
HETATM    7  C7  UNL     1     -34.331  16.050  -3.396  1.00 20.00     0.117 C 
HETATM    8 CL8  UNL     1     -33.616  17.644  -3.817  1.00 20.00    -0.101 Cl
HETATM    9 CL9  UNL     1     -34.770  16.097  -1.671  1.00 20.00    -0.101 Cl
ENDROOT
TORSDOF 0
ENDMDL
MODEL 9
REMARK VINA RESULT:      -4.0      1.809      2.619
REMARK  0 active torsions:
REMARK  status: ('A' for Active; 'I' for Inactive)
ROOT
HETATM    1  C1  UNL     1     -33.471  13.750  -3.841  1.00 20.00     0.005 C 
HETATM    2  C2  UNL     1     -34.418  13.882  -5.042  1.00 20.00     0.008 C 
HETATM    3  C3  UNL     1     -33.370  15.969  -4.695  1.00 20.00     0.012 C 
HETATM    4  C4  UNL     1     -34.609  15.652  -2.669  1.00 20.00     0.047 C 
HETATM    5  C5  UNL     1     -33.308  15.206  -3.372  1.00 20.00    -0.011 C 
HETATM    6  C6  UNL     1     -34.744  15.390  -5.066  1.00 20.00     0.025 C 
HETATM    7  C7  UNL     1     -35.600  15.813  -3.843  1.00 20.00     0.117 C 
HETATM    8 CL8  UNL     1     -36.110  17.530  -4.002  1.00 20.00    -0.101 Cl
HETATM    9 CL9  UNL     1     -37.072  14.834  -3.624  1.00 20.00    -0.101 Cl
ENDROOT
TORSDOF 0
ENDMDL
