MODEL 1
REMARK VINA RESULT:      -4.2      0.000      0.000
REMARK  2 active torsions:
REMARK  status: ('A' for Active; 'I' for Inactive)
REMARK    1  A    between atoms: C1_1  and  C2_2 
REMARK    2  A    between atoms: C3_3  and  C4_4 
ROOT
HETATM    1  C1  UNL     1     -33.518   6.245   3.191  1.00 20.00     0.051 C 
HETATM    2  C3  UNL     1     -34.531   5.886   3.996  1.00 20.00    -0.014 C 
HETATM    3  C5  UNL     1     -35.962   5.658   3.593  1.00 20.00     0.052 C 
ENDROOT
BRANCH   2   4
HETATM    4  C4  UNL     1     -34.265   5.674   5.469  1.00 20.00     0.151 C 
HETATM    5  C6  UNL     1     -34.416   4.301   6.077  1.00 20.00     0.096 C 
HETATM    6  O8  UNL     1     -33.921   6.624   6.175  1.00 20.00    -0.293 OA
ENDBRANCH   2   4
BRANCH   1   7
HETATM    7  C2  UNL     1     -32.121   6.458   3.636  1.00 20.00     0.259 C 
HETATM    8  O7  UNL     1     -31.567   7.545   3.517  1.00 20.00    -0.302 OA
ENDBRANCH   1   7
TORSDOF 2
ENDMDL
MODEL 2
REMARK VINA RESULT:      -4.2     11.789     12.550
REMARK  2 active torsions:
REMARK  status: ('A' for Active; 'I' for Inactive)
REMARK    1  A    between atoms: C1_1  and  C2_2 
REMARK    2  A    between atoms: C3_3  and  C4_4 
ROOT
HETATM    1  C1  UNL     1     -35.459  14.616  -3.355  1.00 20.00     0.051 C 
HETATM    2  C3  UNL     1     -34.469  15.450  -2.996  1.00 20.00    -0.014 C 
HETATM    3  C5  UNL     1     -34.444  16.348  -1.789  1.00 20.00     0.052 C 
ENDROOT
BRANCH   2   4
HETATM    4  C4  UNL     1     -33.227  15.537  -3.854  1.00 20.00     0.151 C 
HETATM    5  C6  UNL     1     -33.165  16.515  -5.001  1.00 20.00     0.096 C 
HETATM    6  O8  UNL     1     -32.262  14.808  -3.614  1.00 20.00    -0.293 OA
ENDBRANCH   2   4
BRANCH   1   7
HETATM    7  C2  UNL     1     -35.436  13.749  -4.556  1.00 20.00     0.259 C 
HETATM    8  O7  UNL     1     -34.999  12.604  -4.514  1.00 20.00    -0.302 OA
ENDBRANCH   1   7
TORSDOF 2
ENDMDL
MODEL 3
REMARK VINA RESULT:      -4.2      1.562      2.040
REMARK  2 active torsions:
REMARK  status: ('A' for Active; 'I' for Inactive)
REMARK    1  A    between atoms: C1_1  and  C2_2 
REMARK    2  A    between atoms: C3_3  and  C4_4 
ROOT
HETATM    1  C1  UNL     1     -32.938   6.781   4.410  1.00 20.00     0.051 C 
HETATM    2  C3  UNL     1     -33.897   6.241   5.179  1.00 20.00    -0.014 C 
HETATM    3  C5  UNL     1     -34.158   6.537   6.631  1.00 20.00     0.052 C 
ENDROOT
BRANCH   2   4
HETATM    4  C4  UNL     1     -34.841   5.224   4.579  1.00 20.00     0.151 C 
HETATM    5  C6  UNL     1     -34.945   3.841   5.174  1.00 20.00     0.096 C 
HETATM    6  O8  UNL     1     -35.529   5.526   3.601  1.00 20.00    -0.293 OA
ENDBRANCH   2   4
BRANCH   1   7
HETATM    7  C2  UNL     1     -32.720   6.457   2.981  1.00 20.00     0.259 C 
HETATM    8  O7  UNL     1     -32.199   7.258   2.213  1.00 20.00    -0.302 OA
ENDBRANCH   1   7
TORSDOF 2
ENDMDL
MODEL 4
REMARK VINA RESULT:      -4.2     11.669     12.876
REMARK  2 active torsions:
REMARK  status: ('A' for Active; 'I' for Inactive)
REMARK    1  A    between atoms: C1_1  and  C2_2 
REMARK    2  A    between atoms: C3_3  and  C4_4 
ROOT
HETATM    1  C1  UNL     1     -36.297  15.239  -5.114  1.00 20.00     0.051 C 
HETATM    2  C3  UNL     1     -35.167  14.668  -5.562  1.00 20.00    -0.014 C 
HETATM    3  C5  UNL     1     -34.468  14.956  -6.862  1.00 20.00     0.052 C 
ENDROOT
BRANCH   2   4
HETATM    4  C4  UNL     1     -34.482  13.621  -4.714  1.00 20.00     0.151 C 
HETATM    5  C6  UNL     1     -33.365  14.014  -3.778  1.00 20.00     0.096 C 
HETATM    6  O8  UNL     1     -34.838  12.442  -4.784  1.00 20.00    -0.293 OA
ENDBRANCH   2   4
BRANCH   1   7
HETATM    7  C2  UNL     1     -36.949  14.922  -3.822  1.00 20.00     0.259 C 
HETATM    8  O7  UNL     1     -37.913  14.167  -3.758  1.00 20.00    -0.302 OA
ENDBRANCH   1   7
TORSDOF 2
ENDMDL
MODEL 5
REMARK VINA RESULT:      -4.0     11.688     12.429
REMARK  2 active torsions:
REMARK  status: ('A' for Active; 'I' for Inactive)
REMARK    1  A    between atoms: C1_1  and  C2_2 
REMARK    2  A    between atoms: C3_3  and  C4_4 
ROOT
HETATM    1  C1  UNL     1     -34.076  14.442  -3.455  1.00 20.00     0.051 C 
HETATM    2  C3  UNL     1     -34.937  15.325  -2.924  1.00 20.00    -0.014 C 
HETATM    3  C5  UNL     1     -34.712  16.179  -1.706  1.00 20.00     0.052 C 
ENDROOT
BRANCH   2   4
HETATM    4  C4  UNL     1     -36.287  15.524  -3.573  1.00 20.00     0.151 C 
HETATM    5  C6  UNL     1     -36.499  16.653  -4.552  1.00 20.00     0.096 C 
HETATM    6  O8  UNL     1     -37.218  14.761  -3.305  1.00 20.00    -0.293 OA
ENDBRANCH   2   4
BRANCH   1   7
HETATM    7  C2  UNL     1     -34.345  13.622  -4.660  1.00 20.00     0.259 C 
HETATM    8  O7  UNL     1     -34.916  12.540  -4.585  1.00 20.00    -0.302 OA
ENDBRANCH   1   7
TORSDOF 2
ENDMDL
MODEL 6
REMARK VINA RESULT:      -3.9      1.932      3.651
REMARK  2 active torsions:
REMARK  status: ('A' for Active; 'I' for Inactive)
REMARK    1  A    between atoms: C1_1  and  C2_2 
REMARK    2  A    between atoms: C3_3  and  C4_4 
ROOT
HETATM    1  C1  UNL     1     -34.673   5.207   6.250  1.00 20.00     0.051 C 
HETATM    2  C3  UNL     1     -33.969   6.260   5.803  1.00 20.00    -0.014 C 
HETATM    3  C5  UNL     1     -33.288   7.306   6.642  1.00 20.00     0.052 C 
ENDROOT
BRANCH   2   4
HETATM    4  C4  UNL     1     -33.810   6.465   4.314  1.00 20.00     0.151 C 
HETATM    5  C6  UNL     1     -32.479   6.212   3.651  1.00 20.00     0.096 C 
HETATM    6  O8  UNL     1     -34.772   6.838   3.638  1.00 20.00    -0.293 OA
ENDBRANCH   2   4
BRANCH   1   7
HETATM    7  C2  UNL     1     -35.327   4.200   5.382  1.00 20.00     0.259 C 
HETATM    8  O7  UNL     1     -34.724   3.212   4.977  1.00 20.00    -0.302 OA
ENDBRANCH   1   7
TORSDOF 2
ENDMDL
MODEL 7
REMARK VINA RESULT:      -3.9     12.013     12.745
REMARK  2 active torsions:
REMARK  status: ('A' for Active; 'I' for Inactive)
REMARK    1  A    between atoms: C1_1  and  C2_2 
REMARK    2  A    between atoms: C3_3  and  C4_4 
ROOT
HETATM    1  C1  UNL     1     -35.805  15.338  -3.396  1.00 20.00     0.051 C 
HETATM    2  C3  UNL     1     -34.683  14.773  -3.871  1.00 20.00    -0.014 C 
HETATM    3  C5  UNL     1     -33.286  14.976  -3.352  1.00 20.00     0.052 C 
ENDROOT
BRANCH   2   4
HETATM    4  C4  UNL     1     -34.772  13.826  -5.046  1.00 20.00     0.151 C 
HETATM    5  C6  UNL     1     -34.798  14.366  -6.455  1.00 20.00     0.096 C 
HETATM    6  O8  UNL     1     -34.820  12.609  -4.853  1.00 20.00    -0.293 OA
ENDBRANCH   2   4
BRANCH   1   7
HETATM    7  C2  UNL     1     -37.162  15.105  -3.942  1.00 20.00     0.259 C 
HETATM    8  O7  UNL     1     -37.849  14.159  -3.573  1.00 20.00    -0.302 OA
ENDBRANCH   1   7
TORSDOF 2
ENDMDL
MODEL 8
REMARK VINA RESULT:      -3.9      1.713      3.049
REMARK  2 active torsions:
REMARK  status: ('A' for Active; 'I' for Inactive)
REMARK    1  A    between atoms: C1_1  and  C2_2 
REMARK    2  A    between atoms: C3_3  and  C4_4 
ROOT
HETATM    1  C1  UNL     1     -34.292   5.750   6.447  1.00 20.00     0.051 C 
HETATM    2  C3  UNL     1     -34.553   5.026   5.347  1.00 20.00    -0.014 C 
HETATM    3  C5  UNL     1     -34.956   3.577   5.300  1.00 20.00     0.052 C 
ENDROOT
BRANCH   2   4
HETATM    4  C4  UNL     1     -34.449   5.680   3.988  1.00 20.00     0.151 C 
HETATM    5  C6  UNL     1     -33.106   6.118   3.458  1.00 20.00     0.096 C 
HETATM    6  O8  UNL     1     -35.464   5.855   3.310  1.00 20.00    -0.293 OA
ENDBRANCH   2   4
BRANCH   1   7
HETATM    7  C2  UNL     1     -33.898   7.178   6.442  1.00 20.00     0.259 C 
HETATM    8  O7  UNL     1     -32.991   7.597   7.154  1.00 20.00    -0.302 OA
ENDBRANCH   1   7
TORSDOF 2
ENDMDL
MODEL 9
REMARK VINA RESULT:      -3.9     11.744     12.514
REMARK  2 active torsions:
REMARK  status: ('A' for Active; 'I' for Inactive)
REMARK    1  A    between atoms: C1_1  and  C2_2 
REMARK    2  A    between atoms: C3_3  and  C4_4 
ROOT
HETATM    1  C1  UNL     1     -35.766  13.935  -4.112  1.00 20.00     0.051 C 
HETATM    2  C3  UNL     1     -34.592  14.440  -3.700  1.00 20.00    -0.014 C 
HETATM    3  C5  UNL     1     -33.266  13.730  -3.678  1.00 20.00     0.052 C 
ENDROOT
BRANCH   2   4
HETATM    4  C4  UNL     1     -34.535  15.864  -3.195  1.00 20.00     0.151 C 
HETATM    5  C6  UNL     1     -34.652  16.150  -1.718  1.00 20.00     0.096 C 
HETATM    6  O8  UNL     1     -34.392  16.794  -3.992  1.00 20.00    -0.293 OA
ENDBRANCH   2   4
BRANCH   1   7
HETATM    7  C2  UNL     1     -37.048  14.677  -4.115  1.00 20.00     0.259 C 
HETATM    8  O7  UNL     1     -38.085  14.169  -3.701  1.00 20.00    -0.302 OA
ENDBRANCH   1   7
TORSDOF 2
ENDMDL
