MODEL 1
REMARK VINA RESULT:      -4.8      0.000      0.000
REMARK  4 active torsions:
REMARK  status: ('A' for Active; 'I' for Inactive)
REMARK    1  A    between atoms: C1_1  and  C2_2 
REMARK    2  A    between atoms: C2_2  and  C3_3 
REMARK    3  A    between atoms: C3_3  and  C4_4 
REMARK    4  A    between atoms: C4_4  and  C5_5 
ROOT
HETATM    1  C2  UNL     1     -34.818   5.346   3.807  1.00 20.00     0.096 C 
ENDROOT
BRANCH   1   2
HETATM    2  C1  UNL     1     -34.894   4.655   5.159  1.00 20.00     0.218 C 
HETATM    3  O6  UNL     1     -35.146   3.461   5.285  1.00 20.00    -0.280 OA
HETATM    4 CL7  UNL     1     -34.536   5.753   6.462  1.00 20.00    -0.044 Cl
ENDBRANCH   1   2
BRANCH   1   5
HETATM    5  C3  UNL     1     -33.926   6.588   3.807  1.00 20.00     0.010 C 
BRANCH   5   6
HETATM    6  C4  UNL     1     -32.557   6.320   3.168  1.00 20.00     0.015 C 
BRANCH   6   7
HETATM    7  C5  UNL     1     -31.698   7.575   3.041  1.00 20.00     0.114 C 
HETATM    8 CL8  UNL     1     -31.997   8.434   1.512  1.00 20.00    -0.130 Cl
ENDBRANCH   6   7
ENDBRANCH   5   6
ENDBRANCH   1   5
TORSDOF 4
ENDMDL
MODEL 2
REMARK VINA RESULT:      -4.5      2.149      4.451
REMARK  4 active torsions:
REMARK  status: ('A' for Active; 'I' for Inactive)
REMARK    1  A    between atoms: C1_1  and  C2_2 
REMARK    2  A    between atoms: C2_2  and  C3_3 
REMARK    3  A    between atoms: C3_3  and  C4_4 
REMARK    4  A    between atoms: C4_4  and  C5_5 
ROOT
HETATM    1  C2  UNL     1     -32.894   6.137   3.127  1.00 20.00     0.096 C 
ENDROOT
BRANCH   1   2
HETATM    2  C1  UNL     1     -31.978   7.349   3.154  1.00 20.00     0.218 C 
HETATM    3  O6  UNL     1     -31.240   7.608   4.101  1.00 20.00    -0.280 OA
HETATM    4 CL7  UNL     1     -32.084   8.268   1.679  1.00 20.00    -0.044 Cl
ENDBRANCH   1   2
BRANCH   1   5
HETATM    5  C3  UNL     1     -34.245   6.379   3.801  1.00 20.00     0.010 C 
BRANCH   5   6
HETATM    6  C4  UNL     1     -34.800   5.112   4.465  1.00 20.00     0.015 C 
BRANCH   6   7
HETATM    7  C5  UNL     1     -34.727   5.152   5.988  1.00 20.00     0.114 C 
HETATM    8 CL8  UNL     1     -33.984   6.655   6.580  1.00 20.00    -0.130 Cl
ENDBRANCH   6   7
ENDBRANCH   5   6
ENDBRANCH   1   5
TORSDOF 4
ENDMDL
MODEL 3
REMARK VINA RESULT:      -4.5      1.633      1.787
REMARK  4 active torsions:
REMARK  status: ('A' for Active; 'I' for Inactive)
REMARK    1  A    between atoms: C1_1  and  C2_2 
REMARK    2  A    between atoms: C2_2  and  C3_3 
REMARK    3  A    between atoms: C3_3  and  C4_4 
REMARK    4  A    between atoms: C4_4  and  C5_5 
ROOT
HETATM    1  C2  UNL     1     -34.117   6.125   3.880  1.00 20.00     0.096 C 
ENDROOT
BRANCH   1   2
HETATM    2  C1  UNL     1     -34.230   5.770   5.353  1.00 20.00     0.218 C 
HETATM    3  O6  UNL     1     -33.914   6.544   6.252  1.00 20.00    -0.280 OA
HETATM    4 CL7  UNL     1     -34.893   4.177   5.581  1.00 20.00    -0.044 Cl
ENDBRANCH   1   2
BRANCH   1   5
HETATM    5  C3  UNL     1     -32.680   6.107   3.357  1.00 20.00     0.010 C 
BRANCH   5   6
HETATM    6  C4  UNL     1     -32.074   7.514   3.272  1.00 20.00     0.015 C 
BRANCH   6   7
HETATM    7  C5  UNL     1     -31.976   8.039   1.842  1.00 20.00     0.114 C 
HETATM    8 CL8  UNL     1     -32.530   9.724   1.714  1.00 20.00    -0.130 Cl
ENDBRANCH   6   7
ENDBRANCH   5   6
ENDBRANCH   1   5
TORSDOF 4
ENDMDL
MODEL 4
REMARK VINA RESULT:      -4.4      2.404      4.658
REMARK  4 active torsions:
REMARK  status: ('A' for Active; 'I' for Inactive)
REMARK    1  A    between atoms: C1_1  and  C2_2 
REMARK    2  A    between atoms: C2_2  and  C3_3 
REMARK    3  A    between atoms: C3_3  and  C4_4 
REMARK    4  A    between atoms: C4_4  and  C5_5 
ROOT
HETATM    1  C2  UNL     1     -32.739   6.170   3.240  1.00 20.00     0.096 C 
ENDROOT
BRANCH   1   2
HETATM    2  C1  UNL     1     -31.879   7.422   3.184  1.00 20.00     0.218 C 
HETATM    3  O6  UNL     1     -31.103   7.739   4.080  1.00 20.00    -0.280 OA
HETATM    4 CL7  UNL     1     -32.110   8.293   1.694  1.00 20.00    -0.044 Cl
ENDBRANCH   1   2
BRANCH   1   5
HETATM    5  C3  UNL     1     -34.048   6.363   4.006  1.00 20.00     0.010 C 
BRANCH   5   6
HETATM    6  C4  UNL     1     -33.841   6.335   5.526  1.00 20.00     0.015 C 
BRANCH   6   7
HETATM    7  C5  UNL     1     -34.764   5.351   6.239  1.00 20.00     0.114 C 
HETATM    8 CL8  UNL     1     -34.909   3.815   5.353  1.00 20.00    -0.130 Cl
ENDBRANCH   6   7
ENDBRANCH   5   6
ENDBRANCH   1   5
TORSDOF 4
ENDMDL
MODEL 5
REMARK VINA RESULT:      -4.3      2.598      4.362
REMARK  4 active torsions:
REMARK  status: ('A' for Active; 'I' for Inactive)
REMARK    1  A    between atoms: C1_1  and  C2_2 
REMARK    2  A    between atoms: C2_2  and  C3_3 
REMARK    3  A    between atoms: C3_3  and  C4_4 
REMARK    4  A    between atoms: C4_4  and  C5_5 
ROOT
HETATM    1  C2  UNL     1     -32.968   6.120   3.056  1.00 20.00     0.096 C 
ENDROOT
BRANCH   1   2
HETATM    2  C1  UNL     1     -32.136   7.374   2.839  1.00 20.00     0.218 C 
HETATM    3  O6  UNL     1     -32.182   8.035   1.806  1.00 20.00    -0.280 OA
HETATM    4 CL7  UNL     1     -31.173   7.756   4.239  1.00 20.00    -0.044 Cl
ENDBRANCH   1   2
BRANCH   1   5
HETATM    5  C3  UNL     1     -34.254   6.372   3.844  1.00 20.00     0.010 C 
BRANCH   5   6
HETATM    6  C4  UNL     1     -34.771   5.102   4.535  1.00 20.00     0.015 C 
BRANCH   6   7
HETATM    7  C5  UNL     1     -34.687   5.171   6.057  1.00 20.00     0.114 C 
HETATM    8 CL8  UNL     1     -33.965   6.697   6.615  1.00 20.00    -0.130 Cl
ENDBRANCH   6   7
ENDBRANCH   5   6
ENDBRANCH   1   5
TORSDOF 4
ENDMDL
MODEL 6
REMARK VINA RESULT:      -4.1      2.879      5.117
REMARK  4 active torsions:
REMARK  status: ('A' for Active; 'I' for Inactive)
REMARK    1  A    between atoms: C1_1  and  C2_2 
REMARK    2  A    between atoms: C2_2  and  C3_3 
REMARK    3  A    between atoms: C3_3  and  C4_4 
REMARK    4  A    between atoms: C4_4  and  C5_5 
ROOT
HETATM    1  C2  UNL     1     -31.912   7.646   2.977  1.00 20.00     0.096 C 
ENDROOT
BRANCH   1   2
HETATM    2  C1  UNL     1     -31.983   8.540   1.750  1.00 20.00     0.218 C 
HETATM    3  O6  UNL     1     -31.519   8.217   0.660  1.00 20.00    -0.280 OA
HETATM    4 CL7  UNL     1     -32.829  10.025   2.085  1.00 20.00    -0.044 Cl
ENDBRANCH   1   2
BRANCH   1   5
HETATM    5  C3  UNL     1     -32.867   6.453   2.916  1.00 20.00     0.010 C 
BRANCH   5   6
HETATM    6  C4  UNL     1     -33.835   6.422   4.106  1.00 20.00     0.015 C 
BRANCH   6   7
HETATM    7  C5  UNL     1     -34.806   5.246   4.058  1.00 20.00     0.114 C 
HETATM    8 CL8  UNL     1     -35.006   4.482   5.652  1.00 20.00    -0.130 Cl
ENDBRANCH   6   7
ENDBRANCH   5   6
ENDBRANCH   1   5
TORSDOF 4
ENDMDL
MODEL 7
REMARK VINA RESULT:      -3.9     11.384     12.137
REMARK  4 active torsions:
REMARK  status: ('A' for Active; 'I' for Inactive)
REMARK    1  A    between atoms: C1_1  and  C2_2 
REMARK    2  A    between atoms: C2_2  and  C3_3 
REMARK    3  A    between atoms: C3_3  and  C4_4 
REMARK    4  A    between atoms: C4_4  and  C5_5 
ROOT
HETATM    1  C2  UNL     1     -33.281  13.952  -3.701  1.00 20.00     0.096 C 
ENDROOT
BRANCH   1   2
HETATM    2  C1  UNL     1     -34.343  13.505  -4.692  1.00 20.00     0.218 C 
HETATM    3  O6  UNL     1     -35.061  12.527  -4.505  1.00 20.00    -0.280 OA
HETATM    4 CL7  UNL     1     -34.426  14.568  -6.069  1.00 20.00    -0.044 Cl
ENDBRANCH   1   2
BRANCH   1   5
HETATM    5  C3  UNL     1     -33.271  15.462  -3.460  1.00 20.00     0.010 C 
BRANCH   5   6
HETATM    6  C4  UNL     1     -34.355  15.899  -2.466  1.00 20.00     0.015 C 
BRANCH   6   7
HETATM    7  C5  UNL     1     -33.892  17.006  -1.522  1.00 20.00     0.114 C 
HETATM    8 CL8  UNL     1     -34.819  17.018  -0.005  1.00 20.00    -0.130 Cl
ENDBRANCH   6   7
ENDBRANCH   5   6
ENDBRANCH   1   5
TORSDOF 4
ENDMDL
MODEL 8
REMARK VINA RESULT:      -3.7     11.464     11.983
REMARK  4 active torsions:
REMARK  status: ('A' for Active; 'I' for Inactive)
REMARK    1  A    between atoms: C1_1  and  C2_2 
REMARK    2  A    between atoms: C2_2  and  C3_3 
REMARK    3  A    between atoms: C3_3  and  C4_4 
REMARK    4  A    between atoms: C4_4  and  C5_5 
ROOT
HETATM    1  C2  UNL     1     -33.961  14.247  -3.382  1.00 20.00     0.096 C 
ENDROOT
BRANCH   1   2
HETATM    2  C1  UNL     1     -35.040  13.548  -4.193  1.00 20.00     0.218 C 
HETATM    3  O6  UNL     1     -34.828  12.535  -4.853  1.00 20.00    -0.280 OA
HETATM    4 CL7  UNL     1     -36.583  14.337  -4.024  1.00 20.00    -0.044 Cl
ENDBRANCH   1   2
BRANCH   1   5
HETATM    5  C3  UNL     1     -33.650  15.661  -3.874  1.00 20.00     0.010 C 
BRANCH   5   6
HETATM    6  C4  UNL     1     -33.858  16.717  -2.780  1.00 20.00     0.015 C 
BRANCH   6   7
HETATM    7  C5  UNL     1     -34.706  16.214  -1.615  1.00 20.00     0.114 C 
HETATM    8 CL8  UNL     1     -34.469  17.193  -0.148  1.00 20.00    -0.130 Cl
ENDBRANCH   6   7
ENDBRANCH   5   6
ENDBRANCH   1   5
TORSDOF 4
ENDMDL
MODEL 9
REMARK VINA RESULT:      -3.7     11.758     12.499
REMARK  4 active torsions:
REMARK  status: ('A' for Active; 'I' for Inactive)
REMARK    1  A    between atoms: C1_1  and  C2_2 
REMARK    2  A    between atoms: C2_2  and  C3_3 
REMARK    3  A    between atoms: C3_3  and  C4_4 
REMARK    4  A    between atoms: C4_4  and  C5_5 
ROOT
HETATM    1  C2  UNL     1     -33.182  13.777  -3.762  1.00 20.00     0.096 C 
ENDROOT
BRANCH   1   2
HETATM    2  C1  UNL     1     -34.379  13.457  -4.642  1.00 20.00     0.218 C 
HETATM    3  O6  UNL     1     -35.193  12.579  -4.370  1.00 20.00    -0.280 OA
HETATM    4 CL7  UNL     1     -34.459  14.510  -6.027  1.00 20.00    -0.044 Cl
ENDBRANCH   1   2
BRANCH   1   5
HETATM    5  C3  UNL     1     -32.934  15.276  -3.594  1.00 20.00     0.010 C 
BRANCH   5   6
HETATM    6  C4  UNL     1     -34.063  15.969  -2.819  1.00 20.00     0.015 C 
BRANCH   6   7
HETATM    7  C5  UNL     1     -34.533  17.264  -3.476  1.00 20.00     0.114 C 
HETATM    8 CL8  UNL     1     -33.489  17.738  -4.835  1.00 20.00    -0.130 Cl
ENDBRANCH   6   7
ENDBRANCH   5   6
ENDBRANCH   1   5
TORSDOF 4
ENDMDL
