MODEL 1
REMARK VINA RESULT:      -4.8      0.000      0.000
REMARK  3 active torsions:
REMARK  status: ('A' for Active; 'I' for Inactive)
REMARK    1  A    between atoms: C4_4  and  C10_10 
REMARK    2  A    between atoms: C5_5  and  C11_11 
REMARK    3  A    between atoms: C6_6  and  C12_12 
ROOT
HETATM    1  C7  UNL     1     -34.319  17.968  -3.605  1.00 20.00     0.009 C 
HETATM    2  C8  UNL     1     -33.999  17.502  -5.023  1.00 20.00     0.010 C 
HETATM    3  C9  UNL     1     -33.941  15.628  -2.743  1.00 20.00     0.017 C 
HETATM    4  C10 UNL     1     -33.599  17.112  -2.559  1.00 20.00     0.008 C 
HETATM    5  C11 UNL     1     -34.325  16.015  -5.228  1.00 20.00     0.015 C 
HETATM    6  C12 UNL     1     -33.620  15.139  -4.167  1.00 20.00     0.015 C 
ENDROOT
BRANCH   4   7
HETATM    7  C4  UNL     1     -33.943  17.575  -1.177  1.00 20.00    -0.032 C 
HETATM    8  C1  UNL     1     -34.749  16.908  -0.344  1.00 20.00     0.007 C 
ENDBRANCH   4   7
BRANCH   6   9
HETATM    9  C6  UNL     1     -33.997  13.691  -4.295  1.00 20.00    -0.031 C 
HETATM   10  C3  UNL     1     -35.256  13.241  -4.277  1.00 20.00     0.007 C 
ENDBRANCH   6   9
BRANCH   5  11
HETATM   11  C5  UNL     1     -33.955  15.621  -6.630  1.00 20.00    -0.031 C 
HETATM   12  C2  UNL     1     -34.829  15.171  -7.536  1.00 20.00     0.007 C 
ENDBRANCH   5  11
TORSDOF 3
ENDMDL
MODEL 2
REMARK VINA RESULT:      -4.8      1.208      1.350
REMARK  3 active torsions:
REMARK  status: ('A' for Active; 'I' for Inactive)
REMARK    1  A    between atoms: C4_4  and  C10_10 
REMARK    2  A    between atoms: C5_5  and  C11_11 
REMARK    3  A    between atoms: C6_6  and  C12_12 
ROOT
HETATM    1  C7  UNL     1     -33.434  17.240  -3.655  1.00 20.00     0.009 C 
HETATM    2  C8  UNL     1     -33.363  16.393  -4.924  1.00 20.00     0.010 C 
HETATM    3  C9  UNL     1     -35.097  15.625  -2.661  1.00 20.00     0.017 C 
HETATM    4  C10 UNL     1     -33.786  16.387  -2.433  1.00 20.00     0.008 C 
HETATM    5  C11 UNL     1     -34.663  15.612  -5.168  1.00 20.00     0.015 C 
HETATM    6  C12 UNL     1     -35.042  14.761  -3.934  1.00 20.00     0.015 C 
ENDROOT
BRANCH   4   7
HETATM    7  C4  UNL     1     -33.868  17.241  -1.205  1.00 20.00    -0.032 C 
HETATM    8  C1  UNL     1     -34.758  17.057  -0.224  1.00 20.00     0.007 C 
ENDBRANCH   4   7
BRANCH   6   9
HETATM    9  C6  UNL     1     -36.357  14.059  -4.120  1.00 20.00    -0.031 C 
HETATM   10  C3  UNL     1     -37.544  14.674  -4.092  1.00 20.00     0.007 C 
ENDBRANCH   6   9
BRANCH   5  11
HETATM   11  C5  UNL     1     -34.509  14.779  -6.409  1.00 20.00    -0.031 C 
HETATM   12  C2  UNL     1     -35.243  14.941  -7.514  1.00 20.00     0.007 C 
ENDBRANCH   5  11
TORSDOF 3
ENDMDL
MODEL 3
REMARK VINA RESULT:      -4.6     11.166     13.221
REMARK  3 active torsions:
REMARK  status: ('A' for Active; 'I' for Inactive)
REMARK    1  A    between atoms: C4_4  and  C10_10 
REMARK    2  A    between atoms: C5_5  and  C11_11 
REMARK    3  A    between atoms: C6_6  and  C12_12 
ROOT
HETATM    1  C7  UNL     1     -33.477   6.342   2.189  1.00 20.00     0.009 C 
HETATM    2  C8  UNL     1     -34.241   5.232   2.909  1.00 20.00     0.010 C 
HETATM    3  C9  UNL     1     -32.749   7.290   4.410  1.00 20.00     0.017 C 
HETATM    4  C10 UNL     1     -32.289   6.832   3.021  1.00 20.00     0.008 C 
HETATM    5  C11 UNL     1     -34.704   5.666   4.308  1.00 20.00     0.015 C 
HETATM    6  C12 UNL     1     -33.517   6.182   5.153  1.00 20.00     0.015 C 
ENDROOT
BRANCH   4   7
HETATM    7  C4  UNL     1     -31.567   7.932   2.305  1.00 20.00    -0.032 C 
HETATM    8  C1  UNL     1     -32.130   8.720   1.383  1.00 20.00     0.007 C 
ENDBRANCH   4   7
BRANCH   6   9
HETATM    9  C6  UNL     1     -33.964   6.694   6.492  1.00 20.00    -0.031 C 
HETATM   10  C3  UNL     1     -33.343   7.667   7.167  1.00 20.00     0.007 C 
ENDBRANCH   6   9
BRANCH   5  11
HETATM   11  C5  UNL     1     -35.416   4.518   4.966  1.00 20.00    -0.031 C 
HETATM   12  C2  UNL     1     -34.820   3.625   5.762  1.00 20.00     0.007 C 
ENDBRANCH   5  11
TORSDOF 3
ENDMDL
MODEL 4
REMARK VINA RESULT:      -4.6      1.179      1.535
REMARK  3 active torsions:
REMARK  status: ('A' for Active; 'I' for Inactive)
REMARK    1  A    between atoms: C4_4  and  C10_10 
REMARK    2  A    between atoms: C5_5  and  C11_11 
REMARK    3  A    between atoms: C6_6  and  C12_12 
ROOT
HETATM    1  C7  UNL     1     -34.083  18.776  -2.260  1.00 20.00     0.009 C 
HETATM    2  C8  UNL     1     -33.619  18.406  -3.668  1.00 20.00     0.010 C 
HETATM    3  C9  UNL     1     -34.227  16.331  -1.658  1.00 20.00     0.017 C 
HETATM    4  C10 UNL     1     -33.686  17.704  -1.241  1.00 20.00     0.008 C 
HETATM    5  C11 UNL     1     -34.142  17.029  -4.103  1.00 20.00     0.015 C 
HETATM    6  C12 UNL     1     -33.765  15.939  -3.073  1.00 20.00     0.015 C 
ENDROOT
BRANCH   4   7
HETATM    7  C4  UNL     1     -34.167  18.079   0.126  1.00 20.00    -0.032 C 
HETATM    8  C1  UNL     1     -35.156  17.450   0.769  1.00 20.00     0.007 C 
ENDBRANCH   4   7
BRANCH   6   9
HETATM    9  C6  UNL     1     -34.345  14.601  -3.436  1.00 20.00    -0.031 C 
HETATM   10  C3  UNL     1     -33.616  13.551  -3.827  1.00 20.00     0.007 C 
ENDBRANCH   6   9
BRANCH   5  11
HETATM   11  C5  UNL     1     -33.622  16.719  -5.478  1.00 20.00    -0.031 C 
HETATM   12  C2  UNL     1     -34.341  16.847  -6.597  1.00 20.00     0.007 C 
ENDBRANCH   5  11
TORSDOF 3
ENDMDL
MODEL 5
REMARK VINA RESULT:      -4.6      1.049      2.875
REMARK  3 active torsions:
REMARK  status: ('A' for Active; 'I' for Inactive)
REMARK    1  A    between atoms: C4_4  and  C10_10 
REMARK    2  A    between atoms: C5_5  and  C11_11 
REMARK    3  A    between atoms: C6_6  and  C12_12 
ROOT
HETATM    1  C7  UNL     1     -34.308  14.616  -3.318  1.00 20.00     0.009 C 
HETATM    2  C8  UNL     1     -34.568  14.301  -4.790  1.00 20.00     0.010 C 
HETATM    3  C9  UNL     1     -34.426  17.086  -3.818  1.00 20.00     0.017 C 
HETATM    4  C10 UNL     1     -34.932  15.954  -2.914  1.00 20.00     0.008 C 
HETATM    5  C11 UNL     1     -34.078  15.426  -5.715  1.00 20.00     0.015 C 
HETATM    6  C12 UNL     1     -34.685  16.788  -5.306  1.00 20.00     0.015 C 
ENDROOT
BRANCH   4   7
HETATM    7  C4  UNL     1     -34.648  16.251  -1.474  1.00 20.00    -0.032 C 
HETATM    8  C1  UNL     1     -33.910  17.284  -1.054  1.00 20.00     0.007 C 
ENDBRANCH   4   7
BRANCH   6   9
HETATM    9  C6  UNL     1     -34.148  17.914  -6.142  1.00 20.00    -0.031 C 
HETATM   10  C3  UNL     1     -33.568  19.009  -5.641  1.00 20.00     0.007 C 
ENDBRANCH   6   9
BRANCH   5  11
HETATM   11  C5  UNL     1     -34.395  15.064  -7.138  1.00 20.00    -0.031 C 
HETATM   12  C2  UNL     1     -35.510  14.432  -7.518  1.00 20.00     0.007 C 
ENDBRANCH   5  11
TORSDOF 3
ENDMDL
MODEL 6
REMARK VINA RESULT:      -4.5      1.121      5.022
REMARK  3 active torsions:
REMARK  status: ('A' for Active; 'I' for Inactive)
REMARK    1  A    between atoms: C4_4  and  C10_10 
REMARK    2  A    between atoms: C5_5  and  C11_11 
REMARK    3  A    between atoms: C6_6  and  C12_12 
ROOT
HETATM    1  C7  UNL     1     -35.351  14.138  -5.055  1.00 20.00     0.009 C 
HETATM    2  C8  UNL     1     -34.733  14.484  -3.701  1.00 20.00     0.010 C 
HETATM    3  C9  UNL     1     -34.384  16.248  -6.043  1.00 20.00     0.017 C 
HETATM    4  C10 UNL     1     -34.537  14.731  -6.208  1.00 20.00     0.008 C 
HETATM    5  C11 UNL     1     -34.561  15.999  -3.517  1.00 20.00     0.015 C 
HETATM    6  C12 UNL     1     -33.758  16.615  -4.685  1.00 20.00     0.015 C 
ENDROOT
BRANCH   4   7
HETATM    7  C4  UNL     1     -35.172  14.396  -7.523  1.00 20.00    -0.032 C 
HETATM    8  C1  UNL     1     -36.377  14.832  -7.904  1.00 20.00     0.007 C 
ENDBRANCH   4   7
BRANCH   6   9
HETATM    9  C6  UNL     1     -33.656  18.109  -4.569  1.00 20.00    -0.031 C 
HETATM   10  C3  UNL     1     -33.603  18.940  -5.614  1.00 20.00     0.007 C 
ENDBRANCH   6   9
BRANCH   5  11
HETATM   11  C5  UNL     1     -33.920  16.261  -2.184  1.00 20.00    -0.031 C 
HETATM   12  C2  UNL     1     -34.601  16.555  -1.071  1.00 20.00     0.007 C 
ENDBRANCH   5  11
TORSDOF 3
ENDMDL
MODEL 7
REMARK VINA RESULT:      -4.3      1.700      4.709
REMARK  3 active torsions:
REMARK  status: ('A' for Active; 'I' for Inactive)
REMARK    1  A    between atoms: C4_4  and  C10_10 
REMARK    2  A    between atoms: C5_5  and  C11_11 
REMARK    3  A    between atoms: C6_6  and  C12_12 
ROOT
HETATM    1  C7  UNL     1     -33.533  14.905  -4.402  1.00 20.00     0.009 C 
HETATM    2  C8  UNL     1     -33.466  15.550  -3.019  1.00 20.00     0.010 C 
HETATM    3  C9  UNL     1     -35.695  16.118  -4.870  1.00 20.00     0.017 C 
HETATM    4  C10 UNL     1     -34.291  15.790  -5.395  1.00 20.00     0.008 C 
HETATM    5  C11 UNL     1     -34.861  15.895  -2.477  1.00 20.00     0.015 C 
HETATM    6  C12 UNL     1     -35.646  16.774  -3.478  1.00 20.00     0.015 C 
ENDROOT
BRANCH   4   7
HETATM    7  C4  UNL     1     -34.360  15.130  -6.738  1.00 20.00    -0.032 C 
HETATM    8  C1  UNL     1     -35.418  14.440  -7.178  1.00 20.00     0.007 C 
ENDBRANCH   4   7
BRANCH   6   9
HETATM    9  C6  UNL     1     -37.045  17.048  -3.006  1.00 20.00    -0.031 C 
HETATM   10  C3  UNL     1     -38.124  16.384  -3.434  1.00 20.00     0.007 C 
ENDBRANCH   6   9
BRANCH   5  11
HETATM   11  C5  UNL     1     -34.716  16.553  -1.134  1.00 20.00    -0.031 C 
HETATM   12  C2  UNL     1     -33.796  17.481  -0.851  1.00 20.00     0.007 C 
ENDBRANCH   5  11
TORSDOF 3
ENDMDL
MODEL 8
REMARK VINA RESULT:      -4.3      1.309      4.514
REMARK  3 active torsions:
REMARK  status: ('A' for Active; 'I' for Inactive)
REMARK    1  A    between atoms: C4_4  and  C10_10 
REMARK    2  A    between atoms: C5_5  and  C11_11 
REMARK    3  A    between atoms: C6_6  and  C12_12 
ROOT
HETATM    1  C7  UNL     1     -34.496  15.370  -2.412  1.00 20.00     0.009 C 
HETATM    2  C8  UNL     1     -34.015  16.740  -1.935  1.00 20.00     0.010 C 
HETATM    3  C9  UNL     1     -33.883  15.974  -4.783  1.00 20.00     0.017 C 
HETATM    4  C10 UNL     1     -33.750  14.924  -3.672  1.00 20.00     0.008 C 
HETATM    5  C11 UNL     1     -34.130  17.806  -3.034  1.00 20.00     0.015 C 
HETATM    6  C12 UNL     1     -33.397  17.360  -4.321  1.00 20.00     0.015 C 
ENDROOT
BRANCH   4   7
HETATM    7  C4  UNL     1     -34.251  13.590  -4.132  1.00 20.00    -0.032 C 
HETATM    8  C1  UNL     1     -34.897  13.391  -5.286  1.00 20.00     0.007 C 
ENDBRANCH   4   7
BRANCH   6   9
HETATM    9  C6  UNL     1     -33.574  18.349  -5.437  1.00 20.00    -0.031 C 
HETATM   10  C3  UNL     1     -34.116  18.052  -6.622  1.00 20.00     0.007 C 
ENDBRANCH   6   9
BRANCH   5  11
HETATM   11  C5  UNL     1     -33.610  19.112  -2.506  1.00 20.00    -0.031 C 
HETATM   12  C2  UNL     1     -33.043  19.262  -1.305  1.00 20.00     0.007 C 
ENDBRANCH   5  11
TORSDOF 3
ENDMDL
MODEL 9
REMARK VINA RESULT:      -4.2      1.305      4.160
REMARK  3 active torsions:
REMARK  status: ('A' for Active; 'I' for Inactive)
REMARK    1  A    between atoms: C4_4  and  C10_10 
REMARK    2  A    between atoms: C5_5  and  C11_11 
REMARK    3  A    between atoms: C6_6  and  C12_12 
ROOT
HETATM    1  C7  UNL     1     -33.839  18.211  -4.780  1.00 20.00     0.009 C 
HETATM    2  C8  UNL     1     -34.210  17.937  -3.324  1.00 20.00     0.010 C 
HETATM    3  C9  UNL     1     -34.390  15.822  -5.376  1.00 20.00     0.017 C 
HETATM    4  C10 UNL     1     -34.613  17.297  -5.734  1.00 20.00     0.008 C 
HETATM    5  C11 UNL     1     -34.003  16.464  -2.944  1.00 20.00     0.015 C 
HETATM    6  C12 UNL     1     -34.763  15.527  -3.912  1.00 20.00     0.015 C 
ENDROOT
BRANCH   4   7
HETATM    7  C4  UNL     1     -34.220  17.569  -7.154  1.00 20.00    -0.032 C 
HETATM    8  C1  UNL     1     -34.036  18.795  -7.657  1.00 20.00     0.007 C 
ENDBRANCH   4   7
BRANCH   6   9
HETATM    9  C6  UNL     1     -34.501  14.079  -3.611  1.00 20.00    -0.031 C 
HETATM   10  C3  UNL     1     -33.321  13.478  -3.793  1.00 20.00     0.007 C 
ENDBRANCH   6   9
BRANCH   5  11
HETATM   11  C5  UNL     1     -34.417  16.263  -1.514  1.00 20.00    -0.031 C 
HETATM   12  C2  UNL     1     -34.465  17.242  -0.604  1.00 20.00     0.007 C 
ENDBRANCH   5  11
TORSDOF 3
ENDMDL
