MODEL 1
REMARK VINA RESULT:      -4.9      0.000      0.000
REMARK  2 active torsions:
REMARK  status: ('A' for Active; 'I' for Inactive)
REMARK    1  A    between atoms: C1_1  and  C7_7 
REMARK       I    between atoms: C1_1  and  N9_9 
REMARK    2  A    between atoms: C7_7  and  C8_8 
ROOT
HETATM    1  C1  UNL     1     -33.243   6.150   3.223  1.00 20.00     0.219 C 
HETATM    2  C2  UNL     1     -34.974   4.488   6.009  1.00 20.00     0.021 C 
HETATM    3  C3  UNL     1     -34.648   5.839   6.635  1.00 20.00     0.021 C 
HETATM    4  C4  UNL     1     -34.853   4.768   4.519  1.00 20.00     0.126 C 
HETATM    5  C5  UNL     1     -33.542   6.374   5.737  1.00 20.00     0.126 C 
HETATM    6  N9  UNL     1     -33.831   5.802   4.425  1.00 20.00    -0.352 N 
HETATM    7  O10 UNL     1     -33.523   5.630   2.141  1.00 20.00    -0.273 OA
ENDROOT
BRANCH   1   8
HETATM    8  C7  UNL     1     -32.207   7.244   3.300  1.00 20.00     0.103 C 
BRANCH   8   9
HETATM    9  C8  UNL     1     -31.949   7.827   1.921  1.00 20.00     0.005 C 
HETATM   10  C6  UNL     1     -32.434   9.264   1.787  1.00 20.00     0.005 C 
ENDBRANCH   8   9
ENDBRANCH   1   8
TORSDOF 2
ENDMDL
MODEL 2
REMARK VINA RESULT:      -4.5      1.298      1.823
REMARK  2 active torsions:
REMARK  status: ('A' for Active; 'I' for Inactive)
REMARK    1  A    between atoms: C1_1  and  C7_7 
REMARK       I    between atoms: C1_1  and  N9_9 
REMARK    2  A    between atoms: C7_7  and  C8_8 
ROOT
HETATM    1  C1  UNL     1     -32.520   7.026   3.725  1.00 20.00     0.219 C 
HETATM    2  C2  UNL     1     -34.882   5.376   6.010  1.00 20.00     0.021 C 
HETATM    3  C3  UNL     1     -35.142   4.607   4.720  1.00 20.00     0.021 C 
HETATM    4  C4  UNL     1     -33.520   6.005   5.760  1.00 20.00     0.126 C 
HETATM    5  C5  UNL     1     -34.573   5.530   3.652  1.00 20.00     0.126 C 
HETATM    6  N9  UNL     1     -33.483   6.233   4.322  1.00 20.00    -0.352 N 
HETATM    7  O10 UNL     1     -31.621   7.601   4.341  1.00 20.00    -0.273 OA
ENDROOT
BRANCH   1   8
HETATM    8  C7  UNL     1     -32.621   7.153   2.226  1.00 20.00     0.103 C 
BRANCH   8   9
HETATM    9  C8  UNL     1     -31.757   8.299   1.730  1.00 20.00     0.005 C 
HETATM   10  C6  UNL     1     -32.550   9.578   1.494  1.00 20.00     0.005 C 
ENDBRANCH   8   9
ENDBRANCH   1   8
TORSDOF 2
ENDMDL
MODEL 3
REMARK VINA RESULT:      -4.3     11.500     12.841
REMARK  2 active torsions:
REMARK  status: ('A' for Active; 'I' for Inactive)
REMARK    1  A    between atoms: C1_1  and  C7_7 
REMARK       I    between atoms: C1_1  and  N9_9 
REMARK    2  A    between atoms: C7_7  and  C8_8 
ROOT
HETATM    1  C1  UNL     1     -34.143  14.499  -3.792  1.00 20.00     0.219 C 
HETATM    2  C2  UNL     1     -35.294  14.668  -7.280  1.00 20.00     0.021 C 
HETATM    3  C3  UNL     1     -34.444  15.930  -7.194  1.00 20.00     0.021 C 
HETATM    4  C4  UNL     1     -34.799  13.846  -6.099  1.00 20.00     0.126 C 
HETATM    5  C5  UNL     1     -34.341  16.171  -5.695  1.00 20.00     0.126 C 
HETATM    6  N9  UNL     1     -34.405  14.836  -5.107  1.00 20.00    -0.352 N 
HETATM    7  O10 UNL     1     -34.215  13.352  -3.346  1.00 20.00    -0.273 OA
ENDROOT
BRANCH   1   8
HETATM    8  C7  UNL     1     -33.740  15.643  -2.895  1.00 20.00     0.103 C 
BRANCH   8   9
HETATM    9  C8  UNL     1     -34.889  16.030  -1.980  1.00 20.00     0.005 C 
HETATM   10  C6  UNL     1     -34.434  16.835  -0.770  1.00 20.00     0.005 C 
ENDBRANCH   8   9
ENDBRANCH   1   8
TORSDOF 2
ENDMDL
MODEL 4
REMARK VINA RESULT:      -4.1     12.150     13.353
REMARK  2 active torsions:
REMARK  status: ('A' for Active; 'I' for Inactive)
REMARK    1  A    between atoms: C1_1  and  C7_7 
REMARK       I    between atoms: C1_1  and  N9_9 
REMARK    2  A    between atoms: C7_7  and  C8_8 
ROOT
HETATM    1  C1  UNL     1     -33.750  16.642  -4.029  1.00 20.00     0.219 C 
HETATM    2  C2  UNL     1     -34.421  15.117  -7.307  1.00 20.00     0.021 C 
HETATM    3  C3  UNL     1     -35.087  14.110  -6.376  1.00 20.00     0.021 C 
HETATM    4  C4  UNL     1     -34.308  16.358  -6.435  1.00 20.00     0.126 C 
HETATM    5  C5  UNL     1     -34.447  14.413  -5.029  1.00 20.00     0.126 C 
HETATM    6  N9  UNL     1     -34.145  15.840  -5.083  1.00 20.00    -0.352 N 
HETATM    7  O10 UNL     1     -33.504  17.846  -4.131  1.00 20.00    -0.273 OA
ENDROOT
BRANCH   1   8
HETATM    8  C7  UNL     1     -33.637  15.951  -2.693  1.00 20.00     0.103 C 
BRANCH   8   9
HETATM    9  C8  UNL     1     -34.871  16.220  -1.850  1.00 20.00     0.005 C 
HETATM   10  C6  UNL     1     -34.550  16.934  -0.544  1.00 20.00     0.005 C 
ENDBRANCH   8   9
ENDBRANCH   1   8
TORSDOF 2
ENDMDL
MODEL 5
REMARK VINA RESULT:      -4.1     10.378     10.901
REMARK  2 active torsions:
REMARK  status: ('A' for Active; 'I' for Inactive)
REMARK    1  A    between atoms: C1_1  and  C7_7 
REMARK       I    between atoms: C1_1  and  N9_9 
REMARK    2  A    between atoms: C7_7  and  C8_8 
ROOT
HETATM    1  C1  UNL     1     -42.727   6.652  -3.134  1.00 20.00     0.219 C 
HETATM    2  C2  UNL     1     -40.661   4.671  -0.826  1.00 20.00     0.021 C 
HETATM    3  C3  UNL     1     -40.690   6.015  -0.107  1.00 20.00     0.021 C 
HETATM    4  C4  UNL     1     -41.849   4.768  -1.770  1.00 20.00     0.126 C 
HETATM    5  C5  UNL     1     -41.102   6.982  -1.208  1.00 20.00     0.126 C 
HETATM    6  N9  UNL     1     -41.939   6.184  -2.099  1.00 20.00    -0.352 N 
HETATM    7  O10 UNL     1     -43.414   5.931  -3.859  1.00 20.00    -0.273 OA
ENDROOT
BRANCH   1   8
HETATM    8  C7  UNL     1     -42.713   8.147  -3.336  1.00 20.00     0.103 C 
BRANCH   8   9
HETATM    9  C8  UNL     1     -42.932   8.487  -4.799  1.00 20.00     0.005 C 
HETATM   10  C6  UNL     1     -41.723   9.156  -5.438  1.00 20.00     0.005 C 
ENDBRANCH   8   9
ENDBRANCH   1   8
TORSDOF 2
ENDMDL
MODEL 6
REMARK VINA RESULT:      -4.1     10.074     11.175
REMARK  2 active torsions:
REMARK  status: ('A' for Active; 'I' for Inactive)
REMARK    1  A    between atoms: C1_1  and  C7_7 
REMARK       I    between atoms: C1_1  and  N9_9 
REMARK    2  A    between atoms: C7_7  and  C8_8 
ROOT
HETATM    1  C1  UNL     1     -42.678   4.462  -2.815  1.00 20.00     0.219 C 
HETATM    2  C2  UNL     1     -41.432   7.282  -0.811  1.00 20.00     0.021 C 
HETATM    3  C3  UNL     1     -40.495   6.169  -0.358  1.00 20.00     0.021 C 
HETATM    4  C4  UNL     1     -41.983   6.747  -2.123  1.00 20.00     0.126 C 
HETATM    5  C5  UNL     1     -41.241   4.906  -0.767  1.00 20.00     0.126 C 
HETATM    6  N9  UNL     1     -42.003   5.301  -1.948  1.00 20.00    -0.352 N 
HETATM    7  O10 UNL     1     -43.310   4.850  -3.799  1.00 20.00    -0.273 OA
ENDROOT
BRANCH   1   8
HETATM    8  C7  UNL     1     -42.592   2.991  -2.494  1.00 20.00     0.103 C 
BRANCH   8   9
HETATM    9  C8  UNL     1     -41.536   2.320  -3.355  1.00 20.00     0.005 C 
HETATM   10  C6  UNL     1     -41.885   0.879  -3.703  1.00 20.00     0.005 C 
ENDBRANCH   8   9
ENDBRANCH   1   8
TORSDOF 2
ENDMDL
MODEL 7
REMARK VINA RESULT:      -4.1     11.649     12.175
REMARK  2 active torsions:
REMARK  status: ('A' for Active; 'I' for Inactive)
REMARK    1  A    between atoms: C1_1  and  C7_7 
REMARK       I    between atoms: C1_1  and  N9_9 
REMARK    2  A    between atoms: C7_7  and  C8_8 
ROOT
HETATM    1  C1  UNL     1     -35.729  14.255  -4.073  1.00 20.00     0.219 C 
HETATM    2  C2  UNL     1     -34.615  16.515  -1.395  1.00 20.00     0.021 C 
HETATM    3  C3  UNL     1     -33.506  16.713  -2.421  1.00 20.00     0.021 C 
HETATM    4  C4  UNL     1     -35.741  15.919  -2.225  1.00 20.00     0.126 C 
HETATM    5  C5  UNL     1     -33.641  15.485  -3.311  1.00 20.00     0.126 C 
HETATM    6  N9  UNL     1     -35.063  15.158  -3.266  1.00 20.00    -0.352 N 
HETATM    7  O10 UNL     1     -36.935  14.014  -3.990  1.00 20.00    -0.273 OA
ENDROOT
BRANCH   1   8
HETATM    8  C7  UNL     1     -34.880  13.556  -5.105  1.00 20.00     0.103 C 
BRANCH   8   9
HETATM    9  C8  UNL     1     -35.184  14.093  -6.493  1.00 20.00     0.005 C 
HETATM   10  C6  UNL     1     -34.297  15.268  -6.880  1.00 20.00     0.005 C 
ENDBRANCH   8   9
ENDBRANCH   1   8
TORSDOF 2
ENDMDL
MODEL 8
REMARK VINA RESULT:      -3.9     11.712     12.664
REMARK  2 active torsions:
REMARK  status: ('A' for Active; 'I' for Inactive)
REMARK    1  A    between atoms: C1_1  and  C7_7 
REMARK       I    between atoms: C1_1  and  N9_9 
REMARK    2  A    between atoms: C7_7  and  C8_8 
ROOT
HETATM    1  C1  UNL     1     -33.392  16.347  -3.995  1.00 20.00     0.219 C 
HETATM    2  C2  UNL     1     -35.024  18.479  -1.483  1.00 20.00     0.021 C 
HETATM    3  C3  UNL     1     -34.675  17.257  -0.642  1.00 20.00     0.021 C 
HETATM    4  C4  UNL     1     -34.103  18.337  -2.684  1.00 20.00     0.126 C 
HETATM    5  C5  UNL     1     -34.447  16.176  -1.689  1.00 20.00     0.126 C 
HETATM    6  N9  UNL     1     -33.946  16.899  -2.855  1.00 20.00    -0.352 N 
HETATM    7  O10 UNL     1     -32.986  17.006  -4.954  1.00 20.00    -0.273 OA
ENDROOT
BRANCH   1   8
HETATM    8  C7  UNL     1     -33.296  14.842  -4.007  1.00 20.00     0.103 C 
BRANCH   8   9
HETATM    9  C8  UNL     1     -34.318  14.252  -4.963  1.00 20.00     0.005 C 
HETATM   10  C6  UNL     1     -35.282  13.292  -4.279  1.00 20.00     0.005 C 
ENDBRANCH   8   9
ENDBRANCH   1   8
TORSDOF 2
ENDMDL
MODEL 9
REMARK VINA RESULT:      -3.8     12.050     13.169
REMARK  2 active torsions:
REMARK  status: ('A' for Active; 'I' for Inactive)
REMARK    1  A    between atoms: C1_1  and  C7_7 
REMARK       I    between atoms: C1_1  and  N9_9 
REMARK    2  A    between atoms: C7_7  and  C8_8 
ROOT
HETATM    1  C1  UNL     1     -33.710  16.633  -4.584  1.00 20.00     0.219 C 
HETATM    2  C2  UNL     1     -34.561  18.000  -1.278  1.00 20.00     0.021 C 
HETATM    3  C3  UNL     1     -34.637  16.503  -1.000  1.00 20.00     0.021 C 
HETATM    4  C4  UNL     1     -33.733  18.066  -2.552  1.00 20.00     0.126 C 
HETATM    5  C5  UNL     1     -34.772  15.904  -2.393  1.00 20.00     0.126 C 
HETATM    6  N9  UNL     1     -34.056  16.836  -3.261  1.00 20.00    -0.352 N 
HETATM    7  O10 UNL     1     -33.106  17.457  -5.272  1.00 20.00    -0.273 OA
ENDROOT
BRANCH   1   8
HETATM    8  C7  UNL     1     -34.114  15.301  -5.164  1.00 20.00     0.103 C 
BRANCH   8   9
HETATM    9  C8  UNL     1     -34.293  15.411  -6.669  1.00 20.00     0.005 C 
HETATM   10  C6  UNL     1     -35.320  14.428  -7.215  1.00 20.00     0.005 C 
ENDBRANCH   8   9
ENDBRANCH   1   8
TORSDOF 2
ENDMDL
