MODEL 1
REMARK VINA RESULT:      -4.8      0.000      0.000
REMARK  0 active torsions:
REMARK  status: ('A' for Active; 'I' for Inactive)
ROOT
HETATM    1  C1  UNL     1     -36.724  14.778  -3.637  1.00 20.00     0.223 A 
HETATM    2  C2  UNL     1     -34.290  13.984  -3.455  1.00 20.00     0.027 A 
HETATM    3  C3  UNL     1     -35.425  14.497  -4.289  1.00 20.00     0.089 A 
HETATM    4  C4  UNL     1     -34.412  15.474  -3.730  1.00 20.00    -0.006 A 
HETATM    5  C5  UNL     1     -35.178  16.390  -2.759  1.00 20.00     0.034 A 
HETATM    6  C6  UNL     1     -33.369  16.077  -4.626  1.00 20.00     0.018 C 
HETATM    7  C7  UNL     1     -35.276  17.839  -3.253  1.00 20.00     0.039 C 
HETATM    8  C8  UNL     1     -34.569  16.358  -1.356  1.00 20.00     0.039 C 
HETATM    9  N9  UNL     1     -36.530  15.821  -2.751  1.00 20.00    -0.351 N 
HETATM   10  O10 UNL     1     -37.745  14.154  -3.873  1.00 20.00    -0.273 OA
HETATM   11  H23 UNL     1     -37.277  16.194  -2.174  1.00 20.00     0.163 HD
ENDROOT
TORSDOF 0
ENDMDL
MODEL 2
REMARK VINA RESULT:      -4.6      1.435      1.614
REMARK  0 active torsions:
REMARK  status: ('A' for Active; 'I' for Inactive)
ROOT
HETATM    1  C1  UNL     1     -34.930  13.819  -4.059  1.00 20.00     0.223 A 
HETATM    2  C2  UNL     1     -32.679  14.983  -3.649  1.00 20.00     0.027 A 
HETATM    3  C3  UNL     1     -33.774  14.578  -4.588  1.00 20.00     0.089 A 
HETATM    4  C4  UNL     1     -33.805  15.956  -3.961  1.00 20.00    -0.006 A 
HETATM    5  C5  UNL     1     -35.064  16.006  -3.078  1.00 20.00     0.034 A 
HETATM    6  C6  UNL     1     -33.439  17.164  -4.774  1.00 20.00     0.018 C 
HETATM    7  C7  UNL     1     -36.128  16.978  -3.606  1.00 20.00     0.039 C 
HETATM    8  C8  UNL     1     -34.721  16.347  -1.627  1.00 20.00     0.039 C 
HETATM    9  N9  UNL     1     -35.603  14.646  -3.178  1.00 20.00    -0.351 N 
HETATM   10  O10 UNL     1     -35.180  12.667  -4.371  1.00 20.00    -0.273 OA
HETATM   11  H23 UNL     1     -36.434  14.348  -2.676  1.00 20.00     0.163 HD
ENDROOT
TORSDOF 0
ENDMDL
MODEL 3
REMARK VINA RESULT:      -4.5      2.377      3.122
REMARK  0 active torsions:
REMARK  status: ('A' for Active; 'I' for Inactive)
ROOT
HETATM    1  C1  UNL     1     -33.257  13.856  -3.764  1.00 20.00     0.223 A 
HETATM    2  C2  UNL     1     -35.314  14.243  -5.250  1.00 20.00     0.027 A 
HETATM    3  C3  UNL     1     -34.730  13.885  -3.917  1.00 20.00     0.089 A 
HETATM    4  C4  UNL     1     -35.133  15.319  -4.190  1.00 20.00    -0.006 A 
HETATM    5  C5  UNL     1     -33.842  16.155  -4.134  1.00 20.00     0.034 A 
HETATM    6  C6  UNL     1     -36.388  15.879  -3.584  1.00 20.00     0.018 C 
HETATM    7  C7  UNL     1     -33.804  17.119  -2.942  1.00 20.00     0.039 C 
HETATM    8  C8  UNL     1     -33.614  16.926  -5.435  1.00 20.00     0.039 C 
HETATM    9  N9  UNL     1     -32.795  15.147  -3.938  1.00 20.00    -0.351 N 
HETATM   10  O10 UNL     1     -32.623  12.839  -3.539  1.00 20.00    -0.273 OA
HETATM   11  H23 UNL     1     -31.809  15.386  -3.886  1.00 20.00     0.163 HD
ENDROOT
TORSDOF 0
ENDMDL
MODEL 4
REMARK VINA RESULT:      -4.4      2.284      3.282
REMARK  0 active torsions:
REMARK  status: ('A' for Active; 'I' for Inactive)
ROOT
HETATM    1  C1  UNL     1     -33.423  13.623  -3.788  1.00 20.00     0.223 A 
HETATM    2  C2  UNL     1     -34.253  15.788  -2.685  1.00 20.00     0.027 A 
HETATM    3  C3  UNL     1     -33.322  15.092  -3.632  1.00 20.00     0.089 A 
HETATM    4  C4  UNL     1     -34.606  15.698  -4.161  1.00 20.00    -0.006 A 
HETATM    5  C5  UNL     1     -35.453  14.529  -4.694  1.00 20.00     0.034 A 
HETATM    6  C6  UNL     1     -34.572  16.983  -4.937  1.00 20.00     0.018 C 
HETATM    7  C7  UNL     1     -35.622  14.558  -6.219  1.00 20.00     0.039 C 
HETATM    8  C8  UNL     1     -36.824  14.474  -4.019  1.00 20.00     0.039 C 
HETATM    9  N9  UNL     1     -34.657  13.347  -4.348  1.00 20.00    -0.351 N 
HETATM   10  O10 UNL     1     -32.545  12.848  -3.449  1.00 20.00    -0.273 OA
HETATM   11  H23 UNL     1     -34.966  12.401  -4.548  1.00 20.00     0.163 HD
ENDROOT
TORSDOF 0
ENDMDL
MODEL 5
REMARK VINA RESULT:      -4.4      1.397      2.020
REMARK  0 active torsions:
REMARK  status: ('A' for Active; 'I' for Inactive)
ROOT
HETATM    1  C1  UNL     1     -36.491  14.533  -4.086  1.00 20.00     0.223 A 
HETATM    2  C2  UNL     1     -35.052  14.044  -6.155  1.00 20.00     0.027 A 
HETATM    3  C3  UNL     1     -36.012  14.937  -5.427  1.00 20.00     0.089 A 
HETATM    4  C4  UNL     1     -34.525  15.202  -5.322  1.00 20.00    -0.006 A 
HETATM    5  C5  UNL     1     -34.148  14.996  -3.844  1.00 20.00     0.034 A 
HETATM    6  C6  UNL     1     -33.905  16.342  -6.077  1.00 20.00     0.018 C 
HETATM    7  C7  UNL     1     -33.729  16.296  -3.146  1.00 20.00     0.039 C 
HETATM    8  C8  UNL     1     -33.051  13.943  -3.685  1.00 20.00     0.039 C 
HETATM    9  N9  UNL     1     -35.400  14.536  -3.236  1.00 20.00    -0.351 N 
HETATM   10  O10 UNL     1     -37.651  14.247  -3.842  1.00 20.00    -0.273 OA
HETATM   11  H23 UNL     1     -35.472  14.286  -2.254  1.00 20.00     0.163 HD
ENDROOT
TORSDOF 0
ENDMDL
MODEL 6
REMARK VINA RESULT:      -4.4      2.266      3.318
REMARK  0 active torsions:
REMARK  status: ('A' for Active; 'I' for Inactive)
ROOT
HETATM    1  C1  UNL     1     -35.038  13.725  -4.750  1.00 20.00     0.223 A 
HETATM    2  C2  UNL     1     -36.988  15.229  -5.474  1.00 20.00     0.027 A 
HETATM    3  C3  UNL     1     -36.106  14.685  -4.391  1.00 20.00     0.089 A 
HETATM    4  C4  UNL     1     -35.762  16.013  -5.031  1.00 20.00    -0.006 A 
HETATM    5  C5  UNL     1     -34.410  15.819  -5.740  1.00 20.00     0.034 A 
HETATM    6  C6  UNL     1     -36.019  17.296  -4.295  1.00 20.00     0.018 C 
HETATM    7  C7  UNL     1     -33.274  16.621  -5.093  1.00 20.00     0.039 C 
HETATM    8  C8  UNL     1     -34.502  16.155  -7.229  1.00 20.00     0.039 C 
HETATM    9  N9  UNL     1     -34.127  14.393  -5.547  1.00 20.00    -0.351 N 
HETATM   10  O10 UNL     1     -35.028  12.561  -4.387  1.00 20.00    -0.273 OA
HETATM   11  H23 UNL     1     -33.302  13.942  -5.929  1.00 20.00     0.163 HD
ENDROOT
TORSDOF 0
ENDMDL
MODEL 7
REMARK VINA RESULT:      -4.4      1.255      2.734
REMARK  0 active torsions:
REMARK  status: ('A' for Active; 'I' for Inactive)
ROOT
HETATM    1  C1  UNL     1     -36.884  14.603  -3.840  1.00 20.00     0.223 A 
HETATM    2  C2  UNL     1     -35.935  16.988  -3.773  1.00 20.00     0.027 A 
HETATM    3  C3  UNL     1     -36.357  15.742  -3.054  1.00 20.00     0.089 A 
HETATM    4  C4  UNL     1     -34.902  15.925  -3.433  1.00 20.00    -0.006 A 
HETATM    5  C5  UNL     1     -34.568  14.807  -4.438  1.00 20.00     0.034 A 
HETATM    6  C6  UNL     1     -33.888  16.287  -2.387  1.00 20.00     0.018 C 
HETATM    7  C7  UNL     1     -33.578  13.777  -3.881  1.00 20.00     0.039 C 
HETATM    8  C8  UNL     1     -34.043  15.375  -5.757  1.00 20.00     0.039 C 
HETATM    9  N9  UNL     1     -35.857  14.136  -4.639  1.00 20.00    -0.351 N 
HETATM   10  O10 UNL     1     -38.035  14.207  -3.763  1.00 20.00    -0.273 OA
HETATM   11  H23 UNL     1     -35.975  13.357  -5.279  1.00 20.00     0.163 HD
ENDROOT
TORSDOF 0
ENDMDL
MODEL 8
REMARK VINA RESULT:      -4.4      2.723      3.657
REMARK  0 active torsions:
REMARK  status: ('A' for Active; 'I' for Inactive)
ROOT
HETATM    1  C1  UNL     1     -33.184  14.883  -4.048  1.00 20.00     0.223 A 
HETATM    2  C2  UNL     1     -35.040  13.136  -4.351  1.00 20.00     0.027 A 
HETATM    3  C3  UNL     1     -34.446  14.272  -3.574  1.00 20.00     0.089 A 
HETATM    4  C4  UNL     1     -35.512  14.558  -4.611  1.00 20.00    -0.006 A 
HETATM    5  C5  UNL     1     -34.843  15.419  -5.698  1.00 20.00     0.034 A 
HETATM    6  C6  UNL     1     -36.913  14.888  -4.184  1.00 20.00     0.018 C 
HETATM    7  C7  UNL     1     -35.388  16.852  -5.747  1.00 20.00     0.039 C 
HETATM    8  C8  UNL     1     -34.958  14.771  -7.078  1.00 20.00     0.039 C 
HETATM    9  N9  UNL     1     -33.442  15.479  -5.268  1.00 20.00    -0.351 N 
HETATM   10  O10 UNL     1     -32.133  14.824  -3.432  1.00 20.00    -0.273 OA
HETATM   11  H23 UNL     1     -32.727  15.963  -5.802  1.00 20.00     0.163 HD
ENDROOT
TORSDOF 0
ENDMDL
MODEL 9
REMARK VINA RESULT:      -4.3      2.460      3.683
REMARK  0 active torsions:
REMARK  status: ('A' for Active; 'I' for Inactive)
ROOT
HETATM    1  C1  UNL     1     -33.723  17.020  -4.548  1.00 20.00     0.223 A 
HETATM    2  C2  UNL     1     -34.700  16.105  -2.357  1.00 20.00     0.027 A 
HETATM    3  C3  UNL     1     -34.889  16.830  -3.655  1.00 20.00     0.089 A 
HETATM    4  C4  UNL     1     -35.176  15.345  -3.586  1.00 20.00    -0.006 A 
HETATM    5  C5  UNL     1     -34.165  14.660  -4.523  1.00 20.00     0.034 A 
HETATM    6  C6  UNL     1     -36.593  14.848  -3.559  1.00 20.00     0.018 C 
HETATM    7  C7  UNL     1     -34.824  14.028  -5.756  1.00 20.00     0.039 C 
HETATM    8  C8  UNL     1     -33.331  13.613  -3.783  1.00 20.00     0.039 C 
HETATM    9  N9  UNL     1     -33.320  15.769  -4.978  1.00 20.00    -0.351 N 
HETATM   10  O10 UNL     1     -33.242  18.110  -4.806  1.00 20.00    -0.273 OA
HETATM   11  H23 UNL     1     -32.528  15.635  -5.599  1.00 20.00     0.163 HD
ENDROOT
TORSDOF 0
ENDMDL
