MODEL 1
REMARK VINA RESULT:      -4.3      0.000      0.000
REMARK  1 active torsions:
REMARK  status: ('A' for Active; 'I' for Inactive)
REMARK    1  A    between atoms: C1_1  and  C3_3 
ROOT
HETATM    1  C2  UNL     1     -34.073   4.076   5.657  1.00 20.00     0.018 A 
HETATM    2  C3  UNL     1     -35.308   4.686   5.044  1.00 20.00     0.076 A 
HETATM    3  C4  UNL     1     -34.750   5.232   6.337  1.00 20.00    -0.005 A 
HETATM    4  C5  UNL     1     -34.071   6.556   6.411  1.00 20.00     0.011 C 
ENDROOT
BRANCH   2   5
HETATM    5  C1  UNL     1     -35.191   5.444   3.792  1.00 20.00     0.223 C 
HETATM    6  O6  UNL     1     -36.167   5.967   3.262  1.00 20.00    -0.279 OA
HETATM    7 CL7  UNL     1     -33.556   5.489   3.205  1.00 20.00    -0.043 Cl
ENDBRANCH   2   5
TORSDOF 1
ENDMDL
MODEL 2
REMARK VINA RESULT:      -4.2      2.251      2.856
REMARK  1 active torsions:
REMARK  status: ('A' for Active; 'I' for Inactive)
REMARK    1  A    between atoms: C1_1  and  C3_3 
ROOT
HETATM    1  C2  UNL     1     -34.717   5.116   3.188  1.00 20.00     0.018 A 
HETATM    2  C3  UNL     1     -34.710   6.235   4.199  1.00 20.00     0.076 A 
HETATM    3  C4  UNL     1     -35.354   4.911   4.533  1.00 20.00    -0.005 A 
HETATM    4  C5  UNL     1     -34.749   3.959   5.507  1.00 20.00     0.011 C 
ENDROOT
BRANCH   2   5
HETATM    5  C1  UNL     1     -33.443   6.637   4.821  1.00 20.00     0.223 C 
HETATM    6  O6  UNL     1     -32.402   6.708   4.175  1.00 20.00    -0.279 OA
HETATM    7 CL7  UNL     1     -33.626   6.980   6.514  1.00 20.00    -0.043 Cl
ENDBRANCH   2   5
TORSDOF 1
ENDMDL
MODEL 3
REMARK VINA RESULT:      -4.1      2.322      3.064
REMARK  1 active torsions:
REMARK  status: ('A' for Active; 'I' for Inactive)
REMARK    1  A    between atoms: C1_1  and  C3_3 
ROOT
HETATM    1  C2  UNL     1     -35.574   6.036   3.784  1.00 20.00     0.018 A 
HETATM    2  C3  UNL     1     -35.086   4.734   4.366  1.00 20.00     0.076 A 
HETATM    3  C4  UNL     1     -34.372   5.357   3.191  1.00 20.00    -0.005 A 
HETATM    4  C5  UNL     1     -33.024   5.979   3.322  1.00 20.00     0.011 C 
ENDROOT
BRANCH   2   5
HETATM    5  C1  UNL     1     -34.478   4.725   5.702  1.00 20.00     0.223 C 
HETATM    6  O6  UNL     1     -34.084   3.686   6.224  1.00 20.00    -0.279 OA
HETATM    7 CL7  UNL     1     -34.400   6.316   6.396  1.00 20.00    -0.043 Cl
ENDBRANCH   2   5
TORSDOF 1
ENDMDL
MODEL 4
REMARK VINA RESULT:      -3.9     12.743     13.007
REMARK  1 active torsions:
REMARK  status: ('A' for Active; 'I' for Inactive)
REMARK    1  A    between atoms: C1_1  and  C3_3 
ROOT
HETATM    1  C2  UNL     1     -33.163  15.749  -4.011  1.00 20.00     0.018 A 
HETATM    2  C3  UNL     1     -33.517  14.295  -3.826  1.00 20.00     0.076 A 
HETATM    3  C4  UNL     1     -34.047  15.336  -2.869  1.00 20.00    -0.005 A 
HETATM    4  C5  UNL     1     -35.481  15.739  -2.852  1.00 20.00     0.011 C 
ENDROOT
BRANCH   2   5
HETATM    5  C1  UNL     1     -34.403  13.639  -4.795  1.00 20.00     0.223 C 
HETATM    6  O6  UNL     1     -34.989  12.594  -4.528  1.00 20.00    -0.279 OA
HETATM    7 CL7  UNL     1     -34.495  14.515  -6.293  1.00 20.00    -0.043 Cl
ENDBRANCH   2   5
TORSDOF 1
ENDMDL
MODEL 5
REMARK VINA RESULT:      -3.8      2.158      2.766
REMARK  1 active torsions:
REMARK  status: ('A' for Active; 'I' for Inactive)
REMARK    1  A    between atoms: C1_1  and  C3_3 
ROOT
HETATM    1  C2  UNL     1     -35.179   4.662   6.005  1.00 20.00     0.018 A 
HETATM    2  C3  UNL     1     -33.914   4.955   5.237  1.00 20.00     0.076 A 
HETATM    3  C4  UNL     1     -35.186   4.599   4.504  1.00 20.00    -0.005 A 
HETATM    4  C5  UNL     1     -35.955   5.605   3.719  1.00 20.00     0.011 C 
ENDROOT
BRANCH   2   5
HETATM    5  C1  UNL     1     -33.386   6.324   5.213  1.00 20.00     0.223 C 
HETATM    6  O6  UNL     1     -32.767   6.759   4.247  1.00 20.00    -0.279 OA
HETATM    7 CL7  UNL     1     -33.749   7.190   6.675  1.00 20.00    -0.043 Cl
ENDBRANCH   2   5
TORSDOF 1
ENDMDL
MODEL 6
REMARK VINA RESULT:      -3.8      1.333      2.054
REMARK  1 active torsions:
REMARK  status: ('A' for Active; 'I' for Inactive)
REMARK    1  A    between atoms: C1_1  and  C3_3 
ROOT
HETATM    1  C2  UNL     1     -34.513   6.135   6.473  1.00 20.00     0.018 A 
HETATM    2  C3  UNL     1     -33.405   5.893   5.480  1.00 20.00     0.076 A 
HETATM    3  C4  UNL     1     -34.204   4.735   6.027  1.00 20.00    -0.005 A 
HETATM    4  C5  UNL     1     -35.185   3.984   5.192  1.00 20.00     0.011 C 
ENDROOT
BRANCH   2   5
HETATM    5  C1  UNL     1     -33.571   6.337   4.091  1.00 20.00     0.223 C 
HETATM    6  O6  UNL     1     -34.592   6.905   3.714  1.00 20.00    -0.279 OA
HETATM    7 CL7  UNL     1     -32.185   5.960   3.114  1.00 20.00    -0.043 Cl
ENDBRANCH   2   5
TORSDOF 1
ENDMDL
MODEL 7
REMARK VINA RESULT:      -3.7      2.316      2.492
REMARK  1 active torsions:
REMARK  status: ('A' for Active; 'I' for Inactive)
REMARK    1  A    between atoms: C1_1  and  C3_3 
ROOT
HETATM    1  C2  UNL     1     -34.564   4.940   4.439  1.00 20.00     0.018 A 
HETATM    2  C3  UNL     1     -34.166   6.169   3.661  1.00 20.00     0.076 A 
HETATM    3  C4  UNL     1     -34.590   6.286   5.106  1.00 20.00    -0.005 A 
HETATM    4  C5  UNL     1     -33.619   6.599   6.193  1.00 20.00     0.011 C 
ENDROOT
BRANCH   2   5
HETATM    5  C1  UNL     1     -32.764   6.351   3.268  1.00 20.00     0.223 C 
HETATM    6  O6  UNL     1     -31.947   5.439   3.354  1.00 20.00    -0.279 OA
HETATM    7 CL7  UNL     1     -32.450   7.961   2.693  1.00 20.00    -0.043 Cl
ENDBRANCH   2   5
TORSDOF 1
ENDMDL
MODEL 8
REMARK VINA RESULT:      -3.6     12.565     13.086
REMARK  1 active torsions:
REMARK  status: ('A' for Active; 'I' for Inactive)
REMARK    1  A    between atoms: C1_1  and  C3_3 
ROOT
HETATM    1  C2  UNL     1     -33.586  16.673  -3.995  1.00 20.00     0.018 A 
HETATM    2  C3  UNL     1     -33.223  15.259  -3.619  1.00 20.00     0.076 A 
HETATM    3  C4  UNL     1     -33.558  16.269  -2.548  1.00 20.00    -0.005 A 
HETATM    4  C5  UNL     1     -34.825  16.206  -1.767  1.00 20.00     0.011 C 
ENDROOT
BRANCH   2   5
HETATM    5  C1  UNL     1     -34.149  14.167  -3.943  1.00 20.00     0.223 C 
HETATM    6  O6  UNL     1     -34.050  13.061  -3.419  1.00 20.00    -0.279 OA
HETATM    7 CL7  UNL     1     -35.341  14.646  -5.113  1.00 20.00    -0.043 Cl
ENDBRANCH   2   5
TORSDOF 1
ENDMDL
MODEL 9
REMARK VINA RESULT:      -3.6     12.185     13.209
REMARK  1 active torsions:
REMARK  status: ('A' for Active; 'I' for Inactive)
REMARK    1  A    between atoms: C1_1  and  C3_3 
ROOT
HETATM    1  C2  UNL     1     -36.251  14.493  -4.710  1.00 20.00     0.018 A 
HETATM    2  C3  UNL     1     -35.160  13.479  -4.477  1.00 20.00     0.076 A 
HETATM    3  C4  UNL     1     -35.351  14.092  -5.843  1.00 20.00    -0.005 A 
HETATM    4  C5  UNL     1     -34.386  15.075  -6.413  1.00 20.00     0.011 C 
ENDROOT
BRANCH   2   5
HETATM    5  C1  UNL     1     -34.008  13.839  -3.642  1.00 20.00     0.223 C 
HETATM    6  O6  UNL     1     -32.987  13.157  -3.622  1.00 20.00    -0.279 OA
HETATM    7 CL7  UNL     1     -34.287  15.295  -2.735  1.00 20.00    -0.043 Cl
ENDBRANCH   2   5
TORSDOF 1
ENDMDL
