MODEL 1
REMARK VINA RESULT:      -4.8      0.000      0.000
REMARK  1 active torsions:
REMARK  status: ('A' for Active; 'I' for Inactive)
REMARK    1  A    between atoms: C2_2  and  C3_3 
ROOT
HETATM    1  C3  UNL     1     -34.902   5.167   3.818  1.00 20.00     0.423 C 
HETATM    2  F4  UNL     1     -34.452   4.850   2.576  1.00 20.00    -0.166 F 
HETATM    3  F5  UNL     1     -36.114   5.760   3.645  1.00 20.00    -0.166 F 
HETATM    4  F6  UNL     1     -35.138   3.995   4.462  1.00 20.00    -0.166 F 
ENDROOT
BRANCH   1   5
HETATM    5  C2  UNL     1     -33.935   6.027   4.560  1.00 20.00     0.085 C 
HETATM    6  C1  UNL     1     -34.044   6.318   5.863  1.00 20.00     0.036 C 
HETATM    7 BR7  UNL     1     -32.518   6.688   3.531  1.00 20.00    -0.047 Br
ENDBRANCH   1   5
TORSDOF 1
ENDMDL
MODEL 2
REMARK VINA RESULT:      -4.7      1.327      2.182
REMARK  1 active torsions:
REMARK  status: ('A' for Active; 'I' for Inactive)
REMARK    1  A    between atoms: C2_2  and  C3_3 
ROOT
HETATM    1  C3  UNL     1     -35.014   4.844   5.383  1.00 20.00     0.423 C 
HETATM    2  F4  UNL     1     -35.689   4.775   6.561  1.00 20.00    -0.166 F 
HETATM    3  F5  UNL     1     -34.413   3.636   5.216  1.00 20.00    -0.166 F 
HETATM    4  F6  UNL     1     -35.946   4.948   4.401  1.00 20.00    -0.166 F 
ENDROOT
BRANCH   1   5
HETATM    5  C2  UNL     1     -34.048   5.982   5.359  1.00 20.00     0.085 C 
HETATM    6  C1  UNL     1     -33.775   6.750   6.423  1.00 20.00     0.036 C 
HETATM    7 BR7  UNL     1     -33.218   6.275   3.708  1.00 20.00    -0.047 Br
ENDBRANCH   1   5
TORSDOF 1
ENDMDL
MODEL 3
REMARK VINA RESULT:      -4.7      1.759      2.332
REMARK  1 active torsions:
REMARK  status: ('A' for Active; 'I' for Inactive)
REMARK    1  A    between atoms: C2_2  and  C3_3 
ROOT
HETATM    1  C3  UNL     1     -34.824   5.700   3.806  1.00 20.00     0.423 C 
HETATM    2  F4  UNL     1     -36.133   5.732   3.444  1.00 20.00    -0.166 F 
HETATM    3  F5  UNL     1     -34.191   4.925   2.884  1.00 20.00    -0.166 F 
HETATM    4  F6  UNL     1     -34.340   6.959   3.645  1.00 20.00    -0.166 F 
ENDROOT
BRANCH   1   5
HETATM    5  C2  UNL     1     -34.642   5.207   5.202  1.00 20.00     0.085 C 
HETATM    6  C1  UNL     1     -34.936   3.960   5.596  1.00 20.00     0.036 C 
HETATM    7 BR7  UNL     1     -33.959   6.471   6.401  1.00 20.00    -0.047 Br
ENDBRANCH   1   5
TORSDOF 1
ENDMDL
MODEL 4
REMARK VINA RESULT:      -4.7      1.336      1.522
REMARK  1 active torsions:
REMARK  status: ('A' for Active; 'I' for Inactive)
REMARK    1  A    between atoms: C2_2  and  C3_3 
ROOT
HETATM    1  C3  UNL     1     -34.822   5.235   3.656  1.00 20.00     0.423 C 
HETATM    2  F4  UNL     1     -34.426   4.938   2.391  1.00 20.00    -0.166 F 
HETATM    3  F5  UNL     1     -36.032   5.845   3.543  1.00 20.00    -0.166 F 
HETATM    4  F6  UNL     1     -35.046   4.054   4.287  1.00 20.00    -0.166 F 
ENDROOT
BRANCH   1   5
HETATM    5  C2  UNL     1     -33.815   6.070   4.374  1.00 20.00     0.085 C 
HETATM    6  C1  UNL     1     -32.766   6.650   3.777  1.00 20.00     0.036 C 
HETATM    7 BR7  UNL     1     -34.120   6.265   6.210  1.00 20.00    -0.047 Br
ENDBRANCH   1   5
TORSDOF 1
ENDMDL
MODEL 5
REMARK VINA RESULT:      -4.7      1.336      2.089
REMARK  1 active torsions:
REMARK  status: ('A' for Active; 'I' for Inactive)
REMARK    1  A    between atoms: C2_2  and  C3_3 
ROOT
HETATM    1  C3  UNL     1     -34.813   5.235   3.664  1.00 20.00     0.423 C 
HETATM    2  F4  UNL     1     -36.012   5.862   3.546  1.00 20.00    -0.166 F 
HETATM    3  F5  UNL     1     -35.060   4.056   4.295  1.00 20.00    -0.166 F 
HETATM    4  F6  UNL     1     -34.408   4.920   2.407  1.00 20.00    -0.166 F 
ENDROOT
BRANCH   1   5
HETATM    5  C2  UNL     1     -33.810   6.078   4.380  1.00 20.00     0.085 C 
HETATM    6  C1  UNL     1     -32.765   6.663   3.779  1.00 20.00     0.036 C 
HETATM    7 BR7  UNL     1     -34.113   6.272   6.216  1.00 20.00    -0.047 Br
ENDBRANCH   1   5
TORSDOF 1
ENDMDL
MODEL 6
REMARK VINA RESULT:      -4.6      1.759      2.018
REMARK  1 active torsions:
REMARK  status: ('A' for Active; 'I' for Inactive)
REMARK    1  A    between atoms: C2_2  and  C3_3 
ROOT
HETATM    1  C3  UNL     1     -34.825   5.701   3.806  1.00 20.00     0.423 C 
HETATM    2  F4  UNL     1     -34.187   4.915   2.900  1.00 20.00    -0.166 F 
HETATM    3  F5  UNL     1     -34.345   6.960   3.625  1.00 20.00    -0.166 F 
HETATM    4  F6  UNL     1     -36.134   5.735   3.445  1.00 20.00    -0.166 F 
ENDROOT
BRANCH   1   5
HETATM    5  C2  UNL     1     -34.644   5.205   5.202  1.00 20.00     0.085 C 
HETATM    6  C1  UNL     1     -34.938   3.958   5.593  1.00 20.00     0.036 C 
HETATM    7 BR7  UNL     1     -33.958   6.466   6.403  1.00 20.00    -0.047 Br
ENDBRANCH   1   5
TORSDOF 1
ENDMDL
MODEL 7
REMARK VINA RESULT:      -4.6      2.119      2.583
REMARK  1 active torsions:
REMARK  status: ('A' for Active; 'I' for Inactive)
REMARK    1  A    between atoms: C2_2  and  C3_3 
ROOT
HETATM    1  C3  UNL     1     -33.823   6.032   3.955  1.00 20.00     0.423 C 
HETATM    2  F4  UNL     1     -34.495   5.194   3.122  1.00 20.00    -0.166 F 
HETATM    3  F5  UNL     1     -32.502   5.862   3.683  1.00 20.00    -0.166 F 
HETATM    4  F6  UNL     1     -34.133   7.298   3.574  1.00 20.00    -0.166 F 
ENDROOT
BRANCH   1   5
HETATM    5  C2  UNL     1     -34.158   5.782   5.387  1.00 20.00     0.085 C 
HETATM    6  C1  UNL     1     -33.910   6.654   6.374  1.00 20.00     0.036 C 
HETATM    7 BR7  UNL     1     -34.971   4.131   5.729  1.00 20.00    -0.047 Br
ENDBRANCH   1   5
TORSDOF 1
ENDMDL
MODEL 8
REMARK VINA RESULT:      -4.6      2.124      2.454
REMARK  1 active torsions:
REMARK  status: ('A' for Active; 'I' for Inactive)
REMARK    1  A    between atoms: C2_2  and  C3_3 
ROOT
HETATM    1  C3  UNL     1     -33.802   6.039   3.950  1.00 20.00     0.423 C 
HETATM    2  F4  UNL     1     -34.132   7.297   3.555  1.00 20.00    -0.166 F 
HETATM    3  F5  UNL     1     -34.439   5.192   3.099  1.00 20.00    -0.166 F 
HETATM    4  F6  UNL     1     -32.472   5.890   3.715  1.00 20.00    -0.166 F 
ENDROOT
BRANCH   1   5
HETATM    5  C2  UNL     1     -34.147   5.795   5.381  1.00 20.00     0.085 C 
HETATM    6  C1  UNL     1     -33.893   6.665   6.368  1.00 20.00     0.036 C 
HETATM    7 BR7  UNL     1     -34.981   4.155   5.721  1.00 20.00    -0.047 Br
ENDBRANCH   1   5
TORSDOF 1
ENDMDL
MODEL 9
REMARK VINA RESULT:      -4.5      2.099      2.632
REMARK  1 active torsions:
REMARK  status: ('A' for Active; 'I' for Inactive)
REMARK    1  A    between atoms: C2_2  and  C3_3 
ROOT
HETATM    1  C3  UNL     1     -34.423   5.307   5.972  1.00 20.00     0.423 C 
HETATM    2  F4  UNL     1     -33.717   4.171   6.215  1.00 20.00    -0.166 F 
HETATM    3  F5  UNL     1     -35.648   5.122   6.533  1.00 20.00    -0.166 F 
HETATM    4  F6  UNL     1     -33.824   6.301   6.678  1.00 20.00    -0.166 F 
ENDROOT
BRANCH   1   5
HETATM    5  C2  UNL     1     -34.493   5.620   4.515  1.00 20.00     0.085 C 
HETATM    6  C1  UNL     1     -35.576   5.401   3.757  1.00 20.00     0.036 C 
HETATM    7 BR7  UNL     1     -32.933   6.360   3.793  1.00 20.00    -0.047 Br
ENDBRANCH   1   5
TORSDOF 1
ENDMDL
