MODEL 1
REMARK VINA RESULT:      -4.5      0.000      0.000
REMARK  3 active torsions:
REMARK  status: ('A' for Active; 'I' for Inactive)
REMARK    1  A    between atoms: C1_1  and  C3_3 
REMARK    2  A    between atoms: C1_1  and  C4_4 
REMARK    3  A    between atoms: C4_4  and  C5_5 
ROOT
HETATM    1  C1  UNL     1     -34.945   4.690   5.045  1.00 20.00     0.127 C 
HETATM    2  O6  UNL     1     -35.117   3.481   4.891  1.00 20.00    -0.298 OA
ENDROOT
BRANCH   1   3
HETATM    3  C3  UNL     1     -34.740   5.309   6.418  1.00 20.00     0.074 C 
HETATM    4  C2  UNL     1     -33.948   6.604   6.364  1.00 20.00     0.013 C 
ENDBRANCH   1   3
BRANCH   1   5
HETATM    5  C4  UNL     1     -34.957   5.670   3.880  1.00 20.00     0.093 C 
BRANCH   5   6
HETATM    6  C5  UNL     1     -33.887   5.396   2.832  1.00 20.00     0.122 C 
HETATM    7 CL7  UNL     1     -32.481   6.467   3.048  1.00 20.00    -0.130 Cl
ENDBRANCH   5   6
ENDBRANCH   1   5
TORSDOF 3
ENDMDL
MODEL 2
REMARK VINA RESULT:      -4.2      1.987      2.430
REMARK  3 active torsions:
REMARK  status: ('A' for Active; 'I' for Inactive)
REMARK    1  A    between atoms: C1_1  and  C3_3 
REMARK    2  A    between atoms: C1_1  and  C4_4 
REMARK    3  A    between atoms: C4_4  and  C5_5 
ROOT
HETATM    1  C1  UNL     1     -33.938   5.976   4.555  1.00 20.00     0.127 C 
HETATM    2  O6  UNL     1     -33.634   6.640   5.545  1.00 20.00    -0.298 OA
ENDROOT
BRANCH   1   3
HETATM    3  C3  UNL     1     -35.047   4.938   4.587  1.00 20.00     0.074 C 
HETATM    4  C2  UNL     1     -35.067   4.141   5.880  1.00 20.00     0.013 C 
ENDBRANCH   1   3
BRANCH   1   5
HETATM    5  C4  UNL     1     -33.209   6.115   3.225  1.00 20.00     0.093 C 
BRANCH   5   6
HETATM    6  C5  UNL     1     -32.014   7.058   3.272  1.00 20.00     0.122 C 
HETATM    7 CL7  UNL     1     -32.073   8.242   1.943  1.00 20.00    -0.130 Cl
ENDBRANCH   5   6
ENDBRANCH   1   5
TORSDOF 3
ENDMDL
MODEL 3
REMARK VINA RESULT:      -4.2      1.896      2.309
REMARK  3 active torsions:
REMARK  status: ('A' for Active; 'I' for Inactive)
REMARK    1  A    between atoms: C1_1  and  C3_3 
REMARK    2  A    between atoms: C1_1  and  C4_4 
REMARK    3  A    between atoms: C4_4  and  C5_5 
ROOT
HETATM    1  C1  UNL     1     -34.004   6.225   5.674  1.00 20.00     0.127 C 
HETATM    2  O6  UNL     1     -33.411   6.997   6.427  1.00 20.00    -0.298 OA
ENDROOT
BRANCH   1   3
HETATM    3  C3  UNL     1     -34.782   5.027   6.191  1.00 20.00     0.074 C 
HETATM    4  C2  UNL     1     -35.101   4.019   5.100  1.00 20.00     0.013 C 
ENDBRANCH   1   3
BRANCH   1   5
HETATM    5  C4  UNL     1     -33.981   6.387   4.160  1.00 20.00     0.093 C 
BRANCH   5   6
HETATM    6  C5  UNL     1     -32.594   6.263   3.546  1.00 20.00     0.122 C 
HETATM    7 CL7  UNL     1     -32.185   7.698   2.575  1.00 20.00    -0.130 Cl
ENDBRANCH   5   6
ENDBRANCH   1   5
TORSDOF 3
ENDMDL
MODEL 4
REMARK VINA RESULT:      -4.1      1.584      1.953
REMARK  3 active torsions:
REMARK  status: ('A' for Active; 'I' for Inactive)
REMARK    1  A    between atoms: C1_1  and  C3_3 
REMARK    2  A    between atoms: C1_1  and  C4_4 
REMARK    3  A    between atoms: C4_4  and  C5_5 
ROOT
HETATM    1  C1  UNL     1     -34.391   5.802   3.941  1.00 20.00     0.127 C 
HETATM    2  O6  UNL     1     -35.529   5.468   3.612  1.00 20.00    -0.298 OA
ENDROOT
BRANCH   1   3
HETATM    3  C3  UNL     1     -34.039   6.173   5.373  1.00 20.00     0.074 C 
HETATM    4  C2  UNL     1     -34.670   5.240   6.392  1.00 20.00     0.013 C 
ENDBRANCH   1   3
BRANCH   1   5
HETATM    5  C4  UNL     1     -33.249   5.902   2.939  1.00 20.00     0.093 C 
BRANCH   5   6
HETATM    6  C5  UNL     1     -32.185   6.924   3.316  1.00 20.00     0.122 C 
HETATM    7 CL7  UNL     1     -32.069   8.216   2.095  1.00 20.00    -0.130 Cl
ENDBRANCH   5   6
ENDBRANCH   1   5
TORSDOF 3
ENDMDL
MODEL 5
REMARK VINA RESULT:      -4.1      1.737      2.046
REMARK  3 active torsions:
REMARK  status: ('A' for Active; 'I' for Inactive)
REMARK    1  A    between atoms: C1_1  and  C3_3 
REMARK    2  A    between atoms: C1_1  and  C4_4 
REMARK    3  A    between atoms: C4_4  and  C5_5 
ROOT
HETATM    1  C1  UNL     1     -34.377   5.474   3.669  1.00 20.00     0.127 C 
HETATM    2  O6  UNL     1     -34.487   5.172   2.481  1.00 20.00    -0.298 OA
ENDROOT
BRANCH   1   3
HETATM    3  C3  UNL     1     -35.227   4.828   4.750  1.00 20.00     0.074 C 
HETATM    4  C2  UNL     1     -34.720   5.127   6.150  1.00 20.00     0.013 C 
ENDBRANCH   1   3
BRANCH   1   5
HETATM    5  C4  UNL     1     -33.405   6.543   4.151  1.00 20.00     0.093 C 
BRANCH   5   6
HETATM    6  C5  UNL     1     -32.121   6.623   3.336  1.00 20.00     0.122 C 
HETATM    7 CL7  UNL     1     -32.126   8.041   2.259  1.00 20.00    -0.130 Cl
ENDBRANCH   5   6
ENDBRANCH   1   5
TORSDOF 3
ENDMDL
MODEL 6
REMARK VINA RESULT:      -4.0      1.890      3.041
REMARK  3 active torsions:
REMARK  status: ('A' for Active; 'I' for Inactive)
REMARK    1  A    between atoms: C1_1  and  C3_3 
REMARK    2  A    between atoms: C1_1  and  C4_4 
REMARK    3  A    between atoms: C4_4  and  C5_5 
ROOT
HETATM    1  C1  UNL     1     -34.931   5.261   3.865  1.00 20.00     0.127 C 
HETATM    2  O6  UNL     1     -36.056   5.712   3.655  1.00 20.00    -0.298 OA
ENDROOT
BRANCH   1   3
HETATM    3  C3  UNL     1     -33.796   5.421   2.868  1.00 20.00     0.074 C 
HETATM    4  C2  UNL     1     -32.756   6.432   3.320  1.00 20.00     0.013 C 
ENDBRANCH   1   3
BRANCH   1   5
HETATM    5  C4  UNL     1     -34.589   4.478   5.126  1.00 20.00     0.093 C 
BRANCH   5   6
HETATM    6  C5  UNL     1     -34.896   5.223   6.418  1.00 20.00     0.122 C 
HETATM    7 CL7  UNL     1     -33.941   6.721   6.543  1.00 20.00    -0.130 Cl
ENDBRANCH   5   6
ENDBRANCH   1   5
TORSDOF 3
ENDMDL
MODEL 7
REMARK VINA RESULT:      -3.9      2.679      3.471
REMARK  3 active torsions:
REMARK  status: ('A' for Active; 'I' for Inactive)
REMARK    1  A    between atoms: C1_1  and  C3_3 
REMARK    2  A    between atoms: C1_1  and  C4_4 
REMARK    3  A    between atoms: C4_4  and  C5_5 
ROOT
HETATM    1  C1  UNL     1     -33.333   6.272   4.021  1.00 20.00     0.127 C 
HETATM    2  O6  UNL     1     -33.396   6.768   5.145  1.00 20.00    -0.298 OA
ENDROOT
BRANCH   1   3
HETATM    3  C3  UNL     1     -32.131   6.474   3.113  1.00 20.00     0.074 C 
HETATM    4  C2  UNL     1     -32.128   7.835   2.439  1.00 20.00     0.013 C 
ENDBRANCH   1   3
BRANCH   1   5
HETATM    5  C4  UNL     1     -34.466   5.442   3.432  1.00 20.00     0.093 C 
BRANCH   5   6
HETATM    6  C5  UNL     1     -35.518   5.024   4.449  1.00 20.00     0.122 C 
HETATM    7 CL7  UNL     1     -34.860   3.853   5.617  1.00 20.00    -0.130 Cl
ENDBRANCH   5   6
ENDBRANCH   1   5
TORSDOF 3
ENDMDL
MODEL 8
REMARK VINA RESULT:      -3.9      2.365      3.415
REMARK  3 active torsions:
REMARK  status: ('A' for Active; 'I' for Inactive)
REMARK    1  A    between atoms: C1_1  and  C3_3 
REMARK    2  A    between atoms: C1_1  and  C4_4 
REMARK    3  A    between atoms: C4_4  and  C5_5 
ROOT
HETATM    1  C1  UNL     1     -33.830   6.078   3.977  1.00 20.00     0.127 C 
HETATM    2  O6  UNL     1     -34.873   5.768   3.402  1.00 20.00    -0.298 OA
ENDROOT
BRANCH   1   3
HETATM    3  C3  UNL     1     -32.496   6.148   3.253  1.00 20.00     0.074 C 
HETATM    4  C2  UNL     1     -32.225   7.517   2.654  1.00 20.00     0.013 C 
ENDBRANCH   1   3
BRANCH   1   5
HETATM    5  C4  UNL     1     -33.782   6.386   5.468  1.00 20.00     0.093 C 
BRANCH   5   6
HETATM    6  C5  UNL     1     -34.723   5.531   6.305  1.00 20.00     0.122 C 
HETATM    7 CL7  UNL     1     -34.697   3.831   5.776  1.00 20.00    -0.130 Cl
ENDBRANCH   5   6
ENDBRANCH   1   5
TORSDOF 3
ENDMDL
MODEL 9
REMARK VINA RESULT:      -3.7      1.777      2.949
REMARK  3 active torsions:
REMARK  status: ('A' for Active; 'I' for Inactive)
REMARK    1  A    between atoms: C1_1  and  C3_3 
REMARK    2  A    between atoms: C1_1  and  C4_4 
REMARK    3  A    between atoms: C4_4  and  C5_5 
ROOT
HETATM    1  C1  UNL     1     -35.018   4.667   5.050  1.00 20.00     0.127 C 
HETATM    2  O6  UNL     1     -35.097   3.439   5.045  1.00 20.00    -0.298 OA
ENDROOT
BRANCH   1   3
HETATM    3  C3  UNL     1     -35.280   5.500   3.807  1.00 20.00     0.074 C 
HETATM    4  C2  UNL     1     -34.178   5.368   2.770  1.00 20.00     0.013 C 
ENDBRANCH   1   3
BRANCH   1   5
HETATM    5  C4  UNL     1     -34.621   5.453   6.293  1.00 20.00     0.093 C 
BRANCH   5   6
HETATM    6  C5  UNL     1     -33.643   6.588   6.020  1.00 20.00     0.122 C 
HETATM    7 CL7  UNL     1     -33.613   7.753   7.367  1.00 20.00    -0.130 Cl
ENDBRANCH   5   6
ENDBRANCH   1   5
TORSDOF 3
ENDMDL
