MODEL 1
REMARK VINA RESULT:      -4.2      0.000      0.000
REMARK  1 active torsions:
REMARK  status: ('A' for Active; 'I' for Inactive)
REMARK    1  A    between atoms: C1_1  and  C8_8 
ROOT
HETATM    1  C1  UNL     1     -34.173  16.257  -2.524  1.00 20.00     0.139 C 
HETATM    2  C2  UNL     1     -35.679  15.191  -3.703  1.00 20.00     0.209 C 
HETATM    3  C3  UNL     1     -34.287  14.997  -4.296  1.00 20.00     0.070 C 
HETATM    4  C4  UNL     1     -33.759  13.579  -4.061  1.00 20.00     0.042 C 
HETATM    5  C5  UNL     1     -34.240  15.348  -5.779  1.00 20.00     0.042 C 
HETATM    6  N9  UNL     1     -33.436  15.938  -3.540  1.00 20.00    -0.258 NA
HETATM    7  O10 UNL     1     -35.436  15.785  -2.434  1.00 20.00    -0.335 OA
ENDROOT
BRANCH   1   8
HETATM    8  C8  UNL     1     -33.751  17.135  -1.404  1.00 20.00     0.054 C 
HETATM    9  C6  UNL     1     -33.616  18.586  -1.873  1.00 20.00     0.018 C 
HETATM   10  C7  UNL     1     -34.727  17.045  -0.228  1.00 20.00     0.018 C 
ENDBRANCH   1   8
TORSDOF 1
ENDMDL
MODEL 2
REMARK VINA RESULT:      -4.1      1.178      1.782
REMARK  1 active torsions:
REMARK  status: ('A' for Active; 'I' for Inactive)
REMARK    1  A    between atoms: C1_1  and  C8_8 
ROOT
HETATM    1  C1  UNL     1     -34.028  16.327  -2.646  1.00 20.00     0.139 C 
HETATM    2  C2  UNL     1     -33.676  15.672  -4.705  1.00 20.00     0.209 C 
HETATM    3  C3  UNL     1     -34.872  14.946  -4.100  1.00 20.00     0.070 C 
HETATM    4  C4  UNL     1     -36.197  15.433  -4.695  1.00 20.00     0.042 C 
HETATM    5  C5  UNL     1     -34.751  13.431  -4.231  1.00 20.00     0.042 C 
HETATM    6  N9  UNL     1     -34.842  15.320  -2.672  1.00 20.00    -0.258 NA
HETATM    7  O10 UNL     1     -33.396  16.712  -3.776  1.00 20.00    -0.335 OA
ENDROOT
BRANCH   1   8
HETATM    8  C8  UNL     1     -33.700  17.130  -1.441  1.00 20.00     0.054 C 
HETATM    9  C6  UNL     1     -33.561  18.612  -1.798  1.00 20.00     0.018 C 
HETATM   10  C7  UNL     1     -34.752  16.944  -0.344  1.00 20.00     0.018 C 
ENDBRANCH   1   8
TORSDOF 1
ENDMDL
MODEL 3
REMARK VINA RESULT:      -4.0      1.430      1.992
REMARK  1 active torsions:
REMARK  status: ('A' for Active; 'I' for Inactive)
REMARK    1  A    between atoms: C1_1  and  C8_8 
ROOT
HETATM    1  C1  UNL     1     -34.535  15.876  -2.646  1.00 20.00     0.139 C 
HETATM    2  C2  UNL     1     -32.948  14.889  -3.786  1.00 20.00     0.209 C 
HETATM    3  C3  UNL     1     -34.305  14.676  -4.447  1.00 20.00     0.070 C 
HETATM    4  C4  UNL     1     -34.446  15.491  -5.737  1.00 20.00     0.042 C 
HETATM    5  C5  UNL     1     -34.591  13.202  -4.712  1.00 20.00     0.042 C 
HETATM    6  N9  UNL     1     -35.275  15.196  -3.463  1.00 20.00    -0.258 NA
HETATM    7  O10 UNL     1     -33.194  15.888  -2.804  1.00 20.00    -0.335 OA
ENDROOT
BRANCH   1   8
HETATM    8  C8  UNL     1     -35.038  16.672  -1.498  1.00 20.00     0.054 C 
HETATM    9  C6  UNL     1     -33.885  17.389  -0.789  1.00 20.00     0.018 C 
HETATM   10  C7  UNL     1     -36.098  17.683  -1.943  1.00 20.00     0.018 C 
ENDBRANCH   1   8
TORSDOF 1
ENDMDL
MODEL 4
REMARK VINA RESULT:      -4.0      1.365      1.671
REMARK  1 active torsions:
REMARK  status: ('A' for Active; 'I' for Inactive)
REMARK    1  A    between atoms: C1_1  and  C8_8 
ROOT
HETATM    1  C1  UNL     1     -34.459  15.803  -3.269  1.00 20.00     0.139 C 
HETATM    2  C2  UNL     1     -35.196  13.917  -4.103  1.00 20.00     0.209 C 
HETATM    3  C3  UNL     1     -35.393  15.062  -5.090  1.00 20.00     0.070 C 
HETATM    4  C4  UNL     1     -34.422  14.971  -6.271  1.00 20.00     0.042 C 
HETATM    5  C5  UNL     1     -36.833  15.152  -5.586  1.00 20.00     0.042 C 
HETATM    6  N9  UNL     1     -35.064  16.274  -4.313  1.00 20.00    -0.258 NA
HETATM    7  O10 UNL     1     -34.352  14.467  -3.098  1.00 20.00    -0.335 OA
ENDROOT
BRANCH   1   8
HETATM    8  C8  UNL     1     -33.853  16.623  -2.190  1.00 20.00     0.054 C 
HETATM    9  C6  UNL     1     -33.721  18.084  -2.628  1.00 20.00     0.018 C 
HETATM   10  C7  UNL     1     -34.663  16.527  -0.895  1.00 20.00     0.018 C 
ENDBRANCH   1   8
TORSDOF 1
ENDMDL
MODEL 5
REMARK VINA RESULT:      -3.9      1.872      4.489
REMARK  1 active torsions:
REMARK  status: ('A' for Active; 'I' for Inactive)
REMARK    1  A    between atoms: C1_1  and  C8_8 
ROOT
HETATM    1  C1  UNL     1     -34.508  15.097  -5.706  1.00 20.00     0.139 C 
HETATM    2  C2  UNL     1     -34.247  13.920  -3.879  1.00 20.00     0.209 C 
HETATM    3  C3  UNL     1     -34.768  15.316  -3.556  1.00 20.00     0.070 C 
HETATM    4  C4  UNL     1     -36.237  15.291  -3.121  1.00 20.00     0.042 C 
HETATM    5  C5  UNL     1     -33.911  16.023  -2.511  1.00 20.00     0.042 C 
HETATM    6  N9  UNL     1     -34.678  16.044  -4.839  1.00 20.00    -0.258 NA
HETATM    7  O10 UNL     1     -34.379  13.818  -5.291  1.00 20.00    -0.335 OA
ENDROOT
BRANCH   1   8
HETATM    8  C8  UNL     1     -34.430  15.289  -7.176  1.00 20.00     0.054 C 
HETATM    9  C6  UNL     1     -35.498  14.456  -7.890  1.00 20.00     0.018 C 
HETATM   10  C7  UNL     1     -34.568  16.767  -7.553  1.00 20.00     0.018 C 
ENDBRANCH   1   8
TORSDOF 1
ENDMDL
MODEL 6
REMARK VINA RESULT:      -3.9      1.609      4.122
REMARK  1 active torsions:
REMARK  status: ('A' for Active; 'I' for Inactive)
REMARK    1  A    between atoms: C1_1  and  C8_8 
ROOT
HETATM    1  C1  UNL     1     -34.399  15.597  -3.850  1.00 20.00     0.139 C 
HETATM    2  C2  UNL     1     -33.959  17.620  -3.137  1.00 20.00     0.209 C 
HETATM    3  C3  UNL     1     -35.069  16.980  -2.310  1.00 20.00     0.070 C 
HETATM    4  C4  UNL     1     -34.587  16.599  -0.906  1.00 20.00     0.042 C 
HETATM    5  C5  UNL     1     -36.308  17.865  -2.228  1.00 20.00     0.042 C 
HETATM    6  N9  UNL     1     -35.398  15.739  -3.039  1.00 20.00    -0.258 NA
HETATM    7  O10 UNL     1     -33.437  16.544  -3.907  1.00 20.00    -0.335 OA
ENDROOT
BRANCH   1   8
HETATM    8  C8  UNL     1     -34.202  14.449  -4.772  1.00 20.00     0.054 C 
HETATM    9  C6  UNL     1     -35.061  13.256  -4.343  1.00 20.00     0.018 C 
HETATM   10  C7  UNL     1     -34.516  14.837  -6.219  1.00 20.00     0.018 C 
ENDBRANCH   1   8
TORSDOF 1
ENDMDL
MODEL 7
REMARK VINA RESULT:      -3.9      1.083      4.099
REMARK  1 active torsions:
REMARK  status: ('A' for Active; 'I' for Inactive)
REMARK    1  A    between atoms: C1_1  and  C8_8 
ROOT
HETATM    1  C1  UNL     1     -34.491  15.511  -3.849  1.00 20.00     0.139 C 
HETATM    2  C2  UNL     1     -35.868  16.898  -2.863  1.00 20.00     0.209 C 
HETATM    3  C3  UNL     1     -34.496  16.926  -2.197  1.00 20.00     0.070 C 
HETATM    4  C4  UNL     1     -33.736  18.220  -2.508  1.00 20.00     0.042 C 
HETATM    5  C5  UNL     1     -34.585  16.707  -0.690  1.00 20.00     0.042 C 
HETATM    6  N9  UNL     1     -33.767  15.801  -2.816  1.00 20.00    -0.258 NA
HETATM    7  O10 UNL     1     -35.655  16.162  -4.061  1.00 20.00    -0.335 OA
ENDROOT
BRANCH   1   8
HETATM    8  C8  UNL     1     -34.156  14.481  -4.865  1.00 20.00     0.054 C 
HETATM    9  C6  UNL     1     -34.899  13.174  -4.578  1.00 20.00     0.018 C 
HETATM   10  C7  UNL     1     -34.471  14.972  -6.281  1.00 20.00     0.018 C 
ENDBRANCH   1   8
TORSDOF 1
ENDMDL
MODEL 8
REMARK VINA RESULT:      -3.7      2.377      4.518
REMARK  1 active torsions:
REMARK  status: ('A' for Active; 'I' for Inactive)
REMARK    1  A    between atoms: C1_1  and  C8_8 
ROOT
HETATM    1  C1  UNL     1     -34.699  14.874  -6.059  1.00 20.00     0.139 C 
HETATM    2  C2  UNL     1     -34.458  13.313  -4.543  1.00 20.00     0.209 C 
HETATM    3  C3  UNL     1     -34.007  14.667  -4.006  1.00 20.00     0.070 C 
HETATM    4  C4  UNL     1     -34.994  15.231  -2.979  1.00 20.00     0.042 C 
HETATM    5  C5  UNL     1     -32.599  14.615  -3.424  1.00 20.00     0.042 C 
HETATM    6  N9  UNL     1     -34.018  15.550  -5.190  1.00 20.00    -0.258 NA
HETATM    7  O10 UNL     1     -35.123  13.627  -5.760  1.00 20.00    -0.335 OA
ENDROOT
BRANCH   1   8
HETATM    8  C8  UNL     1     -35.068  15.352  -7.416  1.00 20.00     0.054 C 
HETATM    9  C6  UNL     1     -36.541  15.059  -7.712  1.00 20.00     0.018 C 
HETATM   10  C7  UNL     1     -34.781  16.848  -7.576  1.00 20.00     0.018 C 
ENDBRANCH   1   8
TORSDOF 1
ENDMDL
MODEL 9
REMARK VINA RESULT:      -3.7      2.173      4.422
REMARK  1 active torsions:
REMARK  status: ('A' for Active; 'I' for Inactive)
REMARK    1  A    between atoms: C1_1  and  C8_8 
ROOT
HETATM    1  C1  UNL     1     -34.911  15.672  -5.805  1.00 20.00     0.139 C 
HETATM    2  C2  UNL     1     -33.285  16.123  -4.409  1.00 20.00     0.209 C 
HETATM    3  C3  UNL     1     -34.247  15.101  -3.812  1.00 20.00     0.070 C 
HETATM    4  C4  UNL     1     -33.631  13.699  -3.761  1.00 20.00     0.042 C 
HETATM    5  C5  UNL     1     -34.746  15.518  -2.433  1.00 20.00     0.042 C 
HETATM    6  N9  UNL     1     -35.381  15.073  -4.758  1.00 20.00    -0.258 NA
HETATM    7  O10 UNL     1     -33.668  16.202  -5.776  1.00 20.00    -0.335 OA
ENDROOT
BRANCH   1   8
HETATM    8  C8  UNL     1     -35.637  15.848  -7.088  1.00 20.00     0.054 C 
HETATM    9  C6  UNL     1     -35.008  16.971  -7.918  1.00 20.00     0.018 C 
HETATM   10  C7  UNL     1     -35.670  14.546  -7.893  1.00 20.00     0.018 C 
ENDBRANCH   1   8
TORSDOF 1
ENDMDL
