MODEL 1
REMARK VINA RESULT:      -4.7      0.000      0.000
REMARK  0 active torsions:
REMARK  status: ('A' for Active; 'I' for Inactive)
ROOT
HETATM    1  C1  UNL     1     -35.224   4.597   6.196  1.00 20.00     0.000 C 
HETATM    2  C2  UNL     1     -33.997   5.445   6.511  1.00 20.00     0.003 C 
HETATM    3  C3  UNL     1     -35.235   4.148   4.740  1.00 20.00     0.003 C 
HETATM    4  C4  UNL     1     -32.337   7.633   2.986  1.00 20.00     0.029 C 
HETATM    5  C5  UNL     1     -33.876   6.638   5.560  1.00 20.00     0.038 C 
HETATM    6  C6  UNL     1     -35.117   5.333   3.782  1.00 20.00     0.038 C 
HETATM    7  C7  UNL     1     -33.823   7.417   3.141  1.00 20.00     0.040 C 
HETATM    8  C8  UNL     1     -31.817   6.213   2.985  1.00 20.00     0.168 C 
HETATM    9  C9  UNL     1     -33.893   6.210   4.080  1.00 20.00     0.061 C 
HETATM   10  O10 UNL     1     -32.694   5.446   3.822  1.00 20.00    -0.380 OA
ENDROOT
TORSDOF 0
ENDMDL
MODEL 2
REMARK VINA RESULT:      -4.3     11.476     12.629
REMARK  0 active torsions:
REMARK  status: ('A' for Active; 'I' for Inactive)
ROOT
HETATM    1  C1  UNL     1     -34.617  13.417  -4.609  1.00 20.00     0.000 C 
HETATM    2  C2  UNL     1     -35.802  14.251  -4.134  1.00 20.00     0.003 C 
HETATM    3  C3  UNL     1     -33.384  13.655  -3.745  1.00 20.00     0.003 C 
HETATM    4  C4  UNL     1     -34.655  18.021  -2.028  1.00 20.00     0.029 C 
HETATM    5  C5  UNL     1     -35.453  15.739  -4.062  1.00 20.00     0.038 C 
HETATM    6  C6  UNL     1     -33.026  15.140  -3.670  1.00 20.00     0.038 C 
HETATM    7  C7  UNL     1     -33.838  17.491  -3.181  1.00 20.00     0.040 C 
HETATM    8  C8  UNL     1     -34.601  16.865  -1.054  1.00 20.00     0.168 C 
HETATM    9  C9  UNL     1     -34.204  16.005  -3.201  1.00 20.00     0.061 C 
HETATM   10  O10 UNL     1     -34.523  15.664  -1.834  1.00 20.00    -0.380 OA
ENDROOT
TORSDOF 0
ENDMDL
MODEL 3
REMARK VINA RESULT:      -4.3     12.374     13.744
REMARK  0 active torsions:
REMARK  status: ('A' for Active; 'I' for Inactive)
ROOT
HETATM    1  C1  UNL     1     -34.563  15.130  -7.407  1.00 20.00     0.000 C 
HETATM    2  C2  UNL     1     -34.356  16.501  -6.773  1.00 20.00     0.003 C 
HETATM    3  C3  UNL     1     -35.204  14.152  -6.430  1.00 20.00     0.003 C 
HETATM    4  C4  UNL     1     -33.879  16.402  -2.331  1.00 20.00     0.029 C 
HETATM    5  C5  UNL     1     -33.553  16.406  -5.474  1.00 20.00     0.038 C 
HETATM    6  C6  UNL     1     -34.407  14.049  -5.129  1.00 20.00     0.038 C 
HETATM    7  C7  UNL     1     -33.335  15.294  -3.199  1.00 20.00     0.040 C 
HETATM    8  C8  UNL     1     -35.350  16.373  -2.678  1.00 20.00     0.168 C 
HETATM    9  C9  UNL     1     -34.177  15.416  -4.471  1.00 20.00     0.061 C 
HETATM   10  O10 UNL     1     -35.449  15.953  -4.046  1.00 20.00    -0.380 OA
ENDROOT
TORSDOF 0
ENDMDL
MODEL 4
REMARK VINA RESULT:      -4.3     11.614     12.969
REMARK  0 active torsions:
REMARK  status: ('A' for Active; 'I' for Inactive)
ROOT
HETATM    1  C1  UNL     1     -33.835  18.325  -2.572  1.00 20.00     0.000 C 
HETATM    2  C2  UNL     1     -33.684  17.806  -3.998  1.00 20.00     0.003 C 
HETATM    3  C3  UNL     1     -33.782  17.191  -1.556  1.00 20.00     0.003 C 
HETATM    4  C4  UNL     1     -35.066  13.594  -4.561  1.00 20.00     0.029 C 
HETATM    5  C5  UNL     1     -34.719  16.725  -4.317  1.00 20.00     0.038 C 
HETATM    6  C6  UNL     1     -34.815  16.107  -1.865  1.00 20.00     0.038 C 
HETATM    7  C7  UNL     1     -35.767  14.523  -3.601  1.00 20.00     0.040 C 
HETATM    8  C8  UNL     1     -33.656  13.591  -4.014  1.00 20.00     0.168 C 
HETATM    9  C9  UNL     1     -34.692  15.570  -3.298  1.00 20.00     0.061 C 
HETATM   10  O10 UNL     1     -33.429  14.882  -3.434  1.00 20.00    -0.380 OA
ENDROOT
TORSDOF 0
ENDMDL
MODEL 5
REMARK VINA RESULT:      -4.3      9.185     10.715
REMARK  0 active torsions:
REMARK  status: ('A' for Active; 'I' for Inactive)
ROOT
HETATM    1  C1  UNL     1     -41.212   7.153  -0.835  1.00 20.00     0.000 C 
HETATM    2  C2  UNL     1     -41.722   6.844  -2.238  1.00 20.00     0.003 C 
HETATM    3  C3  UNL     1     -40.672   5.905  -0.148  1.00 20.00     0.003 C 
HETATM    4  C4  UNL     1     -43.114   2.633  -2.785  1.00 20.00     0.029 C 
HETATM    5  C5  UNL     1     -42.764   5.723  -2.224  1.00 20.00     0.038 C 
HETATM    6  C6  UNL     1     -41.708   4.780  -0.127  1.00 20.00     0.038 C 
HETATM    7  C7  UNL     1     -43.315   3.358  -1.476  1.00 20.00     0.040 C 
HETATM    8  C8  UNL     1     -41.611   2.689  -2.941  1.00 20.00     0.168 C 
HETATM    9  C9  UNL     1     -42.245   4.451  -1.527  1.00 20.00     0.061 C 
HETATM   10  O10 UNL     1     -41.172   3.908  -2.327  1.00 20.00    -0.380 OA
ENDROOT
TORSDOF 0
ENDMDL
MODEL 6
REMARK VINA RESULT:      -4.2     12.015     13.931
REMARK  0 active torsions:
REMARK  status: ('A' for Active; 'I' for Inactive)
ROOT
HETATM    1  C1  UNL     1     -33.239  15.081  -3.396  1.00 20.00     0.000 C 
HETATM    2  C2  UNL     1     -34.327  14.067  -3.731  1.00 20.00     0.003 C 
HETATM    3  C3  UNL     1     -33.452  16.396  -4.136  1.00 20.00     0.003 C 
HETATM    4  C4  UNL     1     -36.178  14.641  -7.757  1.00 20.00     0.029 C 
HETATM    5  C5  UNL     1     -34.443  13.843  -5.240  1.00 20.00     0.038 C 
HETATM    6  C6  UNL     1     -33.567  16.182  -5.646  1.00 20.00     0.038 C 
HETATM    7  C7  UNL     1     -34.714  14.923  -7.524  1.00 20.00     0.040 C 
HETATM    8  C8  UNL     1     -36.834  15.575  -6.766  1.00 20.00     0.168 C 
HETATM    9  C9  UNL     1     -34.651  15.159  -6.013  1.00 20.00     0.061 C 
HETATM   10  O10 UNL     1     -35.943  15.692  -5.648  1.00 20.00    -0.380 OA
ENDROOT
TORSDOF 0
ENDMDL
MODEL 7
REMARK VINA RESULT:      -4.2     11.861     12.685
REMARK  0 active torsions:
REMARK  status: ('A' for Active; 'I' for Inactive)
ROOT
HETATM    1  C1  UNL     1     -35.426  13.619  -4.836  1.00 20.00     0.000 C 
HETATM    2  C2  UNL     1     -33.990  14.008  -4.502  1.00 20.00     0.003 C 
HETATM    3  C3  UNL     1     -36.384  14.786  -4.630  1.00 20.00     0.003 C 
HETATM    4  C4  UNL     1     -33.642  17.305  -1.507  1.00 20.00     0.029 C 
HETATM    5  C5  UNL     1     -33.874  14.579  -3.088  1.00 20.00     0.038 C 
HETATM    6  C6  UNL     1     -36.277  15.361  -3.217  1.00 20.00     0.038 C 
HETATM    7  C7  UNL     1     -34.749  16.283  -1.417  1.00 20.00     0.040 C 
HETATM    8  C8  UNL     1     -33.878  17.896  -2.878  1.00 20.00     0.168 C 
HETATM    9  C9  UNL     1     -34.840  15.756  -2.851  1.00 20.00     0.061 C 
HETATM   10  O10 UNL     1     -34.424  16.852  -3.695  1.00 20.00    -0.380 OA
ENDROOT
TORSDOF 0
ENDMDL
MODEL 8
REMARK VINA RESULT:      -4.2     11.827     13.612
REMARK  0 active torsions:
REMARK  status: ('A' for Active; 'I' for Inactive)
ROOT
HETATM    1  C1  UNL     1     -33.056  15.139  -3.482  1.00 20.00     0.000 C 
HETATM    2  C2  UNL     1     -33.188  16.127  -4.636  1.00 20.00     0.003 C 
HETATM    3  C3  UNL     1     -33.678  13.791  -3.826  1.00 20.00     0.003 C 
HETATM    4  C4  UNL     1     -36.688  15.359  -7.305  1.00 20.00     0.029 C 
HETATM    5  C5  UNL     1     -34.644  16.284  -5.081  1.00 20.00     0.038 C 
HETATM    6  C6  UNL     1     -35.134  13.938  -4.269  1.00 20.00     0.038 C 
HETATM    7  C7  UNL     1     -36.768  15.101  -5.820  1.00 20.00     0.040 C 
HETATM    8  C8  UNL     1     -35.540  14.463  -7.713  1.00 20.00     0.168 C 
HETATM    9  C9  UNL     1     -35.298  14.933  -5.427  1.00 20.00     0.061 C 
HETATM   10  O10 UNL     1     -34.640  14.404  -6.598  1.00 20.00    -0.380 OA
ENDROOT
TORSDOF 0
ENDMDL
MODEL 9
REMARK VINA RESULT:      -4.2     11.904     13.826
REMARK  0 active torsions:
REMARK  status: ('A' for Active; 'I' for Inactive)
ROOT
HETATM    1  C1  UNL     1     -36.811  15.133  -7.356  1.00 20.00     0.000 C 
HETATM    2  C2  UNL     1     -37.007  15.200  -5.845  1.00 20.00     0.003 C 
HETATM    3  C3  UNL     1     -35.482  14.482  -7.720  1.00 20.00     0.003 C 
HETATM    4  C4  UNL     1     -33.196  15.333  -3.516  1.00 20.00     0.029 C 
HETATM    5  C5  UNL     1     -35.836  15.904  -5.156  1.00 20.00     0.038 C 
HETATM    6  C6  UNL     1     -34.306  15.180  -7.037  1.00 20.00     0.038 C 
HETATM    7  C7  UNL     1     -33.315  16.014  -4.857  1.00 20.00     0.040 C 
HETATM    8  C8  UNL     1     -33.519  13.898  -3.869  1.00 20.00     0.168 C 
HETATM    9  C9  UNL     1     -34.479  15.268  -5.514  1.00 20.00     0.061 C 
HETATM   10  O10 UNL     1     -34.449  13.935  -4.960  1.00 20.00    -0.380 OA
ENDROOT
TORSDOF 0
ENDMDL
