MODEL 1
REMARK VINA RESULT:      -4.1      0.000      0.000
REMARK  1 active torsions:
REMARK  status: ('A' for Active; 'I' for Inactive)
REMARK    1  A    between atoms: C5_5  and  C6_6 
ROOT
HETATM    1  C1  UNL     1     -33.868  17.938  -2.520  1.00 20.00     0.086 C 
HETATM    2  C2  UNL     1     -34.153  18.264  -3.971  1.00 20.00     0.086 C 
HETATM    3  C5  UNL     1     -33.908  15.549  -3.840  1.00 20.00     0.078 C 
HETATM    4  C7  UNL     1     -32.680  14.663  -3.637  1.00 20.00     0.041 C 
HETATM    5  S9  UNL     1     -34.425  16.242  -2.223  1.00 20.00    -0.145 SA
HETATM    6  S10 UNL     1     -33.470  16.922  -4.975  1.00 20.00    -0.145 SA
ENDROOT
BRANCH   3   7
HETATM    7  C6  UNL     1     -35.070  14.756  -4.436  1.00 20.00     0.078 C 
HETATM    8  C8  UNL     1     -34.879  13.253  -4.230  1.00 20.00     0.041 C 
HETATM    9  S11 UNL     1     -35.173  15.110  -6.232  1.00 20.00    -0.145 SA
HETATM   10  C3  UNL     1     -36.949  15.462  -6.287  1.00 20.00     0.086 C 
HETATM   11  C4  UNL     1     -37.303  16.212  -5.021  1.00 20.00     0.086 C 
HETATM   12  S12 UNL     1     -36.632  15.274  -3.626  1.00 20.00    -0.145 SA
ENDBRANCH   3   7
TORSDOF 1
ENDMDL
MODEL 2
REMARK VINA RESULT:      -4.1      0.186      3.809
REMARK  1 active torsions:
REMARK  status: ('A' for Active; 'I' for Inactive)
REMARK    1  A    between atoms: C5_5  and  C6_6 
ROOT
HETATM    1  C1  UNL     1     -36.725  15.383  -6.530  1.00 20.00     0.086 C 
HETATM    2  C2  UNL     1     -37.190  16.161  -5.318  1.00 20.00     0.086 C 
HETATM    3  C5  UNL     1     -35.013  14.729  -4.507  1.00 20.00     0.078 C 
HETATM    4  C7  UNL     1     -34.837  13.233  -4.250  1.00 20.00     0.041 C 
HETATM    5  S9  UNL     1     -34.961  15.040  -6.313  1.00 20.00    -0.145 SA
HETATM    6  S10 UNL     1     -36.640  15.259  -3.848  1.00 20.00    -0.145 SA
ENDROOT
BRANCH   3   7
HETATM    7  C6  UNL     1     -33.909  15.541  -3.831  1.00 20.00     0.078 C 
HETATM    8  C8  UNL     1     -32.659  14.691  -3.599  1.00 20.00     0.041 C 
HETATM    9  S11 UNL     1     -34.526  16.158  -2.218  1.00 20.00    -0.145 SA
HETATM   10  C3  UNL     1     -34.017  17.883  -2.432  1.00 20.00     0.086 C 
HETATM   11  C4  UNL     1     -34.247  18.248  -3.883  1.00 20.00     0.086 C 
HETATM   12  S12 UNL     1     -33.469  16.967  -4.896  1.00 20.00    -0.145 SA
ENDBRANCH   3   7
TORSDOF 1
ENDMDL
MODEL 3
REMARK VINA RESULT:      -3.9      1.717      3.125
REMARK  1 active torsions:
REMARK  status: ('A' for Active; 'I' for Inactive)
REMARK    1  A    between atoms: C5_5  and  C6_6 
ROOT
HETATM    1  C1  UNL     1     -36.023  18.153  -6.108  1.00 20.00     0.086 C 
HETATM    2  C2  UNL     1     -34.916  17.220  -6.551  1.00 20.00     0.086 C 
HETATM    3  C5  UNL     1     -34.687  17.433  -3.840  1.00 20.00     0.078 C 
HETATM    4  C7  UNL     1     -34.207  18.588  -2.962  1.00 20.00     0.041 C 
HETATM    5  S9  UNL     1     -36.406  17.764  -4.383  1.00 20.00    -0.145 SA
HETATM    6  S10 UNL     1     -33.600  17.311  -5.312  1.00 20.00    -0.145 SA
ENDROOT
BRANCH   3   7
HETATM    7  C6  UNL     1     -34.652  16.108  -3.078  1.00 20.00     0.078 C 
HETATM    8  C8  UNL     1     -34.547  16.338  -1.571  1.00 20.00     0.041 C 
HETATM    9  S11 UNL     1     -33.203  15.136  -3.642  1.00 20.00    -0.145 SA
HETATM   10  C3  UNL     1     -34.080  13.577  -3.926  1.00 20.00     0.086 C 
HETATM   11  C4  UNL     1     -35.438  13.918  -4.503  1.00 20.00     0.086 C 
HETATM   12  S12 UNL     1     -36.186  15.168  -3.432  1.00 20.00    -0.145 SA
ENDBRANCH   3   7
TORSDOF 1
ENDMDL
MODEL 4
REMARK VINA RESULT:      -3.9      1.736      3.605
REMARK  1 active torsions:
REMARK  status: ('A' for Active; 'I' for Inactive)
REMARK    1  A    between atoms: C5_5  and  C6_6 
ROOT
HETATM    1  C1  UNL     1     -34.078  13.596  -4.003  1.00 20.00     0.086 C 
HETATM    2  C2  UNL     1     -35.430  13.950  -4.586  1.00 20.00     0.086 C 
HETATM    3  C5  UNL     1     -34.669  16.097  -3.083  1.00 20.00     0.078 C 
HETATM    4  C7  UNL     1     -34.583  16.280  -1.569  1.00 20.00     0.041 C 
HETATM    5  S9  UNL     1     -33.211  15.146  -3.659  1.00 20.00    -0.145 SA
HETATM    6  S10 UNL     1     -36.196  15.165  -3.485  1.00 20.00    -0.145 SA
ENDROOT
BRANCH   3   7
HETATM    7  C6  UNL     1     -34.699  17.445  -3.803  1.00 20.00     0.078 C 
HETATM    8  C8  UNL     1     -34.239  18.575  -2.882  1.00 20.00     0.041 C 
HETATM    9  S11 UNL     1     -36.413  17.783  -4.362  1.00 20.00    -0.145 SA
HETATM   10  C3  UNL     1     -36.005  18.230  -6.068  1.00 20.00     0.086 C 
HETATM   11  C4  UNL     1     -34.885  17.317  -6.522  1.00 20.00     0.086 C 
HETATM   12  S12 UNL     1     -33.590  17.376  -5.261  1.00 20.00    -0.145 SA
ENDBRANCH   3   7
TORSDOF 1
ENDMDL
MODEL 5
REMARK VINA RESULT:      -3.9      1.569      3.795
REMARK  1 active torsions:
REMARK  status: ('A' for Active; 'I' for Inactive)
REMARK    1  A    between atoms: C5_5  and  C6_6 
ROOT
HETATM    1  C1  UNL     1     -33.682  13.513  -3.965  1.00 20.00     0.086 C 
HETATM    2  C2  UNL     1     -35.019  13.516  -4.678  1.00 20.00     0.086 C 
HETATM    3  C5  UNL     1     -34.883  15.876  -3.314  1.00 20.00     0.078 C 
HETATM    4  C7  UNL     1     -34.980  16.177  -1.819  1.00 20.00     0.041 C 
HETATM    5  S9  UNL     1     -33.207  15.238  -3.693  1.00 20.00    -0.145 SA
HETATM    6  S10 UNL     1     -36.128  14.602  -3.748  1.00 20.00    -0.145 SA
ENDROOT
BRANCH   3   7
HETATM    7  C6  UNL     1     -35.137  17.131  -4.149  1.00 20.00     0.078 C 
HETATM    8  C8  UNL     1     -36.491  17.062  -4.857  1.00 20.00     0.041 C 
HETATM    9  S11 UNL     1     -33.809  17.290  -5.404  1.00 20.00    -0.145 SA
HETATM   10  C3  UNL     1     -33.414  19.028  -5.089  1.00 20.00     0.086 C 
HETATM   11  C4  UNL     1     -33.516  19.254  -3.595  1.00 20.00     0.086 C 
HETATM   12  S12 UNL     1     -35.113  18.601  -3.053  1.00 20.00    -0.145 SA
ENDBRANCH   3   7
TORSDOF 1
ENDMDL
MODEL 6
REMARK VINA RESULT:      -3.9      1.823      2.940
REMARK  1 active torsions:
REMARK  status: ('A' for Active; 'I' for Inactive)
REMARK    1  A    between atoms: C5_5  and  C6_6 
ROOT
HETATM    1  C1  UNL     1     -33.317  13.877  -3.812  1.00 20.00     0.086 C 
HETATM    2  C2  UNL     1     -33.313  15.357  -3.490  1.00 20.00     0.086 C 
HETATM    3  C5  UNL     1     -34.868  15.071  -5.714  1.00 20.00     0.078 C 
HETATM    4  C7  UNL     1     -34.498  14.753  -7.162  1.00 20.00     0.041 C 
HETATM    5  S9  UNL     1     -34.836  13.524  -4.731  1.00 20.00    -0.145 SA
HETATM    6  S10 UNL     1     -33.642  16.249  -5.030  1.00 20.00    -0.145 SA
ENDROOT
BRANCH   3   7
HETATM    7  C6  UNL     1     -36.264  15.688  -5.623  1.00 20.00     0.078 C 
HETATM    8  C8  UNL     1     -37.117  15.312  -6.834  1.00 20.00     0.041 C 
HETATM    9  S11 UNL     1     -36.102  17.513  -5.544  1.00 20.00    -0.145 SA
HETATM   10  C3  UNL     1     -37.198  17.771  -4.126  1.00 20.00     0.086 C 
HETATM   11  C4  UNL     1     -36.969  16.628  -3.160  1.00 20.00     0.086 C 
HETATM   12  S12 UNL     1     -37.091  15.088  -4.101  1.00 20.00    -0.145 SA
ENDBRANCH   3   7
TORSDOF 1
ENDMDL
MODEL 7
REMARK VINA RESULT:      -3.9      1.822      3.751
REMARK  1 active torsions:
REMARK  status: ('A' for Active; 'I' for Inactive)
REMARK    1  A    between atoms: C5_5  and  C6_6 
ROOT
HETATM    1  C1  UNL     1     -37.274  17.730  -4.186  1.00 20.00     0.086 C 
HETATM    2  C2  UNL     1     -37.053  16.579  -3.227  1.00 20.00     0.086 C 
HETATM    3  C5  UNL     1     -36.279  15.677  -5.684  1.00 20.00     0.078 C 
HETATM    4  C7  UNL     1     -37.098  15.304  -6.919  1.00 20.00     0.041 C 
HETATM    5  S9  UNL     1     -36.143  17.503  -5.580  1.00 20.00    -0.145 SA
HETATM    6  S10 UNL     1     -37.134  15.048  -4.189  1.00 20.00    -0.145 SA
ENDROOT
BRANCH   3   7
HETATM    7  C6  UNL     1     -34.875  15.077  -5.749  1.00 20.00     0.078 C 
HETATM    8  C8  UNL     1     -34.462  14.788  -7.193  1.00 20.00     0.041 C 
HETATM    9  S11 UNL     1     -34.851  13.514  -4.791  1.00 20.00    -0.145 SA
HETATM   10  C3  UNL     1     -33.359  13.868  -3.827  1.00 20.00     0.086 C 
HETATM   11  C4  UNL     1     -33.381  15.341  -3.481  1.00 20.00     0.086 C 
HETATM   12  S12 UNL     1     -33.679  16.256  -5.013  1.00 20.00    -0.145 SA
ENDBRANCH   3   7
TORSDOF 1
ENDMDL
MODEL 8
REMARK VINA RESULT:      -3.9      1.713      3.575
REMARK  1 active torsions:
REMARK  status: ('A' for Active; 'I' for Inactive)
REMARK    1  A    between atoms: C5_5  and  C6_6 
ROOT
HETATM    1  C1  UNL     1     -34.211  15.261  -7.164  1.00 20.00     0.086 C 
HETATM    2  C2  UNL     1     -35.317  14.311  -6.755  1.00 20.00     0.086 C 
HETATM    3  C5  UNL     1     -34.343  15.378  -4.440  1.00 20.00     0.078 C 
HETATM    4  C7  UNL     1     -33.025  15.143  -3.705  1.00 20.00     0.041 C 
HETATM    5  S9  UNL     1     -34.050  16.503  -5.857  1.00 20.00    -0.145 SA
HETATM    6  S10 UNL     1     -34.973  13.772  -5.062  1.00 20.00    -0.145 SA
ENDROOT
BRANCH   3   7
HETATM    7  C6  UNL     1     -35.388  16.004  -3.516  1.00 20.00     0.078 C 
HETATM    8  C8  UNL     1     -36.610  15.097  -3.367  1.00 20.00     0.041 C 
HETATM    9  S11 UNL     1     -35.915  17.614  -4.219  1.00 20.00    -0.145 SA
HETATM   10  C3  UNL     1     -35.732  18.586  -2.702  1.00 20.00     0.086 C 
HETATM   11  C4  UNL     1     -34.502  18.078  -1.981  1.00 20.00     0.086 C 
HETATM   12  S12 UNL     1     -34.645  16.278  -1.863  1.00 20.00    -0.145 SA
ENDBRANCH   3   7
TORSDOF 1
ENDMDL
MODEL 9
REMARK VINA RESULT:      -3.9      1.707      2.618
REMARK  1 active torsions:
REMARK  status: ('A' for Active; 'I' for Inactive)
REMARK    1  A    between atoms: C5_5  and  C6_6 
ROOT
HETATM    1  C1  UNL     1     -35.644  18.620  -2.722  1.00 20.00     0.086 C 
HETATM    2  C2  UNL     1     -34.417  18.100  -2.003  1.00 20.00     0.086 C 
HETATM    3  C5  UNL     1     -35.348  16.023  -3.509  1.00 20.00     0.078 C 
HETATM    4  C7  UNL     1     -36.582  15.138  -3.342  1.00 20.00     0.041 C 
HETATM    5  S9  UNL     1     -35.853  17.633  -4.225  1.00 20.00    -0.145 SA
HETATM    6  S10 UNL     1     -34.588  16.304  -1.864  1.00 20.00    -0.145 SA
ENDROOT
BRANCH   3   7
HETATM    7  C6  UNL     1     -34.319  15.369  -4.432  1.00 20.00     0.078 C 
HETATM    8  C8  UNL     1     -32.999  15.121  -3.702  1.00 20.00     0.041 C 
HETATM    9  S11 UNL     1     -34.019  16.475  -5.864  1.00 20.00    -0.145 SA
HETATM   10  C3  UNL     1     -34.207  15.219  -7.155  1.00 20.00     0.086 C 
HETATM   11  C4  UNL     1     -35.325  14.292  -6.728  1.00 20.00     0.086 C 
HETATM   12  S12 UNL     1     -34.978  13.767  -5.032  1.00 20.00    -0.145 SA
ENDBRANCH   3   7
TORSDOF 1
ENDMDL
