MODEL 1
REMARK VINA RESULT:      -5.2      0.000      0.000
REMARK  0 active torsions:
REMARK  status: ('A' for Active; 'I' for Inactive)
ROOT
HETATM    1  C1  UNL     1     -33.599   5.763   2.836  1.00 20.00     0.053 A 
HETATM    2  C2  UNL     1     -34.349   5.642   3.933  1.00 20.00    -0.072 A 
HETATM    3  C3  UNL     1     -32.633   6.828   3.137  1.00 20.00     0.150 A 
HETATM    4  C4  UNL     1     -35.433   4.646   4.176  1.00 20.00     0.034 C 
HETATM    5  C5  UNL     1     -32.800   7.366   4.532  1.00 20.00     0.092 A 
HETATM    6  C6  UNL     1     -35.167   3.888   5.480  1.00 20.00     0.004 C 
HETATM    7  C7  UNL     1     -34.872   4.832   6.652  1.00 20.00     0.001 C 
HETATM    8  C8  UNL     1     -33.721   5.793   6.332  1.00 20.00     0.009 C 
HETATM    9  C9  UNL     1     -34.005   6.583   5.053  1.00 20.00     0.022 A 
HETATM   10  O10 UNL     1     -31.793   7.212   2.338  1.00 20.00    -0.293 OA
ENDROOT
TORSDOF 0
ENDMDL
MODEL 2
REMARK VINA RESULT:      -4.8     11.576     13.350
REMARK  0 active torsions:
REMARK  status: ('A' for Active; 'I' for Inactive)
ROOT
HETATM    1  C1  UNL     1     -34.352  14.746  -5.586  1.00 20.00     0.053 A 
HETATM    2  C2  UNL     1     -33.784  15.726  -4.879  1.00 20.00    -0.072 A 
HETATM    3  C3  UNL     1     -34.374  13.581  -4.692  1.00 20.00     0.150 A 
HETATM    4  C4  UNL     1     -33.591  17.145  -5.302  1.00 20.00     0.034 C 
HETATM    5  C5  UNL     1     -33.801  13.895  -3.337  1.00 20.00     0.092 A 
HETATM    6  C6  UNL     1     -34.192  18.090  -4.259  1.00 20.00     0.004 C 
HETATM    7  C7  UNL     1     -33.723  17.762  -2.836  1.00 20.00     0.001 C 
HETATM    8  C8  UNL     1     -33.996  16.299  -2.470  1.00 20.00     0.009 C 
HETATM    9  C9  UNL     1     -33.358  15.350  -3.488  1.00 20.00     0.022 A 
HETATM   10  O10 UNL     1     -34.819  12.493  -5.025  1.00 20.00    -0.293 OA
ENDROOT
TORSDOF 0
ENDMDL
MODEL 3
REMARK VINA RESULT:      -4.8     11.748     12.926
REMARK  0 active torsions:
REMARK  status: ('A' for Active; 'I' for Inactive)
ROOT
HETATM    1  C1  UNL     1     -33.873  14.246  -3.568  1.00 20.00     0.053 A 
HETATM    2  C2  UNL     1     -34.448  15.306  -2.995  1.00 20.00    -0.072 A 
HETATM    3  C3  UNL     1     -34.963  13.528  -4.242  1.00 20.00     0.150 A 
HETATM    4  C4  UNL     1     -33.766  16.402  -2.245  1.00 20.00     0.034 C 
HETATM    5  C5  UNL     1     -36.286  14.226  -4.084  1.00 20.00     0.092 A 
HETATM    6  C6  UNL     1     -34.153  17.761  -2.836  1.00 20.00     0.004 C 
HETATM    7  C7  UNL     1     -35.670  17.919  -2.991  1.00 20.00     0.001 C 
HETATM    8  C8  UNL     1     -36.281  16.773  -3.806  1.00 20.00     0.009 C 
HETATM    9  C9  UNL     1     -35.933  15.416  -3.191  1.00 20.00     0.022 A 
HETATM   10  O10 UNL     1     -34.793  12.489  -4.863  1.00 20.00    -0.293 OA
ENDROOT
TORSDOF 0
ENDMDL
MODEL 4
REMARK VINA RESULT:      -4.8      2.144      4.118
REMARK  0 active torsions:
REMARK  status: ('A' for Active; 'I' for Inactive)
ROOT
HETATM    1  C1  UNL     1     -34.041   5.801   6.223  1.00 20.00     0.053 A 
HETATM    2  C2  UNL     1     -33.750   6.433   5.084  1.00 20.00    -0.072 A 
HETATM    3  C3  UNL     1     -35.035   4.782   5.862  1.00 20.00     0.150 A 
HETATM    4  C4  UNL     1     -32.735   7.510   4.886  1.00 20.00     0.034 C 
HETATM    5  C5  UNL     1     -35.341   4.784   4.390  1.00 20.00     0.092 A 
HETATM    6  C6  UNL     1     -31.774   7.125   3.759  1.00 20.00     0.004 C 
HETATM    7  C7  UNL     1     -32.512   6.682   2.489  1.00 20.00     0.001 C 
HETATM    8  C8  UNL     1     -33.503   5.547   2.775  1.00 20.00     0.009 C 
HETATM    9  C9  UNL     1     -34.493   5.946   3.872  1.00 20.00     0.022 A 
HETATM   10  O10 UNL     1     -35.537   4.022   6.677  1.00 20.00    -0.293 OA
ENDROOT
TORSDOF 0
ENDMDL
MODEL 5
REMARK VINA RESULT:      -4.5     11.845     13.444
REMARK  0 active torsions:
REMARK  status: ('A' for Active; 'I' for Inactive)
ROOT
HETATM    1  C1  UNL     1     -33.814  16.166  -2.628  1.00 20.00     0.053 A 
HETATM    2  C2  UNL     1     -33.768  15.323  -3.662  1.00 20.00    -0.072 A 
HETATM    3  C3  UNL     1     -33.709  17.509  -3.213  1.00 20.00     0.150 A 
HETATM    4  C4  UNL     1     -33.911  13.838  -3.619  1.00 20.00     0.034 C 
HETATM    5  C5  UNL     1     -33.622  17.468  -4.714  1.00 20.00     0.092 A 
HETATM    6  C6  UNL     1     -35.014  13.388  -4.580  1.00 20.00     0.004 C 
HETATM    7  C7  UNL     1     -34.846  13.989  -5.982  1.00 20.00     0.001 C 
HETATM    8  C8  UNL     1     -34.748  15.518  -5.937  1.00 20.00     0.009 C 
HETATM    9  C9  UNL     1     -33.616  15.969  -5.010  1.00 20.00     0.022 A 
HETATM   10  O10 UNL     1     -33.705  18.530  -2.542  1.00 20.00    -0.293 OA
ENDROOT
TORSDOF 0
ENDMDL
MODEL 6
REMARK VINA RESULT:      -4.5      9.345     10.758
REMARK  0 active torsions:
REMARK  status: ('A' for Active; 'I' for Inactive)
ROOT
HETATM    1  C1  UNL     1     -40.808   3.903  -1.658  1.00 20.00     0.053 A 
HETATM    2  C2  UNL     1     -41.453   5.001  -1.260  1.00 20.00    -0.072 A 
HETATM    3  C3  UNL     1     -41.652   3.312  -2.705  1.00 20.00     0.150 A 
HETATM    4  C4  UNL     1     -40.984   6.008  -0.262  1.00 20.00     0.034 C 
HETATM    5  C5  UNL     1     -42.882   4.135  -2.974  1.00 20.00     0.092 A 
HETATM    6  C6  UNL     1     -41.021   7.411  -0.873  1.00 20.00     0.004 C 
HETATM    7  C7  UNL     1     -42.371   7.723  -1.532  1.00 20.00     0.001 C 
HETATM    8  C8  UNL     1     -42.755   6.662  -2.570  1.00 20.00     0.009 C 
HETATM    9  C9  UNL     1     -42.762   5.264  -1.949  1.00 20.00     0.022 A 
HETATM   10  O10 UNL     1     -41.366   2.276  -3.286  1.00 20.00    -0.293 OA
ENDROOT
TORSDOF 0
ENDMDL
MODEL 7
REMARK VINA RESULT:      -4.4     11.812     13.442
REMARK  0 active torsions:
REMARK  status: ('A' for Active; 'I' for Inactive)
ROOT
HETATM    1  C1  UNL     1     -34.773  14.759  -2.898  1.00 20.00     0.053 A 
HETATM    2  C2  UNL     1     -34.284  14.773  -4.140  1.00 20.00    -0.072 A 
HETATM    3  C3  UNL     1     -34.369  16.040  -2.304  1.00 20.00     0.150 A 
HETATM    4  C4  UNL     1     -34.479  13.734  -5.195  1.00 20.00     0.034 C 
HETATM    5  C5  UNL     1     -33.604  16.898  -3.274  1.00 20.00     0.092 A 
HETATM    6  C6  UNL     1     -35.031  14.378  -6.470  1.00 20.00     0.004 C 
HETATM    7  C7  UNL     1     -34.219  15.605  -6.902  1.00 20.00     0.001 C 
HETATM    8  C8  UNL     1     -34.103  16.636  -5.774  1.00 20.00     0.009 C 
HETATM    9  C9  UNL     1     -33.510  16.006  -4.512  1.00 20.00     0.022 A 
HETATM   10  O10 UNL     1     -34.640  16.358  -1.156  1.00 20.00    -0.293 OA
ENDROOT
TORSDOF 0
ENDMDL
MODEL 8
REMARK VINA RESULT:      -4.4     11.733     12.757
REMARK  0 active torsions:
REMARK  status: ('A' for Active; 'I' for Inactive)
ROOT
HETATM    1  C1  UNL     1     -34.002  16.574  -1.943  1.00 20.00     0.053 A 
HETATM    2  C2  UNL     1     -34.034  15.825  -3.047  1.00 20.00    -0.072 A 
HETATM    3  C3  UNL     1     -35.357  17.123  -1.802  1.00 20.00     0.150 A 
HETATM    4  C4  UNL     1     -32.930  14.984  -3.596  1.00 20.00     0.034 C 
HETATM    5  C5  UNL     1     -36.279  16.643  -2.890  1.00 20.00     0.092 A 
HETATM    6  C6  UNL     1     -33.418  13.548  -3.805  1.00 20.00     0.004 C 
HETATM    7  C7  UNL     1     -34.736  13.488  -4.586  1.00 20.00     0.001 C 
HETATM    8  C8  UNL     1     -35.825  14.346  -3.932  1.00 20.00     0.009 C 
HETATM    9  C9  UNL     1     -35.355  15.793  -3.763  1.00 20.00     0.022 A 
HETATM   10  O10 UNL     1     -35.682  17.874  -0.894  1.00 20.00    -0.293 OA
ENDROOT
TORSDOF 0
ENDMDL
MODEL 9
REMARK VINA RESULT:      -4.4     12.352     13.753
REMARK  0 active torsions:
REMARK  status: ('A' for Active; 'I' for Inactive)
ROOT
HETATM    1  C1  UNL     1     -34.440  15.869  -6.568  1.00 20.00     0.053 A 
HETATM    2  C2  UNL     1     -33.932  15.910  -5.334  1.00 20.00    -0.072 A 
HETATM    3  C3  UNL     1     -34.997  14.519  -6.718  1.00 20.00     0.150 A 
HETATM    4  C4  UNL     1     -33.313  17.086  -4.655  1.00 20.00     0.034 C 
HETATM    5  C5  UNL     1     -34.836  13.697  -5.468  1.00 20.00     0.092 A 
HETATM    6  C6  UNL     1     -33.999  17.336  -3.309  1.00 20.00     0.004 C 
HETATM    7  C7  UNL     1     -34.093  16.063  -2.458  1.00 20.00     0.001 C 
HETATM    8  C8  UNL     1     -34.777  14.921  -3.217  1.00 20.00     0.009 C 
HETATM    9  C9  UNL     1     -34.065  14.640  -4.543  1.00 20.00     0.022 A 
HETATM   10  O10 UNL     1     -35.534  14.129  -7.744  1.00 20.00    -0.293 OA
ENDROOT
TORSDOF 0
ENDMDL
