MODEL 1
REMARK VINA RESULT:      -5.1      0.000      0.000
REMARK  2 active torsions:
REMARK  status: ('A' for Active; 'I' for Inactive)
REMARK    1  A    between atoms: C9_9  and  C11_11 
REMARK    2  A    between atoms: C10_10  and  C11_11 
ROOT
HETATM    1  C6  UNL     1     -34.606  16.347  -1.366  1.00 20.00     0.207 A 
HETATM    2  C11 UNL     1     -34.551  15.778  -2.763  1.00 20.00     0.089 A 
HETATM    3  O12 UNL     1     -34.162  17.129  -2.487  1.00 20.00    -0.374 OA
ENDROOT
BRANCH   2   4
HETATM    4  C9  UNL     1     -35.805  15.628  -3.591  1.00 20.00     0.023 C 
HETATM    5  C2  UNL     1     -35.635  16.438  -4.891  1.00 20.00     0.012 C 
HETATM    6  C7  UNL     1     -34.390  15.951  -5.659  1.00 20.00    -0.013 C 
HETATM    7  C1  UNL     1     -34.552  14.458  -5.994  1.00 20.00     0.009 C 
HETATM    8  C3  UNL     1     -33.143  16.140  -4.770  1.00 20.00     0.012 C 
HETATM    9  C8  UNL     1     -34.712  13.639  -4.701  1.00 20.00    -0.013 C 
HETATM   10  C4  UNL     1     -35.960  14.134  -3.939  1.00 20.00     0.012 C 
HETATM   11  C5  UNL     1     -33.462  13.836  -3.818  1.00 20.00     0.012 C 
HETATM   12  C10 UNL     1     -33.294  15.328  -3.470  1.00 20.00     0.023 C 
ENDBRANCH   2   4
TORSDOF 2
ENDMDL
MODEL 2
REMARK VINA RESULT:      -5.0      1.308      2.777
REMARK  2 active torsions:
REMARK  status: ('A' for Active; 'I' for Inactive)
REMARK    1  A    between atoms: C9_9  and  C11_11 
REMARK    2  A    between atoms: C10_10  and  C11_11 
ROOT
HETATM    1  C6  UNL     1     -36.640  17.391  -5.066  1.00 20.00     0.207 A 
HETATM    2  C11 UNL     1     -35.663  16.281  -4.764  1.00 20.00     0.089 A 
HETATM    3  O12 UNL     1     -36.670  16.141  -5.773  1.00 20.00    -0.374 OA
ENDROOT
BRANCH   2   4
HETATM    4  C9  UNL     1     -35.842  15.397  -3.553  1.00 20.00     0.023 C 
HETATM    5  C2  UNL     1     -35.894  13.930  -4.019  1.00 20.00     0.012 C 
HETATM    6  C7  UNL     1     -34.607  13.575  -4.792  1.00 20.00    -0.013 C 
HETATM    7  C1  UNL     1     -33.390  13.786  -3.876  1.00 20.00     0.009 C 
HETATM    8  C3  UNL     1     -34.486  14.499  -6.021  1.00 20.00     0.012 C 
HETATM    9  C8  UNL     1     -33.324  15.252  -3.413  1.00 20.00    -0.013 C 
HETATM   10  C4  UNL     1     -34.615  15.599  -2.641  1.00 20.00     0.012 C 
HETATM   11  C5  UNL     1     -33.204  16.169  -4.648  1.00 20.00     0.012 C 
HETATM   12  C10 UNL     1     -34.424  15.971  -5.570  1.00 20.00     0.023 C 
ENDBRANCH   2   4
TORSDOF 2
ENDMDL
MODEL 3
REMARK VINA RESULT:      -5.0      0.828      2.630
REMARK  2 active torsions:
REMARK  status: ('A' for Active; 'I' for Inactive)
REMARK    1  A    between atoms: C9_9  and  C11_11 
REMARK    2  A    between atoms: C10_10  and  C11_11 
ROOT
HETATM    1  C6  UNL     1     -36.682  17.272  -5.270  1.00 20.00     0.207 A 
HETATM    2  C11 UNL     1     -35.667  16.275  -4.766  1.00 20.00     0.089 A 
HETATM    3  O12 UNL     1     -35.750  17.599  -4.225  1.00 20.00    -0.374 OA
ENDROOT
BRANCH   2   4
HETATM    4  C9  UNL     1     -34.411  15.981  -5.551  1.00 20.00     0.023 C 
HETATM    5  C2  UNL     1     -33.196  16.164  -4.621  1.00 20.00     0.012 C 
HETATM    6  C7  UNL     1     -33.325  15.238  -3.395  1.00 20.00    -0.013 C 
HETATM    7  C1  UNL     1     -33.402  13.776  -3.868  1.00 20.00     0.009 C 
HETATM    8  C3  UNL     1     -34.616  15.593  -2.628  1.00 20.00     0.012 C 
HETATM    9  C8  UNL     1     -34.618  13.581  -4.790  1.00 20.00    -0.013 C 
HETATM   10  C4  UNL     1     -34.481  14.511  -6.014  1.00 20.00     0.012 C 
HETATM   11  C5  UNL     1     -35.904  13.940  -4.016  1.00 20.00     0.012 C 
HETATM   12  C10 UNL     1     -35.841  15.406  -3.543  1.00 20.00     0.023 C 
ENDBRANCH   2   4
TORSDOF 2
ENDMDL
MODEL 4
REMARK VINA RESULT:      -4.9      1.573      3.437
REMARK  2 active torsions:
REMARK  status: ('A' for Active; 'I' for Inactive)
REMARK    1  A    between atoms: C9_9  and  C11_11 
REMARK    2  A    between atoms: C10_10  and  C11_11 
ROOT
HETATM    1  C6  UNL     1     -34.777  14.618  -7.435  1.00 20.00     0.207 A 
HETATM    2  C11 UNL     1     -34.746  14.882  -5.949  1.00 20.00     0.089 A 
HETATM    3  O12 UNL     1     -35.981  14.736  -6.660  1.00 20.00    -0.374 OA
ENDROOT
BRANCH   2   4
HETATM    4  C9  UNL     1     -34.475  16.267  -5.412  1.00 20.00     0.023 C 
HETATM    5  C2  UNL     1     -35.655  16.686  -4.515  1.00 20.00     0.012 C 
HETATM    6  C7  UNL     1     -35.841  15.664  -3.374  1.00 20.00    -0.013 C 
HETATM    7  C1  UNL     1     -34.551  15.597  -2.539  1.00 20.00     0.009 C 
HETATM    8  C3  UNL     1     -36.126  14.275  -3.982  1.00 20.00     0.012 C 
HETATM    9  C8  UNL     1     -33.368  15.170  -3.425  1.00 20.00    -0.013 C 
HETATM   10  C4  UNL     1     -33.190  16.197  -4.563  1.00 20.00     0.012 C 
HETATM   11  C5  UNL     1     -33.662  13.781  -4.030  1.00 20.00     0.012 C 
HETATM   12  C10 UNL     1     -34.950  13.839  -4.876  1.00 20.00     0.023 C 
ENDBRANCH   2   4
TORSDOF 2
ENDMDL
MODEL 5
REMARK VINA RESULT:      -4.9      1.604      3.087
REMARK  2 active torsions:
REMARK  status: ('A' for Active; 'I' for Inactive)
REMARK    1  A    between atoms: C9_9  and  C11_11 
REMARK    2  A    between atoms: C10_10  and  C11_11 
ROOT
HETATM    1  C6  UNL     1     -37.913  14.906  -4.688  1.00 20.00     0.207 A 
HETATM    2  C11 UNL     1     -36.421  15.046  -4.509  1.00 20.00     0.089 A 
HETATM    3  O12 UNL     1     -37.188  14.127  -3.723  1.00 20.00    -0.374 OA
ENDROOT
BRANCH   2   4
HETATM    4  C9  UNL     1     -35.836  16.210  -3.746  1.00 20.00     0.023 C 
HETATM    5  C2  UNL     1     -34.944  15.660  -2.617  1.00 20.00     0.012 C 
HETATM    6  C7  UNL     1     -33.840  14.759  -3.207  1.00 20.00    -0.013 C 
HETATM    7  C1  UNL     1     -32.987  15.579  -4.190  1.00 20.00     0.009 C 
HETATM    8  C3  UNL     1     -34.496  13.584  -3.962  1.00 20.00     0.012 C 
HETATM    9  C8  UNL     1     -33.867  16.125  -5.327  1.00 20.00    -0.013 C 
HETATM   10  C4  UNL     1     -34.969  17.025  -4.728  1.00 20.00     0.012 C 
HETATM   11  C5  UNL     1     -34.521  14.944  -6.075  1.00 20.00     0.012 C 
HETATM   12  C10 UNL     1     -35.385  14.119  -5.100  1.00 20.00     0.023 C 
ENDBRANCH   2   4
TORSDOF 2
ENDMDL
MODEL 6
REMARK VINA RESULT:      -4.8      1.604      3.417
REMARK  2 active torsions:
REMARK  status: ('A' for Active; 'I' for Inactive)
REMARK    1  A    between atoms: C9_9  and  C11_11 
REMARK    2  A    between atoms: C10_10  and  C11_11 
ROOT
HETATM    1  C6  UNL     1     -35.502  14.646  -7.381  1.00 20.00     0.207 A 
HETATM    2  C11 UNL     1     -35.134  14.968  -5.953  1.00 20.00     0.089 A 
HETATM    3  O12 UNL     1     -34.133  14.736  -6.952  1.00 20.00    -0.374 OA
ENDROOT
BRANCH   2   4
HETATM    4  C9  UNL     1     -35.218  13.915  -4.873  1.00 20.00     0.023 C 
HETATM    5  C2  UNL     1     -33.837  13.789  -4.202  1.00 20.00     0.012 C 
HETATM    6  C7  UNL     1     -33.400  15.152  -3.629  1.00 20.00    -0.013 C 
HETATM    7  C1  UNL     1     -34.438  15.625  -2.596  1.00 20.00     0.009 C 
HETATM    8  C3  UNL     1     -33.320  16.180  -4.777  1.00 20.00     0.012 C 
HETATM    9  C8  UNL     1     -35.820  15.764  -3.260  1.00 20.00    -0.013 C 
HETATM   10  C4  UNL     1     -36.248  14.395  -3.831  1.00 20.00     0.012 C 
HETATM   11  C5  UNL     1     -35.730  16.792  -4.407  1.00 20.00     0.012 C 
HETATM   12  C10 UNL     1     -34.697  16.324  -5.452  1.00 20.00     0.023 C 
ENDBRANCH   2   4
TORSDOF 2
ENDMDL
MODEL 7
REMARK VINA RESULT:      -4.8      1.254      2.405
REMARK  2 active torsions:
REMARK  status: ('A' for Active; 'I' for Inactive)
REMARK    1  A    between atoms: C9_9  and  C11_11 
REMARK    2  A    between atoms: C10_10  and  C11_11 
ROOT
HETATM    1  C6  UNL     1     -33.681  18.073  -4.837  1.00 20.00     0.207 A 
HETATM    2  C11 UNL     1     -34.230  16.690  -4.582  1.00 20.00     0.089 A 
HETATM    3  O12 UNL     1     -32.897  16.892  -5.067  1.00 20.00    -0.374 OA
ENDROOT
BRANCH   2   4
HETATM    4  C9  UNL     1     -35.176  16.037  -5.562  1.00 20.00     0.023 C 
HETATM    5  C2  UNL     1     -34.554  14.710  -6.035  1.00 20.00     0.012 C 
HETATM    6  C7  UNL     1     -34.274  13.795  -4.826  1.00 20.00    -0.013 C 
HETATM    7  C1  UNL     1     -35.593  13.516  -4.085  1.00 20.00     0.009 C 
HETATM    8  C3  UNL     1     -33.295  14.508  -3.870  1.00 20.00     0.012 C 
HETATM    9  C8  UNL     1     -36.217  14.836  -3.598  1.00 20.00    -0.013 C 
HETATM   10  C4  UNL     1     -36.493  15.745  -4.815  1.00 20.00     0.012 C 
HETATM   11  C5  UNL     1     -35.230  15.543  -2.645  1.00 20.00     0.012 C 
HETATM   12  C10 UNL     1     -33.907  15.834  -3.380  1.00 20.00     0.023 C 
ENDBRANCH   2   4
TORSDOF 2
ENDMDL
MODEL 8
REMARK VINA RESULT:      -4.7      0.635      2.588
REMARK  2 active torsions:
REMARK  status: ('A' for Active; 'I' for Inactive)
REMARK    1  A    between atoms: C9_9  and  C11_11 
REMARK    2  A    between atoms: C10_10  and  C11_11 
ROOT
HETATM    1  C6  UNL     1     -34.390  17.247  -1.893  1.00 20.00     0.207 A 
HETATM    2  C11 UNL     1     -34.514  16.261  -3.028  1.00 20.00     0.089 A 
HETATM    3  O12 UNL     1     -34.735  15.871  -1.667  1.00 20.00    -0.374 OA
ENDROOT
BRANCH   2   4
HETATM    4  C9  UNL     1     -33.287  15.663  -3.675  1.00 20.00     0.023 C 
HETATM    5  C2  UNL     1     -33.471  14.135  -3.759  1.00 20.00     0.012 C 
HETATM    6  C7  UNL     1     -34.749  13.799  -4.553  1.00 20.00    -0.013 C 
HETATM    7  C1  UNL     1     -34.635  14.387  -5.970  1.00 20.00     0.009 C 
HETATM    8  C3  UNL     1     -35.966  14.424  -3.839  1.00 20.00     0.012 C 
HETATM    9  C8  UNL     1     -34.462  15.914  -5.897  1.00 20.00    -0.013 C 
HETATM   10  C4  UNL     1     -33.181  16.241  -5.100  1.00 20.00     0.012 C 
HETATM   11  C5  UNL     1     -35.682  16.530  -5.181  1.00 20.00     0.012 C 
HETATM   12  C10 UNL     1     -35.801  15.953  -3.756  1.00 20.00     0.023 C 
ENDBRANCH   2   4
TORSDOF 2
ENDMDL
MODEL 9
REMARK VINA RESULT:      -4.6      1.150      2.630
REMARK  2 active torsions:
REMARK  status: ('A' for Active; 'I' for Inactive)
REMARK    1  A    between atoms: C9_9  and  C11_11 
REMARK    2  A    between atoms: C10_10  and  C11_11 
ROOT
HETATM    1  C6  UNL     1     -33.588  18.147  -4.772  1.00 20.00     0.207 A 
HETATM    2  C11 UNL     1     -34.202  16.782  -4.578  1.00 20.00     0.089 A 
HETATM    3  O12 UNL     1     -34.946  17.981  -4.333  1.00 20.00    -0.374 OA
ENDROOT
BRANCH   2   4
HETATM    4  C9  UNL     1     -33.891  15.958  -3.351  1.00 20.00     0.023 C 
HETATM    5  C2  UNL     1     -35.214  15.622  -2.637  1.00 20.00     0.012 C 
HETATM    6  C7  UNL     1     -36.158  14.871  -3.597  1.00 20.00    -0.013 C 
HETATM    7  C1  UNL     1     -35.477  13.574  -4.067  1.00 20.00     0.009 C 
HETATM    8  C3  UNL     1     -36.449  15.764  -4.821  1.00 20.00     0.012 C 
HETATM    9  C8  UNL     1     -34.159  13.899  -4.791  1.00 20.00    -0.013 C 
HETATM   10  C4  UNL     1     -33.221  14.651  -3.823  1.00 20.00     0.012 C 
HETATM   11  C5  UNL     1     -34.459  14.794  -6.012  1.00 20.00     0.012 C 
HETATM   12  C10 UNL     1     -35.135  16.101  -5.552  1.00 20.00     0.023 C 
ENDBRANCH   2   4
TORSDOF 2
ENDMDL
