MODEL 1
REMARK VINA RESULT:      -4.3      0.000      0.000
REMARK  0 active torsions:
REMARK  status: ('A' for Active; 'I' for Inactive)
ROOT
HETATM    1  C1  UNL     1     -40.790   4.637  -1.162  1.00 20.00     0.005 C 
HETATM    2  C2  UNL     1     -42.184   4.595  -1.804  1.00 20.00     0.008 C 
HETATM    3  C3  UNL     1     -42.394   5.512   0.362  1.00 20.00     0.012 C 
HETATM    4  C4  UNL     1     -40.992   7.102  -0.757  1.00 20.00     0.047 C 
HETATM    5  C5  UNL     1     -40.944   5.716  -0.078  1.00 20.00    -0.011 C 
HETATM    6  C6  UNL     1     -42.945   5.712  -1.059  1.00 20.00     0.025 C 
HETATM    7  C7  UNL     1     -42.392   7.118  -1.411  1.00 20.00     0.117 C 
HETATM    8 CL8  UNL     1     -42.315   7.441  -3.161  1.00 20.00    -0.101 Cl
HETATM    9 CL9  UNL     1     -43.417   8.394  -0.669  1.00 20.00    -0.101 Cl
ENDROOT
TORSDOF 0
ENDMDL
MODEL 2
REMARK VINA RESULT:      -4.2     11.401     12.296
REMARK  0 active torsions:
REMARK  status: ('A' for Active; 'I' for Inactive)
ROOT
HETATM    1  C1  UNL     1     -33.318  13.740  -3.721  1.00 20.00     0.005 C 
HETATM    2  C2  UNL     1     -34.619  13.362  -4.443  1.00 20.00     0.008 C 
HETATM    3  C3  UNL     1     -35.018  15.312  -3.172  1.00 20.00     0.012 C 
HETATM    4  C4  UNL     1     -33.353  16.029  -4.742  1.00 20.00     0.047 C 
HETATM    5  C5  UNL     1     -33.512  15.237  -3.425  1.00 20.00    -0.011 C 
HETATM    6  C6  UNL     1     -35.367  14.708  -4.541  1.00 20.00     0.025 C 
HETATM    7  C7  UNL     1     -34.654  15.693  -5.506  1.00 20.00     0.117 C 
HETATM    8 CL8  UNL     1     -34.331  15.010  -7.119  1.00 20.00    -0.101 Cl
HETATM    9 CL9  UNL     1     -35.649  17.173  -5.733  1.00 20.00    -0.101 Cl
ENDROOT
TORSDOF 0
ENDMDL
MODEL 3
REMARK VINA RESULT:      -4.2     11.434     12.411
REMARK  0 active torsions:
REMARK  status: ('A' for Active; 'I' for Inactive)
ROOT
HETATM    1  C1  UNL     1     -33.562  13.577  -3.903  1.00 20.00     0.005 C 
HETATM    2  C2  UNL     1     -32.750  14.840  -3.583  1.00 20.00     0.008 C 
HETATM    3  C3  UNL     1     -34.225  15.341  -5.357  1.00 20.00     0.012 C 
HETATM    4  C4  UNL     1     -35.717  14.810  -3.556  1.00 20.00     0.047 C 
HETATM    5  C5  UNL     1     -34.806  14.140  -4.609  1.00 20.00    -0.011 C 
HETATM    6  C6  UNL     1     -33.667  15.979  -4.076  1.00 20.00     0.025 C 
HETATM    7  C7  UNL     1     -34.947  16.104  -3.207  1.00 20.00     0.117 C 
HETATM    8 CL8  UNL     1     -34.619  16.244  -1.462  1.00 20.00    -0.101 Cl
HETATM    9 CL9  UNL     1     -35.894  17.550  -3.698  1.00 20.00    -0.101 Cl
ENDROOT
TORSDOF 0
ENDMDL
MODEL 4
REMARK VINA RESULT:      -4.1     11.027     12.161
REMARK  0 active torsions:
REMARK  status: ('A' for Active; 'I' for Inactive)
ROOT
HETATM    1  C1  UNL     1     -34.294  14.696  -5.834  1.00 20.00     0.005 C 
HETATM    2  C2  UNL     1     -34.710  13.641  -4.799  1.00 20.00     0.008 C 
HETATM    3  C3  UNL     1     -32.971  14.940  -3.871  1.00 20.00     0.012 C 
HETATM    4  C4  UNL     1     -34.721  16.546  -4.197  1.00 20.00     0.047 C 
HETATM    5  C5  UNL     1     -33.625  15.778  -4.969  1.00 20.00    -0.011 C 
HETATM    6  C6  UNL     1     -34.298  14.284  -3.459  1.00 20.00     0.025 C 
HETATM    7  C7  UNL     1     -35.168  15.526  -3.126  1.00 20.00     0.117 C 
HETATM    8 CL8  UNL     1     -36.920  15.210  -3.184  1.00 20.00    -0.101 Cl
HETATM    9 CL9  UNL     1     -34.781  16.134  -1.480  1.00 20.00    -0.101 Cl
ENDROOT
TORSDOF 0
ENDMDL
MODEL 5
REMARK VINA RESULT:      -4.1     11.435     12.581
REMARK  0 active torsions:
REMARK  status: ('A' for Active; 'I' for Inactive)
ROOT
HETATM    1  C1  UNL     1     -34.940  15.869  -2.442  1.00 20.00     0.005 C 
HETATM    2  C2  UNL     1     -33.500  15.723  -2.953  1.00 20.00     0.008 C 
HETATM    3  C3  UNL     1     -34.768  13.918  -3.793  1.00 20.00     0.012 C 
HETATM    4  C4  UNL     1     -35.833  15.823  -4.783  1.00 20.00     0.047 C 
HETATM    5  C5  UNL     1     -35.748  15.041  -3.454  1.00 20.00    -0.011 C 
HETATM    6  C6  UNL     1     -33.670  14.893  -4.243  1.00 20.00     0.025 C 
HETATM    7  C7  UNL     1     -34.402  15.695  -5.351  1.00 20.00     0.117 C 
HETATM    8 CL8  UNL     1     -33.667  17.282  -5.692  1.00 20.00    -0.101 Cl
HETATM    9 CL9  UNL     1     -34.417  14.764  -6.888  1.00 20.00    -0.101 Cl
ENDROOT
TORSDOF 0
ENDMDL
MODEL 6
REMARK VINA RESULT:      -4.1     10.844     11.944
REMARK  0 active torsions:
REMARK  status: ('A' for Active; 'I' for Inactive)
ROOT
HETATM    1  C1  UNL     1     -34.870  13.924  -6.003  1.00 20.00     0.005 C 
HETATM    2  C2  UNL     1     -35.476  15.331  -5.904  1.00 20.00     0.008 C 
HETATM    3  C3  UNL     1     -36.198  14.082  -4.035  1.00 20.00     0.012 C 
HETATM    4  C4  UNL     1     -33.820  14.159  -3.739  1.00 20.00     0.047 C 
HETATM    5  C5  UNL     1     -34.915  13.429  -4.548  1.00 20.00    -0.011 C 
HETATM    6  C6  UNL     1     -35.723  15.499  -4.390  1.00 20.00     0.025 C 
HETATM    7  C7  UNL     1     -34.392  15.588  -3.597  1.00 20.00     0.117 C 
HETATM    8 CL8  UNL     1     -33.270  16.827  -4.215  1.00 20.00    -0.101 Cl
HETATM    9 CL9  UNL     1     -34.719  15.965  -1.871  1.00 20.00    -0.101 Cl
ENDROOT
TORSDOF 0
ENDMDL
MODEL 7
REMARK VINA RESULT:      -4.1     11.117     12.142
REMARK  0 active torsions:
REMARK  status: ('A' for Active; 'I' for Inactive)
ROOT
HETATM    1  C1  UNL     1     -36.386  15.234  -5.244  1.00 20.00     0.005 C 
HETATM    2  C2  UNL     1     -36.364  14.504  -3.894  1.00 20.00     0.008 C 
HETATM    3  C3  UNL     1     -34.745  13.511  -5.296  1.00 20.00     0.012 C 
HETATM    4  C4  UNL     1     -33.941  15.758  -5.062  1.00 20.00     0.047 C 
HETATM    5  C5  UNL     1     -34.995  14.924  -5.824  1.00 20.00    -0.011 C 
HETATM    6  C6  UNL     1     -34.933  13.930  -3.830  1.00 20.00     0.025 C 
HETATM    7  C7  UNL     1     -33.869  15.051  -3.689  1.00 20.00     0.117 C 
HETATM    8 CL8  UNL     1     -34.181  16.170  -2.338  1.00 20.00    -0.101 Cl
HETATM    9 CL9  UNL     1     -32.240  14.336  -3.436  1.00 20.00    -0.101 Cl
ENDROOT
TORSDOF 0
ENDMDL
MODEL 8
REMARK VINA RESULT:      -4.0     11.963     12.950
REMARK  0 active torsions:
REMARK  status: ('A' for Active; 'I' for Inactive)
ROOT
HETATM    1  C1  UNL     1     -33.799  17.080  -2.357  1.00 20.00     0.005 C 
HETATM    2  C2  UNL     1     -34.702  15.863  -2.110  1.00 20.00     0.008 C 
HETATM    3  C3  UNL     1     -35.400  16.905  -4.109  1.00 20.00     0.012 C 
HETATM    4  C4  UNL     1     -33.162  16.215  -4.622  1.00 20.00     0.047 C 
HETATM    5  C5  UNL     1     -33.946  17.313  -3.870  1.00 20.00    -0.011 C 
HETATM    6  C6  UNL     1     -35.194  15.499  -3.526  1.00 20.00     0.025 C 
HETATM    7  C7  UNL     1     -34.041  14.960  -4.415  1.00 20.00     0.117 C 
HETATM    8 CL8  UNL     1     -33.135  13.616  -3.677  1.00 20.00    -0.101 Cl
HETATM    9 CL9  UNL     1     -34.687  14.380  -5.989  1.00 20.00    -0.101 Cl
ENDROOT
TORSDOF 0
ENDMDL
MODEL 9
REMARK VINA RESULT:      -4.0     11.280     12.460
REMARK  0 active torsions:
REMARK  status: ('A' for Active; 'I' for Inactive)
ROOT
HETATM    1  C1  UNL     1     -34.868  14.564  -6.465  1.00 20.00     0.005 C 
HETATM    2  C2  UNL     1     -33.984  15.779  -6.152  1.00 20.00     0.008 C 
HETATM    3  C3  UNL     1     -36.012  16.018  -4.967  1.00 20.00     0.012 C 
HETATM    4  C4  UNL     1     -35.077  14.020  -4.027  1.00 20.00     0.047 C 
HETATM    5  C5  UNL     1     -35.838  14.530  -5.272  1.00 20.00    -0.011 C 
HETATM    6  C6  UNL     1     -34.505  16.245  -4.776  1.00 20.00     0.025 C 
HETATM    7  C7  UNL     1     -34.175  15.220  -3.659  1.00 20.00     0.117 C 
HETATM    8 CL8  UNL     1     -32.453  14.770  -3.582  1.00 20.00    -0.101 Cl
HETATM    9 CL9  UNL     1     -34.635  15.880  -2.052  1.00 20.00    -0.101 Cl
ENDROOT
TORSDOF 0
ENDMDL
