MODEL 1
REMARK VINA RESULT:      -4.9      0.000      0.000
REMARK  0 active torsions:
REMARK  status: ('A' for Active; 'I' for Inactive)
ROOT
HETATM    1  C1  UNL     1     -32.688   6.774   3.915  1.00 20.00    -0.089 C 
HETATM    2  C2  UNL     1     -31.823   7.647   3.371  1.00 20.00     0.014 C 
HETATM    3  C3  UNL     1     -32.982   5.469   3.219  1.00 20.00     0.033 C 
HETATM    4  C4  UNL     1     -33.330   7.086   5.249  1.00 20.00     0.033 C 
HETATM    5  C5  UNL     1     -34.409   5.312   2.693  1.00 20.00     0.004 C 
HETATM    6  C6  UNL     1     -33.497   5.904   6.211  1.00 20.00     0.004 C 
HETATM    7  C7  UNL     1     -35.539   5.345   3.723  1.00 20.00     0.000 C 
HETATM    8  C8  UNL     1     -34.893   5.273   6.214  1.00 20.00     0.000 C 
HETATM    9  C9  UNL     1     -35.302   4.486   4.967  1.00 20.00     0.000 C 
ENDROOT
TORSDOF 0
ENDMDL
MODEL 2
REMARK VINA RESULT:      -4.5     11.866     13.218
REMARK  0 active torsions:
REMARK  status: ('A' for Active; 'I' for Inactive)
ROOT
HETATM    1  C1  UNL     1     -34.528  15.724  -2.835  1.00 20.00    -0.089 C 
HETATM    2  C2  UNL     1     -34.593  16.215  -1.586  1.00 20.00     0.014 C 
HETATM    3  C3  UNL     1     -33.259  15.870  -3.638  1.00 20.00     0.033 C 
HETATM    4  C4  UNL     1     -35.714  14.986  -3.415  1.00 20.00     0.033 C 
HETATM    5  C5  UNL     1     -33.361  16.774  -4.867  1.00 20.00     0.004 C 
HETATM    6  C6  UNL     1     -35.391  13.759  -4.276  1.00 20.00     0.004 C 
HETATM    7  C7  UNL     1     -34.343  16.354  -5.962  1.00 20.00     0.000 C 
HETATM    8  C8  UNL     1     -35.406  14.016  -5.787  1.00 20.00     0.000 C 
HETATM    9  C9  UNL     1     -34.277  14.877  -6.356  1.00 20.00     0.000 C 
ENDROOT
TORSDOF 0
ENDMDL
MODEL 3
REMARK VINA RESULT:      -4.5      0.581      2.505
REMARK  0 active torsions:
REMARK  status: ('A' for Active; 'I' for Inactive)
ROOT
HETATM    1  C1  UNL     1     -32.898   6.750   3.903  1.00 20.00    -0.089 C 
HETATM    2  C2  UNL     1     -31.902   7.441   3.322  1.00 20.00     0.014 C 
HETATM    3  C3  UNL     1     -33.596   7.310   5.118  1.00 20.00     0.033 C 
HETATM    4  C4  UNL     1     -33.345   5.434   3.309  1.00 20.00     0.033 C 
HETATM    5  C5  UNL     1     -33.386   6.527   6.414  1.00 20.00     0.004 C 
HETATM    6  C6  UNL     1     -34.854   5.163   3.325  1.00 20.00     0.004 C 
HETATM    7  C7  UNL     1     -33.882   5.080   6.443  1.00 20.00     0.000 C 
HETATM    8  C8  UNL     1     -35.332   4.271   4.476  1.00 20.00     0.000 C 
HETATM    9  C9  UNL     1     -35.290   4.871   5.883  1.00 20.00     0.000 C 
ENDROOT
TORSDOF 0
ENDMDL
MODEL 4
REMARK VINA RESULT:      -4.4      8.768     10.600
REMARK  0 active torsions:
REMARK  status: ('A' for Active; 'I' for Inactive)
ROOT
HETATM    1  C1  UNL     1     -41.986   3.908  -2.379  1.00 20.00    -0.089 C 
HETATM    2  C2  UNL     1     -41.985   2.730  -3.026  1.00 20.00     0.014 C 
HETATM    3  C3  UNL     1     -43.178   4.826  -2.485  1.00 20.00     0.033 C 
HETATM    4  C4  UNL     1     -40.808   4.287  -1.509  1.00 20.00     0.033 C 
HETATM    5  C5  UNL     1     -42.927   6.147  -3.211  1.00 20.00     0.004 C 
HETATM    6  C6  UNL     1     -41.142   5.009  -0.198  1.00 20.00     0.004 C 
HETATM    7  C7  UNL     1     -41.893   7.094  -2.599  1.00 20.00     0.000 C 
HETATM    8  C8  UNL     1     -40.996   6.534  -0.252  1.00 20.00     0.000 C 
HETATM    9  C9  UNL     1     -42.022   7.300  -1.089  1.00 20.00     0.000 C 
ENDROOT
TORSDOF 0
ENDMDL
MODEL 5
REMARK VINA RESULT:      -4.4     11.745     13.333
REMARK  0 active torsions:
REMARK  status: ('A' for Active; 'I' for Inactive)
ROOT
HETATM    1  C1  UNL     1     -34.303  15.925  -3.318  1.00 20.00    -0.089 C 
HETATM    2  C2  UNL     1     -33.998  16.339  -2.077  1.00 20.00     0.014 C 
HETATM    3  C3  UNL     1     -35.598  15.194  -3.573  1.00 20.00     0.033 C 
HETATM    4  C4  UNL     1     -33.365  16.234  -4.464  1.00 20.00     0.033 C 
HETATM    5  C5  UNL     1     -35.455  13.732  -3.995  1.00 20.00     0.004 C 
HETATM    6  C6  UNL     1     -34.027  16.609  -5.796  1.00 20.00     0.004 C 
HETATM    7  C7  UNL     1     -34.710  13.453  -5.301  1.00 20.00     0.000 C 
HETATM    8  C8  UNL     1     -34.132  15.461  -6.805  1.00 20.00     0.000 C 
HETATM    9  C9  UNL     1     -35.120  14.339  -6.479  1.00 20.00     0.000 C 
ENDROOT
TORSDOF 0
ENDMDL
MODEL 6
REMARK VINA RESULT:      -4.3     11.949     13.435
REMARK  0 active torsions:
REMARK  status: ('A' for Active; 'I' for Inactive)
ROOT
HETATM    1  C1  UNL     1     -34.556  15.049  -6.252  1.00 20.00    -0.089 C 
HETATM    2  C2  UNL     1     -34.792  14.763  -7.543  1.00 20.00     0.014 C 
HETATM    3  C3  UNL     1     -34.437  13.935  -5.241  1.00 20.00     0.033 C 
HETATM    4  C4  UNL     1     -34.368  16.487  -5.823  1.00 20.00     0.033 C 
HETATM    5  C5  UNL     1     -35.544  13.882  -4.188  1.00 20.00     0.004 C 
HETATM    6  C6  UNL     1     -33.293  16.739  -4.759  1.00 20.00     0.004 C 
HETATM    7  C7  UNL     1     -35.683  15.091  -3.262  1.00 20.00     0.000 C 
HETATM    8  C8  UNL     1     -33.826  16.873  -3.329  1.00 20.00     0.000 C 
HETATM    9  C9  UNL     1     -34.369  15.604  -2.669  1.00 20.00     0.000 C 
ENDROOT
TORSDOF 0
ENDMDL
MODEL 7
REMARK VINA RESULT:      -4.3     11.803     13.408
REMARK  0 active torsions:
REMARK  status: ('A' for Active; 'I' for Inactive)
ROOT
HETATM    1  C1  UNL     1     -33.697  16.827  -5.305  1.00 20.00    -0.089 C 
HETATM    2  C2  UNL     1     -33.555  18.140  -5.554  1.00 20.00     0.014 C 
HETATM    3  C3  UNL     1     -33.988  15.873  -6.436  1.00 20.00     0.033 C 
HETATM    4  C4  UNL     1     -33.520  16.306  -3.897  1.00 20.00     0.033 C 
HETATM    5  C5  UNL     1     -35.362  15.203  -6.393  1.00 20.00     0.004 C 
HETATM    6  C6  UNL     1     -32.799  14.960  -3.761  1.00 20.00     0.004 C 
HETATM    7  C7  UNL     1     -35.667  14.314  -5.186  1.00 20.00     0.000 C 
HETATM    8  C8  UNL     1     -33.726  13.751  -3.592  1.00 20.00     0.000 C 
HETATM    9  C9  UNL     1     -34.553  13.335  -4.809  1.00 20.00     0.000 C 
ENDROOT
TORSDOF 0
ENDMDL
MODEL 8
REMARK VINA RESULT:      -4.2     11.535     12.719
REMARK  0 active torsions:
REMARK  status: ('A' for Active; 'I' for Inactive)
ROOT
HETATM    1  C1  UNL     1     -36.082  16.106  -3.261  1.00 20.00    -0.089 C 
HETATM    2  C2  UNL     1     -36.999  17.074  -3.093  1.00 20.00     0.014 C 
HETATM    3  C3  UNL     1     -35.021  15.882  -2.212  1.00 20.00     0.033 C 
HETATM    4  C4  UNL     1     -36.144  15.216  -4.482  1.00 20.00     0.033 C 
HETATM    5  C5  UNL     1     -33.589  16.194  -2.648  1.00 20.00     0.004 C 
HETATM    6  C6  UNL     1     -35.811  13.736  -4.256  1.00 20.00     0.004 C 
HETATM    7  C7  UNL     1     -33.020  15.374  -3.807  1.00 20.00     0.000 C 
HETATM    8  C8  UNL     1     -34.375  13.341  -4.617  1.00 20.00     0.000 C 
HETATM    9  C9  UNL     1     -33.261  13.866  -3.710  1.00 20.00     0.000 C 
ENDROOT
TORSDOF 0
ENDMDL
MODEL 9
REMARK VINA RESULT:      -4.2     12.004     13.806
REMARK  0 active torsions:
REMARK  status: ('A' for Active; 'I' for Inactive)
ROOT
HETATM    1  C1  UNL     1     -34.472  16.492  -6.255  1.00 20.00    -0.089 C 
HETATM    2  C2  UNL     1     -34.436  17.470  -7.175  1.00 20.00     0.014 C 
HETATM    3  C3  UNL     1     -34.713  16.828  -4.805  1.00 20.00     0.033 C 
HETATM    4  C4  UNL     1     -34.315  15.050  -6.686  1.00 20.00     0.033 C 
HETATM    5  C5  UNL     1     -33.538  16.560  -3.864  1.00 20.00     0.004 C 
HETATM    6  C6  UNL     1     -35.198  14.028  -5.960  1.00 20.00     0.004 C 
HETATM    7  C7  UNL     1     -33.057  15.113  -3.744  1.00 20.00     0.000 C 
HETATM    8  C8  UNL     1     -34.504  13.276  -4.821  1.00 20.00     0.000 C 
HETATM    9  C9  UNL     1     -34.168  14.078  -3.562  1.00 20.00     0.000 C 
ENDROOT
TORSDOF 0
ENDMDL
