MODEL 1
REMARK VINA RESULT:      -4.5      0.000      0.000
REMARK  2 active torsions:
REMARK  status: ('A' for Active; 'I' for Inactive)
REMARK    1  A    between atoms: C1_1  and  C3_3 
REMARK    2  A    between atoms: C2_2  and  C5_5 
ROOT
HETATM    1  C1  UNL     1     -33.333   6.620   3.333  1.00 20.00     0.003 C 
HETATM    2  C2  UNL     1     -32.181   7.281   3.166  1.00 20.00     0.041 C 
ENDROOT
BRANCH   1   3
HETATM    3  C3  UNL     1     -33.608   5.814   4.502  1.00 20.00    -0.004 C 
HETATM    4  C4  UNL     1     -34.767   5.166   4.690  1.00 20.00    -0.031 C 
HETATM    5  C6  UNL     1     -35.065   4.332   5.893  1.00 20.00     0.036 C 
ENDBRANCH   1   3
BRANCH   2   6
HETATM    6  C5  UNL     1     -31.987   8.080   1.940  1.00 20.00     0.258 C 
HETATM    7  O7  UNL     1     -32.399   9.230   1.845  1.00 20.00    -0.302 OA
ENDBRANCH   2   6
TORSDOF 2
ENDMDL
MODEL 2
REMARK VINA RESULT:      -4.3      2.453      4.611
REMARK  2 active torsions:
REMARK  status: ('A' for Active; 'I' for Inactive)
REMARK    1  A    between atoms: C1_1  and  C3_3 
REMARK    2  A    between atoms: C2_2  and  C5_5 
ROOT
HETATM    1  C1  UNL     1     -33.180   6.181   3.962  1.00 20.00     0.003 C 
HETATM    2  C2  UNL     1     -34.359   5.549   3.906  1.00 20.00     0.041 C 
ENDROOT
BRANCH   1   3
HETATM    3  C3  UNL     1     -32.502   6.673   2.783  1.00 20.00    -0.004 C 
HETATM    4  C4  UNL     1     -32.421   7.975   2.473  1.00 20.00    -0.031 C 
HETATM    5  C6  UNL     1     -31.724   8.497   1.259  1.00 20.00     0.036 C 
ENDBRANCH   1   3
BRANCH   2   6
HETATM    6  C5  UNL     1     -34.979   5.081   5.162  1.00 20.00     0.258 C 
HETATM    7  O7  UNL     1     -34.598   5.474   6.257  1.00 20.00    -0.302 OA
ENDBRANCH   2   6
TORSDOF 2
ENDMDL
MODEL 3
REMARK VINA RESULT:      -4.1     10.836     11.255
REMARK  2 active torsions:
REMARK  status: ('A' for Active; 'I' for Inactive)
REMARK    1  A    between atoms: C1_1  and  C3_3 
REMARK    2  A    between atoms: C2_2  and  C5_5 
ROOT
HETATM    1  C1  UNL     1     -33.724  15.658  -3.217  1.00 20.00     0.003 C 
HETATM    2  C2  UNL     1     -34.478  14.554  -3.295  1.00 20.00     0.041 C 
ENDROOT
BRANCH   1   3
HETATM    3  C3  UNL     1     -33.803  16.579  -2.105  1.00 20.00    -0.004 C 
HETATM    4  C4  UNL     1     -34.686  16.448  -1.105  1.00 20.00    -0.031 C 
HETATM    5  C6  UNL     1     -34.779  17.392   0.049  1.00 20.00     0.036 C 
ENDBRANCH   1   3
BRANCH   2   6
HETATM    6  C5  UNL     1     -34.330  13.669  -4.468  1.00 20.00     0.258 C 
HETATM    7  O7  UNL     1     -34.950  12.617  -4.567  1.00 20.00    -0.302 OA
ENDBRANCH   2   6
TORSDOF 2
ENDMDL
MODEL 4
REMARK VINA RESULT:      -3.6     11.348     11.977
REMARK  2 active torsions:
REMARK  status: ('A' for Active; 'I' for Inactive)
REMARK    1  A    between atoms: C1_1  and  C3_3 
REMARK    2  A    between atoms: C2_2  and  C5_5 
ROOT
HETATM    1  C1  UNL     1     -34.192  17.346  -0.568  1.00 20.00     0.003 C 
HETATM    2  C2  UNL     1     -33.135  18.080  -0.940  1.00 20.00     0.041 C 
ENDROOT
BRANCH   1   3
HETATM    3  C3  UNL     1     -34.751  16.303  -1.399  1.00 20.00    -0.004 C 
HETATM    4  C4  UNL     1     -34.157  15.860  -2.517  1.00 20.00    -0.031 C 
HETATM    5  C6  UNL     1     -34.723  14.784  -3.385  1.00 20.00     0.036 C 
ENDBRANCH   1   3
BRANCH   2   6
HETATM    6  C5  UNL     1     -32.632  19.124  -0.026  1.00 20.00     0.258 C 
HETATM    7  O7  UNL     1     -31.437  19.261   0.204  1.00 20.00    -0.302 OA
ENDBRANCH   2   6
TORSDOF 2
ENDMDL
MODEL 5
REMARK VINA RESULT:      -3.5     10.867     11.650
REMARK  2 active torsions:
REMARK  status: ('A' for Active; 'I' for Inactive)
REMARK    1  A    between atoms: C1_1  and  C3_3 
REMARK    2  A    between atoms: C2_2  and  C5_5 
ROOT
HETATM    1  C1  UNL     1     -34.841  16.033  -1.626  1.00 20.00     0.003 C 
HETATM    2  C2  UNL     1     -34.088  15.597  -2.643  1.00 20.00     0.041 C 
ENDROOT
BRANCH   1   3
HETATM    3  C3  UNL     1     -34.414  17.089  -0.735  1.00 20.00    -0.004 C 
HETATM    4  C4  UNL     1     -33.312  17.825  -0.944  1.00 20.00    -0.031 C 
HETATM    5  C6  UNL     1     -32.860  18.918  -0.032  1.00 20.00     0.036 C 
ENDBRANCH   1   3
BRANCH   2   6
HETATM    6  C5  UNL     1     -34.605  14.514  -3.503  1.00 20.00     0.258 C 
HETATM    7  O7  UNL     1     -34.176  13.369  -3.428  1.00 20.00    -0.302 OA
ENDBRANCH   2   6
TORSDOF 2
ENDMDL
MODEL 6
REMARK VINA RESULT:      -3.5     11.450     11.931
REMARK  2 active torsions:
REMARK  status: ('A' for Active; 'I' for Inactive)
REMARK    1  A    between atoms: C1_1  and  C3_3 
REMARK    2  A    between atoms: C2_2  and  C5_5 
ROOT
HETATM    1  C1  UNL     1     -34.433  16.095  -1.930  1.00 20.00     0.003 C 
HETATM    2  C2  UNL     1     -33.660  16.677  -2.856  1.00 20.00     0.041 C 
ENDROOT
BRANCH   1   3
HETATM    3  C3  UNL     1     -34.707  16.703  -0.647  1.00 20.00    -0.004 C 
HETATM    4  C4  UNL     1     -33.998  17.730  -0.156  1.00 20.00    -0.031 C 
HETATM    5  C6  UNL     1     -34.270  18.367   1.168  1.00 20.00     0.036 C 
ENDBRANCH   1   3
BRANCH   2   6
HETATM    6  C5  UNL     1     -33.436  15.983  -4.139  1.00 20.00     0.258 C 
HETATM    7  O7  UNL     1     -32.864  16.525  -5.077  1.00 20.00    -0.302 OA
ENDBRANCH   2   6
TORSDOF 2
ENDMDL
MODEL 7
REMARK VINA RESULT:      -3.4     10.883     11.380
REMARK  2 active torsions:
REMARK  status: ('A' for Active; 'I' for Inactive)
REMARK    1  A    between atoms: C1_1  and  C3_3 
REMARK    2  A    between atoms: C2_2  and  C5_5 
ROOT
HETATM    1  C1  UNL     1     -34.256  16.403  -1.968  1.00 20.00     0.003 C 
HETATM    2  C2  UNL     1     -34.638  16.739  -0.729  1.00 20.00     0.041 C 
ENDROOT
BRANCH   1   3
HETATM    3  C3  UNL     1     -34.869  15.322  -2.708  1.00 20.00    -0.004 C 
HETATM    4  C4  UNL     1     -34.171  14.472  -3.476  1.00 20.00    -0.031 C 
HETATM    5  C6  UNL     1     -34.791  13.351  -4.246  1.00 20.00     0.036 C 
ENDBRANCH   1   3
BRANCH   2   6
HETATM    6  C5  UNL     1     -33.956  17.858  -0.049  1.00 20.00     0.258 C 
HETATM    7  O7  UNL     1     -32.830  18.220  -0.369  1.00 20.00    -0.302 OA
ENDBRANCH   2   6
TORSDOF 2
ENDMDL
MODEL 8
REMARK VINA RESULT:      -3.4     10.033     10.690
REMARK  2 active torsions:
REMARK  status: ('A' for Active; 'I' for Inactive)
REMARK    1  A    between atoms: C1_1  and  C3_3 
REMARK    2  A    between atoms: C2_2  and  C5_5 
ROOT
HETATM    1  C1  UNL     1     -41.896   4.269  -2.252  1.00 20.00     0.003 C 
HETATM    2  C2  UNL     1     -41.044   4.470  -1.238  1.00 20.00     0.041 C 
ENDROOT
BRANCH   1   3
HETATM    3  C3  UNL     1     -42.198   2.953  -2.769  1.00 20.00    -0.004 C 
HETATM    4  C4  UNL     1     -41.318   2.220  -3.467  1.00 20.00    -0.031 C 
HETATM    5  C6  UNL     1     -41.616   0.860  -4.008  1.00 20.00     0.036 C 
ENDBRANCH   1   3
BRANCH   2   6
HETATM    6  C5  UNL     1     -40.796   5.849  -0.775  1.00 20.00     0.258 C 
HETATM    7  O7  UNL     1     -40.805   6.802  -1.544  1.00 20.00    -0.302 OA
ENDBRANCH   2   6
TORSDOF 2
ENDMDL
MODEL 9
REMARK VINA RESULT:      -3.3     10.934     11.646
REMARK  2 active torsions:
REMARK  status: ('A' for Active; 'I' for Inactive)
REMARK    1  A    between atoms: C1_1  and  C3_3 
REMARK    2  A    between atoms: C2_2  and  C5_5 
ROOT
HETATM    1  C1  UNL     1     -41.986   3.211  -2.883  1.00 20.00     0.003 C 
HETATM    2  C2  UNL     1     -41.494   2.154  -3.543  1.00 20.00     0.041 C 
ENDROOT
BRANCH   1   3
HETATM    3  C3  UNL     1     -41.233   3.921  -1.873  1.00 20.00    -0.004 C 
HETATM    4  C4  UNL     1     -41.496   5.186  -1.517  1.00 20.00    -0.031 C 
HETATM    5  C6  UNL     1     -40.726   5.932  -0.476  1.00 20.00     0.036 C 
ENDBRANCH   1   3
BRANCH   2   6
HETATM    6  C5  UNL     1     -42.335   1.490  -4.559  1.00 20.00     0.258 C 
HETATM    7  O7  UNL     1     -42.643   2.045  -5.606  1.00 20.00    -0.302 OA
ENDBRANCH   2   6
TORSDOF 2
ENDMDL
