MODEL 1
REMARK VINA RESULT:      -5.0      0.000      0.000
REMARK  0 active torsions:
REMARK  status: ('A' for Active; 'I' for Inactive)
ROOT
HETATM    1  C1  UNL     1     -34.662  15.552  -2.638  1.00 20.00     0.131 C 
HETATM    2  C2  UNL     1     -36.008  15.249  -3.267  1.00 20.00     0.079 C 
HETATM    3  C3  UNL     1     -36.024  13.978  -4.112  1.00 20.00     0.012 C 
HETATM    4  C4  UNL     1     -34.112  16.048  -5.709  1.00 20.00     0.001 C 
HETATM    5  C5  UNL     1     -33.121  16.143  -4.547  1.00 20.00     0.012 C 
HETATM    6  C6  UNL     1     -34.485  14.614  -6.081  1.00 20.00     0.005 C 
HETATM    7  C7  UNL     1     -33.549  13.742  -3.921  1.00 20.00     0.016 C 
HETATM    8  C8  UNL     1     -33.405  15.166  -3.403  1.00 20.00     0.056 C 
HETATM    9  C9  UNL     1     -34.730  13.679  -4.886  1.00 20.00    -0.013 C 
HETATM   10  O10 UNL     1     -34.589  16.185  -1.582  1.00 20.00    -0.298 OA
ENDROOT
TORSDOF 0
ENDMDL
MODEL 2
REMARK VINA RESULT:      -5.0      1.527      2.556
REMARK  0 active torsions:
REMARK  status: ('A' for Active; 'I' for Inactive)
ROOT
HETATM    1  C1  UNL     1     -36.268  14.461  -3.813  1.00 20.00     0.131 C 
HETATM    2  C2  UNL     1     -35.209  13.553  -4.407  1.00 20.00     0.079 C 
HETATM    3  C3  UNL     1     -33.824  13.732  -3.793  1.00 20.00     0.012 C 
HETATM    4  C4  UNL     1     -34.425  16.490  -5.384  1.00 20.00     0.001 C 
HETATM    5  C5  UNL     1     -35.652  16.802  -4.526  1.00 20.00     0.012 C 
HETATM    6  C6  UNL     1     -33.189  16.108  -4.570  1.00 20.00     0.005 C 
HETATM    7  C7  UNL     1     -34.580  15.736  -2.514  1.00 20.00     0.016 C 
HETATM    8  C8  UNL     1     -35.849  15.847  -3.346  1.00 20.00     0.056 C 
HETATM    9  C9  UNL     1     -33.460  15.169  -3.384  1.00 20.00    -0.013 C 
HETATM   10  O10 UNL     1     -37.453  14.122  -3.802  1.00 20.00    -0.298 OA
ENDROOT
TORSDOF 0
ENDMDL
MODEL 3
REMARK VINA RESULT:      -4.9      1.864      3.456
REMARK  0 active torsions:
REMARK  status: ('A' for Active; 'I' for Inactive)
ROOT
HETATM    1  C1  UNL     1     -34.628  14.602  -6.000  1.00 20.00     0.131 C 
HETATM    2  C2  UNL     1     -34.112  16.011  -5.779  1.00 20.00     0.079 C 
HETATM    3  C3  UNL     1     -33.121  16.134  -4.625  1.00 20.00     0.012 C 
HETATM    4  C4  UNL     1     -35.960  15.400  -3.248  1.00 20.00     0.001 C 
HETATM    5  C5  UNL     1     -36.058  14.066  -3.991  1.00 20.00     0.012 C 
HETATM    6  C6  UNL     1     -34.607  15.630  -2.578  1.00 20.00     0.005 C 
HETATM    7  C7  UNL     1     -33.558  13.783  -3.915  1.00 20.00     0.016 C 
HETATM    8  C8  UNL     1     -34.803  13.700  -4.787  1.00 20.00     0.056 C 
HETATM    9  C9  UNL     1     -33.389  15.218  -3.420  1.00 20.00    -0.013 C 
HETATM   10  O10 UNL     1     -34.991  14.234  -7.119  1.00 20.00    -0.298 OA
ENDROOT
TORSDOF 0
ENDMDL
MODEL 4
REMARK VINA RESULT:      -4.9      1.730      2.930
REMARK  0 active torsions:
REMARK  status: ('A' for Active; 'I' for Inactive)
ROOT
HETATM    1  C1  UNL     1     -34.698  13.777  -4.605  1.00 20.00     0.131 C 
HETATM    2  C2  UNL     1     -34.973  14.451  -5.935  1.00 20.00     0.079 C 
HETATM    3  C3  UNL     1     -33.998  15.575  -6.274  1.00 20.00     0.012 C 
HETATM    4  C4  UNL     1     -35.692  16.645  -3.729  1.00 20.00     0.001 C 
HETATM    5  C5  UNL     1     -35.210  15.501  -2.835  1.00 20.00     0.012 C 
HETATM    6  C6  UNL     1     -34.567  17.346  -4.487  1.00 20.00     0.005 C 
HETATM    7  C7  UNL     1     -32.979  15.464  -4.000  1.00 20.00     0.016 C 
HETATM    8  C8  UNL     1     -34.132  14.622  -3.472  1.00 20.00     0.056 C 
HETATM    9  C9  UNL     1     -33.504  16.408  -5.080  1.00 20.00    -0.013 C 
HETATM   10  O10 UNL     1     -35.017  12.602  -4.417  1.00 20.00    -0.298 OA
ENDROOT
TORSDOF 0
ENDMDL
MODEL 5
REMARK VINA RESULT:      -4.6      1.580      2.706
REMARK  0 active torsions:
REMARK  status: ('A' for Active; 'I' for Inactive)
ROOT
HETATM    1  C1  UNL     1     -36.531  14.635  -4.253  1.00 20.00     0.131 C 
HETATM    2  C2  UNL     1     -36.488  16.146  -4.375  1.00 20.00     0.079 C 
HETATM    3  C3  UNL     1     -35.602  16.652  -5.510  1.00 20.00     0.012 C 
HETATM    4  C4  UNL     1     -33.576  15.312  -3.366  1.00 20.00     0.001 C 
HETATM    5  C5  UNL     1     -34.227  13.935  -3.502  1.00 20.00     0.012 C 
HETATM    6  C6  UNL     1     -33.248  15.971  -4.705  1.00 20.00     0.005 C 
HETATM    7  C7  UNL     1     -34.726  14.355  -5.934  1.00 20.00     0.016 C 
HETATM    8  C8  UNL     1     -35.279  13.847  -4.610  1.00 20.00     0.056 C 
HETATM    9  C9  UNL     1     -34.336  15.824  -5.781  1.00 20.00    -0.013 C 
HETATM   10  O10 UNL     1     -37.521  14.070  -3.783  1.00 20.00    -0.298 OA
ENDROOT
TORSDOF 0
ENDMDL
MODEL 6
REMARK VINA RESULT:      -4.6      1.872      2.956
REMARK  0 active torsions:
REMARK  status: ('A' for Active; 'I' for Inactive)
ROOT
HETATM    1  C1  UNL     1     -34.803  13.698  -4.596  1.00 20.00     0.131 C 
HETATM    2  C2  UNL     1     -34.099  14.217  -3.357  1.00 20.00     0.079 C 
HETATM    3  C3  UNL     1     -34.725  15.480  -2.772  1.00 20.00     0.012 C 
HETATM    4  C4  UNL     1     -33.485  16.377  -5.627  1.00 20.00     0.001 C 
HETATM    5  C5  UNL     1     -34.379  15.408  -6.402  1.00 20.00     0.012 C 
HETATM    6  C6  UNL     1     -34.242  17.227  -4.607  1.00 20.00     0.005 C 
HETATM    7  C7  UNL     1     -36.242  15.716  -4.738  1.00 20.00     0.016 C 
HETATM    8  C8  UNL     1     -35.435  14.708  -5.543  1.00 20.00     0.056 C 
HETATM    9  C9  UNL     1     -35.305  16.469  -3.796  1.00 20.00    -0.013 C 
HETATM   10  O10 UNL     1     -34.777  12.498  -4.878  1.00 20.00    -0.298 OA
ENDROOT
TORSDOF 0
ENDMDL
MODEL 7
REMARK VINA RESULT:      -4.6      1.479      2.716
REMARK  0 active torsions:
REMARK  status: ('A' for Active; 'I' for Inactive)
ROOT
HETATM    1  C1  UNL     1     -35.826  16.195  -4.555  1.00 20.00     0.131 C 
HETATM    2  C2  UNL     1     -35.815  15.770  -3.099  1.00 20.00     0.079 C 
HETATM    3  C3  UNL     1     -34.422  15.727  -2.477  1.00 20.00     0.012 C 
HETATM    4  C4  UNL     1     -34.457  13.351  -4.680  1.00 20.00     0.001 C 
HETATM    5  C5  UNL     1     -34.715  14.324  -5.832  1.00 20.00     0.012 C 
HETATM    6  C6  UNL     1     -33.316  13.781  -3.759  1.00 20.00     0.005 C 
HETATM    7  C7  UNL     1     -33.350  16.109  -4.697  1.00 20.00     0.016 C 
HETATM    8  C8  UNL     1     -34.646  15.800  -5.430  1.00 20.00     0.056 C 
HETATM    9  C9  UNL     1     -33.290  15.279  -3.416  1.00 20.00    -0.013 C 
HETATM   10  O10 UNL     1     -36.811  16.758  -5.038  1.00 20.00    -0.298 OA
ENDROOT
TORSDOF 0
ENDMDL
MODEL 8
REMARK VINA RESULT:      -4.6      1.558      2.752
REMARK  0 active torsions:
REMARK  status: ('A' for Active; 'I' for Inactive)
ROOT
HETATM    1  C1  UNL     1     -33.611  13.877  -3.854  1.00 20.00     0.131 C 
HETATM    2  C2  UNL     1     -33.175  15.274  -3.455  1.00 20.00     0.079 C 
HETATM    3  C3  UNL     1     -34.327  16.192  -3.058  1.00 20.00     0.012 C 
HETATM    4  C4  UNL     1     -34.716  15.646  -6.227  1.00 20.00     0.001 C 
HETATM    5  C5  UNL     1     -34.876  14.138  -6.021  1.00 20.00     0.012 C 
HETATM    6  C6  UNL     1     -35.582  16.488  -5.291  1.00 20.00     0.005 C 
HETATM    7  C7  UNL     1     -36.010  14.511  -3.805  1.00 20.00     0.016 C 
HETATM    8  C8  UNL     1     -34.952  13.713  -4.553  1.00 20.00     0.056 C 
HETATM    9  C9  UNL     1     -35.636  15.991  -3.838  1.00 20.00    -0.013 C 
HETATM   10  O10 UNL     1     -32.854  12.916  -3.706  1.00 20.00    -0.298 OA
ENDROOT
TORSDOF 0
ENDMDL
MODEL 9
REMARK VINA RESULT:      -4.6     11.340     13.000
REMARK  0 active torsions:
REMARK  status: ('A' for Active; 'I' for Inactive)
ROOT
HETATM    1  C1  UNL     1     -42.544   6.019  -2.694  1.00 20.00     0.131 C 
HETATM    2  C2  UNL     1     -42.248   7.158  -1.737  1.00 20.00     0.079 C 
HETATM    3  C3  UNL     1     -41.080   6.886  -0.793  1.00 20.00     0.012 C 
HETATM    4  C4  UNL     1     -43.405   4.813   0.096  1.00 20.00     0.001 C 
HETATM    5  C5  UNL     1     -43.417   4.127  -1.271  1.00 20.00     0.012 C 
HETATM    6  C6  UNL     1     -42.005   4.984   0.683  1.00 20.00     0.005 C 
HETATM    7  C7  UNL     1     -40.944   4.510  -1.542  1.00 20.00     0.016 C 
HETATM    8  C8  UNL     1     -42.307   4.594  -2.215  1.00 20.00     0.056 C 
HETATM    9  C9  UNL     1     -40.932   5.430  -0.323  1.00 20.00    -0.013 C 
HETATM   10  O10 UNL     1     -43.058   6.239  -3.793  1.00 20.00    -0.298 OA
ENDROOT
TORSDOF 0
ENDMDL
