MODEL 1
REMARK VINA RESULT:      -5.4      0.000      0.000
REMARK  0 active torsions:
REMARK  status: ('A' for Active; 'I' for Inactive)
ROOT
HETATM    1  C1  UNL     1     -34.597   5.557   6.710  1.00 20.00    -0.030 C 
HETATM    2  C2  UNL     1     -35.318   4.762   5.897  1.00 20.00    -0.030 C 
HETATM    3  C3  UNL     1     -32.425   6.677   2.728  1.00 20.00    -0.030 C 
HETATM    4  C4  UNL     1     -32.511   7.273   3.926  1.00 20.00    -0.025 C 
HETATM    5  C5  UNL     1     -33.523   6.502   6.218  1.00 20.00     0.035 C 
HETATM    6  C6  UNL     1     -35.097   4.674   4.403  1.00 20.00     0.032 C 
HETATM    7  C7  UNL     1     -33.438   5.573   2.577  1.00 20.00     0.032 C 
HETATM    8  C8  UNL     1     -33.645   6.692   4.708  1.00 20.00     0.016 C 
HETATM    9  C9  UNL     1     -33.761   5.312   4.044  1.00 20.00     0.000 C 
ENDROOT
TORSDOF 0
ENDMDL
MODEL 2
REMARK VINA RESULT:      -5.3      0.631      3.768
REMARK  0 active torsions:
REMARK  status: ('A' for Active; 'I' for Inactive)
ROOT
HETATM    1  C1  UNL     1     -32.629   6.331   2.467  1.00 20.00    -0.030 C 
HETATM    2  C2  UNL     1     -32.207   7.228   3.378  1.00 20.00    -0.030 C 
HETATM    3  C3  UNL     1     -35.243   4.813   6.030  1.00 20.00    -0.030 C 
HETATM    4  C4  UNL     1     -35.322   4.656   4.699  1.00 20.00    -0.025 C 
HETATM    5  C5  UNL     1     -33.704   5.302   2.742  1.00 20.00     0.035 C 
HETATM    6  C6  UNL     1     -32.713   7.273   4.802  1.00 20.00     0.032 C 
HETATM    7  C7  UNL     1     -34.275   5.901   6.408  1.00 20.00     0.032 C 
HETATM    8  C8  UNL     1     -34.468   5.671   4.011  1.00 20.00     0.016 C 
HETATM    9  C9  UNL     1     -33.457   5.982   5.123  1.00 20.00     0.000 C 
ENDROOT
TORSDOF 0
ENDMDL
MODEL 3
REMARK VINA RESULT:      -5.2      0.518      2.086
REMARK  0 active torsions:
REMARK  status: ('A' for Active; 'I' for Inactive)
ROOT
HETATM    1  C1  UNL     1     -35.309   4.751   5.304  1.00 20.00    -0.030 C 
HETATM    2  C2  UNL     1     -34.737   5.385   6.345  1.00 20.00    -0.030 C 
HETATM    3  C3  UNL     1     -32.186   7.206   2.843  1.00 20.00    -0.030 C 
HETATM    4  C4  UNL     1     -32.906   6.104   2.577  1.00 20.00    -0.025 C 
HETATM    5  C5  UNL     1     -34.835   4.895   3.874  1.00 20.00     0.035 C 
HETATM    6  C6  UNL     1     -33.593   6.364   6.201  1.00 20.00     0.032 C 
HETATM    7  C7  UNL     1     -32.209   7.548   4.308  1.00 20.00     0.032 C 
HETATM    8  C8  UNL     1     -33.445   5.526   3.845  1.00 20.00     0.016 C 
HETATM    9  C9  UNL     1     -33.449   6.773   4.740  1.00 20.00     0.000 C 
ENDROOT
TORSDOF 0
ENDMDL
MODEL 4
REMARK VINA RESULT:      -4.9      0.666      3.217
REMARK  0 active torsions:
REMARK  status: ('A' for Active; 'I' for Inactive)
ROOT
HETATM    1  C1  UNL     1     -32.311   7.214   3.365  1.00 20.00    -0.030 C 
HETATM    2  C2  UNL     1     -32.711   6.306   2.455  1.00 20.00    -0.030 C 
HETATM    3  C3  UNL     1     -35.299   4.906   6.119  1.00 20.00    -0.030 C 
HETATM    4  C4  UNL     1     -34.270   5.732   6.367  1.00 20.00    -0.025 C 
HETATM    5  C5  UNL     1     -32.774   7.212   4.806  1.00 20.00     0.035 C 
HETATM    6  C6  UNL     1     -33.717   5.215   2.748  1.00 20.00     0.032 C 
HETATM    7  C7  UNL     1     -35.311   4.442   4.687  1.00 20.00     0.032 C 
HETATM    8  C8  UNL     1     -33.419   5.871   5.147  1.00 20.00     0.016 C 
HETATM    9  C9  UNL     1     -34.439   5.521   4.055  1.00 20.00     0.000 C 
ENDROOT
TORSDOF 0
ENDMDL
MODEL 5
REMARK VINA RESULT:      -4.4      9.504     10.680
REMARK  0 active torsions:
REMARK  status: ('A' for Active; 'I' for Inactive)
ROOT
HETATM    1  C1  UNL     1     -41.894   3.259  -2.681  1.00 20.00    -0.030 C 
HETATM    2  C2  UNL     1     -42.958   3.871  -3.234  1.00 20.00    -0.030 C 
HETATM    3  C3  UNL     1     -41.155   7.487  -0.835  1.00 20.00    -0.030 C 
HETATM    4  C4  UNL     1     -40.726   6.257  -0.515  1.00 20.00    -0.025 C 
HETATM    5  C5  UNL     1     -40.948   3.937  -1.715  1.00 20.00     0.035 C 
HETATM    6  C6  UNL     1     -43.299   5.326  -3.001  1.00 20.00     0.032 C 
HETATM    7  C7  UNL     1     -42.295   7.444  -1.817  1.00 20.00     0.032 C 
HETATM    8  C8  UNL     1     -41.574   5.227  -1.188  1.00 20.00     0.016 C 
HETATM    9  C9  UNL     1     -42.105   6.039  -2.377  1.00 20.00     0.000 C 
ENDROOT
TORSDOF 0
ENDMDL
MODEL 6
REMARK VINA RESULT:      -4.4     12.184     13.868
REMARK  0 active torsions:
REMARK  status: ('A' for Active; 'I' for Inactive)
ROOT
HETATM    1  C1  UNL     1     -33.106  15.120  -3.695  1.00 20.00    -0.030 C 
HETATM    2  C2  UNL     1     -33.840  13.992  -3.699  1.00 20.00    -0.030 C 
HETATM    3  C3  UNL     1     -35.113  15.745  -7.868  1.00 20.00    -0.030 C 
HETATM    4  C4  UNL     1     -34.505  16.575  -7.007  1.00 20.00    -0.025 C 
HETATM    5  C5  UNL     1     -33.165  16.159  -4.794  1.00 20.00     0.035 C 
HETATM    6  C6  UNL     1     -34.763  13.598  -4.830  1.00 20.00     0.032 C 
HETATM    7  C7  UNL     1     -35.429  14.416  -7.235  1.00 20.00     0.032 C 
HETATM    8  C8  UNL     1     -34.400  15.933  -5.662  1.00 20.00     0.016 C 
HETATM    9  C9  UNL     1     -34.462  14.451  -6.057  1.00 20.00     0.000 C 
ENDROOT
TORSDOF 0
ENDMDL
MODEL 7
REMARK VINA RESULT:      -4.3     12.128     13.797
REMARK  0 active torsions:
REMARK  status: ('A' for Active; 'I' for Inactive)
ROOT
HETATM    1  C1  UNL     1     -33.577  13.733  -3.824  1.00 20.00    -0.030 C 
HETATM    2  C2  UNL     1     -34.432  13.313  -4.775  1.00 20.00    -0.030 C 
HETATM    3  C3  UNL     1     -33.890  17.774  -6.149  1.00 20.00    -0.030 C 
HETATM    4  C4  UNL     1     -33.496  17.457  -4.907  1.00 20.00    -0.025 C 
HETATM    5  C5  UNL     1     -33.088  15.160  -3.712  1.00 20.00     0.035 C 
HETATM    6  C6  UNL     1     -34.956  14.203  -5.880  1.00 20.00     0.032 C 
HETATM    7  C7  UNL     1     -34.611  16.632  -6.816  1.00 20.00     0.032 C 
HETATM    8  C8  UNL     1     -33.965  16.083  -4.554  1.00 20.00     0.016 C 
HETATM    9  C9  UNL     1     -34.119  15.474  -5.955  1.00 20.00     0.000 C 
ENDROOT
TORSDOF 0
ENDMDL
MODEL 8
REMARK VINA RESULT:      -4.3     12.133     13.923
REMARK  0 active torsions:
REMARK  status: ('A' for Active; 'I' for Inactive)
ROOT
HETATM    1  C1  UNL     1     -34.117  13.997  -3.591  1.00 20.00    -0.030 C 
HETATM    2  C2  UNL     1     -33.336  15.093  -3.581  1.00 20.00    -0.030 C 
HETATM    3  C3  UNL     1     -35.322  15.609  -7.808  1.00 20.00    -0.030 C 
HETATM    4  C4  UNL     1     -35.415  14.405  -7.224  1.00 20.00    -0.025 C 
HETATM    5  C5  UNL     1     -34.967  13.587  -4.774  1.00 20.00     0.035 C 
HETATM    6  C6  UNL     1     -33.262  16.078  -4.726  1.00 20.00     0.032 C 
HETATM    7  C7  UNL     1     -34.421  16.537  -7.038  1.00 20.00     0.032 C 
HETATM    8  C8  UNL     1     -34.527  14.348  -6.023  1.00 20.00     0.016 C 
HETATM    9  C9  UNL     1     -34.426  15.841  -5.681  1.00 20.00     0.000 C 
ENDROOT
TORSDOF 0
ENDMDL
MODEL 9
REMARK VINA RESULT:      -4.3      9.596     10.811
REMARK  0 active torsions:
REMARK  status: ('A' for Active; 'I' for Inactive)
ROOT
HETATM    1  C1  UNL     1     -42.967   3.901  -3.192  1.00 20.00    -0.030 C 
HETATM    2  C2  UNL     1     -41.905   3.346  -2.578  1.00 20.00    -0.030 C 
HETATM    3  C3  UNL     1     -41.543   7.728  -0.920  1.00 20.00    -0.030 C 
HETATM    4  C4  UNL     1     -42.334   7.533  -1.987  1.00 20.00    -0.025 C 
HETATM    5  C5  UNL     1     -43.321   5.368  -3.085  1.00 20.00     0.035 C 
HETATM    6  C6  UNL     1     -40.978   4.109  -1.659  1.00 20.00     0.032 C 
HETATM    7  C7  UNL     1     -40.770   6.487  -0.563  1.00 20.00     0.032 C 
HETATM    8  C8  UNL     1     -42.137   6.153  -2.526  1.00 20.00     0.016 C 
HETATM    9  C9  UNL     1     -41.618   5.436  -1.271  1.00 20.00     0.000 C 
ENDROOT
TORSDOF 0
ENDMDL
