MODEL 1
REMARK VINA RESULT:      -5.0      0.000      0.000
REMARK  1 active torsions:
REMARK  status: ('A' for Active; 'I' for Inactive)
REMARK    1  A    between atoms: C3_3  and  C7_7 
ROOT
HETATM    1  C1  UNL     1     -33.780  15.697  -5.103  1.00 20.00     0.001 C 
HETATM    2  C2  UNL     1     -34.274  14.680  -4.376  1.00 20.00    -0.083 C 
HETATM    3  C5  UNL     1     -33.638  17.081  -4.547  1.00 20.00     0.196 C 
HETATM    4  C6  UNL     1     -34.672  14.897  -2.939  1.00 20.00     0.069 C 
HETATM    5  C7  UNL     1     -34.097  16.210  -2.389  1.00 20.00     0.148 C 
HETATM    6  C8  UNL     1     -34.457  13.302  -4.933  1.00 20.00     0.043 C 
HETATM    7  O11 UNL     1     -34.360  17.260  -3.324  1.00 20.00    -0.378 OA
ENDROOT
BRANCH   5   8
HETATM    8  C3  UNL     1     -34.722  16.576  -1.083  1.00 20.00     0.007 C 
HETATM    9  C4  UNL     1     -34.280  17.475  -0.183  1.00 20.00    -0.089 C 
HETATM   10  C9  UNL     1     -35.030  17.731   1.095  1.00 20.00     0.042 C 
HETATM   11  C10 UNL     1     -33.030  18.290  -0.359  1.00 20.00     0.042 C 
ENDBRANCH   5   8
TORSDOF 1
ENDMDL
MODEL 2
REMARK VINA RESULT:      -4.9      1.621      2.399
REMARK  1 active torsions:
REMARK  status: ('A' for Active; 'I' for Inactive)
REMARK    1  A    between atoms: C3_3  and  C7_7 
ROOT
HETATM    1  C1  UNL     1     -35.551  13.676  -4.142  1.00 20.00     0.001 C 
HETATM    2  C2  UNL     1     -36.341  14.710  -3.804  1.00 20.00    -0.083 C 
HETATM    3  C5  UNL     1     -34.077  13.677  -3.873  1.00 20.00     0.196 C 
HETATM    4  C6  UNL     1     -35.763  15.908  -3.096  1.00 20.00     0.069 C 
HETATM    5  C7  UNL     1     -34.373  15.603  -2.521  1.00 20.00     0.148 C 
HETATM    6  C8  UNL     1     -37.808  14.738  -4.103  1.00 20.00     0.043 C 
HETATM    7  O11 UNL     1     -33.580  14.975  -3.533  1.00 20.00    -0.378 OA
ENDROOT
BRANCH   5   8
HETATM    8  C3  UNL     1     -33.676  16.850  -2.084  1.00 20.00     0.007 C 
HETATM    9  C4  UNL     1     -33.858  17.537  -0.941  1.00 20.00    -0.089 C 
HETATM   10  C9  UNL     1     -33.071  18.784  -0.648  1.00 20.00     0.042 C 
HETATM   11  C10 UNL     1     -34.837  17.139   0.127  1.00 20.00     0.042 C 
ENDBRANCH   5   8
TORSDOF 1
ENDMDL
MODEL 3
REMARK VINA RESULT:      -4.8      1.421      2.452
REMARK  1 active torsions:
REMARK  status: ('A' for Active; 'I' for Inactive)
REMARK    1  A    between atoms: C3_3  and  C7_7 
ROOT
HETATM    1  C1  UNL     1     -34.665  13.731  -5.270  1.00 20.00     0.001 C 
HETATM    2  C2  UNL     1     -34.461  14.887  -5.924  1.00 20.00    -0.083 C 
HETATM    3  C5  UNL     1     -34.476  13.609  -3.788  1.00 20.00     0.196 C 
HETATM    4  C6  UNL     1     -34.066  16.129  -5.168  1.00 20.00     0.069 C 
HETATM    5  C7  UNL     1     -34.313  15.971  -3.661  1.00 20.00     0.148 C 
HETATM    6  C8  UNL     1     -34.609  15.013  -7.409  1.00 20.00     0.043 C 
HETATM    7  O11 UNL     1     -33.769  14.721  -3.229  1.00 20.00    -0.378 OA
ENDROOT
BRANCH   5   8
HETATM    8  C3  UNL     1     -33.657  17.064  -2.881  1.00 20.00     0.007 C 
HETATM    9  C4  UNL     1     -33.843  17.375  -1.584  1.00 20.00    -0.089 C 
HETATM   10  C9  UNL     1     -33.100  18.513  -0.943  1.00 20.00     0.042 C 
HETATM   11  C10 UNL     1     -34.783  16.637  -0.674  1.00 20.00     0.042 C 
ENDBRANCH   5   8
TORSDOF 1
ENDMDL
MODEL 4
REMARK VINA RESULT:      -4.7     11.063     12.086
REMARK  1 active torsions:
REMARK  status: ('A' for Active; 'I' for Inactive)
REMARK    1  A    between atoms: C3_3  and  C7_7 
ROOT
HETATM    1  C1  UNL     1     -34.177   6.039   6.225  1.00 20.00     0.001 C 
HETATM    2  C2  UNL     1     -34.427   5.265   5.155  1.00 20.00    -0.083 C 
HETATM    3  C5  UNL     1     -33.267   7.228   6.156  1.00 20.00     0.196 C 
HETATM    4  C6  UNL     1     -33.817   5.598   3.818  1.00 20.00     0.069 C 
HETATM    5  C7  UNL     1     -33.268   7.031   3.792  1.00 20.00     0.148 C 
HETATM    6  C8  UNL     1     -35.304   4.052   5.221  1.00 20.00     0.043 C 
HETATM    7  O11 UNL     1     -32.475   7.246   4.963  1.00 20.00    -0.378 OA
ENDROOT
BRANCH   5   8
HETATM    8  C3  UNL     1     -32.409   7.267   2.593  1.00 20.00     0.007 C 
HETATM    9  C4  UNL     1     -32.248   8.415   1.908  1.00 20.00    -0.089 C 
HETATM   10  C9  UNL     1     -31.339   8.488   0.713  1.00 20.00     0.042 C 
HETATM   11  C10 UNL     1     -32.941   9.701   2.259  1.00 20.00     0.042 C 
ENDBRANCH   5   8
TORSDOF 1
ENDMDL
MODEL 5
REMARK VINA RESULT:      -4.6      1.226      4.733
REMARK  1 active torsions:
REMARK  status: ('A' for Active; 'I' for Inactive)
REMARK    1  A    between atoms: C3_3  and  C7_7 
ROOT
HETATM    1  C1  UNL     1     -34.196  18.852  -0.822  1.00 20.00     0.001 C 
HETATM    2  C2  UNL     1     -34.606  17.752  -0.168  1.00 20.00    -0.083 C 
HETATM    3  C5  UNL     1     -33.777  18.817  -2.261  1.00 20.00     0.196 C 
HETATM    4  C6  UNL     1     -34.695  16.431  -0.888  1.00 20.00     0.069 C 
HETATM    5  C7  UNL     1     -34.647  16.616  -2.410  1.00 20.00     0.148 C 
HETATM    6  C8  UNL     1     -34.989  17.766   1.280  1.00 20.00     0.043 C 
HETATM    7  O11 UNL     1     -33.560  17.486  -2.738  1.00 20.00    -0.378 OA
ENDROOT
BRANCH   5   8
HETATM    8  C3  UNL     1     -34.437  15.315  -3.114  1.00 20.00     0.007 C 
HETATM    9  C4  UNL     1     -35.366  14.537  -3.702  1.00 20.00    -0.089 C 
HETATM   10  C9  UNL     1     -34.989  13.246  -4.373  1.00 20.00     0.042 C 
HETATM   11  C10 UNL     1     -36.830  14.872  -3.745  1.00 20.00     0.042 C 
ENDBRANCH   5   8
TORSDOF 1
ENDMDL
MODEL 6
REMARK VINA RESULT:      -4.6     12.497     14.895
REMARK  1 active torsions:
REMARK  status: ('A' for Active; 'I' for Inactive)
REMARK    1  A    between atoms: C3_3  and  C7_7 
ROOT
HETATM    1  C1  UNL     1     -41.188   6.823  -1.380  1.00 20.00     0.001 C 
HETATM    2  C2  UNL     1     -42.034   6.733  -2.421  1.00 20.00    -0.083 C 
HETATM    3  C5  UNL     1     -40.840   5.640  -0.529  1.00 20.00     0.196 C 
HETATM    4  C6  UNL     1     -42.639   5.404  -2.794  1.00 20.00     0.069 C 
HETATM    5  C7  UNL     1     -41.894   4.240  -2.128  1.00 20.00     0.148 C 
HETATM    6  C8  UNL     1     -42.420   7.915  -3.255  1.00 20.00     0.043 C 
HETATM    7  O11 UNL     1     -41.723   4.533  -0.738  1.00 20.00    -0.378 OA
ENDROOT
BRANCH   5   8
HETATM    8  C3  UNL     1     -42.656   2.961  -2.249  1.00 20.00     0.007 C 
HETATM    9  C4  UNL     1     -42.375   1.907  -3.039  1.00 20.00    -0.089 C 
HETATM   10  C9  UNL     1     -43.249   0.684  -3.045  1.00 20.00     0.042 C 
HETATM   11  C10 UNL     1     -41.196   1.850  -3.968  1.00 20.00     0.042 C 
ENDBRANCH   5   8
TORSDOF 1
ENDMDL
MODEL 7
REMARK VINA RESULT:      -4.4      1.088      1.383
REMARK  1 active torsions:
REMARK  status: ('A' for Active; 'I' for Inactive)
REMARK    1  A    between atoms: C3_3  and  C7_7 
ROOT
HETATM    1  C1  UNL     1     -34.118  16.418  -4.270  1.00 20.00     0.001 C 
HETATM    2  C2  UNL     1     -34.529  15.508  -3.371  1.00 20.00    -0.083 C 
HETATM    3  C5  UNL     1     -33.760  17.820  -3.881  1.00 20.00     0.196 C 
HETATM    4  C6  UNL     1     -34.608  15.866  -1.909  1.00 20.00     0.069 C 
HETATM    5  C7  UNL     1     -33.834  17.156  -1.605  1.00 20.00     0.148 C 
HETATM    6  C8  UNL     1     -34.927  14.115  -3.753  1.00 20.00     0.043 C 
HETATM    7  O11 UNL     1     -34.202  18.155  -2.561  1.00 20.00    -0.378 OA
ENDROOT
BRANCH   5   8
HETATM    8  C3  UNL     1     -34.149  17.675  -0.240  1.00 20.00     0.007 C 
HETATM    9  C4  UNL     1     -33.380  18.457   0.541  1.00 20.00    -0.089 C 
HETATM   10  C9  UNL     1     -33.845  18.896   1.902  1.00 20.00     0.042 C 
HETATM   11  C10 UNL     1     -32.020  18.955   0.144  1.00 20.00     0.042 C 
ENDBRANCH   5   8
TORSDOF 1
ENDMDL
MODEL 8
REMARK VINA RESULT:      -4.2      3.399      5.207
REMARK  1 active torsions:
REMARK  status: ('A' for Active; 'I' for Inactive)
REMARK    1  A    between atoms: C3_3  and  C7_7 
ROOT
HETATM    1  C1  UNL     1     -33.968  14.431  -3.639  1.00 20.00     0.001 C 
HETATM    2  C2  UNL     1     -34.553  15.453  -2.992  1.00 20.00    -0.083 C 
HETATM    3  C5  UNL     1     -34.759  13.402  -4.388  1.00 20.00     0.196 C 
HETATM    4  C6  UNL     1     -36.051  15.620  -3.033  1.00 20.00     0.069 C 
HETATM    5  C7  UNL     1     -36.680  14.772  -4.147  1.00 20.00     0.148 C 
HETATM    6  C8  UNL     1     -33.777  16.465  -2.207  1.00 20.00     0.043 C 
HETATM    7  O11 UNL     1     -36.155  13.444  -4.073  1.00 20.00    -0.378 OA
ENDROOT
BRANCH   5   8
HETATM    8  C3  UNL     1     -38.165  14.699  -4.007  1.00 20.00     0.007 C 
HETATM    9  C4  UNL     1     -39.093  14.924  -4.957  1.00 20.00    -0.089 C 
HETATM   10  C9  UNL     1     -40.561  14.809  -4.653  1.00 20.00     0.042 C 
HETATM   11  C10 UNL     1     -38.766  15.301  -6.373  1.00 20.00     0.042 C 
ENDBRANCH   5   8
TORSDOF 1
ENDMDL
MODEL 9
REMARK VINA RESULT:      -4.1      2.341      4.145
REMARK  1 active torsions:
REMARK  status: ('A' for Active; 'I' for Inactive)
REMARK    1  A    between atoms: C3_3  and  C7_7 
ROOT
HETATM    1  C1  UNL     1     -33.084  18.257  -1.222  1.00 20.00     0.001 C 
HETATM    2  C2  UNL     1     -33.928  17.212  -1.251  1.00 20.00    -0.083 C 
HETATM    3  C5  UNL     1     -33.095  19.262  -0.110  1.00 20.00     0.196 C 
HETATM    4  C6  UNL     1     -34.905  16.993  -0.125  1.00 20.00     0.069 C 
HETATM    5  C7  UNL     1     -34.534  17.824   1.111  1.00 20.00     0.148 C 
HETATM    6  C8  UNL     1     -33.953  16.223  -2.376  1.00 20.00     0.043 C 
HETATM    7  O11 UNL     1     -34.270  19.170   0.703  1.00 20.00    -0.378 OA
ENDROOT
BRANCH   5   8
HETATM    8  C3  UNL     1     -35.643  17.845   2.111  1.00 20.00     0.007 C 
HETATM    9  C4  UNL     1     -35.546  17.998   3.445  1.00 20.00    -0.089 C 
HETATM   10  C9  UNL     1     -36.768  17.996   4.320  1.00 20.00     0.042 C 
HETATM   11  C10 UNL     1     -34.244  18.181   4.173  1.00 20.00     0.042 C 
ENDBRANCH   5   8
TORSDOF 1
ENDMDL
