MODEL 1
REMARK VINA RESULT:      -4.9      0.000      0.000
REMARK  2 active torsions:
REMARK  status: ('A' for Active; 'I' for Inactive)
REMARK    1  A    between atoms: C1_1  and  C2_2 
REMARK    2  A    between atoms: C2_2  and  C3_3 
ROOT
HETATM    1  C2  UNL     1     -34.901   4.925   4.642  1.00 20.00     0.391 C 
HETATM    2  F5  UNL     1     -36.136   5.381   4.305  1.00 20.00    -0.188 F 
HETATM    3  F6  UNL     1     -34.824   3.647   4.191  1.00 20.00    -0.188 F 
ENDROOT
BRANCH   1   4
HETATM    4  C1  UNL     1     -33.823   5.767   4.020  1.00 20.00     0.319 C 
HETATM    5  O4  UNL     1     -33.559   5.749   2.823  1.00 20.00    -0.300 OA
ENDBRANCH   1   4
BRANCH   1   6
HETATM    6  C3  UNL     1     -34.778   4.918   6.145  1.00 20.00     0.461 C 
HETATM    7  F7  UNL     1     -34.709   6.173   6.638  1.00 20.00    -0.165 F 
HETATM    8  F8  UNL     1     -35.850   4.316   6.706  1.00 20.00    -0.165 F 
HETATM    9  F9  UNL     1     -33.676   4.251   6.547  1.00 20.00    -0.165 F 
ENDBRANCH   1   6
TORSDOF 2
ENDMDL
MODEL 2
REMARK VINA RESULT:      -4.9      0.015      1.260
REMARK  2 active torsions:
REMARK  status: ('A' for Active; 'I' for Inactive)
REMARK    1  A    between atoms: C1_1  and  C2_2 
REMARK    2  A    between atoms: C2_2  and  C3_3 
ROOT
HETATM    1  C2  UNL     1     -34.905   4.925   4.632  1.00 20.00     0.391 C 
HETATM    2  F5  UNL     1     -36.142   5.373   4.294  1.00 20.00    -0.188 F 
HETATM    3  F6  UNL     1     -34.818   3.648   4.177  1.00 20.00    -0.188 F 
ENDROOT
BRANCH   1   4
HETATM    4  C1  UNL     1     -33.831   5.776   4.014  1.00 20.00     0.319 C 
HETATM    5  O4  UNL     1     -33.559   5.757   2.819  1.00 20.00    -0.300 OA
ENDBRANCH   1   4
BRANCH   1   6
HETATM    6  C3  UNL     1     -34.784   4.913   6.135  1.00 20.00     0.461 C 
HETATM    7  F7  UNL     1     -35.845   4.305   6.707  1.00 20.00    -0.165 F 
HETATM    8  F8  UNL     1     -33.674   4.245   6.518  1.00 20.00    -0.165 F 
HETATM    9  F9  UNL     1     -34.702   6.165   6.633  1.00 20.00    -0.165 F 
ENDBRANCH   1   6
TORSDOF 2
ENDMDL
MODEL 3
REMARK VINA RESULT:      -4.8      1.713      2.943
REMARK  2 active torsions:
REMARK  status: ('A' for Active; 'I' for Inactive)
REMARK    1  A    between atoms: C1_1  and  C2_2 
REMARK    2  A    between atoms: C2_2  and  C3_3 
ROOT
HETATM    1  C2  UNL     1     -34.566   5.141   5.880  1.00 20.00     0.391 C 
HETATM    2  F5  UNL     1     -33.787   4.145   6.377  1.00 20.00    -0.188 F 
HETATM    3  F6  UNL     1     -35.664   5.207   6.677  1.00 20.00    -0.188 F 
ENDROOT
BRANCH   1   4
HETATM    4  C1  UNL     1     -33.836   6.455   5.883  1.00 20.00     0.319 C 
HETATM    5  O4  UNL     1     -33.756   7.180   6.868  1.00 20.00    -0.300 OA
ENDBRANCH   1   4
BRANCH   1   6
HETATM    6  C3  UNL     1     -35.001   4.770   4.485  1.00 20.00     0.461 C 
HETATM    7  F7  UNL     1     -35.104   3.431   4.343  1.00 20.00    -0.165 F 
HETATM    8  F8  UNL     1     -36.210   5.305   4.205  1.00 20.00    -0.165 F 
HETATM    9  F9  UNL     1     -34.128   5.221   3.559  1.00 20.00    -0.165 F 
ENDBRANCH   1   6
TORSDOF 2
ENDMDL
MODEL 4
REMARK VINA RESULT:      -4.8      2.171      3.085
REMARK  2 active torsions:
REMARK  status: ('A' for Active; 'I' for Inactive)
REMARK    1  A    between atoms: C1_1  and  C2_2 
REMARK    2  A    between atoms: C2_2  and  C3_3 
ROOT
HETATM    1  C2  UNL     1     -33.992   6.159   4.368  1.00 20.00     0.391 C 
HETATM    2  F5  UNL     1     -34.258   7.424   3.951  1.00 20.00    -0.188 F 
HETATM    3  F6  UNL     1     -32.711   5.894   4.005  1.00 20.00    -0.188 F 
ENDROOT
BRANCH   1   4
HETATM    4  C1  UNL     1     -34.152   6.032   5.857  1.00 20.00     0.319 C 
HETATM    5  O4  UNL     1     -33.787   6.892   6.651  1.00 20.00    -0.300 OA
ENDBRANCH   1   4
BRANCH   1   6
HETATM    6  C3  UNL     1     -34.908   5.205   3.645  1.00 20.00     0.461 C 
HETATM    7  F7  UNL     1     -36.129   5.748   3.451  1.00 20.00    -0.165 F 
HETATM    8  F8  UNL     1     -34.404   4.888   2.432  1.00 20.00    -0.165 F 
HETATM    9  F9  UNL     1     -35.069   4.056   4.335  1.00 20.00    -0.165 F 
ENDBRANCH   1   6
TORSDOF 2
ENDMDL
MODEL 5
REMARK VINA RESULT:      -4.8      2.038      3.042
REMARK  2 active torsions:
REMARK  status: ('A' for Active; 'I' for Inactive)
REMARK    1  A    between atoms: C1_1  and  C2_2 
REMARK    2  A    between atoms: C2_2  and  C3_3 
ROOT
HETATM    1  C2  UNL     1     -34.957   4.898   4.575  1.00 20.00     0.391 C 
HETATM    2  F5  UNL     1     -34.894   3.585   4.230  1.00 20.00    -0.188 F 
HETATM    3  F6  UNL     1     -36.239   5.292   4.360  1.00 20.00    -0.188 F 
ENDROOT
BRANCH   1   4
HETATM    4  C1  UNL     1     -34.580   5.100   6.015  1.00 20.00     0.319 C 
HETATM    5  O4  UNL     1     -34.477   6.204   6.538  1.00 20.00    -0.300 OA
ENDBRANCH   1   4
BRANCH   1   6
HETATM    6  C3  UNL     1     -34.049   5.686   3.665  1.00 20.00     0.461 C 
HETATM    7  F7  UNL     1     -34.122   5.239   2.393  1.00 20.00    -0.165 F 
HETATM    8  F8  UNL     1     -34.397   6.992   3.661  1.00 20.00    -0.165 F 
HETATM    9  F9  UNL     1     -32.762   5.605   4.062  1.00 20.00    -0.165 F 
ENDBRANCH   1   6
TORSDOF 2
ENDMDL
MODEL 6
REMARK VINA RESULT:      -4.6      1.717      2.947
REMARK  2 active torsions:
REMARK  status: ('A' for Active; 'I' for Inactive)
REMARK    1  A    between atoms: C1_1  and  C2_2 
REMARK    2  A    between atoms: C2_2  and  C3_3 
ROOT
HETATM    1  C2  UNL     1     -33.916   6.340   4.147  1.00 20.00     0.391 C 
HETATM    2  F5  UNL     1     -33.807   6.182   5.492  1.00 20.00    -0.188 F 
HETATM    3  F6  UNL     1     -34.490   7.554   3.945  1.00 20.00    -0.188 F 
ENDROOT
BRANCH   1   4
HETATM    4  C1  UNL     1     -32.569   6.279   3.482  1.00 20.00     0.319 C 
HETATM    5  O4  UNL     1     -32.133   7.168   2.759  1.00 20.00    -0.300 OA
ENDBRANCH   1   4
BRANCH   1   6
HETATM    6  C3  UNL     1     -34.832   5.273   3.604  1.00 20.00     0.461 C 
HETATM    7  F7  UNL     1     -36.083   5.748   3.422  1.00 20.00    -0.165 F 
HETATM    8  F8  UNL     1     -34.387   4.826   2.409  1.00 20.00    -0.165 F 
HETATM    9  F9  UNL     1     -34.905   4.214   4.437  1.00 20.00    -0.165 F 
ENDBRANCH   1   6
TORSDOF 2
ENDMDL
MODEL 7
REMARK VINA RESULT:      -4.6      0.914      1.832
REMARK  2 active torsions:
REMARK  status: ('A' for Active; 'I' for Inactive)
REMARK    1  A    between atoms: C1_1  and  C2_2 
REMARK    2  A    between atoms: C2_2  and  C3_3 
ROOT
HETATM    1  C2  UNL     1     -34.480   5.734   4.732  1.00 20.00     0.391 C 
HETATM    2  F5  UNL     1     -34.377   6.748   5.631  1.00 20.00    -0.188 F 
HETATM    3  F6  UNL     1     -35.570   6.005   3.967  1.00 20.00    -0.188 F 
ENDROOT
BRANCH   1   4
HETATM    4  C1  UNL     1     -33.249   5.639   3.876  1.00 20.00     0.319 C 
HETATM    5  O4  UNL     1     -32.513   6.592   3.645  1.00 20.00    -0.300 OA
ENDBRANCH   1   4
BRANCH   1   6
HETATM    6  C3  UNL     1     -34.719   4.445   5.477  1.00 20.00     0.461 C 
HETATM    7  F7  UNL     1     -33.586   3.996   6.057  1.00 20.00    -0.165 F 
HETATM    8  F8  UNL     1     -35.636   4.623   6.454  1.00 20.00    -0.165 F 
HETATM    9  F9  UNL     1     -35.178   3.478   4.655  1.00 20.00    -0.165 F 
ENDBRANCH   1   6
TORSDOF 2
ENDMDL
MODEL 8
REMARK VINA RESULT:      -4.5      2.218      2.948
REMARK  2 active torsions:
REMARK  status: ('A' for Active; 'I' for Inactive)
REMARK    1  A    between atoms: C1_1  and  C2_2 
REMARK    2  A    between atoms: C2_2  and  C3_3 
ROOT
HETATM    1  C2  UNL     1     -34.733   5.404   3.819  1.00 20.00     0.391 C 
HETATM    2  F5  UNL     1     -34.406   4.547   2.816  1.00 20.00    -0.188 F 
HETATM    3  F6  UNL     1     -35.809   6.112   3.387  1.00 20.00    -0.188 F 
ENDROOT
BRANCH   1   4
HETATM    4  C1  UNL     1     -35.067   4.661   5.082  1.00 20.00     0.319 C 
HETATM    5  O4  UNL     1     -35.007   3.440   5.183  1.00 20.00    -0.300 OA
ENDBRANCH   1   4
BRANCH   1   6
HETATM    6  C3  UNL     1     -33.585   6.355   4.041  1.00 20.00     0.461 C 
HETATM    7  F7  UNL     1     -33.779   7.520   3.387  1.00 20.00    -0.165 F 
HETATM    8  F8  UNL     1     -33.451   6.641   5.355  1.00 20.00    -0.165 F 
HETATM    9  F9  UNL     1     -32.418   5.828   3.615  1.00 20.00    -0.165 F 
ENDBRANCH   1   6
TORSDOF 2
ENDMDL
MODEL 9
REMARK VINA RESULT:      -4.4      1.784      2.566
REMARK  2 active torsions:
REMARK  status: ('A' for Active; 'I' for Inactive)
REMARK    1  A    between atoms: C1_1  and  C2_2 
REMARK    2  A    between atoms: C2_2  and  C3_3 
ROOT
HETATM    1  C2  UNL     1     -34.217   5.755   4.805  1.00 20.00     0.391 C 
HETATM    2  F5  UNL     1     -32.986   5.504   4.287  1.00 20.00    -0.188 F 
HETATM    3  F6  UNL     1     -34.576   6.989   4.366  1.00 20.00    -0.188 F 
ENDROOT
BRANCH   1   4
HETATM    4  C1  UNL     1     -35.216   4.727   4.355  1.00 20.00     0.319 C 
HETATM    5  O4  UNL     1     -35.208   3.563   4.742  1.00 20.00    -0.300 OA
ENDBRANCH   1   4
BRANCH   1   6
HETATM    6  C3  UNL     1     -34.116   5.786   6.309  1.00 20.00     0.461 C 
HETATM    7  F7  UNL     1     -33.434   4.719   6.777  1.00 20.00    -0.165 F 
HETATM    8  F8  UNL     1     -33.467   6.898   6.720  1.00 20.00    -0.165 F 
HETATM    9  F9  UNL     1     -35.336   5.786   6.886  1.00 20.00    -0.165 F 
ENDBRANCH   1   6
TORSDOF 2
ENDMDL
