MODEL 1
REMARK VINA RESULT:      -4.0      0.000      0.000
REMARK  3 active torsions:
REMARK  status: ('A' for Active; 'I' for Inactive)
REMARK    1  A    between atoms: C5_5  and  C7_7 
REMARK    2  A    between atoms: C5_5  and  C8_8 
REMARK    3  A    between atoms: C6_6  and  C8_8 
ROOT
HETATM    1  C3  UNL     1     -32.907  14.095  -3.559  1.00 20.00     0.016 C 
HETATM    2  C4  UNL     1     -35.182  13.331  -4.265  1.00 20.00     0.016 C 
HETATM    3  C8  UNL     1     -34.273  14.571  -4.094  1.00 20.00    -0.035 C 
ENDROOT
BRANCH   3   4
HETATM    4  C5  UNL     1     -34.961  15.495  -3.038  1.00 20.00     0.013 C 
BRANCH   4   5
HETATM    5  C7  UNL     1     -34.034  16.389  -2.180  1.00 20.00    -0.022 C 
HETATM    6  C1  UNL     1     -33.822  17.764  -2.822  1.00 20.00     0.009 C 
HETATM    7  C2  UNL     1     -34.632  16.584  -0.782  1.00 20.00     0.009 C 
ENDBRANCH   4   5
ENDBRANCH   3   4
BRANCH   3   8
HETATM    8  C6  UNL     1     -34.110  15.309  -5.443  1.00 20.00     0.123 C 
HETATM    9 CL9  UNL     1     -34.889  14.492  -6.826  1.00 20.00    -0.130 Cl
ENDBRANCH   3   8
TORSDOF 3
ENDMDL
MODEL 2
REMARK VINA RESULT:      -4.0     10.740     11.626
REMARK  3 active torsions:
REMARK  status: ('A' for Active; 'I' for Inactive)
REMARK    1  A    between atoms: C5_5  and  C7_7 
REMARK    2  A    between atoms: C5_5  and  C8_8 
REMARK    3  A    between atoms: C6_6  and  C8_8 
ROOT
HETATM    1  C3  UNL     1     -31.419   7.741   4.119  1.00 20.00     0.016 C 
HETATM    2  C4  UNL     1     -31.908   5.589   2.944  1.00 20.00     0.016 C 
HETATM    3  C8  UNL     1     -32.404   7.037   3.164  1.00 20.00    -0.035 C 
ENDROOT
BRANCH   3   4
HETATM    4  C5  UNL     1     -33.811   6.937   3.837  1.00 20.00     0.013 C 
BRANCH   4   5
HETATM    5  C7  UNL     1     -34.025   5.785   4.848  1.00 20.00    -0.022 C 
HETATM    6  C1  UNL     1     -34.151   6.309   6.282  1.00 20.00     0.009 C 
HETATM    7  C2  UNL     1     -35.293   5.001   4.495  1.00 20.00     0.009 C 
ENDBRANCH   4   5
ENDBRANCH   3   4
BRANCH   3   8
HETATM    8  C6  UNL     1     -32.494   7.787   1.815  1.00 20.00     0.123 C 
HETATM    9 CL9  UNL     1     -32.504   9.567   1.964  1.00 20.00    -0.130 Cl
ENDBRANCH   3   8
TORSDOF 3
ENDMDL
MODEL 3
REMARK VINA RESULT:      -3.7      1.091      1.357
REMARK  3 active torsions:
REMARK  status: ('A' for Active; 'I' for Inactive)
REMARK    1  A    between atoms: C5_5  and  C7_7 
REMARK    2  A    between atoms: C5_5  and  C8_8 
REMARK    3  A    between atoms: C6_6  and  C8_8 
ROOT
HETATM    1  C3  UNL     1     -33.189  16.075  -4.463  1.00 20.00     0.016 C 
HETATM    2  C4  UNL     1     -33.333  13.683  -3.745  1.00 20.00     0.016 C 
HETATM    3  C8  UNL     1     -34.166  14.926  -4.136  1.00 20.00    -0.035 C 
ENDROOT
BRANCH   3   4
HETATM    4  C5  UNL     1     -35.027  15.305  -2.887  1.00 20.00     0.013 C 
BRANCH   4   5
HETATM    5  C7  UNL     1     -34.825  16.723  -2.301  1.00 20.00    -0.022 C 
HETATM    6  C1  UNL     1     -36.040  17.620  -2.558  1.00 20.00     0.009 C 
HETATM    7  C2  UNL     1     -34.583  16.640  -0.790  1.00 20.00     0.009 C 
ENDBRANCH   4   5
ENDBRANCH   3   4
BRANCH   3   8
HETATM    8  C6  UNL     1     -35.070  14.610  -5.349  1.00 20.00     0.123 C 
HETATM    9 CL9  UNL     1     -34.315  14.938  -6.933  1.00 20.00    -0.130 Cl
ENDBRANCH   3   8
TORSDOF 3
ENDMDL
MODEL 4
REMARK VINA RESULT:      -3.7      1.451      2.335
REMARK  3 active torsions:
REMARK  status: ('A' for Active; 'I' for Inactive)
REMARK    1  A    between atoms: C5_5  and  C7_7 
REMARK    2  A    between atoms: C5_5  and  C8_8 
REMARK    3  A    between atoms: C6_6  and  C8_8 
ROOT
HETATM    1  C3  UNL     1     -33.347  16.524  -4.902  1.00 20.00     0.016 C 
HETATM    2  C4  UNL     1     -32.572  14.555  -3.569  1.00 20.00     0.016 C 
HETATM    3  C8  UNL     1     -33.672  15.636  -3.684  1.00 20.00    -0.035 C 
ENDROOT
BRANCH   3   4
HETATM    4  C5  UNL     1     -33.608  16.490  -2.376  1.00 20.00     0.013 C 
BRANCH   4   5
HETATM    5  C7  UNL     1     -34.954  16.825  -1.691  1.00 20.00    -0.022 C 
HETATM    6  C1  UNL     1     -34.794  16.980  -0.175  1.00 20.00     0.009 C 
HETATM    7  C2  UNL     1     -35.528  18.127  -2.262  1.00 20.00     0.009 C 
ENDBRANCH   4   5
ENDBRANCH   3   4
BRANCH   3   8
HETATM    8  C6  UNL     1     -35.062  14.977  -3.839  1.00 20.00     0.123 C 
HETATM    9 CL9  UNL     1     -35.009  13.224  -4.177  1.00 20.00    -0.130 Cl
ENDBRANCH   3   8
TORSDOF 3
ENDMDL
MODEL 5
REMARK VINA RESULT:      -3.6      1.766      3.195
REMARK  3 active torsions:
REMARK  status: ('A' for Active; 'I' for Inactive)
REMARK    1  A    between atoms: C5_5  and  C7_7 
REMARK    2  A    between atoms: C5_5  and  C8_8 
REMARK    3  A    between atoms: C6_6  and  C8_8 
ROOT
HETATM    1  C3  UNL     1     -32.924  15.149  -3.569  1.00 20.00     0.016 C 
HETATM    2  C4  UNL     1     -34.674  16.033  -2.016  1.00 20.00     0.016 C 
HETATM    3  C8  UNL     1     -34.416  15.518  -3.452  1.00 20.00    -0.035 C 
ENDROOT
BRANCH   3   4
HETATM    4  C5  UNL     1     -34.746  16.699  -4.422  1.00 20.00     0.013 C 
BRANCH   4   5
HETATM    5  C7  UNL     1     -33.795  16.902  -5.627  1.00 20.00    -0.022 C 
HETATM    6  C1  UNL     1     -34.309  16.185  -6.879  1.00 20.00     0.009 C 
HETATM    7  C2  UNL     1     -33.648  18.395  -5.938  1.00 20.00     0.009 C 
ENDBRANCH   4   5
ENDBRANCH   3   4
BRANCH   3   8
HETATM    8  C6  UNL     1     -35.312  14.295  -3.754  1.00 20.00     0.123 C 
HETATM    9 CL9  UNL     1     -34.581  13.109  -4.872  1.00 20.00    -0.130 Cl
ENDBRANCH   3   8
TORSDOF 3
ENDMDL
MODEL 6
REMARK VINA RESULT:      -3.6      2.376      4.043
REMARK  3 active torsions:
REMARK  status: ('A' for Active; 'I' for Inactive)
REMARK    1  A    between atoms: C5_5  and  C7_7 
REMARK    2  A    between atoms: C5_5  and  C8_8 
REMARK    3  A    between atoms: C6_6  and  C8_8 
ROOT
HETATM    1  C3  UNL     1     -34.525  13.574  -3.831  1.00 20.00     0.016 C 
HETATM    2  C4  UNL     1     -32.999  15.556  -3.875  1.00 20.00     0.016 C 
HETATM    3  C8  UNL     1     -34.481  15.116  -3.818  1.00 20.00    -0.035 C 
ENDROOT
BRANCH   3   4
HETATM    4  C5  UNL     1     -35.170  15.675  -5.105  1.00 20.00     0.013 C 
BRANCH   4   5
HETATM    5  C7  UNL     1     -34.274  15.869  -6.352  1.00 20.00    -0.022 C 
HETATM    6  C1  UNL     1     -34.619  14.865  -7.457  1.00 20.00     0.009 C 
HETATM    7  C2  UNL     1     -34.439  17.289  -6.905  1.00 20.00     0.009 C 
ENDBRANCH   4   5
ENDBRANCH   3   4
BRANCH   3   8
HETATM    8  C6  UNL     1     -35.160  15.676  -2.547  1.00 20.00     0.123 C 
HETATM    9 CL9  UNL     1     -34.078  16.635  -1.498  1.00 20.00    -0.130 Cl
ENDBRANCH   3   8
TORSDOF 3
ENDMDL
MODEL 7
REMARK VINA RESULT:      -3.6     11.133     12.030
REMARK  3 active torsions:
REMARK  status: ('A' for Active; 'I' for Inactive)
REMARK    1  A    between atoms: C5_5  and  C7_7 
REMARK    2  A    between atoms: C5_5  and  C8_8 
REMARK    3  A    between atoms: C6_6  and  C8_8 
ROOT
HETATM    1  C3  UNL     1     -35.877   5.850   3.522  1.00 20.00     0.016 C 
HETATM    2  C4  UNL     1     -33.724   4.848   2.738  1.00 20.00     0.016 C 
HETATM    3  C8  UNL     1     -34.360   5.782   3.793  1.00 20.00    -0.035 C 
ENDROOT
BRANCH   3   4
HETATM    4  C5  UNL     1     -33.724   7.196   3.591  1.00 20.00     0.013 C 
BRANCH   4   5
HETATM    5  C7  UNL     1     -32.314   7.245   2.954  1.00 20.00    -0.022 C 
HETATM    6  C1  UNL     1     -32.229   8.305   1.851  1.00 20.00     0.009 C 
HETATM    7  C2  UNL     1     -31.262   7.560   4.023  1.00 20.00     0.009 C 
ENDBRANCH   4   5
ENDBRANCH   3   4
BRANCH   3   8
HETATM    8  C6  UNL     1     -34.079   5.255   5.219  1.00 20.00     0.123 C 
HETATM    9 CL9  UNL     1     -34.026   6.525   6.474  1.00 20.00    -0.130 Cl
ENDBRANCH   3   8
TORSDOF 3
ENDMDL
MODEL 8
REMARK VINA RESULT:      -3.6      1.835      2.853
REMARK  3 active torsions:
REMARK  status: ('A' for Active; 'I' for Inactive)
REMARK    1  A    between atoms: C5_5  and  C7_7 
REMARK    2  A    between atoms: C5_5  and  C8_8 
REMARK    3  A    between atoms: C6_6  and  C8_8 
ROOT
HETATM    1  C3  UNL     1     -35.794  15.092  -3.280  1.00 20.00     0.016 C 
HETATM    2  C4  UNL     1     -34.978  17.443  -3.523  1.00 20.00     0.016 C 
HETATM    3  C8  UNL     1     -34.647  16.058  -2.920  1.00 20.00    -0.035 C 
ENDROOT
BRANCH   3   4
HETATM    4  C5  UNL     1     -34.580  16.242  -1.369  1.00 20.00     0.013 C 
BRANCH   4   5
HETATM    5  C7  UNL     1     -34.578  17.695  -0.836  1.00 20.00    -0.022 C 
HETATM    6  C1  UNL     1     -35.467  17.842   0.403  1.00 20.00     0.009 C 
HETATM    7  C2  UNL     1     -33.152  18.123  -0.474  1.00 20.00     0.009 C 
ENDBRANCH   4   5
ENDBRANCH   3   4
BRANCH   3   8
HETATM    8  C6  UNL     1     -33.298  15.539  -3.469  1.00 20.00     0.123 C 
HETATM    9 CL9  UNL     1     -33.236  13.771  -3.715  1.00 20.00    -0.130 Cl
ENDBRANCH   3   8
TORSDOF 3
ENDMDL
MODEL 9
REMARK VINA RESULT:      -3.6      2.375      4.015
REMARK  3 active torsions:
REMARK  status: ('A' for Active; 'I' for Inactive)
REMARK    1  A    between atoms: C5_5  and  C7_7 
REMARK    2  A    between atoms: C5_5  and  C8_8 
REMARK    3  A    between atoms: C6_6  and  C8_8 
ROOT
HETATM    1  C3  UNL     1     -35.733  15.227  -3.709  1.00 20.00     0.016 C 
HETATM    2  C4  UNL     1     -33.634  13.867  -3.727  1.00 20.00     0.016 C 
HETATM    3  C8  UNL     1     -34.196  15.305  -3.805  1.00 20.00    -0.035 C 
ENDROOT
BRANCH   3   4
HETATM    4  C5  UNL     1     -33.783  15.879  -5.200  1.00 20.00     0.013 C 
BRANCH   4   5
HETATM    5  C7  UNL     1     -34.882  15.933  -6.288  1.00 20.00    -0.022 C 
HETATM    6  C1  UNL     1     -34.945  17.308  -6.960  1.00 20.00     0.009 C 
HETATM    7  C2  UNL     1     -34.616  14.871  -7.361  1.00 20.00     0.009 C 
ENDBRANCH   4   5
ENDBRANCH   3   4
BRANCH   3   8
HETATM    8  C6  UNL     1     -33.616  16.173  -2.664  1.00 20.00     0.123 C 
HETATM    9 CL9  UNL     1     -34.674  16.304  -1.232  1.00 20.00    -0.130 Cl
ENDBRANCH   3   8
TORSDOF 3
ENDMDL
