MODEL 1
REMARK VINA RESULT:      -4.6      0.000      0.000
REMARK  2 active torsions:
REMARK  status: ('A' for Active; 'I' for Inactive)
REMARK    1  A    between atoms: C3_3  and  C8_8 
REMARK    2  A    between atoms: C4_4  and  C7_7 
ROOT
HETATM    1  C5  UNL     1     -34.583   6.573   3.130  1.00 20.00     0.040 C 
HETATM    2  C6  UNL     1     -35.288   5.517   3.950  1.00 20.00     0.045 C 
HETATM    3  C7  UNL     1     -33.132   6.137   3.249  1.00 20.00     0.151 C 
HETATM    4  C8  UNL     1     -34.304   5.277   5.095  1.00 20.00     0.075 C 
HETATM    5  C10 UNL     1     -34.357   3.842   5.609  1.00 20.00     0.050 C 
HETATM    6  O11 UNL     1     -32.994   5.522   4.543  1.00 20.00    -0.367 OA
ENDROOT
BRANCH   3   7
HETATM    7  C4  UNL     1     -32.168   7.264   3.120  1.00 20.00    -0.065 C 
HETATM    8  C2  UNL     1     -31.261   7.532   4.071  1.00 20.00     0.016 C 
HETATM    9  C9  UNL     1     -32.269   8.080   1.866  1.00 20.00     0.045 C 
ENDBRANCH   3   7
BRANCH   4  10
HETATM   10  C3  UNL     1     -34.511   6.233   6.234  1.00 20.00     0.000 C 
HETATM   11  C1  UNL     1     -33.567   7.061   6.696  1.00 20.00     0.010 C 
ENDBRANCH   4  10
TORSDOF 2
ENDMDL
MODEL 2
REMARK VINA RESULT:      -4.4     11.500     12.625
REMARK  2 active torsions:
REMARK  status: ('A' for Active; 'I' for Inactive)
REMARK    1  A    between atoms: C3_3  and  C8_8 
REMARK    2  A    between atoms: C4_4  and  C7_7 
ROOT
HETATM    1  C5  UNL     1     -33.600  16.743  -4.306  1.00 20.00     0.040 C 
HETATM    2  C6  UNL     1     -33.877  15.562  -5.209  1.00 20.00     0.045 C 
HETATM    3  C7  UNL     1     -33.585  16.085  -2.935  1.00 20.00     0.151 C 
HETATM    4  C8  UNL     1     -34.857  14.735  -4.377  1.00 20.00     0.075 C 
HETATM    5  C10 UNL     1     -34.726  13.241  -4.650  1.00 20.00     0.050 C 
HETATM    6  O11 UNL     1     -34.510  14.985  -2.999  1.00 20.00    -0.367 OA
ENDROOT
BRANCH   3   7
HETATM    7  C4  UNL     1     -33.975  17.011  -1.837  1.00 20.00    -0.065 C 
HETATM    8  C2  UNL     1     -34.675  16.591  -0.773  1.00 20.00     0.016 C 
HETATM    9  C9  UNL     1     -33.539  18.438  -1.988  1.00 20.00     0.045 C 
ENDBRANCH   3   7
BRANCH   4  10
HETATM   10  C3  UNL     1     -36.281  15.166  -4.580  1.00 20.00     0.000 C 
HETATM   11  C1  UNL     1     -37.262  14.947  -3.698  1.00 20.00     0.010 C 
ENDBRANCH   4  10
TORSDOF 2
ENDMDL
MODEL 3
REMARK VINA RESULT:      -4.2     11.511     13.215
REMARK  2 active torsions:
REMARK  status: ('A' for Active; 'I' for Inactive)
REMARK    1  A    between atoms: C3_3  and  C8_8 
REMARK    2  A    between atoms: C4_4  and  C7_7 
ROOT
HETATM    1  C5  UNL     1     -34.545  13.699  -5.253  1.00 20.00     0.040 C 
HETATM    2  C6  UNL     1     -34.579  13.782  -3.743  1.00 20.00     0.045 C 
HETATM    3  C7  UNL     1     -34.251  15.141  -5.633  1.00 20.00     0.151 C 
HETATM    4  C8  UNL     1     -35.242  15.138  -3.503  1.00 20.00     0.075 C 
HETATM    5  C10 UNL     1     -34.751  15.800  -2.220  1.00 20.00     0.050 C 
HETATM    6  O11 UNL     1     -34.863  15.964  -4.624  1.00 20.00    -0.367 OA
ENDROOT
BRANCH   3   7
HETATM    7  C4  UNL     1     -34.778  15.511  -6.975  1.00 20.00    -0.065 C 
HETATM    8  C2  UNL     1     -34.608  16.739  -7.488  1.00 20.00     0.016 C 
HETATM    9  C9  UNL     1     -35.508  14.434  -7.719  1.00 20.00     0.045 C 
ENDBRANCH   3   7
BRANCH   4  10
HETATM   10  C3  UNL     1     -36.740  15.044  -3.486  1.00 20.00     0.000 C 
HETATM   11  C1  UNL     1     -37.548  15.832  -4.204  1.00 20.00     0.010 C 
ENDBRANCH   4  10
TORSDOF 2
ENDMDL
MODEL 4
REMARK VINA RESULT:      -4.2     11.381     13.545
REMARK  2 active torsions:
REMARK  status: ('A' for Active; 'I' for Inactive)
REMARK    1  A    between atoms: C3_3  and  C8_8 
REMARK    2  A    between atoms: C4_4  and  C7_7 
ROOT
HETATM    1  C5  UNL     1     -34.035  17.117  -5.600  1.00 20.00     0.040 C 
HETATM    2  C6  UNL     1     -33.599  17.335  -4.168  1.00 20.00     0.045 C 
HETATM    3  C7  UNL     1     -35.362  16.401  -5.411  1.00 20.00     0.151 C 
HETATM    4  C8  UNL     1     -34.065  16.050  -3.483  1.00 20.00     0.075 C 
HETATM    5  C10 UNL     1     -34.442  16.281  -2.024  1.00 20.00     0.050 C 
HETATM    6  O11 UNL     1     -35.242  15.628  -4.203  1.00 20.00    -0.367 OA
ENDROOT
BRANCH   3   7
HETATM    7  C4  UNL     1     -35.713  15.508  -6.549  1.00 20.00    -0.065 C 
HETATM    8  C2  UNL     1     -36.987  15.254  -6.883  1.00 20.00     0.016 C 
HETATM    9  C9  UNL     1     -34.562  14.912  -7.301  1.00 20.00     0.045 C 
ENDBRANCH   3   7
BRANCH   4  10
HETATM   10  C3  UNL     1     -33.047  14.952  -3.579  1.00 20.00     0.000 C 
HETATM   11  C1  UNL     1     -33.350  13.666  -3.789  1.00 20.00     0.010 C 
ENDBRANCH   4  10
TORSDOF 2
ENDMDL
MODEL 5
REMARK VINA RESULT:      -4.2     11.568     13.248
REMARK  2 active torsions:
REMARK  status: ('A' for Active; 'I' for Inactive)
REMARK    1  A    between atoms: C3_3  and  C8_8 
REMARK    2  A    between atoms: C4_4  and  C7_7 
ROOT
HETATM    1  C5  UNL     1     -34.373  14.305  -3.405  1.00 20.00     0.040 C 
HETATM    2  C6  UNL     1     -35.021  13.796  -4.673  1.00 20.00     0.045 C 
HETATM    3  C7  UNL     1     -35.232  15.518  -3.086  1.00 20.00     0.151 C 
HETATM    4  C8  UNL     1     -35.402  15.090  -5.391  1.00 20.00     0.075 C 
HETATM    5  C10 UNL     1     -36.657  14.929  -6.242  1.00 20.00     0.050 C 
HETATM    6  O11 UNL     1     -35.671  16.051  -4.348  1.00 20.00    -0.367 OA
ENDROOT
BRANCH   3   7
HETATM    7  C4  UNL     1     -34.504  16.566  -2.320  1.00 20.00    -0.065 C 
HETATM    8  C2  UNL     1     -33.739  17.485  -2.929  1.00 20.00     0.016 C 
HETATM    9  C9  UNL     1     -34.676  16.537  -0.831  1.00 20.00     0.045 C 
ENDBRANCH   3   7
BRANCH   4  10
HETATM   10  C3  UNL     1     -34.281  15.626  -6.233  1.00 20.00     0.000 C 
HETATM   11  C1  UNL     1     -34.204  16.891  -6.659  1.00 20.00     0.010 C 
ENDBRANCH   4  10
TORSDOF 2
ENDMDL
MODEL 6
REMARK VINA RESULT:      -4.2     11.385     12.395
REMARK  2 active torsions:
REMARK  status: ('A' for Active; 'I' for Inactive)
REMARK    1  A    between atoms: C3_3  and  C8_8 
REMARK    2  A    between atoms: C4_4  and  C7_7 
ROOT
HETATM    1  C5  UNL     1     -35.456  17.242  -3.030  1.00 20.00     0.040 C 
HETATM    2  C6  UNL     1     -35.680  18.049  -1.770  1.00 20.00     0.045 C 
HETATM    3  C7  UNL     1     -35.184  15.858  -2.464  1.00 20.00     0.151 C 
HETATM    4  C8  UNL     1     -34.666  17.438  -0.803  1.00 20.00     0.075 C 
HETATM    5  C10 UNL     1     -35.144  17.495   0.643  1.00 20.00     0.050 C 
HETATM    6  O11 UNL     1     -34.537  16.055  -1.193  1.00 20.00    -0.367 OA
ENDROOT
BRANCH   3   7
HETATM    7  C4  UNL     1     -34.324  15.023  -3.346  1.00 20.00    -0.065 C 
HETATM    8  C2  UNL     1     -33.062  15.372  -3.639  1.00 20.00     0.016 C 
HETATM    9  C9  UNL     1     -34.947  13.771  -3.885  1.00 20.00     0.045 C 
ENDBRANCH   3   7
BRANCH   4  10
HETATM   10  C3  UNL     1     -33.313  18.078  -0.918  1.00 20.00     0.000 C 
HETATM   11  C1  UNL     1     -32.678  18.674   0.098  1.00 20.00     0.010 C 
ENDBRANCH   4  10
TORSDOF 2
ENDMDL
MODEL 7
REMARK VINA RESULT:      -4.2     11.845     13.297
REMARK  2 active torsions:
REMARK  status: ('A' for Active; 'I' for Inactive)
REMARK    1  A    between atoms: C3_3  and  C8_8 
REMARK    2  A    between atoms: C4_4  and  C7_7 
ROOT
HETATM    1  C5  UNL     1     -33.346  16.390  -4.852  1.00 20.00     0.040 C 
HETATM    2  C6  UNL     1     -33.705  17.513  -3.906  1.00 20.00     0.045 C 
HETATM    3  C7  UNL     1     -34.714  15.967  -5.362  1.00 20.00     0.151 C 
HETATM    4  C8  UNL     1     -35.005  17.011  -3.276  1.00 20.00     0.075 C 
HETATM    5  C10 UNL     1     -35.942  18.153  -2.902  1.00 20.00     0.050 C 
HETATM    6  O11 UNL     1     -35.642  16.201  -4.286  1.00 20.00    -0.367 OA
ENDROOT
BRANCH   3   7
HETATM    7  C4  UNL     1     -34.770  14.538  -5.775  1.00 20.00    -0.065 C 
HETATM    8  C2  UNL     1     -35.172  14.171  -7.000  1.00 20.00     0.016 C 
HETATM    9  C9  UNL     1     -34.349  13.535  -4.744  1.00 20.00     0.045 C 
ENDBRANCH   3   7
BRANCH   4  10
HETATM   10  C3  UNL     1     -34.757  16.142  -2.077  1.00 20.00     0.000 C 
HETATM   11  C1  UNL     1     -34.557  16.613  -0.841  1.00 20.00     0.010 C 
ENDBRANCH   4  10
TORSDOF 2
ENDMDL
MODEL 8
REMARK VINA RESULT:      -4.2     11.389     13.030
REMARK  2 active torsions:
REMARK  status: ('A' for Active; 'I' for Inactive)
REMARK    1  A    between atoms: C3_3  and  C8_8 
REMARK    2  A    between atoms: C4_4  and  C7_7 
ROOT
HETATM    1  C5  UNL     1     -36.358  15.921  -3.806  1.00 20.00     0.040 C 
HETATM    2  C6  UNL     1     -36.341  15.191  -5.131  1.00 20.00     0.045 C 
HETATM    3  C7  UNL     1     -35.101  16.769  -3.906  1.00 20.00     0.151 C 
HETATM    4  C8  UNL     1     -34.850  14.925  -5.341  1.00 20.00     0.075 C 
HETATM    5  C10 UNL     1     -34.471  14.908  -6.817  1.00 20.00     0.050 C 
HETATM    6  O11 UNL     1     -34.163  16.019  -4.699  1.00 20.00    -0.367 OA
ENDROOT
BRANCH   3   7
HETATM    7  C4  UNL     1     -34.502  17.087  -2.582  1.00 20.00    -0.065 C 
HETATM    8  C2  UNL     1     -34.649  16.275  -1.524  1.00 20.00     0.016 C 
HETATM    9  C9  UNL     1     -33.724  18.366  -2.497  1.00 20.00     0.045 C 
ENDBRANCH   3   7
BRANCH   4  10
HETATM   10  C3  UNL     1     -34.402  13.651  -4.685  1.00 20.00     0.000 C 
HETATM   11  C1  UNL     1     -33.401  13.577  -3.800  1.00 20.00     0.010 C 
ENDBRANCH   4  10
TORSDOF 2
ENDMDL
MODEL 9
REMARK VINA RESULT:      -4.1     11.276     13.431
REMARK  2 active torsions:
REMARK  status: ('A' for Active; 'I' for Inactive)
REMARK    1  A    between atoms: C3_3  and  C8_8 
REMARK    2  A    between atoms: C4_4  and  C7_7 
ROOT
HETATM    1  C5  UNL     1     -35.357  15.051  -6.236  1.00 20.00     0.040 C 
HETATM    2  C6  UNL     1     -35.061  13.902  -5.298  1.00 20.00     0.045 C 
HETATM    3  C7  UNL     1     -34.040  15.808  -6.221  1.00 20.00     0.151 C 
HETATM    4  C8  UNL     1     -34.187  14.565  -4.233  1.00 20.00     0.075 C 
HETATM    5  C10 UNL     1     -33.173  13.595  -3.635  1.00 20.00     0.050 C 
HETATM    6  O11 UNL     1     -33.474  15.620  -4.912  1.00 20.00    -0.367 OA
ENDROOT
BRANCH   3   7
HETATM    7  C4  UNL     1     -34.197  17.262  -6.499  1.00 20.00    -0.065 C 
HETATM    8  C2  UNL     1     -34.817  17.710  -7.601  1.00 20.00     0.016 C 
HETATM    9  C9  UNL     1     -33.624  18.197  -5.476  1.00 20.00     0.045 C 
ENDBRANCH   3   7
BRANCH   4  10
HETATM   10  C3  UNL     1     -35.001  15.189  -3.137  1.00 20.00     0.000 C 
HETATM   11  C1  UNL     1     -34.514  16.061  -2.247  1.00 20.00     0.010 C 
ENDBRANCH   4  10
TORSDOF 2
ENDMDL
