MODEL 1
REMARK VINA RESULT:      -2.9      0.000      0.000
REMARK  0 active torsions:
REMARK  status: ('A' for Active; 'I' for Inactive)
ROOT
HETATM    1  C1  UNL     1     -34.302   6.359   5.957  1.00 20.00     0.044 C 
HETATM    2  C2  UNL     1     -35.696   5.668   3.970  1.00 20.00     0.044 C 
HETATM    3  C3  UNL     1     -34.399   5.452   4.738  1.00 20.00     0.087 C 
HETATM    4 CL4  UNL     1     -34.269   3.744   5.241  1.00 20.00    -0.107 Cl
HETATM    5 BR5  UNL     1     -32.895   5.849   3.544  1.00 20.00    -0.069 Br
ENDROOT
TORSDOF 0
ENDMDL
MODEL 2
REMARK VINA RESULT:      -2.9      1.473      2.046
REMARK  0 active torsions:
REMARK  status: ('A' for Active; 'I' for Inactive)
ROOT
HETATM    1  C1  UNL     1     -35.745   5.696   4.043  1.00 20.00     0.044 C 
HETATM    2  C2  UNL     1     -34.294   3.974   5.181  1.00 20.00     0.044 C 
HETATM    3  C3  UNL     1     -34.433   5.433   4.769  1.00 20.00     0.087 C 
HETATM    4 CL4  UNL     1     -34.315   6.484   6.207  1.00 20.00    -0.107 Cl
HETATM    5 BR5  UNL     1     -32.953   5.885   3.565  1.00 20.00    -0.069 Br
ENDROOT
TORSDOF 0
ENDMDL
MODEL 3
REMARK VINA RESULT:      -2.8      1.488      2.074
REMARK  0 active torsions:
REMARK  status: ('A' for Active; 'I' for Inactive)
ROOT
HETATM    1  C1  UNL     1     -34.331   3.947   5.116  1.00 20.00     0.044 C 
HETATM    2  C2  UNL     1     -34.341   6.314   5.991  1.00 20.00     0.044 C 
HETATM    3  C3  UNL     1     -34.421   5.424   4.758  1.00 20.00     0.087 C 
HETATM    4 CL4  UNL     1     -35.940   5.743   3.877  1.00 20.00    -0.107 Cl
HETATM    5 BR5  UNL     1     -32.926   5.870   3.570  1.00 20.00    -0.069 Br
ENDROOT
TORSDOF 0
ENDMDL
MODEL 4
REMARK VINA RESULT:      -2.8      1.990      2.198
REMARK  0 active torsions:
REMARK  status: ('A' for Active; 'I' for Inactive)
ROOT
HETATM    1  C1  UNL     1     -34.485   3.784   5.143  1.00 20.00     0.044 C 
HETATM    2  C2  UNL     1     -35.724   5.659   3.995  1.00 20.00     0.044 C 
HETATM    3  C3  UNL     1     -34.443   5.241   4.704  1.00 20.00     0.087 C 
HETATM    4 CL4  UNL     1     -33.041   5.511   3.633  1.00 20.00    -0.107 Cl
HETATM    5 BR5  UNL     1     -34.217   6.366   6.294  1.00 20.00    -0.069 Br
ENDROOT
TORSDOF 0
ENDMDL
MODEL 5
REMARK VINA RESULT:      -2.8      2.177      2.497
REMARK  0 active torsions:
REMARK  status: ('A' for Active; 'I' for Inactive)
ROOT
HETATM    1  C1  UNL     1     -33.309   5.494   3.703  1.00 20.00     0.044 C 
HETATM    2  C2  UNL     1     -34.638   3.842   5.072  1.00 20.00     0.044 C 
HETATM    3  C3  UNL     1     -34.495   5.294   4.636  1.00 20.00     0.087 C 
HETATM    4 CL4  UNL     1     -35.995   5.837   3.836  1.00 20.00    -0.107 Cl
HETATM    5 BR5  UNL     1     -34.226   6.400   6.233  1.00 20.00    -0.069 Br
ENDROOT
TORSDOF 0
ENDMDL
MODEL 6
REMARK VINA RESULT:      -2.7      1.564      2.089
REMARK  0 active torsions:
REMARK  status: ('A' for Active; 'I' for Inactive)
ROOT
HETATM    1  C1  UNL     1     -35.771   5.749   3.951  1.00 20.00     0.044 C 
HETATM    2  C2  UNL     1     -33.274   5.500   3.684  1.00 20.00     0.044 C 
HETATM    3  C3  UNL     1     -34.468   5.315   4.609  1.00 20.00     0.087 C 
HETATM    4 CL4  UNL     1     -34.584   3.607   5.115  1.00 20.00    -0.107 Cl
HETATM    5 BR5  UNL     1     -34.188   6.405   6.215  1.00 20.00    -0.069 Br
ENDROOT
TORSDOF 0
ENDMDL
MODEL 7
REMARK VINA RESULT:      -2.6      1.927      2.502
REMARK  0 active torsions:
REMARK  status: ('A' for Active; 'I' for Inactive)
ROOT
HETATM    1  C1  UNL     1     -35.607   5.894   3.928  1.00 20.00     0.044 C 
HETATM    2  C2  UNL     1     -34.170   6.537   5.900  1.00 20.00     0.044 C 
HETATM    3  C3  UNL     1     -34.341   5.592   4.719  1.00 20.00     0.087 C 
HETATM    4 CL4  UNL     1     -32.917   5.694   3.648  1.00 20.00    -0.107 Cl
HETATM    5 BR5  UNL     1     -34.457   3.757   5.401  1.00 20.00    -0.069 Br
ENDROOT
TORSDOF 0
ENDMDL
MODEL 8
REMARK VINA RESULT:      -2.6      2.108      2.286
REMARK  0 active torsions:
REMARK  status: ('A' for Active; 'I' for Inactive)
ROOT
HETATM    1  C1  UNL     1     -33.139   5.724   3.784  1.00 20.00     0.044 C 
HETATM    2  C2  UNL     1     -35.652   5.908   3.921  1.00 20.00     0.044 C 
HETATM    3  C3  UNL     1     -34.365   5.605   4.677  1.00 20.00     0.087 C 
HETATM    4 CL4  UNL     1     -34.208   6.707   6.073  1.00 20.00    -0.107 Cl
HETATM    5 BR5  UNL     1     -34.463   3.770   5.362  1.00 20.00    -0.069 Br
ENDROOT
TORSDOF 0
ENDMDL
MODEL 9
REMARK VINA RESULT:      -2.6     12.679     12.875
REMARK  0 active torsions:
REMARK  status: ('A' for Active; 'I' for Inactive)
ROOT
HETATM    1  C1  UNL     1     -34.706  15.527  -2.753  1.00 20.00     0.044 C 
HETATM    2  C2  UNL     1     -34.748  13.444  -4.176  1.00 20.00     0.044 C 
HETATM    3  C3  UNL     1     -34.047  14.766  -3.895  1.00 20.00     0.087 C 
HETATM    4 CL4  UNL     1     -32.328  14.473  -3.516  1.00 20.00    -0.107 Cl
HETATM    5 BR5  UNL     1     -34.133  15.872  -5.512  1.00 20.00    -0.069 Br
ENDROOT
TORSDOF 0
ENDMDL
