MODEL 1
REMARK VINA RESULT:      -4.3      0.000      0.000
REMARK  3 active torsions:
REMARK  status: ('A' for Active; 'I' for Inactive)
REMARK    1  A    between atoms: C1_1  and  C10_10 
REMARK    2  A    between atoms: C2_2  and  C8_8 
REMARK    3  A    between atoms: C9_9  and  C10_10 
ROOT
HETATM    1  C1  UNL     1     -35.399  15.647  -3.090  1.00 20.00    -0.016 C 
HETATM    2  C2  UNL     1     -34.141  15.981  -2.731  1.00 20.00    -0.087 C 
HETATM    3  C3  UNL     1     -32.980  15.473  -3.557  1.00 20.00     0.043 C 
ENDROOT
BRANCH   1   4
HETATM    4  C10 UNL     1     -35.932  14.799  -4.243  1.00 20.00    -0.030 C 
HETATM    5  C6  UNL     1     -35.304  13.391  -4.197  1.00 20.00     0.019 C 
HETATM    6  C7  UNL     1     -37.456  14.607  -4.029  1.00 20.00     0.019 C 
BRANCH   4   7
HETATM    7  C9  UNL     1     -35.704  15.422  -5.649  1.00 20.00     0.008 C 
HETATM    8  C5  UNL     1     -34.924  14.554  -6.631  1.00 20.00     0.006 C 
ENDBRANCH   4   7
ENDBRANCH   1   4
BRANCH   2   9
HETATM    9  C8  UNL     1     -33.741  16.877  -1.583  1.00 20.00     0.029 C 
HETATM   10  C4  UNL     1     -34.742  16.859  -0.435  1.00 20.00     0.010 C 
ENDBRANCH   2   9
TORSDOF 3
ENDMDL
MODEL 2
REMARK VINA RESULT:      -4.2      1.382      2.083
REMARK  3 active torsions:
REMARK  status: ('A' for Active; 'I' for Inactive)
REMARK    1  A    between atoms: C1_1  and  C10_10 
REMARK    2  A    between atoms: C2_2  and  C8_8 
REMARK    3  A    between atoms: C9_9  and  C10_10 
ROOT
HETATM    1  C1  UNL     1     -34.611  15.563  -2.233  1.00 20.00    -0.016 C 
HETATM    2  C2  UNL     1     -34.398  16.719  -1.568  1.00 20.00    -0.087 C 
HETATM    3  C3  UNL     1     -33.669  17.846  -2.263  1.00 20.00     0.043 C 
ENDROOT
BRANCH   1   4
HETATM    4  C10 UNL     1     -34.242  15.128  -3.650  1.00 20.00    -0.030 C 
HETATM    5  C6  UNL     1     -32.710  14.988  -3.777  1.00 20.00     0.019 C 
HETATM    6  C7  UNL     1     -34.832  13.713  -3.883  1.00 20.00     0.019 C 
BRANCH   4   7
HETATM    7  C9  UNL     1     -34.770  16.074  -4.764  1.00 20.00     0.008 C 
HETATM    8  C5  UNL     1     -33.983  16.050  -6.071  1.00 20.00     0.006 C 
ENDBRANCH   4   7
ENDBRANCH   1   4
BRANCH   2   9
HETATM    9  C8  UNL     1     -34.860  17.048  -0.168  1.00 20.00     0.029 C 
HETATM   10  C4  UNL     1     -34.032  18.143   0.493  1.00 20.00     0.010 C 
ENDBRANCH   2   9
TORSDOF 3
ENDMDL
MODEL 3
REMARK VINA RESULT:      -4.1      1.212      2.507
REMARK  3 active torsions:
REMARK  status: ('A' for Active; 'I' for Inactive)
REMARK    1  A    between atoms: C1_1  and  C10_10 
REMARK    2  A    between atoms: C2_2  and  C8_8 
REMARK    3  A    between atoms: C9_9  and  C10_10 
ROOT
HETATM    1  C1  UNL     1     -34.343  15.623  -2.295  1.00 20.00    -0.016 C 
HETATM    2  C2  UNL     1     -34.676  16.784  -1.691  1.00 20.00    -0.087 C 
HETATM    3  C3  UNL     1     -35.033  17.982  -2.543  1.00 20.00     0.043 C 
ENDROOT
BRANCH   1   4
HETATM    4  C10 UNL     1     -34.245  15.241  -3.771  1.00 20.00    -0.030 C 
HETATM    5  C6  UNL     1     -33.173  16.103  -4.469  1.00 20.00     0.019 C 
HETATM    6  C7  UNL     1     -33.750  13.774  -3.851  1.00 20.00     0.019 C 
BRANCH   4   7
HETATM    7  C9  UNL     1     -35.587  15.354  -4.547  1.00 20.00     0.008 C 
HETATM    8  C5  UNL     1     -36.765  14.606  -3.931  1.00 20.00     0.006 C 
ENDBRANCH   4   7
ENDBRANCH   1   4
BRANCH   2   9
HETATM    9  C8  UNL     1     -34.784  17.026  -0.204  1.00 20.00     0.029 C 
HETATM   10  C4  UNL     1     -33.891  18.159   0.284  1.00 20.00     0.010 C 
ENDBRANCH   2   9
TORSDOF 3
ENDMDL
MODEL 4
REMARK VINA RESULT:      -4.1      1.410      2.872
REMARK  3 active torsions:
REMARK  status: ('A' for Active; 'I' for Inactive)
REMARK    1  A    between atoms: C1_1  and  C10_10 
REMARK    2  A    between atoms: C2_2  and  C8_8 
REMARK    3  A    between atoms: C9_9  and  C10_10 
ROOT
HETATM    1  C1  UNL     1     -34.003  16.073  -2.060  1.00 20.00    -0.016 C 
HETATM    2  C2  UNL     1     -34.885  16.868  -1.415  1.00 20.00    -0.087 C 
HETATM    3  C3  UNL     1     -36.019  17.493  -2.194  1.00 20.00     0.043 C 
ENDROOT
BRANCH   1   4
HETATM    4  C10 UNL     1     -33.909  15.643  -3.522  1.00 20.00    -0.030 C 
HETATM    5  C6  UNL     1     -33.599  16.865  -4.412  1.00 20.00     0.019 C 
HETATM    6  C7  UNL     1     -32.701  14.681  -3.660  1.00 20.00     0.019 C 
BRANCH   4   7
HETATM    7  C9  UNL     1     -35.179  14.923  -4.056  1.00 20.00     0.008 C 
HETATM    8  C5  UNL     1     -35.066  13.407  -4.185  1.00 20.00     0.006 C 
ENDBRANCH   4   7
ENDBRANCH   1   4
BRANCH   2   9
HETATM    9  C8  UNL     1     -34.898  17.182   0.063  1.00 20.00     0.029 C 
HETATM   10  C4  UNL     1     -33.874  18.238   0.458  1.00 20.00     0.010 C 
ENDBRANCH   2   9
TORSDOF 3
ENDMDL
MODEL 5
REMARK VINA RESULT:      -4.1      1.900      4.666
REMARK  3 active torsions:
REMARK  status: ('A' for Active; 'I' for Inactive)
REMARK    1  A    between atoms: C1_1  and  C10_10 
REMARK    2  A    between atoms: C2_2  and  C8_8 
REMARK    3  A    between atoms: C9_9  and  C10_10 
ROOT
HETATM    1  C1  UNL     1     -34.161  16.237  -1.927  1.00 20.00    -0.016 C 
HETATM    2  C2  UNL     1     -33.747  15.957  -3.181  1.00 20.00    -0.087 C 
HETATM    3  C3  UNL     1     -33.593  17.085  -4.176  1.00 20.00     0.043 C 
ENDROOT
BRANCH   1   4
HETATM    4  C10 UNL     1     -34.534  17.557  -1.255  1.00 20.00    -0.030 C 
HETATM    5  C6  UNL     1     -35.812  18.134  -1.898  1.00 20.00     0.019 C 
HETATM    6  C7  UNL     1     -34.885  17.256   0.225  1.00 20.00     0.019 C 
BRANCH   4   7
HETATM    7  C9  UNL     1     -33.408  18.628  -1.289  1.00 20.00     0.008 C 
HETATM    8  C5  UNL     1     -32.524  18.688  -0.047  1.00 20.00     0.006 C 
ENDBRANCH   4   7
ENDBRANCH   1   4
BRANCH   2   9
HETATM    9  C8  UNL     1     -33.358  14.599  -3.717  1.00 20.00     0.029 C 
HETATM   10  C4  UNL     1     -34.535  13.637  -3.815  1.00 20.00     0.010 C 
ENDBRANCH   2   9
TORSDOF 3
ENDMDL
MODEL 6
REMARK VINA RESULT:      -4.0      1.510      2.697
REMARK  3 active torsions:
REMARK  status: ('A' for Active; 'I' for Inactive)
REMARK    1  A    between atoms: C1_1  and  C10_10 
REMARK    2  A    between atoms: C2_2  and  C8_8 
REMARK    3  A    between atoms: C9_9  and  C10_10 
ROOT
HETATM    1  C1  UNL     1     -35.105  16.192  -1.654  1.00 20.00    -0.016 C 
HETATM    2  C2  UNL     1     -34.531  17.060  -0.794  1.00 20.00    -0.087 C 
HETATM    3  C3  UNL     1     -33.353  17.887  -1.257  1.00 20.00     0.043 C 
ENDROOT
BRANCH   1   4
HETATM    4  C10 UNL     1     -34.786  15.847  -3.108  1.00 20.00    -0.030 C 
HETATM    5  C6  UNL     1     -35.797  14.808  -3.637  1.00 20.00     0.019 C 
HETATM    6  C7  UNL     1     -34.987  17.128  -3.957  1.00 20.00     0.019 C 
BRANCH   4   7
HETATM    7  C9  UNL     1     -33.340  15.324  -3.335  1.00 20.00     0.008 C 
HETATM    8  C5  UNL     1     -33.229  13.851  -3.715  1.00 20.00     0.006 C 
ENDBRANCH   4   7
ENDBRANCH   1   4
BRANCH   2   9
HETATM    9  C8  UNL     1     -34.974  17.349   0.621  1.00 20.00     0.029 C 
HETATM   10  C4  UNL     1     -34.117  18.401   1.313  1.00 20.00     0.010 C 
ENDBRANCH   2   9
TORSDOF 3
ENDMDL
MODEL 7
REMARK VINA RESULT:      -4.0      0.815      1.626
REMARK  3 active torsions:
REMARK  status: ('A' for Active; 'I' for Inactive)
REMARK    1  A    between atoms: C1_1  and  C10_10 
REMARK    2  A    between atoms: C2_2  and  C8_8 
REMARK    3  A    between atoms: C9_9  and  C10_10 
ROOT
HETATM    1  C1  UNL     1     -35.954  15.701  -2.632  1.00 20.00    -0.016 C 
HETATM    2  C2  UNL     1     -34.770  16.068  -2.093  1.00 20.00    -0.087 C 
HETATM    3  C3  UNL     1     -33.501  15.849  -2.884  1.00 20.00     0.043 C 
ENDROOT
BRANCH   1   4
HETATM    4  C10 UNL     1     -36.300  15.064  -3.976  1.00 20.00    -0.030 C 
HETATM    5  C6  UNL     1     -37.813  14.770  -4.046  1.00 20.00     0.019 C 
HETATM    6  C7  UNL     1     -36.003  16.104  -5.087  1.00 20.00     0.019 C 
BRANCH   4   7
HETATM    7  C9  UNL     1     -35.505  13.765  -4.287  1.00 20.00     0.008 C 
HETATM    8  C5  UNL     1     -34.830  13.723  -5.655  1.00 20.00     0.006 C 
ENDBRANCH   4   7
ENDBRANCH   1   4
BRANCH   2   9
HETATM    9  C8  UNL     1     -34.561  16.741  -0.757  1.00 20.00     0.029 C 
HETATM   10  C4  UNL     1     -33.482  17.815  -0.791  1.00 20.00     0.010 C 
ENDBRANCH   2   9
TORSDOF 3
ENDMDL
MODEL 8
REMARK VINA RESULT:      -3.9      1.663      3.091
REMARK  3 active torsions:
REMARK  status: ('A' for Active; 'I' for Inactive)
REMARK    1  A    between atoms: C1_1  and  C10_10 
REMARK    2  A    between atoms: C2_2  and  C8_8 
REMARK    3  A    between atoms: C9_9  and  C10_10 
ROOT
HETATM    1  C1  UNL     1     -33.673  17.586  -2.920  1.00 20.00    -0.016 C 
HETATM    2  C2  UNL     1     -33.948  17.716  -1.604  1.00 20.00    -0.087 C 
HETATM    3  C3  UNL     1     -34.613  16.571  -0.874  1.00 20.00     0.043 C 
ENDROOT
BRANCH   1   4
HETATM    4  C10 UNL     1     -33.912  16.436  -3.896  1.00 20.00    -0.030 C 
HETATM    5  C6  UNL     1     -35.426  16.173  -4.041  1.00 20.00     0.019 C 
HETATM    6  C7  UNL     1     -33.409  16.883  -5.293  1.00 20.00     0.019 C 
BRANCH   4   7
HETATM    7  C9  UNL     1     -33.192  15.114  -3.510  1.00 20.00     0.008 C 
HETATM    8  C5  UNL     1     -34.032  13.847  -3.643  1.00 20.00     0.006 C 
ENDBRANCH   4   7
ENDBRANCH   1   4
BRANCH   2   9
HETATM    9  C8  UNL     1     -33.614  18.901  -0.729  1.00 20.00     0.029 C 
HETATM   10  C4  UNL     1     -32.323  18.718   0.057  1.00 20.00     0.010 C 
ENDBRANCH   2   9
TORSDOF 3
ENDMDL
MODEL 9
REMARK VINA RESULT:      -3.9     11.075     12.169
REMARK  3 active torsions:
REMARK  status: ('A' for Active; 'I' for Inactive)
REMARK    1  A    between atoms: C1_1  and  C10_10 
REMARK    2  A    between atoms: C2_2  and  C8_8 
REMARK    3  A    between atoms: C9_9  and  C10_10 
ROOT
HETATM    1  C1  UNL     1     -33.028   6.700   4.613  1.00 20.00    -0.016 C 
HETATM    2  C2  UNL     1     -34.147   5.964   4.788  1.00 20.00    -0.087 C 
HETATM    3  C3  UNL     1     -34.834   5.369   3.580  1.00 20.00     0.043 C 
ENDROOT
BRANCH   1   4
HETATM    4  C10 UNL     1     -32.255   7.082   3.353  1.00 20.00    -0.030 C 
HETATM    5  C6  UNL     1     -30.886   7.682   3.736  1.00 20.00     0.019 C 
HETATM    6  C7  UNL     1     -31.958   5.782   2.562  1.00 20.00     0.019 C 
BRANCH   4   7
HETATM    7  C9  UNL     1     -33.009   8.069   2.419  1.00 20.00     0.008 C 
HETATM    8  C5  UNL     1     -32.136   8.825   1.422  1.00 20.00     0.006 C 
ENDBRANCH   4   7
ENDBRANCH   1   4
BRANCH   2   9
HETATM    9  C8  UNL     1     -34.796   5.613   6.106  1.00 20.00     0.029 C 
HETATM   10  C4  UNL     1     -35.166   4.140   6.217  1.00 20.00     0.010 C 
ENDBRANCH   2   9
TORSDOF 3
ENDMDL
