MODEL 1
REMARK VINA RESULT:      -5.5      0.000      0.000
REMARK  0 active torsions:
REMARK  status: ('A' for Active; 'I' for Inactive)
ROOT
HETATM    1  C1  UNL     1     -33.517  14.376  -3.866  1.00 20.00     0.047 C 
HETATM    2  C2  UNL     1     -33.496  15.613  -3.358  1.00 20.00    -0.014 C 
HETATM    3  C3  UNL     1     -34.804  13.705  -4.161  1.00 20.00     0.149 C 
HETATM    4  C4  UNL     1     -36.087  14.427  -3.825  1.00 20.00     0.084 C 
HETATM    5  C5  UNL     1     -35.908  15.936  -3.929  1.00 20.00     0.021 C 
HETATM    6  C6  UNL     1     -33.888  18.599  -1.130  1.00 20.00     0.000 C 
HETATM    7  C7  UNL     1     -33.489  18.691  -2.596  1.00 20.00     0.001 C 
HETATM    8  C8  UNL     1     -34.069  17.152  -0.686  1.00 20.00     0.001 C 
HETATM    9  C9  UNL     1     -34.469  17.941  -3.501  1.00 20.00     0.013 C 
HETATM   10  C10 UNL     1     -35.073  16.413  -1.574  1.00 20.00     0.013 C 
HETATM   11  C11 UNL     1     -34.722  16.468  -3.083  1.00 20.00    -0.022 C 
HETATM   12  O12 UNL     1     -34.807  12.562  -4.615  1.00 20.00    -0.293 OA
ENDROOT
TORSDOF 0
ENDMDL
MODEL 2
REMARK VINA RESULT:      -5.3      2.297      4.509
REMARK  0 active torsions:
REMARK  status: ('A' for Active; 'I' for Inactive)
ROOT
HETATM    1  C1  UNL     1     -34.548  16.826  -0.959  1.00 20.00     0.047 C 
HETATM    2  C2  UNL     1     -34.776  15.893  -1.891  1.00 20.00    -0.014 C 
HETATM    3  C3  UNL     1     -33.981  18.142  -1.334  1.00 20.00     0.149 C 
HETATM    4  C4  UNL     1     -33.617  18.384  -2.779  1.00 20.00     0.084 C 
HETATM    5  C5  UNL     1     -34.521  17.587  -3.711  1.00 20.00     0.021 C 
HETATM    6  C6  UNL     1     -34.380  13.318  -4.582  1.00 20.00     0.000 C 
HETATM    7  C7  UNL     1     -35.724  13.905  -4.172  1.00 20.00     0.001 C 
HETATM    8  C8  UNL     1     -33.239  13.881  -3.742  1.00 20.00     0.001 C 
HETATM    9  C9  UNL     1     -35.707  15.435  -4.195  1.00 20.00     0.013 C 
HETATM   10  C10 UNL     1     -33.207  15.410  -3.792  1.00 20.00     0.013 C 
HETATM   11  C11 UNL     1     -34.549  16.071  -3.383  1.00 20.00    -0.022 C 
HETATM   12  O12 UNL     1     -33.763  18.983  -0.464  1.00 20.00    -0.293 OA
ENDROOT
TORSDOF 0
ENDMDL
MODEL 3
REMARK VINA RESULT:      -4.9      0.963      2.287
REMARK  0 active torsions:
REMARK  status: ('A' for Active; 'I' for Inactive)
ROOT
HETATM    1  C1  UNL     1     -35.997  14.272  -3.787  1.00 20.00     0.047 C 
HETATM    2  C2  UNL     1     -35.933  15.423  -3.108  1.00 20.00    -0.014 C 
HETATM    3  C3  UNL     1     -34.766  13.638  -4.313  1.00 20.00     0.149 C 
HETATM    4  C4  UNL     1     -33.448  14.349  -4.114  1.00 20.00     0.084 C 
HETATM    5  C5  UNL     1     -33.461  15.174  -2.834  1.00 20.00     0.021 C 
HETATM    6  C6  UNL     1     -35.423  19.002  -2.127  1.00 20.00     0.000 C 
HETATM    7  C7  UNL     1     -35.685  17.885  -1.126  1.00 20.00     0.001 C 
HETATM    8  C8  UNL     1     -35.430  18.486  -3.561  1.00 20.00     0.001 C 
HETATM    9  C9  UNL     1     -34.715  16.716  -1.310  1.00 20.00     0.013 C 
HETATM   10  C10 UNL     1     -34.437  17.336  -3.750  1.00 20.00     0.013 C 
HETATM   11  C11 UNL     1     -34.652  16.164  -2.759  1.00 20.00    -0.022 C 
HETATM   12  O12 UNL     1     -34.843  12.588  -4.948  1.00 20.00    -0.293 OA
ENDROOT
TORSDOF 0
ENDMDL
MODEL 4
REMARK VINA RESULT:      -4.8      2.568      4.380
REMARK  0 active torsions:
REMARK  status: ('A' for Active; 'I' for Inactive)
ROOT
HETATM    1  C1  UNL     1     -36.229  17.804  -2.584  1.00 20.00     0.047 C 
HETATM    2  C2  UNL     1     -35.691  17.112  -3.595  1.00 20.00    -0.014 C 
HETATM    3  C3  UNL     1     -35.709  17.651  -1.206  1.00 20.00     0.149 C 
HETATM    4  C4  UNL     1     -34.598  16.658  -0.961  1.00 20.00     0.084 C 
HETATM    5  C5  UNL     1     -33.711  16.517  -2.191  1.00 20.00     0.021 C 
HETATM    6  C6  UNL     1     -34.568  14.371  -5.887  1.00 20.00     0.000 C 
HETATM    7  C7  UNL     1     -34.096  15.814  -6.008  1.00 20.00     0.001 C 
HETATM    8  C8  UNL     1     -35.569  14.199  -4.750  1.00 20.00     0.001 C 
HETATM    9  C9  UNL     1     -33.543  16.344  -4.684  1.00 20.00     0.013 C 
HETATM   10  C10 UNL     1     -35.002  14.703  -3.422  1.00 20.00     0.013 C 
HETATM   11  C11 UNL     1     -34.504  16.170  -3.478  1.00 20.00    -0.022 C 
HETATM   12  O12 UNL     1     -36.223  18.283  -0.285  1.00 20.00    -0.293 OA
ENDROOT
TORSDOF 0
ENDMDL
MODEL 5
REMARK VINA RESULT:      -4.7      2.869      4.332
REMARK  0 active torsions:
REMARK  status: ('A' for Active; 'I' for Inactive)
ROOT
HETATM    1  C1  UNL     1     -37.410  15.543  -5.674  1.00 20.00     0.047 C 
HETATM    2  C2  UNL     1     -36.295  15.175  -5.031  1.00 20.00    -0.014 C 
HETATM    3  C3  UNL     1     -37.445  15.586  -7.154  1.00 20.00     0.149 C 
HETATM    4  C4  UNL     1     -36.183  15.260  -7.915  1.00 20.00     0.084 C 
HETATM    5  C5  UNL     1     -35.323  14.265  -7.146  1.00 20.00     0.021 C 
HETATM    6  C6  UNL     1     -32.811  15.019  -3.664  1.00 20.00     0.000 C 
HETATM    7  C7  UNL     1     -33.801  13.865  -3.577  1.00 20.00     0.001 C 
HETATM    8  C8  UNL     1     -33.427  16.239  -4.338  1.00 20.00     0.001 C 
HETATM    9  C9  UNL     1     -34.391  13.517  -4.946  1.00 20.00     0.013 C 
HETATM   10  C10 UNL     1     -33.989  15.894  -5.719  1.00 20.00     0.013 C 
HETATM   11  C11 UNL     1     -35.007  14.725  -5.699  1.00 20.00    -0.022 C 
HETATM   12  O12 UNL     1     -38.473  15.940  -7.731  1.00 20.00    -0.293 OA
ENDROOT
TORSDOF 0
ENDMDL
MODEL 6
REMARK VINA RESULT:      -4.7      2.080      3.076
REMARK  0 active torsions:
REMARK  status: ('A' for Active; 'I' for Inactive)
ROOT
HETATM    1  C1  UNL     1     -36.787  15.779  -5.768  1.00 20.00     0.047 C 
HETATM    2  C2  UNL     1     -36.133  16.026  -4.627  1.00 20.00    -0.014 C 
HETATM    3  C3  UNL     1     -36.126  15.041  -6.870  1.00 20.00     0.149 C 
HETATM    4  C4  UNL     1     -34.686  14.624  -6.695  1.00 20.00     0.084 C 
HETATM    5  C5  UNL     1     -34.366  14.364  -5.228  1.00 20.00     0.021 C 
HETATM    6  C6  UNL     1     -33.711  17.292  -2.066  1.00 20.00     0.000 C 
HETATM    7  C7  UNL     1     -34.717  16.181  -1.795  1.00 20.00     0.001 C 
HETATM    8  C8  UNL     1     -33.842  17.836  -3.483  1.00 20.00     0.001 C 
HETATM    9  C9  UNL     1     -34.628  15.066  -2.839  1.00 20.00     0.013 C 
HETATM   10  C10 UNL     1     -33.723  16.722  -4.526  1.00 20.00     0.013 C 
HETATM   11  C11 UNL     1     -34.723  15.559  -4.306  1.00 20.00    -0.022 C 
HETATM   12  O12 UNL     1     -36.735  14.834  -7.918  1.00 20.00    -0.293 OA
ENDROOT
TORSDOF 0
ENDMDL
MODEL 7
REMARK VINA RESULT:      -4.6      2.523      3.953
REMARK  0 active torsions:
REMARK  status: ('A' for Active; 'I' for Inactive)
ROOT
HETATM    1  C1  UNL     1     -37.727  14.965  -3.902  1.00 20.00     0.047 C 
HETATM    2  C2  UNL     1     -36.422  14.686  -3.805  1.00 20.00    -0.014 C 
HETATM    3  C3  UNL     1     -38.284  15.539  -5.148  1.00 20.00     0.149 C 
HETATM    4  C4  UNL     1     -37.337  15.854  -6.282  1.00 20.00     0.084 C 
HETATM    5  C5  UNL     1     -36.148  14.902  -6.279  1.00 20.00     0.021 C 
HETATM    6  C6  UNL     1     -32.689  14.938  -3.626  1.00 20.00     0.000 C 
HETATM    7  C7  UNL     1     -33.436  13.621  -3.785  1.00 20.00     0.001 C 
HETATM    8  C8  UNL     1     -33.647  16.118  -3.514  1.00 20.00     0.001 C 
HETATM    9  C9  UNL     1     -34.419  13.663  -4.957  1.00 20.00     0.013 C 
HETATM   10  C10 UNL     1     -34.610  16.175  -4.703  1.00 20.00     0.013 C 
HETATM   11  C11 UNL     1     -35.404  14.861  -4.919  1.00 20.00    -0.022 C 
HETATM   12  O12 UNL     1     -39.483  15.804  -5.217  1.00 20.00    -0.293 OA
ENDROOT
TORSDOF 0
ENDMDL
MODEL 8
REMARK VINA RESULT:      -4.6      2.652      4.515
REMARK  0 active torsions:
REMARK  status: ('A' for Active; 'I' for Inactive)
ROOT
HETATM    1  C1  UNL     1     -35.858  16.456  -3.091  1.00 20.00     0.047 C 
HETATM    2  C2  UNL     1     -35.745  16.368  -4.421  1.00 20.00    -0.014 C 
HETATM    3  C3  UNL     1     -34.684  16.221  -2.218  1.00 20.00     0.149 C 
HETATM    4  C4  UNL     1     -33.376  15.826  -2.861  1.00 20.00     0.084 C 
HETATM    5  C5  UNL     1     -33.252  16.424  -4.257  1.00 20.00     0.021 C 
HETATM    6  C6  UNL     1     -35.232  15.126  -7.917  1.00 20.00     0.000 C 
HETATM    7  C7  UNL     1     -35.328  16.602  -7.555  1.00 20.00     0.001 C 
HETATM    8  C8  UNL     1     -35.406  14.233  -6.694  1.00 20.00     0.001 C 
HETATM    9  C9  UNL     1     -34.351  16.978  -6.438  1.00 20.00     0.013 C 
HETATM   10  C10 UNL     1     -34.408  14.592  -5.590  1.00 20.00     0.013 C 
HETATM   11  C11 UNL     1     -34.456  16.085  -5.174  1.00 20.00    -0.022 C 
HETATM   12  O12 UNL     1     -34.807  16.291  -0.996  1.00 20.00    -0.293 OA
ENDROOT
TORSDOF 0
ENDMDL
MODEL 9
REMARK VINA RESULT:      -4.6      2.596      4.535
REMARK  0 active torsions:
REMARK  status: ('A' for Active; 'I' for Inactive)
ROOT
HETATM    1  C1  UNL     1     -33.680  17.493  -3.804  1.00 20.00     0.047 C 
HETATM    2  C2  UNL     1     -34.152  16.741  -4.805  1.00 20.00    -0.014 C 
HETATM    3  C3  UNL     1     -33.926  17.111  -2.394  1.00 20.00     0.149 C 
HETATM    4  C4  UNL     1     -34.767  15.888  -2.115  1.00 20.00     0.084 C 
HETATM    5  C5  UNL     1     -34.619  14.859  -3.228  1.00 20.00     0.021 C 
HETATM    6  C6  UNL     1     -36.387  14.941  -7.212  1.00 20.00     0.000 C 
HETATM    7  C7  UNL     1     -34.886  14.699  -7.117  1.00 20.00     0.001 C 
HETATM    8  C8  UNL     1     -36.846  16.020  -6.239  1.00 20.00     0.001 C 
HETATM    9  C9  UNL     1     -34.450  14.390  -5.683  1.00 20.00     0.013 C 
HETATM   10  C10 UNL     1     -36.435  15.694  -4.802  1.00 20.00     0.013 C 
HETATM   11  C11 UNL     1     -34.915  15.437  -4.637  1.00 20.00    -0.022 C 
HETATM   12  O12 UNL     1     -33.498  17.820  -1.485  1.00 20.00    -0.293 OA
ENDROOT
TORSDOF 0
ENDMDL
