MODEL 1
REMARK VINA RESULT:      -3.5      0.000      0.000
REMARK  1 active torsions:
REMARK  status: ('A' for Active; 'I' for Inactive)
REMARK    1  A    between atoms: C4_4  and  O5_5 
ROOT
HETATM    1  C1  UNL     1     -35.038   4.291   5.989  1.00 20.00     0.014 C 
HETATM    2  C2  UNL     1     -34.883   4.829   4.927  1.00 20.00    -0.091 C 
HETATM    3  C4  UNL     1     -34.696   5.483   3.632  1.00 20.00     0.259 C 
ENDROOT
BRANCH   3   4
HETATM    4  O5  UNL     1     -33.831   6.604   3.761  1.00 20.00    -0.384 OA
HETATM    5  C3  UNL     1     -32.524   6.312   3.283  1.00 20.00     0.202 C 
ENDBRANCH   3   4
TORSDOF 1
ENDMDL
MODEL 2
REMARK VINA RESULT:      -3.4      1.900      2.398
REMARK  1 active torsions:
REMARK  status: ('A' for Active; 'I' for Inactive)
REMARK    1  A    between atoms: C4_4  and  O5_5 
ROOT
HETATM    1  C1  UNL     1     -33.806   6.875   6.633  1.00 20.00     0.014 C 
HETATM    2  C2  UNL     1     -34.320   5.877   6.205  1.00 20.00    -0.091 C 
HETATM    3  C4  UNL     1     -34.946   4.661   5.687  1.00 20.00     0.259 C 
ENDROOT
BRANCH   3   4
HETATM    4  O5  UNL     1     -35.611   4.929   4.459  1.00 20.00    -0.384 OA
HETATM    5  C3  UNL     1     -34.703   5.371   3.459  1.00 20.00     0.202 C 
ENDBRANCH   3   4
TORSDOF 1
ENDMDL
MODEL 3
REMARK VINA RESULT:      -3.3      1.356      2.974
REMARK  1 active torsions:
REMARK  status: ('A' for Active; 'I' for Inactive)
REMARK    1  A    between atoms: C4_4  and  O5_5 
ROOT
HETATM    1  C1  UNL     1     -32.614   6.300   3.350  1.00 20.00     0.014 C 
HETATM    2  C2  UNL     1     -33.735   5.907   3.531  1.00 20.00    -0.091 C 
HETATM    3  C4  UNL     1     -35.100   5.429   3.748  1.00 20.00     0.259 C 
ENDROOT
BRANCH   3   4
HETATM    4  O5  UNL     1     -35.109   4.356   4.681  1.00 20.00    -0.384 OA
HETATM    5  C3  UNL     1     -34.880   4.814   6.007  1.00 20.00     0.202 C 
ENDBRANCH   3   4
TORSDOF 1
ENDMDL
MODEL 4
REMARK VINA RESULT:      -3.2      1.874      2.717
REMARK  1 active torsions:
REMARK  status: ('A' for Active; 'I' for Inactive)
REMARK    1  A    between atoms: C4_4  and  O5_5 
ROOT
HETATM    1  C1  UNL     1     -34.826   5.395   3.294  1.00 20.00     0.014 C 
HETATM    2  C2  UNL     1     -34.859   5.010   4.431  1.00 20.00    -0.091 C 
HETATM    3  C4  UNL     1     -34.899   4.540   5.816  1.00 20.00     0.259 C 
ENDROOT
BRANCH   3   4
HETATM    4  O5  UNL     1     -34.897   5.640   6.716  1.00 20.00    -0.384 OA
HETATM    5  C3  UNL     1     -33.867   6.569   6.403  1.00 20.00     0.202 C 
ENDBRANCH   3   4
TORSDOF 1
ENDMDL
MODEL 5
REMARK VINA RESULT:      -3.0      1.895      4.268
REMARK  1 active torsions:
REMARK  status: ('A' for Active; 'I' for Inactive)
REMARK    1  A    between atoms: C4_4  and  O5_5 
ROOT
HETATM    1  C1  UNL     1     -32.044   8.816   1.257  1.00 20.00     0.014 C 
HETATM    2  C2  UNL     1     -32.076   8.016   2.151  1.00 20.00    -0.091 C 
HETATM    3  C4  UNL     1     -32.114   7.042   3.242  1.00 20.00     0.259 C 
ENDROOT
BRANCH   3   4
HETATM    4  O5  UNL     1     -33.206   6.148   3.073  1.00 20.00    -0.384 OA
HETATM    5  C3  UNL     1     -34.016   6.087   4.239  1.00 20.00     0.202 C 
ENDBRANCH   3   4
TORSDOF 1
ENDMDL
MODEL 6
REMARK VINA RESULT:      -3.0      1.579      2.010
REMARK  1 active torsions:
REMARK  status: ('A' for Active; 'I' for Inactive)
REMARK    1  A    between atoms: C4_4  and  O5_5 
ROOT
HETATM    1  C1  UNL     1     -35.312   5.376   3.792  1.00 20.00     0.014 C 
HETATM    2  C2  UNL     1     -34.241   5.907   3.904  1.00 20.00    -0.091 C 
HETATM    3  C4  UNL     1     -32.937   6.555   4.043  1.00 20.00     0.259 C 
ENDROOT
BRANCH   3   4
HETATM    4  O5  UNL     1     -32.266   6.595   2.790  1.00 20.00    -0.384 OA
HETATM    5  C3  UNL     1     -32.113   7.929   2.322  1.00 20.00     0.202 C 
ENDBRANCH   3   4
TORSDOF 1
ENDMDL
MODEL 7
REMARK VINA RESULT:      -2.8     11.693     12.126
REMARK  1 active torsions:
REMARK  status: ('A' for Active; 'I' for Inactive)
REMARK    1  A    between atoms: C4_4  and  O5_5 
ROOT
HETATM    1  C1  UNL     1     -34.561  16.225  -1.841  1.00 20.00     0.014 C 
HETATM    2  C2  UNL     1     -34.005  15.573  -2.683  1.00 20.00    -0.091 C 
HETATM    3  C4  UNL     1     -33.326  14.782  -3.708  1.00 20.00     0.259 C 
ENDROOT
BRANCH   3   4
HETATM    4  O5  UNL     1     -33.781  13.435  -3.679  1.00 20.00    -0.384 OA
HETATM    5  C3  UNL     1     -35.044  13.297  -4.316  1.00 20.00     0.202 C 
ENDBRANCH   3   4
TORSDOF 1
ENDMDL
MODEL 8
REMARK VINA RESULT:      -2.7     11.759     12.213
REMARK  1 active torsions:
REMARK  status: ('A' for Active; 'I' for Inactive)
REMARK    1  A    between atoms: C4_4  and  O5_5 
ROOT
HETATM    1  C1  UNL     1     -34.665  16.849  -0.537  1.00 20.00     0.014 C 
HETATM    2  C2  UNL     1     -34.334  16.387  -1.595  1.00 20.00    -0.091 C 
HETATM    3  C4  UNL     1     -33.929  15.825  -2.883  1.00 20.00     0.259 C 
ENDROOT
BRANCH   3   4
HETATM    4  O5  UNL     1     -34.553  14.566  -3.095  1.00 20.00    -0.384 OA
HETATM    5  C3  UNL     1     -33.755  13.717  -3.909  1.00 20.00     0.202 C 
ENDBRANCH   3   4
TORSDOF 1
ENDMDL
MODEL 9
REMARK VINA RESULT:      -2.6     12.415     12.742
REMARK  1 active torsions:
REMARK  status: ('A' for Active; 'I' for Inactive)
REMARK    1  A    between atoms: C4_4  and  O5_5 
ROOT
HETATM    1  C1  UNL     1     -34.620  16.828  -0.664  1.00 20.00     0.014 C 
HETATM    2  C2  UNL     1     -34.567  16.179  -1.674  1.00 20.00    -0.091 C 
HETATM    3  C4  UNL     1     -34.504  15.389  -2.903  1.00 20.00     0.259 C 
ENDROOT
BRANCH   3   4
HETATM    4  O5  UNL     1     -33.222  15.508  -3.506  1.00 20.00    -0.384 OA
HETATM    5  C3  UNL     1     -33.257  16.362  -4.641  1.00 20.00     0.202 C 
ENDBRANCH   3   4
TORSDOF 1
ENDMDL
