MODEL 1
REMARK VINA RESULT:      -5.3      0.000      0.000
REMARK  1 active torsions:
REMARK  status: ('A' for Active; 'I' for Inactive)
REMARK    1  A    between atoms: C2_2  and  C3_3 
ROOT
HETATM    1  C1  UNL     1     -33.827   5.740   3.897  1.00 20.00     0.147 C 
HETATM    2  C2  UNL     1     -34.862   5.017   4.630  1.00 20.00     0.425 C 
HETATM    3  N4  UNL     1     -33.006   6.314   3.314  1.00 20.00    -0.191 NA
HETATM    4  F5  UNL     1     -34.829   3.711   4.266  1.00 20.00    -0.179 F 
HETATM    5  F6  UNL     1     -36.078   5.495   4.261  1.00 20.00    -0.179 F 
ENDROOT
BRANCH   2   6
HETATM    6  C3  UNL     1     -34.719   5.122   6.124  1.00 20.00     0.469 C 
HETATM    7  F7  UNL     1     -33.696   4.353   6.559  1.00 20.00    -0.164 F 
HETATM    8  F8  UNL     1     -34.468   6.391   6.510  1.00 20.00    -0.164 F 
HETATM    9  F9  UNL     1     -35.837   4.709   6.758  1.00 20.00    -0.164 F 
ENDBRANCH   2   6
TORSDOF 1
ENDMDL
MODEL 2
REMARK VINA RESULT:      -5.0      1.491      2.856
REMARK  1 active torsions:
REMARK  status: ('A' for Active; 'I' for Inactive)
REMARK    1  A    between atoms: C2_2  and  C3_3 
ROOT
HETATM    1  C1  UNL     1     -34.083   6.205   6.357  1.00 20.00     0.147 C 
HETATM    2  C2  UNL     1     -34.656   4.911   5.999  1.00 20.00     0.425 C 
HETATM    3  N4  UNL     1     -33.628   7.232   6.643  1.00 20.00    -0.191 NA
HETATM    4  F5  UNL     1     -35.795   4.721   6.711  1.00 20.00    -0.179 F 
HETATM    5  F6  UNL     1     -33.794   3.930   6.372  1.00 20.00    -0.179 F 
ENDROOT
BRANCH   2   6
HETATM    6  C3  UNL     1     -34.957   4.777   4.531  1.00 20.00     0.469 C 
HETATM    7  F7  UNL     1     -35.010   3.475   4.173  1.00 20.00    -0.164 F 
HETATM    8  F8  UNL     1     -36.147   5.335   4.218  1.00 20.00    -0.164 F 
HETATM    9  F9  UNL     1     -34.009   5.370   3.776  1.00 20.00    -0.164 F 
ENDBRANCH   2   6
TORSDOF 1
ENDMDL
MODEL 3
REMARK VINA RESULT:      -4.8      0.713      2.042
REMARK  1 active torsions:
REMARK  status: ('A' for Active; 'I' for Inactive)
REMARK    1  A    between atoms: C2_2  and  C3_3 
ROOT
HETATM    1  C1  UNL     1     -33.332   5.888   3.983  1.00 20.00     0.147 C 
HETATM    2  C2  UNL     1     -34.529   5.792   4.811  1.00 20.00     0.425 C 
HETATM    3  N4  UNL     1     -32.380   5.966   3.324  1.00 20.00    -0.191 NA
HETATM    4  F5  UNL     1     -35.617   6.065   4.046  1.00 20.00    -0.179 F 
HETATM    5  F6  UNL     1     -34.478   6.750   5.772  1.00 20.00    -0.179 F 
ENDROOT
BRANCH   2   6
HETATM    6  C3  UNL     1     -34.701   4.445   5.459  1.00 20.00     0.469 C 
HETATM    7  F7  UNL     1     -35.606   4.512   6.461  1.00 20.00    -0.164 F 
HETATM    8  F8  UNL     1     -35.138   3.523   4.575  1.00 20.00    -0.164 F 
HETATM    9  F9  UNL     1     -33.541   3.999   5.986  1.00 20.00    -0.164 F 
ENDBRANCH   2   6
TORSDOF 1
ENDMDL
MODEL 4
REMARK VINA RESULT:      -4.8      2.180      3.109
REMARK  1 active torsions:
REMARK  status: ('A' for Active; 'I' for Inactive)
REMARK    1  A    between atoms: C2_2  and  C3_3 
ROOT
HETATM    1  C1  UNL     1     -33.959   6.363   5.520  1.00 20.00     0.147 C 
HETATM    2  C2  UNL     1     -33.815   6.226   4.074  1.00 20.00     0.425 C 
HETATM    3  N4  UNL     1     -34.072   6.473   6.669  1.00 20.00    -0.191 NA
HETATM    4  F5  UNL     1     -32.551   5.822   3.794  1.00 20.00    -0.179 F 
HETATM    5  F6  UNL     1     -33.972   7.445   3.499  1.00 20.00    -0.179 F 
ENDROOT
BRANCH   2   6
HETATM    6  C3  UNL     1     -34.794   5.258   3.466  1.00 20.00     0.469 C 
HETATM    7  F7  UNL     1     -34.378   4.869   2.240  1.00 20.00    -0.164 F 
HETATM    8  F8  UNL     1     -34.927   4.148   4.223  1.00 20.00    -0.164 F 
HETATM    9  F9  UNL     1     -36.016   5.815   3.325  1.00 20.00    -0.164 F 
ENDBRANCH   2   6
TORSDOF 1
ENDMDL
MODEL 5
REMARK VINA RESULT:      -4.7      2.323      3.124
REMARK  1 active torsions:
REMARK  status: ('A' for Active; 'I' for Inactive)
REMARK    1  A    between atoms: C2_2  and  C3_3 
ROOT
HETATM    1  C1  UNL     1     -34.901   4.456   4.693  1.00 20.00     0.147 C 
HETATM    2  C2  UNL     1     -34.633   5.418   3.628  1.00 20.00     0.425 C 
HETATM    3  N4  UNL     1     -35.114   3.691   5.538  1.00 20.00    -0.191 NA
HETATM    4  F5  UNL     1     -35.763   6.128   3.381  1.00 20.00    -0.179 F 
HETATM    5  F6  UNL     1     -34.340   4.742   2.488  1.00 20.00    -0.179 F 
ENDROOT
BRANCH   2   6
HETATM    6  C3  UNL     1     -33.509   6.366   3.948  1.00 20.00     0.469 C 
HETATM    7  F7  UNL     1     -33.460   6.613   5.276  1.00 20.00    -0.164 F 
HETATM    8  F8  UNL     1     -32.313   5.855   3.583  1.00 20.00    -0.164 F 
HETATM    9  F9  UNL     1     -33.665   7.549   3.317  1.00 20.00    -0.164 F 
ENDBRANCH   2   6
TORSDOF 1
ENDMDL
MODEL 6
REMARK VINA RESULT:      -4.7      2.323      3.162
REMARK  1 active torsions:
REMARK  status: ('A' for Active; 'I' for Inactive)
REMARK    1  A    between atoms: C2_2  and  C3_3 
ROOT
HETATM    1  C1  UNL     1     -34.905   4.455   4.691  1.00 20.00     0.147 C 
HETATM    2  C2  UNL     1     -34.630   5.420   3.632  1.00 20.00     0.425 C 
HETATM    3  N4  UNL     1     -35.123   3.687   5.533  1.00 20.00    -0.191 NA
HETATM    4  F5  UNL     1     -35.758   6.134   3.383  1.00 20.00    -0.179 F 
HETATM    5  F6  UNL     1     -34.334   4.748   2.490  1.00 20.00    -0.179 F 
ENDROOT
BRANCH   2   6
HETATM    6  C3  UNL     1     -33.505   6.364   3.960  1.00 20.00     0.469 C 
HETATM    7  F7  UNL     1     -33.670   7.541   3.317  1.00 20.00    -0.164 F 
HETATM    8  F8  UNL     1     -33.450   6.626   5.284  1.00 20.00    -0.164 F 
HETATM    9  F9  UNL     1     -32.311   5.858   3.586  1.00 20.00    -0.164 F 
ENDBRANCH   2   6
TORSDOF 1
ENDMDL
MODEL 7
REMARK VINA RESULT:      -4.6      1.736      2.125
REMARK  1 active torsions:
REMARK  status: ('A' for Active; 'I' for Inactive)
REMARK    1  A    between atoms: C2_2  and  C3_3 
ROOT
HETATM    1  C1  UNL     1     -33.855   6.599   6.040  1.00 20.00     0.147 C 
HETATM    2  C2  UNL     1     -34.235   5.658   4.991  1.00 20.00     0.425 C 
HETATM    3  N4  UNL     1     -33.552   7.347   6.873  1.00 20.00    -0.191 NA
HETATM    4  F5  UNL     1     -33.168   5.449   4.179  1.00 20.00    -0.179 F 
HETATM    5  F6  UNL     1     -35.204   6.221   4.225  1.00 20.00    -0.179 F 
ENDROOT
BRANCH   2   6
HETATM    6  C3  UNL     1     -34.724   4.338   5.522  1.00 20.00     0.469 C 
HETATM    7  F7  UNL     1     -33.706   3.644   6.080  1.00 20.00    -0.164 F 
HETATM    8  F8  UNL     1     -35.671   4.505   6.469  1.00 20.00    -0.164 F 
HETATM    9  F9  UNL     1     -35.248   3.574   4.540  1.00 20.00    -0.164 F 
ENDBRANCH   2   6
TORSDOF 1
ENDMDL
MODEL 8
REMARK VINA RESULT:      -4.6      1.346      2.766
REMARK  1 active torsions:
REMARK  status: ('A' for Active; 'I' for Inactive)
REMARK    1  A    between atoms: C2_2  and  C3_3 
ROOT
HETATM    1  C1  UNL     1     -32.886   6.454   3.949  1.00 20.00     0.147 C 
HETATM    2  C2  UNL     1     -34.002   5.865   4.683  1.00 20.00     0.425 C 
HETATM    3  N4  UNL     1     -32.000   6.923   3.367  1.00 20.00    -0.191 NA
HETATM    4  F5  UNL     1     -34.656   6.847   5.353  1.00 20.00    -0.179 F 
HETATM    5  F6  UNL     1     -33.511   5.013   5.619  1.00 20.00    -0.179 F 
ENDROOT
BRANCH   2   6
HETATM    6  C3  UNL     1     -34.975   5.130   3.802  1.00 20.00     0.469 C 
HETATM    7  F7  UNL     1     -34.458   4.957   2.564  1.00 20.00    -0.164 F 
HETATM    8  F8  UNL     1     -35.265   3.907   4.297  1.00 20.00    -0.164 F 
HETATM    9  F9  UNL     1     -36.133   5.810   3.669  1.00 20.00    -0.164 F 
ENDBRANCH   2   6
TORSDOF 1
ENDMDL
MODEL 9
REMARK VINA RESULT:      -4.5      2.743      3.494
REMARK  1 active torsions:
REMARK  status: ('A' for Active; 'I' for Inactive)
REMARK    1  A    between atoms: C2_2  and  C3_3 
ROOT
HETATM    1  C1  UNL     1     -34.170   5.419   4.988  1.00 20.00     0.147 C 
HETATM    2  C2  UNL     1     -33.996   6.092   3.706  1.00 20.00     0.425 C 
HETATM    3  N4  UNL     1     -34.309   4.883   6.008  1.00 20.00    -0.191 NA
HETATM    4  F5  UNL     1     -34.822   7.168   3.657  1.00 20.00    -0.179 F 
HETATM    5  F6  UNL     1     -34.388   5.254   2.712  1.00 20.00    -0.179 F 
ENDROOT
BRANCH   2   6
HETATM    6  C3  UNL     1     -32.581   6.538   3.452  1.00 20.00     0.469 C 
HETATM    7  F7  UNL     1     -31.782   5.473   3.221  1.00 20.00    -0.164 F 
HETATM    8  F8  UNL     1     -32.503   7.349   2.375  1.00 20.00    -0.164 F 
HETATM    9  F9  UNL     1     -32.076   7.205   4.511  1.00 20.00    -0.164 F 
ENDBRANCH   2   6
TORSDOF 1
ENDMDL
