MODEL 1
REMARK VINA RESULT:      -4.3      0.000      0.000
REMARK  2 active torsions:
REMARK  status: ('A' for Active; 'I' for Inactive)
REMARK    1  A    between atoms: C1_1  and  C2_2 
REMARK    2  A    between atoms: C2_2  and  C3_3 
ROOT
HETATM    1  C3  UNL     1     -34.734   4.739   5.976  1.00 20.00     0.393 C 
HETATM    2  F5  UNL     1     -33.692   3.888   6.082  1.00 20.00    -0.171 F 
HETATM    3  F6  UNL     1     -34.391   5.883   6.611  1.00 20.00    -0.171 F 
HETATM    4  F7  UNL     1     -35.783   4.207   6.638  1.00 20.00    -0.171 F 
ENDROOT
BRANCH   1   5
HETATM    5  C2  UNL     1     -35.075   5.022   4.533  1.00 20.00     0.186 C 
BRANCH   5   6
HETATM    6  C1  UNL     1     -34.221   6.105   3.924  1.00 20.00     0.239 C 
HETATM    7  O4  UNL     1     -33.012   6.020   3.732  1.00 20.00    -0.307 OA
ENDBRANCH   5   6
ENDBRANCH   1   5
TORSDOF 2
ENDMDL
MODEL 2
REMARK VINA RESULT:      -4.3      0.043      1.432
REMARK  2 active torsions:
REMARK  status: ('A' for Active; 'I' for Inactive)
REMARK    1  A    between atoms: C1_1  and  C2_2 
REMARK    2  A    between atoms: C2_2  and  C3_3 
ROOT
HETATM    1  C3  UNL     1     -34.721   4.777   5.982  1.00 20.00     0.393 C 
HETATM    2  F5  UNL     1     -35.773   4.233   6.629  1.00 20.00    -0.171 F 
HETATM    3  F6  UNL     1     -33.692   3.905   6.073  1.00 20.00    -0.171 F 
HETATM    4  F7  UNL     1     -34.360   5.902   6.634  1.00 20.00    -0.171 F 
ENDROOT
BRANCH   1   5
HETATM    5  C2  UNL     1     -35.045   5.057   4.533  1.00 20.00     0.186 C 
BRANCH   5   6
HETATM    6  C1  UNL     1     -34.175   6.130   3.928  1.00 20.00     0.239 C 
HETATM    7  O4  UNL     1     -32.963   6.036   3.758  1.00 20.00    -0.307 OA
ENDBRANCH   5   6
ENDBRANCH   1   5
TORSDOF 2
ENDMDL
MODEL 3
REMARK VINA RESULT:      -4.3      0.050      1.437
REMARK  2 active torsions:
REMARK  status: ('A' for Active; 'I' for Inactive)
REMARK    1  A    between atoms: C1_1  and  C2_2 
REMARK    2  A    between atoms: C2_2  and  C3_3 
ROOT
HETATM    1  C3  UNL     1     -34.737   4.786   5.988  1.00 20.00     0.393 C 
HETATM    2  F5  UNL     1     -34.431   5.936   6.623  1.00 20.00    -0.171 F 
HETATM    3  F6  UNL     1     -35.781   4.226   6.639  1.00 20.00    -0.171 F 
HETATM    4  F7  UNL     1     -33.687   3.946   6.106  1.00 20.00    -0.171 F 
ENDROOT
BRANCH   1   5
HETATM    5  C2  UNL     1     -35.091   5.029   4.540  1.00 20.00     0.186 C 
BRANCH   5   6
HETATM    6  C1  UNL     1     -34.226   6.078   3.887  1.00 20.00     0.239 C 
HETATM    7  O4  UNL     1     -33.004   6.020   3.794  1.00 20.00    -0.307 OA
ENDBRANCH   5   6
ENDBRANCH   1   5
TORSDOF 2
ENDMDL
MODEL 4
REMARK VINA RESULT:      -4.2      1.136      1.716
REMARK  2 active torsions:
REMARK  status: ('A' for Active; 'I' for Inactive)
REMARK    1  A    between atoms: C1_1  and  C2_2 
REMARK    2  A    between atoms: C2_2  and  C3_3 
ROOT
HETATM    1  C3  UNL     1     -34.784   5.079   5.579  1.00 20.00     0.393 C 
HETATM    2  F5  UNL     1     -35.395   5.344   6.752  1.00 20.00    -0.171 F 
HETATM    3  F6  UNL     1     -35.749   4.867   4.656  1.00 20.00    -0.171 F 
HETATM    4  F7  UNL     1     -34.090   3.929   5.714  1.00 20.00    -0.171 F 
ENDROOT
BRANCH   1   5
HETATM    5  C2  UNL     1     -33.889   6.218   5.150  1.00 20.00     0.186 C 
BRANCH   5   6
HETATM    6  C1  UNL     1     -33.535   6.174   3.685  1.00 20.00     0.239 C 
HETATM    7  O4  UNL     1     -32.401   6.016   3.243  1.00 20.00    -0.307 OA
ENDBRANCH   5   6
ENDBRANCH   1   5
TORSDOF 2
ENDMDL
MODEL 5
REMARK VINA RESULT:      -4.2      1.150      1.244
REMARK  2 active torsions:
REMARK  status: ('A' for Active; 'I' for Inactive)
REMARK    1  A    between atoms: C1_1  and  C2_2 
REMARK    2  A    between atoms: C2_2  and  C3_3 
ROOT
HETATM    1  C3  UNL     1     -34.797   5.066   5.562  1.00 20.00     0.393 C 
HETATM    2  F5  UNL     1     -34.095   3.923   5.713  1.00 20.00    -0.171 F 
HETATM    3  F6  UNL     1     -35.425   5.316   6.733  1.00 20.00    -0.171 F 
HETATM    4  F7  UNL     1     -35.747   4.856   4.627  1.00 20.00    -0.171 F 
ENDROOT
BRANCH   1   5
HETATM    5  C2  UNL     1     -33.900   6.222   5.190  1.00 20.00     0.186 C 
BRANCH   5   6
HETATM    6  C1  UNL     1     -33.521   6.233   3.730  1.00 20.00     0.239 C 
HETATM    7  O4  UNL     1     -32.388   6.047   3.299  1.00 20.00    -0.307 OA
ENDBRANCH   5   6
ENDBRANCH   1   5
TORSDOF 2
ENDMDL
MODEL 6
REMARK VINA RESULT:      -4.2      2.585      2.919
REMARK  2 active torsions:
REMARK  status: ('A' for Active; 'I' for Inactive)
REMARK    1  A    between atoms: C1_1  and  C2_2 
REMARK    2  A    between atoms: C2_2  and  C3_3 
ROOT
HETATM    1  C3  UNL     1     -34.884   5.282   3.653  1.00 20.00     0.393 C 
HETATM    2  F5  UNL     1     -34.329   4.996   2.457  1.00 20.00    -0.171 F 
HETATM    3  F6  UNL     1     -35.031   4.116   4.322  1.00 20.00    -0.171 F 
HETATM    4  F7  UNL     1     -36.118   5.785   3.437  1.00 20.00    -0.171 F 
ENDROOT
BRANCH   1   5
HETATM    5  C2  UNL     1     -34.027   6.239   4.447  1.00 20.00     0.186 C 
BRANCH   5   6
HETATM    6  C1  UNL     1     -34.184   6.076   5.938  1.00 20.00     0.239 C 
HETATM    7  O4  UNL     1     -33.919   6.940   6.769  1.00 20.00    -0.307 OA
ENDBRANCH   5   6
ENDBRANCH   1   5
TORSDOF 2
ENDMDL
MODEL 7
REMARK VINA RESULT:      -4.2      2.562      2.992
REMARK  2 active torsions:
REMARK  status: ('A' for Active; 'I' for Inactive)
REMARK    1  A    between atoms: C1_1  and  C2_2 
REMARK    2  A    between atoms: C2_2  and  C3_3 
ROOT
HETATM    1  C3  UNL     1     -34.887   5.286   3.689  1.00 20.00     0.393 C 
HETATM    2  F5  UNL     1     -36.118   5.781   3.442  1.00 20.00    -0.171 F 
HETATM    3  F6  UNL     1     -34.321   4.990   2.497  1.00 20.00    -0.171 F 
HETATM    4  F7  UNL     1     -35.027   4.129   4.370  1.00 20.00    -0.171 F 
ENDROOT
BRANCH   1   5
HETATM    5  C2  UNL     1     -34.033   6.275   4.445  1.00 20.00     0.186 C 
BRANCH   5   6
HETATM    6  C1  UNL     1     -34.164   6.146   5.942  1.00 20.00     0.239 C 
HETATM    7  O4  UNL     1     -33.698   6.938   6.757  1.00 20.00    -0.307 OA
ENDBRANCH   5   6
ENDBRANCH   1   5
TORSDOF 2
ENDMDL
MODEL 8
REMARK VINA RESULT:      -4.1      2.613      3.081
REMARK  2 active torsions:
REMARK  status: ('A' for Active; 'I' for Inactive)
REMARK    1  A    between atoms: C1_1  and  C2_2 
REMARK    2  A    between atoms: C2_2  and  C3_3 
ROOT
HETATM    1  C3  UNL     1     -34.999   5.460   3.695  1.00 20.00     0.393 C 
HETATM    2  F5  UNL     1     -34.396   4.988   2.585  1.00 20.00    -0.171 F 
HETATM    3  F6  UNL     1     -36.247   5.849   3.347  1.00 20.00    -0.171 F 
HETATM    4  F7  UNL     1     -34.331   6.559   4.105  1.00 20.00    -0.171 F 
ENDROOT
BRANCH   1   5
HETATM    5  C2  UNL     1     -35.060   4.412   4.781  1.00 20.00     0.186 C 
BRANCH   5   6
HETATM    6  C1  UNL     1     -34.402   4.851   6.065  1.00 20.00     0.239 C 
HETATM    7  O4  UNL     1     -34.731   5.835   6.721  1.00 20.00    -0.307 OA
ENDBRANCH   5   6
ENDBRANCH   1   5
TORSDOF 2
ENDMDL
MODEL 9
REMARK VINA RESULT:      -4.1      2.383      2.699
REMARK  2 active torsions:
REMARK  status: ('A' for Active; 'I' for Inactive)
REMARK    1  A    between atoms: C1_1  and  C2_2 
REMARK    2  A    between atoms: C2_2  and  C3_3 
ROOT
HETATM    1  C3  UNL     1     -34.834   5.301   3.619  1.00 20.00     0.393 C 
HETATM    2  F5  UNL     1     -34.348   4.919   2.419  1.00 20.00    -0.171 F 
HETATM    3  F6  UNL     1     -34.952   4.191   4.382  1.00 20.00    -0.171 F 
HETATM    4  F7  UNL     1     -36.075   5.799   3.432  1.00 20.00    -0.171 F 
ENDROOT
BRANCH   1   5
HETATM    5  C2  UNL     1     -33.929   6.306   4.290  1.00 20.00     0.186 C 
BRANCH   5   6
HETATM    6  C1  UNL     1     -32.632   6.521   3.551  1.00 20.00     0.239 C 
HETATM    7  O4  UNL     1     -32.410   7.449   2.780  1.00 20.00    -0.307 OA
ENDBRANCH   5   6
ENDBRANCH   1   5
TORSDOF 2
ENDMDL
