MODEL 1
REMARK VINA RESULT:      -4.3      0.000      0.000
REMARK  2 active torsions:
REMARK  status: ('A' for Active; 'I' for Inactive)
REMARK    1  A    between atoms: C3_3  and  C8_8 
REMARK    2  A    between atoms: C4_4  and  C7_7 
ROOT
HETATM    1  C5  UNL     1     -34.733  13.499  -5.032  1.00 20.00     0.040 C 
HETATM    2  C6  UNL     1     -34.242  13.846  -3.645  1.00 20.00     0.045 C 
HETATM    3  C7  UNL     1     -35.895  14.465  -5.197  1.00 20.00     0.151 C 
HETATM    4  C8  UNL     1     -34.421  15.363  -3.603  1.00 20.00     0.075 C 
HETATM    5  C10 UNL     1     -34.728  15.869  -2.197  1.00 20.00     0.050 C 
HETATM    6  O11 UNL     1     -35.551  15.649  -4.453  1.00 20.00    -0.367 OA
ENDROOT
BRANCH   3   7
HETATM    7  C4  UNL     1     -36.169  14.824  -6.616  1.00 20.00    -0.065 C 
HETATM    8  C2  UNL     1     -37.380  15.234  -7.024  1.00 20.00     0.016 C 
HETATM    9  C9  UNL     1     -35.013  14.703  -7.564  1.00 20.00     0.045 C 
ENDBRANCH   3   7
BRANCH   4  10
HETATM   10  C3  UNL     1     -33.231  16.093  -4.158  1.00 20.00     0.000 C 
HETATM   11  C1  UNL     1     -33.306  17.035  -5.105  1.00 20.00     0.010 C 
ENDBRANCH   4  10
TORSDOF 2
ENDMDL
MODEL 2
REMARK VINA RESULT:      -4.2      1.235      3.901
REMARK  2 active torsions:
REMARK  status: ('A' for Active; 'I' for Inactive)
REMARK    1  A    between atoms: C3_3  and  C8_8 
REMARK    2  A    between atoms: C4_4  and  C7_7 
ROOT
HETATM    1  C5  UNL     1     -34.327  14.216  -3.487  1.00 20.00     0.040 C 
HETATM    2  C6  UNL     1     -34.479  13.673  -4.890  1.00 20.00     0.045 C 
HETATM    3  C7  UNL     1     -33.755  15.599  -3.753  1.00 20.00     0.151 C 
HETATM    4  C8  UNL     1     -34.917  14.909  -5.675  1.00 20.00     0.075 C 
HETATM    5  C10 UNL     1     -34.434  14.874  -7.121  1.00 20.00     0.050 C 
HETATM    6  O11 UNL     1     -34.304  16.034  -5.011  1.00 20.00    -0.367 OA
ENDROOT
BRANCH   3   7
HETATM    7  C4  UNL     1     -34.082  16.590  -2.691  1.00 20.00    -0.065 C 
HETATM    8  C2  UNL     1     -34.609  16.221  -1.514  1.00 20.00     0.016 C 
HETATM    9  C9  UNL     1     -33.789  18.025  -3.013  1.00 20.00     0.045 C 
ENDBRANCH   3   7
BRANCH   4  10
HETATM   10  C3  UNL     1     -36.405  15.109  -5.640  1.00 20.00     0.000 C 
HETATM   11  C1  UNL     1     -36.997  16.276  -5.362  1.00 20.00     0.010 C 
ENDBRANCH   4  10
TORSDOF 2
ENDMDL
MODEL 3
REMARK VINA RESULT:      -4.2      1.648      4.117
REMARK  2 active torsions:
REMARK  status: ('A' for Active; 'I' for Inactive)
REMARK    1  A    between atoms: C3_3  and  C8_8 
REMARK    2  A    between atoms: C4_4  and  C7_7 
ROOT
HETATM    1  C5  UNL     1     -36.291  15.799  -3.121  1.00 20.00     0.040 C 
HETATM    2  C6  UNL     1     -36.262  14.661  -4.115  1.00 20.00     0.045 C 
HETATM    3  C7  UNL     1     -35.005  15.562  -2.344  1.00 20.00     0.151 C 
HETATM    4  C8  UNL     1     -34.775  14.562  -4.458  1.00 20.00     0.075 C 
HETATM    5  C10 UNL     1     -34.356  13.135  -4.798  1.00 20.00     0.050 C 
HETATM    6  O11 UNL     1     -34.070  14.979  -3.270  1.00 20.00    -0.367 OA
ENDROOT
BRANCH   3   7
HETATM    7  C4  UNL     1     -34.429  16.804  -1.760  1.00 20.00    -0.065 C 
HETATM    8  C2  UNL     1     -33.738  17.683  -2.502  1.00 20.00     0.016 C 
HETATM    9  C9  UNL     1     -34.664  17.017  -0.294  1.00 20.00     0.045 C 
ENDBRANCH   3   7
BRANCH   4  10
HETATM   10  C3  UNL     1     -34.385  15.487  -5.574  1.00 20.00     0.000 C 
HETATM   11  C1  UNL     1     -34.374  15.137  -6.866  1.00 20.00     0.010 C 
ENDBRANCH   4  10
TORSDOF 2
ENDMDL
MODEL 4
REMARK VINA RESULT:      -4.1      1.541      2.403
REMARK  2 active torsions:
REMARK  status: ('A' for Active; 'I' for Inactive)
REMARK    1  A    between atoms: C3_3  and  C8_8 
REMARK    2  A    between atoms: C4_4  and  C7_7 
ROOT
HETATM    1  C5  UNL     1     -36.540  15.683  -5.066  1.00 20.00     0.040 C 
HETATM    2  C6  UNL     1     -36.482  15.569  -3.560  1.00 20.00     0.045 C 
HETATM    3  C7  UNL     1     -35.325  16.549  -5.357  1.00 20.00     0.151 C 
HETATM    4  C8  UNL     1     -34.980  15.475  -3.295  1.00 20.00     0.075 C 
HETATM    5  C10 UNL     1     -34.592  16.088  -1.953  1.00 20.00     0.050 C 
HETATM    6  O11 UNL     1     -34.347  16.232  -4.348  1.00 20.00    -0.367 OA
ENDROOT
BRANCH   3   7
HETATM    7  C4  UNL     1     -34.745  16.321  -6.708  1.00 20.00    -0.065 C 
HETATM    8  C2  UNL     1     -34.403  15.097  -7.138  1.00 20.00     0.016 C 
HETATM    9  C9  UNL     1     -34.565  17.540  -7.565  1.00 20.00     0.045 C 
ENDBRANCH   3   7
BRANCH   4  10
HETATM   10  C3  UNL     1     -34.475  14.063  -3.375  1.00 20.00     0.000 C 
HETATM   11  C1  UNL     1     -33.231  13.733  -3.741  1.00 20.00     0.010 C 
ENDBRANCH   4  10
TORSDOF 2
ENDMDL
MODEL 5
REMARK VINA RESULT:      -4.0      1.517      2.962
REMARK  2 active torsions:
REMARK  status: ('A' for Active; 'I' for Inactive)
REMARK    1  A    between atoms: C3_3  and  C8_8 
REMARK    2  A    between atoms: C4_4  and  C7_7 
ROOT
HETATM    1  C5  UNL     1     -33.580  16.738  -4.345  1.00 20.00     0.040 C 
HETATM    2  C6  UNL     1     -33.727  17.444  -3.017  1.00 20.00     0.045 C 
HETATM    3  C7  UNL     1     -33.773  15.284  -3.944  1.00 20.00     0.151 C 
HETATM    4  C8  UNL     1     -34.827  16.632  -2.333  1.00 20.00     0.075 C 
HETATM    5  C10 UNL     1     -34.666  16.607  -0.816  1.00 20.00     0.050 C 
HETATM    6  O11 UNL     1     -34.689  15.285  -2.833  1.00 20.00    -0.367 OA
ENDROOT
BRANCH   3   7
HETATM    7  C4  UNL     1     -34.314  14.434  -5.041  1.00 20.00    -0.065 C 
HETATM    8  C2  UNL     1     -34.714  13.171  -4.829  1.00 20.00     0.016 C 
HETATM    9  C9  UNL     1     -34.386  15.072  -6.397  1.00 20.00     0.045 C 
ENDBRANCH   3   7
BRANCH   4  10
HETATM   10  C3  UNL     1     -36.201  17.118  -2.692  1.00 20.00     0.000 C 
HETATM   11  C1  UNL     1     -37.129  16.364  -3.292  1.00 20.00     0.010 C 
ENDBRANCH   4  10
TORSDOF 2
ENDMDL
MODEL 6
REMARK VINA RESULT:      -4.0      2.268      3.576
REMARK  2 active torsions:
REMARK  status: ('A' for Active; 'I' for Inactive)
REMARK    1  A    between atoms: C3_3  and  C8_8 
REMARK    2  A    between atoms: C4_4  and  C7_7 
ROOT
HETATM    1  C5  UNL     1     -36.062  15.907  -3.195  1.00 20.00     0.040 C 
HETATM    2  C6  UNL     1     -35.894  17.329  -2.709  1.00 20.00     0.045 C 
HETATM    3  C7  UNL     1     -34.752  15.677  -3.932  1.00 20.00     0.151 C 
HETATM    4  C8  UNL     1     -34.409  17.380  -2.349  1.00 20.00     0.075 C 
HETATM    5  C10 UNL     1     -33.814  18.769  -2.556  1.00 20.00     0.050 C 
HETATM    6  O11 UNL     1     -33.755  16.459  -3.248  1.00 20.00    -0.367 OA
ENDROOT
BRANCH   3   7
HETATM    7  C4  UNL     1     -34.334  14.248  -3.965  1.00 20.00    -0.065 C 
HETATM    8  C2  UNL     1     -35.174  13.271  -4.339  1.00 20.00     0.016 C 
HETATM    9  C9  UNL     1     -32.919  13.963  -3.556  1.00 20.00     0.045 C 
ENDBRANCH   3   7
BRANCH   4  10
HETATM   10  C3  UNL     1     -34.147  16.918  -0.945  1.00 20.00     0.000 C 
HETATM   11  C1  UNL     1     -34.904  17.254   0.107  1.00 20.00     0.010 C 
ENDBRANCH   4  10
TORSDOF 2
ENDMDL
MODEL 7
REMARK VINA RESULT:      -4.0      1.265      4.157
REMARK  2 active torsions:
REMARK  status: ('A' for Active; 'I' for Inactive)
REMARK    1  A    between atoms: C3_3  and  C8_8 
REMARK    2  A    between atoms: C4_4  and  C7_7 
ROOT
HETATM    1  C5  UNL     1     -33.406  16.885  -5.068  1.00 20.00     0.040 C 
HETATM    2  C6  UNL     1     -34.015  16.220  -6.280  1.00 20.00     0.045 C 
HETATM    3  C7  UNL     1     -34.625  17.085  -4.181  1.00 20.00     0.151 C 
HETATM    4  C8  UNL     1     -35.080  15.316  -5.659  1.00 20.00     0.075 C 
HETATM    5  C10 UNL     1     -36.282  15.126  -6.578  1.00 20.00     0.050 C 
HETATM    6  O11 UNL     1     -35.517  15.991  -4.461  1.00 20.00    -0.367 OA
ENDROOT
BRANCH   3   7
HETATM    7  C4  UNL     1     -34.302  17.113  -2.729  1.00 20.00    -0.065 C 
HETATM    8  C2  UNL     1     -34.586  16.082  -1.918  1.00 20.00     0.016 C 
HETATM    9  C9  UNL     1     -33.640  18.360  -2.222  1.00 20.00     0.045 C 
ENDBRANCH   3   7
BRANCH   4  10
HETATM   10  C3  UNL     1     -34.528  13.978  -5.259  1.00 20.00     0.000 C 
HETATM   11  C1  UNL     1     -35.027  13.229  -4.270  1.00 20.00     0.010 C 
ENDBRANCH   4  10
TORSDOF 2
ENDMDL
MODEL 8
REMARK VINA RESULT:      -3.9     11.577     12.801
REMARK  2 active torsions:
REMARK  status: ('A' for Active; 'I' for Inactive)
REMARK    1  A    between atoms: C3_3  and  C8_8 
REMARK    2  A    between atoms: C4_4  and  C7_7 
ROOT
HETATM    1  C5  UNL     1     -41.148   6.324  -0.952  1.00 20.00     0.040 C 
HETATM    2  C6  UNL     1     -40.829   4.849  -1.037  1.00 20.00     0.045 C 
HETATM    3  C7  UNL     1     -41.708   6.599  -2.339  1.00 20.00     0.151 C 
HETATM    4  C8  UNL     1     -41.985   4.311  -1.880  1.00 20.00     0.075 C 
HETATM    5  C10 UNL     1     -41.571   3.111  -2.726  1.00 20.00     0.050 C 
HETATM    6  O11 UNL     1     -42.363   5.389  -2.762  1.00 20.00    -0.367 OA
ENDROOT
BRANCH   3   7
HETATM    7  C4  UNL     1     -42.672   7.732  -2.374  1.00 20.00    -0.065 C 
HETATM    8  C2  UNL     1     -42.980   8.368  -3.515  1.00 20.00     0.016 C 
HETATM    9  C9  UNL     1     -43.280   8.124  -1.060  1.00 20.00     0.045 C 
ENDBRANCH   3   7
BRANCH   4  10
HETATM   10  C3  UNL     1     -43.181   3.957  -1.045  1.00 20.00     0.000 C 
HETATM   11  C1  UNL     1     -43.155   3.835   0.287  1.00 20.00     0.010 C 
ENDBRANCH   4  10
TORSDOF 2
ENDMDL
MODEL 9
REMARK VINA RESULT:      -3.9      1.395      2.564
REMARK  2 active torsions:
REMARK  status: ('A' for Active; 'I' for Inactive)
REMARK    1  A    between atoms: C3_3  and  C8_8 
REMARK    2  A    between atoms: C4_4  and  C7_7 
ROOT
HETATM    1  C5  UNL     1     -34.780  16.558  -5.615  1.00 20.00     0.040 C 
HETATM    2  C6  UNL     1     -33.365  16.360  -5.124  1.00 20.00     0.045 C 
HETATM    3  C7  UNL     1     -35.422  15.228  -5.253  1.00 20.00     0.151 C 
HETATM    4  C8  UNL     1     -33.572  15.555  -3.841  1.00 20.00     0.075 C 
HETATM    5  C10 UNL     1     -32.408  14.611  -3.559  1.00 20.00     0.050 C 
HETATM    6  O11 UNL     1     -34.762  14.769  -4.059  1.00 20.00    -0.367 OA
ENDROOT
BRANCH   3   7
HETATM    7  C4  UNL     1     -36.888  15.324  -5.013  1.00 20.00    -0.065 C 
HETATM    8  C2  UNL     1     -37.464  14.802  -3.920  1.00 20.00     0.016 C 
HETATM    9  C9  UNL     1     -37.685  16.037  -6.066  1.00 20.00     0.045 C 
ENDBRANCH   3   7
BRANCH   4  10
HETATM   10  C3  UNL     1     -33.813  16.436  -2.649  1.00 20.00     0.000 C 
HETATM   11  C1  UNL     1     -34.734  16.190  -1.711  1.00 20.00     0.010 C 
ENDBRANCH   4  10
TORSDOF 2
ENDMDL
