MODEL 1
REMARK VINA RESULT:      -5.3      0.000      0.000
REMARK  2 active torsions:
REMARK  status: ('A' for Active; 'I' for Inactive)
REMARK    1  A    between atoms: C1_1  and  C2_2 
REMARK    2  A    between atoms: C1_1  and  C3_3 
ROOT
HETATM    1  C1  UNL     1     -34.042   6.015   4.746  1.00 20.00     0.188 C 
ENDROOT
BRANCH   1   2
HETATM    2  C2  UNL     1     -34.502   5.934   6.187  1.00 20.00     0.361 C 
HETATM    3  F4  UNL     1     -34.023   7.004   6.870  1.00 20.00    -0.214 F 
HETATM    4  F5  UNL     1     -33.981   4.832   6.778  1.00 20.00    -0.214 F 
ENDBRANCH   1   2
BRANCH   1   5
HETATM    5  C3  UNL     1     -34.905   5.187   3.821  1.00 20.00     0.392 C 
HETATM    6  F6  UNL     1     -35.129   3.955   4.324  1.00 20.00    -0.171 F 
HETATM    7  F7  UNL     1     -36.102   5.774   3.608  1.00 20.00    -0.171 F 
HETATM    8  F8  UNL     1     -34.304   5.036   2.620  1.00 20.00    -0.171 F 
ENDBRANCH   1   5
TORSDOF 2
ENDMDL
MODEL 2
REMARK VINA RESULT:      -5.1      1.421      3.109
REMARK  2 active torsions:
REMARK  status: ('A' for Active; 'I' for Inactive)
REMARK    1  A    between atoms: C1_1  and  C2_2 
REMARK    2  A    between atoms: C1_1  and  C3_3 
ROOT
HETATM    1  C1  UNL     1     -35.231   4.980   4.554  1.00 20.00     0.188 C 
ENDROOT
BRANCH   1   2
HETATM    2  C2  UNL     1     -34.124   5.627   3.746  1.00 20.00     0.361 C 
HETATM    3  F4  UNL     1     -34.273   6.975   3.786  1.00 20.00    -0.214 F 
HETATM    4  F5  UNL     1     -34.227   5.264   2.445  1.00 20.00    -0.214 F 
ENDBRANCH   1   2
BRANCH   1   5
HETATM    5  C3  UNL     1     -34.836   4.762   5.997  1.00 20.00     0.392 C 
HETATM    6  F6  UNL     1     -34.623   5.933   6.633  1.00 20.00    -0.171 F 
HETATM    7  F7  UNL     1     -35.791   4.088   6.672  1.00 20.00    -0.171 F 
HETATM    8  F8  UNL     1     -33.695   4.042   6.073  1.00 20.00    -0.171 F 
ENDBRANCH   1   5
TORSDOF 2
ENDMDL
MODEL 3
REMARK VINA RESULT:      -5.0      1.430      3.125
REMARK  2 active torsions:
REMARK  status: ('A' for Active; 'I' for Inactive)
REMARK    1  A    between atoms: C1_1  and  C2_2 
REMARK    2  A    between atoms: C1_1  and  C3_3 
ROOT
HETATM    1  C1  UNL     1     -35.224   4.963   4.556  1.00 20.00     0.188 C 
ENDROOT
BRANCH   1   2
HETATM    2  C2  UNL     1     -34.120   5.618   3.751  1.00 20.00     0.361 C 
HETATM    3  F4  UNL     1     -34.266   6.966   3.807  1.00 20.00    -0.214 F 
HETATM    4  F5  UNL     1     -34.230   5.271   2.446  1.00 20.00    -0.214 F 
ENDBRANCH   1   2
BRANCH   1   5
HETATM    5  C3  UNL     1     -34.829   4.744   5.998  1.00 20.00     0.392 C 
HETATM    6  F6  UNL     1     -33.686   4.033   6.096  1.00 20.00    -0.171 F 
HETATM    7  F7  UNL     1     -34.647   5.917   6.642  1.00 20.00    -0.171 F 
HETATM    8  F8  UNL     1     -35.793   4.063   6.655  1.00 20.00    -0.171 F 
ENDBRANCH   1   5
TORSDOF 2
ENDMDL
MODEL 4
REMARK VINA RESULT:      -5.0      1.449      2.134
REMARK  2 active torsions:
REMARK  status: ('A' for Active; 'I' for Inactive)
REMARK    1  A    between atoms: C1_1  and  C2_2 
REMARK    2  A    between atoms: C1_1  and  C3_3 
ROOT
HETATM    1  C1  UNL     1     -35.163   5.005   4.520  1.00 20.00     0.188 C 
ENDROOT
BRANCH   1   2
HETATM    2  C2  UNL     1     -34.679   4.809   5.942  1.00 20.00     0.361 C 
HETATM    3  F4  UNL     1     -35.518   3.959   6.586  1.00 20.00    -0.214 F 
HETATM    4  F5  UNL     1     -34.728   5.984   6.614  1.00 20.00    -0.214 F 
ENDBRANCH   1   2
BRANCH   1   5
HETATM    5  C3  UNL     1     -34.161   5.754   3.671  1.00 20.00     0.392 C 
HETATM    6  F6  UNL     1     -32.905   5.605   4.142  1.00 20.00    -0.171 F 
HETATM    7  F7  UNL     1     -34.180   5.324   2.392  1.00 20.00    -0.171 F 
HETATM    8  F8  UNL     1     -34.441   7.076   3.663  1.00 20.00    -0.171 F 
ENDBRANCH   1   5
TORSDOF 2
ENDMDL
MODEL 5
REMARK VINA RESULT:      -5.0      1.452      2.222
REMARK  2 active torsions:
REMARK  status: ('A' for Active; 'I' for Inactive)
REMARK    1  A    between atoms: C1_1  and  C2_2 
REMARK    2  A    between atoms: C1_1  and  C3_3 
ROOT
HETATM    1  C1  UNL     1     -35.159   5.001   4.517  1.00 20.00     0.188 C 
ENDROOT
BRANCH   1   2
HETATM    2  C2  UNL     1     -34.679   4.806   5.941  1.00 20.00     0.361 C 
HETATM    3  F4  UNL     1     -35.521   3.958   6.584  1.00 20.00    -0.214 F 
HETATM    4  F5  UNL     1     -34.729   5.983   6.611  1.00 20.00    -0.214 F 
ENDBRANCH   1   2
BRANCH   1   5
HETATM    5  C3  UNL     1     -34.161   5.762   3.675  1.00 20.00     0.392 C 
HETATM    6  F6  UNL     1     -34.435   7.084   3.659  1.00 20.00    -0.171 F 
HETATM    7  F7  UNL     1     -32.903   5.602   4.138  1.00 20.00    -0.171 F 
HETATM    8  F8  UNL     1     -34.186   5.323   2.398  1.00 20.00    -0.171 F 
ENDBRANCH   1   5
TORSDOF 2
ENDMDL
MODEL 6
REMARK VINA RESULT:      -5.0      1.136      3.376
REMARK  2 active torsions:
REMARK  status: ('A' for Active; 'I' for Inactive)
REMARK    1  A    between atoms: C1_1  and  C2_2 
REMARK    2  A    between atoms: C1_1  and  C3_3 
ROOT
HETATM    1  C1  UNL     1     -35.011   4.442   4.726  1.00 20.00     0.188 C 
ENDROOT
BRANCH   1   2
HETATM    2  C2  UNL     1     -34.969   5.559   3.702  1.00 20.00     0.361 C 
HETATM    3  F4  UNL     1     -36.231   5.828   3.283  1.00 20.00    -0.214 F 
HETATM    4  F5  UNL     1     -34.276   5.158   2.609  1.00 20.00    -0.214 F 
ENDBRANCH   1   2
BRANCH   1   5
HETATM    5  C3  UNL     1     -34.725   4.936   6.125  1.00 20.00     0.392 C 
HETATM    6  F6  UNL     1     -35.807   4.814   6.923  1.00 20.00    -0.171 F 
HETATM    7  F7  UNL     1     -33.710   4.250   6.692  1.00 20.00    -0.171 F 
HETATM    8  F8  UNL     1     -34.376   6.241   6.105  1.00 20.00    -0.171 F 
ENDBRANCH   1   5
TORSDOF 2
ENDMDL
MODEL 7
REMARK VINA RESULT:      -4.9      1.603      2.544
REMARK  2 active torsions:
REMARK  status: ('A' for Active; 'I' for Inactive)
REMARK    1  A    between atoms: C1_1  and  C2_2 
REMARK    2  A    between atoms: C1_1  and  C3_3 
ROOT
HETATM    1  C1  UNL     1     -33.931   6.107   4.703  1.00 20.00     0.188 C 
ENDROOT
BRANCH   1   2
HETATM    2  C2  UNL     1     -34.912   4.955   4.780  1.00 20.00     0.361 C 
HETATM    3  F4  UNL     1     -36.038   5.281   4.096  1.00 20.00    -0.214 F 
HETATM    4  F5  UNL     1     -35.285   4.750   6.066  1.00 20.00    -0.214 F 
ENDBRANCH   1   2
BRANCH   1   5
HETATM    5  C3  UNL     1     -33.209   6.158   3.376  1.00 20.00     0.392 C 
HETATM    6  F6  UNL     1     -31.938   5.716   3.486  1.00 20.00    -0.171 F 
HETATM    7  F7  UNL     1     -33.833   5.402   2.447  1.00 20.00    -0.171 F 
HETATM    8  F8  UNL     1     -33.163   7.425   2.909  1.00 20.00    -0.171 F 
ENDBRANCH   1   5
TORSDOF 2
ENDMDL
MODEL 8
REMARK VINA RESULT:      -4.9      1.607      2.747
REMARK  2 active torsions:
REMARK  status: ('A' for Active; 'I' for Inactive)
REMARK    1  A    between atoms: C1_1  and  C2_2 
REMARK    2  A    between atoms: C1_1  and  C3_3 
ROOT
HETATM    1  C1  UNL     1     -33.935   6.109   4.687  1.00 20.00     0.188 C 
ENDROOT
BRANCH   1   2
HETATM    2  C2  UNL     1     -34.928   4.965   4.742  1.00 20.00     0.361 C 
HETATM    3  F4  UNL     1     -36.048   5.313   4.058  1.00 20.00    -0.214 F 
HETATM    4  F5  UNL     1     -35.309   4.745   6.023  1.00 20.00    -0.214 F 
ENDBRANCH   1   2
BRANCH   1   5
HETATM    5  C3  UNL     1     -33.200   6.168   3.368  1.00 20.00     0.392 C 
HETATM    6  F6  UNL     1     -33.144   7.428   2.889  1.00 20.00    -0.171 F 
HETATM    7  F7  UNL     1     -31.936   5.710   3.488  1.00 20.00    -0.171 F 
HETATM    8  F8  UNL     1     -33.824   5.406   2.443  1.00 20.00    -0.171 F 
ENDBRANCH   1   5
TORSDOF 2
ENDMDL
MODEL 9
REMARK VINA RESULT:      -4.9      1.375      3.088
REMARK  2 active torsions:
REMARK  status: ('A' for Active; 'I' for Inactive)
REMARK    1  A    between atoms: C1_1  and  C2_2 
REMARK    2  A    between atoms: C1_1  and  C3_3 
ROOT
HETATM    1  C1  UNL     1     -33.834   5.577   4.854  1.00 20.00     0.188 C 
ENDROOT
BRANCH   1   2
HETATM    2  C2  UNL     1     -33.708   6.110   3.441  1.00 20.00     0.361 C 
HETATM    3  F4  UNL     1     -33.999   5.117   2.563  1.00 20.00    -0.214 F 
HETATM    4  F5  UNL     1     -32.427   6.479   3.198  1.00 20.00    -0.214 F 
ENDBRANCH   1   2
BRANCH   1   5
HETATM    5  C3  UNL     1     -35.117   4.807   5.065  1.00 20.00     0.392 C 
HETATM    6  F6  UNL     1     -36.104   5.262   4.265  1.00 20.00    -0.171 F 
HETATM    7  F7  UNL     1     -34.948   3.491   4.810  1.00 20.00    -0.171 F 
HETATM    8  F8  UNL     1     -35.538   4.926   6.343  1.00 20.00    -0.171 F 
ENDBRANCH   1   5
TORSDOF 2
ENDMDL
