MODEL 1
REMARK VINA RESULT:      -5.7      0.000      0.000
REMARK  2 active torsions:
REMARK  status: ('A' for Active; 'I' for Inactive)
REMARK    1  A    between atoms: C1_1  and  C3_3 
REMARK    2  A    between atoms: C2_2  and  C4_4 
ROOT
HETATM    1  C1  UNL     1     -33.820   5.843   4.702  1.00 20.00     0.017 C 
HETATM    2  C2  UNL     1     -33.088   6.458   3.977  1.00 20.00     0.017 C 
ENDROOT
BRANCH   1   3
HETATM    3  C3  UNL     1     -34.705   5.098   5.579  1.00 20.00     0.459 C 
HETATM    4  F5  UNL     1     -35.873   4.818   4.959  1.00 20.00    -0.159 F 
HETATM    5  F6  UNL     1     -34.139   3.928   5.953  1.00 20.00    -0.159 F 
HETATM    6  F7  UNL     1     -34.983   5.805   6.696  1.00 20.00    -0.159 F 
ENDBRANCH   1   3
BRANCH   2   7
HETATM    7  C4  UNL     1     -32.201   7.202   3.099  1.00 20.00     0.459 C 
HETATM    8  F8  UNL     1     -31.166   7.727   3.793  1.00 20.00    -0.159 F 
HETATM    9  F9  UNL     1     -32.860   8.218   2.498  1.00 20.00    -0.159 F 
HETATM   10  F10 UNL     1     -31.696   6.402   2.135  1.00 20.00    -0.159 F 
ENDBRANCH   2   7
TORSDOF 2
ENDMDL
MODEL 2
REMARK VINA RESULT:      -5.7      0.029      4.580
REMARK  2 active torsions:
REMARK  status: ('A' for Active; 'I' for Inactive)
REMARK    1  A    between atoms: C1_1  and  C3_3 
REMARK    2  A    between atoms: C2_2  and  C4_4 
ROOT
HETATM    1  C1  UNL     1     -33.087   6.453   3.986  1.00 20.00     0.017 C 
HETATM    2  C2  UNL     1     -33.816   5.845   4.721  1.00 20.00     0.017 C 
ENDROOT
BRANCH   1   3
HETATM    3  C3  UNL     1     -32.205   7.188   3.097  1.00 20.00     0.459 C 
HETATM    4  F5  UNL     1     -32.865   8.200   2.492  1.00 20.00    -0.159 F 
HETATM    5  F6  UNL     1     -31.164   7.715   3.779  1.00 20.00    -0.159 F 
HETATM    6  F7  UNL     1     -31.709   6.379   2.136  1.00 20.00    -0.159 F 
ENDBRANCH   1   3
BRANCH   2   7
HETATM    7  C4  UNL     1     -34.698   5.108   5.609  1.00 20.00     0.459 C 
HETATM    8  F8  UNL     1     -34.978   5.831   6.716  1.00 20.00    -0.159 F 
HETATM    9  F9  UNL     1     -34.126   3.948   6.001  1.00 20.00    -0.159 F 
HETATM   10  F10 UNL     1     -35.864   4.814   4.993  1.00 20.00    -0.159 F 
ENDBRANCH   2   7
TORSDOF 2
ENDMDL
MODEL 3
REMARK VINA RESULT:      -5.7      0.015      1.198
REMARK  2 active torsions:
REMARK  status: ('A' for Active; 'I' for Inactive)
REMARK    1  A    between atoms: C1_1  and  C3_3 
REMARK    2  A    between atoms: C2_2  and  C4_4 
ROOT
HETATM    1  C1  UNL     1     -33.815   5.856   4.704  1.00 20.00     0.017 C 
HETATM    2  C2  UNL     1     -33.083   6.469   3.977  1.00 20.00     0.017 C 
ENDROOT
BRANCH   1   3
HETATM    3  C3  UNL     1     -34.701   5.113   5.581  1.00 20.00     0.459 C 
HETATM    4  F5  UNL     1     -35.872   4.842   4.965  1.00 20.00    -0.159 F 
HETATM    5  F6  UNL     1     -34.140   3.940   5.951  1.00 20.00    -0.159 F 
HETATM    6  F7  UNL     1     -34.971   5.819   6.702  1.00 20.00    -0.159 F 
ENDBRANCH   1   3
BRANCH   2   7
HETATM    7  C4  UNL     1     -32.195   7.211   3.098  1.00 20.00     0.459 C 
HETATM    8  F8  UNL     1     -31.691   6.408   2.134  1.00 20.00    -0.159 F 
HETATM    9  F9  UNL     1     -31.159   7.735   3.790  1.00 20.00    -0.159 F 
HETATM   10  F10 UNL     1     -32.852   8.226   2.495  1.00 20.00    -0.159 F 
ENDBRANCH   2   7
TORSDOF 2
ENDMDL
MODEL 4
REMARK VINA RESULT:      -4.8      2.288      5.249
REMARK  2 active torsions:
REMARK  status: ('A' for Active; 'I' for Inactive)
REMARK    1  A    between atoms: C1_1  and  C3_3 
REMARK    2  A    between atoms: C2_2  and  C4_4 
ROOT
HETATM    1  C1  UNL     1     -32.381   8.234   1.934  1.00 20.00     0.017 C 
HETATM    2  C2  UNL     1     -32.590   7.299   2.657  1.00 20.00     0.017 C 
ENDROOT
BRANCH   1   3
HETATM    3  C3  UNL     1     -32.126   9.364   1.059  1.00 20.00     0.459 C 
HETATM    4  F5  UNL     1     -32.341  10.531   1.705  1.00 20.00    -0.159 F 
HETATM    5  F6  UNL     1     -30.846   9.356   0.623  1.00 20.00    -0.159 F 
HETATM    6  F7  UNL     1     -32.936   9.328  -0.022  1.00 20.00    -0.159 F 
ENDBRANCH   1   3
BRANCH   2   7
HETATM    7  C4  UNL     1     -32.843   6.167   3.531  1.00 20.00     0.459 C 
HETATM    8  F8  UNL     1     -31.775   5.340   3.569  1.00 20.00    -0.159 F 
HETATM    9  F9  UNL     1     -33.909   5.456   3.101  1.00 20.00    -0.159 F 
HETATM   10  F10 UNL     1     -33.098   6.580   4.792  1.00 20.00    -0.159 F 
ENDBRANCH   2   7
TORSDOF 2
ENDMDL
MODEL 5
REMARK VINA RESULT:      -4.8      2.300      3.311
REMARK  2 active torsions:
REMARK  status: ('A' for Active; 'I' for Inactive)
REMARK    1  A    between atoms: C1_1  and  C3_3 
REMARK    2  A    between atoms: C2_2  and  C4_4 
ROOT
HETATM    1  C1  UNL     1     -32.574   7.302   2.641  1.00 20.00     0.017 C 
HETATM    2  C2  UNL     1     -32.364   8.233   1.913  1.00 20.00     0.017 C 
ENDROOT
BRANCH   1   3
HETATM    3  C3  UNL     1     -32.827   6.175   3.520  1.00 20.00     0.459 C 
HETATM    4  F5  UNL     1     -33.097   6.595   4.776  1.00 20.00    -0.159 F 
HETATM    5  F6  UNL     1     -33.884   5.452   3.084  1.00 20.00    -0.159 F 
HETATM    6  F7  UNL     1     -31.754   5.356   3.574  1.00 20.00    -0.159 F 
ENDBRANCH   1   3
BRANCH   2   7
HETATM    7  C4  UNL     1     -32.109   9.360   1.033  1.00 20.00     0.459 C 
HETATM    8  F8  UNL     1     -30.829   9.350   0.598  1.00 20.00    -0.159 F 
HETATM    9  F9  UNL     1     -32.324  10.530   1.675  1.00 20.00    -0.159 F 
HETATM   10  F10 UNL     1     -32.919   9.320  -0.047  1.00 20.00    -0.159 F 
ENDBRANCH   2   7
TORSDOF 2
ENDMDL
MODEL 6
REMARK VINA RESULT:      -4.8      2.302      5.248
REMARK  2 active torsions:
REMARK  status: ('A' for Active; 'I' for Inactive)
REMARK    1  A    between atoms: C1_1  and  C3_3 
REMARK    2  A    between atoms: C2_2  and  C4_4 
ROOT
HETATM    1  C1  UNL     1     -32.370   8.261   1.934  1.00 20.00     0.017 C 
HETATM    2  C2  UNL     1     -32.574   7.319   2.650  1.00 20.00     0.017 C 
ENDROOT
BRANCH   1   3
HETATM    3  C3  UNL     1     -32.122   9.399   1.068  1.00 20.00     0.459 C 
HETATM    4  F5  UNL     1     -30.842   9.403   0.633  1.00 20.00    -0.159 F 
HETATM    5  F6  UNL     1     -32.932   9.367  -0.014  1.00 20.00    -0.159 F 
HETATM    6  F7  UNL     1     -32.344  10.559   1.723  1.00 20.00    -0.159 F 
ENDBRANCH   1   3
BRANCH   2   7
HETATM    7  C4  UNL     1     -32.820   6.179   3.515  1.00 20.00     0.459 C 
HETATM    8  F8  UNL     1     -31.745   5.361   3.552  1.00 20.00    -0.159 F 
HETATM    9  F9  UNL     1     -33.877   5.460   3.074  1.00 20.00    -0.159 F 
HETATM   10  F10 UNL     1     -33.085   6.581   4.777  1.00 20.00    -0.159 F 
ENDBRANCH   2   7
TORSDOF 2
ENDMDL
MODEL 7
REMARK VINA RESULT:      -4.6     11.221     12.099
REMARK  2 active torsions:
REMARK  status: ('A' for Active; 'I' for Inactive)
REMARK    1  A    between atoms: C1_1  and  C3_3 
REMARK    2  A    between atoms: C2_2  and  C4_4 
ROOT
HETATM    1  C1  UNL     1     -34.279  15.812  -2.262  1.00 20.00     0.017 C 
HETATM    2  C2  UNL     1     -34.189  14.933  -3.075  1.00 20.00     0.017 C 
ENDROOT
BRANCH   1   3
HETATM    3  C3  UNL     1     -34.389  16.873  -1.278  1.00 20.00     0.459 C 
HETATM    4  F5  UNL     1     -33.179  17.418  -1.022  1.00 20.00    -0.159 F 
HETATM    5  F6  UNL     1     -35.207  17.855  -1.718  1.00 20.00    -0.159 F 
HETATM    6  F7  UNL     1     -34.890  16.401  -0.115  1.00 20.00    -0.159 F 
ENDBRANCH   1   3
BRANCH   2   7
HETATM    7  C4  UNL     1     -34.080  13.870  -4.059  1.00 20.00     0.459 C 
HETATM    8  F8  UNL     1     -35.112  13.005  -3.949  1.00 20.00    -0.159 F 
HETATM    9  F9  UNL     1     -32.932  13.176  -3.890  1.00 20.00    -0.159 F 
HETATM   10  F10 UNL     1     -34.084  14.372  -5.313  1.00 20.00    -0.159 F 
ENDBRANCH   2   7
TORSDOF 2
ENDMDL
MODEL 8
REMARK VINA RESULT:      -4.6     11.219     12.123
REMARK  2 active torsions:
REMARK  status: ('A' for Active; 'I' for Inactive)
REMARK    1  A    between atoms: C1_1  and  C3_3 
REMARK    2  A    between atoms: C2_2  and  C4_4 
ROOT
HETATM    1  C1  UNL     1     -34.183  14.936  -3.072  1.00 20.00     0.017 C 
HETATM    2  C2  UNL     1     -34.271  15.816  -2.261  1.00 20.00     0.017 C 
ENDROOT
BRANCH   1   3
HETATM    3  C3  UNL     1     -34.074  13.871  -4.052  1.00 20.00     0.459 C 
HETATM    4  F5  UNL     1     -35.109  13.009  -3.943  1.00 20.00    -0.159 F 
HETATM    5  F6  UNL     1     -34.077  14.371  -5.309  1.00 20.00    -0.159 F 
HETATM    6  F7  UNL     1     -32.929  13.175  -3.882  1.00 20.00    -0.159 F 
ENDBRANCH   1   3
BRANCH   2   7
HETATM    7  C4  UNL     1     -34.379  16.881  -1.278  1.00 20.00     0.459 C 
HETATM    8  F8  UNL     1     -33.167  17.418  -1.016  1.00 20.00    -0.159 F 
HETATM    9  F9  UNL     1     -34.890  16.413  -0.117  1.00 20.00    -0.159 F 
HETATM   10  F10 UNL     1     -35.187  17.868  -1.723  1.00 20.00    -0.159 F 
ENDBRANCH   2   7
TORSDOF 2
ENDMDL
MODEL 9
REMARK VINA RESULT:      -4.6     11.219     12.039
REMARK  2 active torsions:
REMARK  status: ('A' for Active; 'I' for Inactive)
REMARK    1  A    between atoms: C1_1  and  C3_3 
REMARK    2  A    between atoms: C2_2  and  C4_4 
ROOT
HETATM    1  C1  UNL     1     -34.277  15.814  -2.263  1.00 20.00     0.017 C 
HETATM    2  C2  UNL     1     -34.187  14.934  -3.074  1.00 20.00     0.017 C 
ENDROOT
BRANCH   1   3
HETATM    3  C3  UNL     1     -34.384  16.878  -1.282  1.00 20.00     0.459 C 
HETATM    4  F5  UNL     1     -34.891  16.411  -0.120  1.00 20.00    -0.159 F 
HETATM    5  F6  UNL     1     -33.172  17.418  -1.023  1.00 20.00    -0.159 F 
HETATM    6  F7  UNL     1     -35.194  17.863  -1.727  1.00 20.00    -0.159 F 
ENDBRANCH   1   3
BRANCH   2   7
HETATM    7  C4  UNL     1     -34.078  13.868  -4.055  1.00 20.00     0.459 C 
HETATM    8  F8  UNL     1     -32.931  13.173  -3.885  1.00 20.00    -0.159 F 
HETATM    9  F9  UNL     1     -34.081  14.369  -5.311  1.00 20.00    -0.159 F 
HETATM   10  F10 UNL     1     -35.112  13.005  -3.946  1.00 20.00    -0.159 F 
ENDBRANCH   2   7
TORSDOF 2
ENDMDL
