MODEL 1
REMARK VINA RESULT:      -4.9      0.000      0.000
REMARK  0 active torsions:
REMARK  status: ('A' for Active; 'I' for Inactive)
ROOT
HETATM    1  C1  UNL     1     -34.900  14.384  -6.660  1.00 20.00     0.000 C 
HETATM    2  C2  UNL     1     -34.044  15.642  -6.770  1.00 20.00     0.000 C 
HETATM    3  C3  UNL     1     -34.793  13.643  -5.330  1.00 20.00     0.000 C 
HETATM    4  C4  UNL     1     -34.358  16.725  -5.741  1.00 20.00     0.001 C 
HETATM    5  C5  UNL     1     -35.684  14.222  -4.224  1.00 20.00     0.001 C 
HETATM    6  C6  UNL     1     -33.600  16.561  -4.416  1.00 20.00     0.012 C 
HETATM    7  C7  UNL     1     -34.911  14.814  -3.043  1.00 20.00     0.012 C 
HETATM    8  C8  UNL     1     -33.668  16.660  -1.892  1.00 20.00     0.038 C 
HETATM    9  C9  UNL     1     -34.746  16.963  -0.871  1.00 20.00     0.168 C 
HETATM   10  C10 UNL     1     -35.632  17.267  -3.004  1.00 20.00     0.177 C 
HETATM   11  C11 UNL     1     -34.457  16.296  -3.160  1.00 20.00    -0.017 C 
HETATM   12  O12 UNL     1     -35.904  17.388  -1.600  1.00 20.00    -0.390 OA
ENDROOT
TORSDOF 0
ENDMDL
MODEL 2
REMARK VINA RESULT:      -4.7     12.259     14.178
REMARK  0 active torsions:
REMARK  status: ('A' for Active; 'I' for Inactive)
ROOT
HETATM    1  C1  UNL     1     -42.064   7.718  -1.123  1.00 20.00     0.000 C 
HETATM    2  C2  UNL     1     -40.935   6.938  -0.456  1.00 20.00     0.000 C 
HETATM    3  C3  UNL     1     -42.423   7.257  -2.533  1.00 20.00     0.000 C 
HETATM    4  C4  UNL     1     -41.203   5.446  -0.277  1.00 20.00     0.001 C 
HETATM    5  C5  UNL     1     -43.373   6.054  -2.569  1.00 20.00     0.001 C 
HETATM    6  C6  UNL     1     -40.810   4.594  -1.493  1.00 20.00     0.012 C 
HETATM    7  C7  UNL     1     -42.757   4.789  -3.174  1.00 20.00     0.012 C 
HETATM    8  C8  UNL     1     -41.398   2.688  -3.043  1.00 20.00     0.038 C 
HETATM    9  C9  UNL     1     -42.571   1.735  -3.154  1.00 20.00     0.168 C 
HETATM   10  C10 UNL     1     -42.878   3.078  -1.276  1.00 20.00     0.177 C 
HETATM   11  C11 UNL     1     -41.956   3.859  -2.219  1.00 20.00    -0.017 C 
HETATM   12  O12 UNL     1     -43.412   1.972  -2.019  1.00 20.00    -0.390 OA
ENDROOT
TORSDOF 0
ENDMDL
MODEL 3
REMARK VINA RESULT:      -4.7      2.083      4.101
REMARK  0 active torsions:
REMARK  status: ('A' for Active; 'I' for Inactive)
ROOT
HETATM    1  C1  UNL     1     -33.635  19.119  -2.210  1.00 20.00     0.000 C 
HETATM    2  C2  UNL     1     -33.730  19.174  -3.732  1.00 20.00     0.000 C 
HETATM    3  C3  UNL     1     -34.603  18.148  -1.537  1.00 20.00     0.000 C 
HETATM    4  C4  UNL     1     -33.448  17.852  -4.441  1.00 20.00     0.001 C 
HETATM    5  C5  UNL     1     -34.110  16.696  -1.517  1.00 20.00     0.001 C 
HETATM    6  C6  UNL     1     -34.684  16.953  -4.592  1.00 20.00     0.012 C 
HETATM    7  C7  UNL     1     -34.971  15.733  -2.338  1.00 20.00     0.012 C 
HETATM    8  C8  UNL     1     -35.653  14.623  -4.478  1.00 20.00     0.038 C 
HETATM    9  C9  UNL     1     -35.095  13.257  -4.132  1.00 20.00     0.168 C 
HETATM   10  C10 UNL     1     -33.355  14.807  -4.091  1.00 20.00     0.177 C 
HETATM   11  C11 UNL     1     -34.645  15.599  -3.852  1.00 20.00    -0.017 C 
HETATM   12  O12 UNL     1     -33.680  13.414  -3.967  1.00 20.00    -0.390 OA
ENDROOT
TORSDOF 0
ENDMDL
MODEL 4
REMARK VINA RESULT:      -4.6      1.857      4.102
REMARK  0 active torsions:
REMARK  status: ('A' for Active; 'I' for Inactive)
ROOT
HETATM    1  C1  UNL     1     -33.900  19.257  -2.947  1.00 20.00     0.000 C 
HETATM    2  C2  UNL     1     -33.697  18.431  -1.680  1.00 20.00     0.000 C 
HETATM    3  C3  UNL     1     -33.555  18.539  -4.249  1.00 20.00     0.000 C 
HETATM    4  C4  UNL     1     -34.531  17.155  -1.606  1.00 20.00     0.001 C 
HETATM    5  C5  UNL     1     -34.681  17.642  -4.779  1.00 20.00     0.001 C 
HETATM    6  C6  UNL     1     -33.867  15.939  -2.270  1.00 20.00     0.012 C 
HETATM    7  C7  UNL     1     -34.335  16.150  -4.798  1.00 20.00     0.012 C 
HETATM    8  C8  UNL     1     -34.135  13.893  -3.727  1.00 20.00     0.038 C 
HETATM    9  C9  UNL     1     -35.296  13.264  -4.469  1.00 20.00     0.168 C 
HETATM   10  C10 UNL     1     -36.086  15.094  -3.262  1.00 20.00     0.177 C 
HETATM   11  C11 UNL     1     -34.591  15.342  -3.495  1.00 20.00    -0.017 C 
HETATM   12  O12 UNL     1     -36.472  13.996  -4.102  1.00 20.00    -0.390 OA
ENDROOT
TORSDOF 0
ENDMDL
MODEL 5
REMARK VINA RESULT:      -4.6      2.101      3.945
REMARK  0 active torsions:
REMARK  status: ('A' for Active; 'I' for Inactive)
ROOT
HETATM    1  C1  UNL     1     -33.753  13.834  -3.569  1.00 20.00     0.000 C 
HETATM    2  C2  UNL     1     -34.438  13.268  -4.809  1.00 20.00     0.000 C 
HETATM    3  C3  UNL     1     -32.853  15.042  -3.822  1.00 20.00     0.000 C 
HETATM    4  C4  UNL     1     -35.361  14.244  -5.535  1.00 20.00     0.001 C 
HETATM    5  C5  UNL     1     -33.609  16.375  -3.886  1.00 20.00     0.001 C 
HETATM    6  C6  UNL     1     -34.644  15.122  -6.572  1.00 20.00     0.012 C 
HETATM    7  C7  UNL     1     -33.558  17.057  -5.256  1.00 20.00     0.012 C 
HETATM    8  C8  UNL     1     -34.365  17.412  -7.601  1.00 20.00     0.038 C 
HETATM    9  C9  UNL     1     -34.987  18.771  -7.350  1.00 20.00     0.168 C 
HETATM   10  C10 UNL     1     -36.014  17.211  -5.956  1.00 20.00     0.177 C 
HETATM   11  C11 UNL     1     -34.633  16.640  -6.299  1.00 20.00    -0.017 C 
HETATM   12  O12 UNL     1     -36.028  18.582  -6.384  1.00 20.00    -0.390 OA
ENDROOT
TORSDOF 0
ENDMDL
MODEL 6
REMARK VINA RESULT:      -4.6      2.450      3.575
REMARK  0 active torsions:
REMARK  status: ('A' for Active; 'I' for Inactive)
ROOT
HETATM    1  C1  UNL     1     -37.823  15.190  -7.546  1.00 20.00     0.000 C 
HETATM    2  C2  UNL     1     -38.270  15.667  -6.167  1.00 20.00     0.000 C 
HETATM    3  C3  UNL     1     -36.352  15.438  -7.870  1.00 20.00     0.000 C 
HETATM    4  C4  UNL     1     -37.539  15.018  -4.995  1.00 20.00     0.001 C 
HETATM    5  C5  UNL     1     -35.405  14.371  -7.308  1.00 20.00     0.001 C 
HETATM    6  C6  UNL     1     -36.236  15.730  -4.604  1.00 20.00     0.012 C 
HETATM    7  C7  UNL     1     -34.433  14.895  -6.248  1.00 20.00     0.012 C 
HETATM    8  C8  UNL     1     -33.819  15.522  -3.901  1.00 20.00     0.038 C 
HETATM    9  C9  UNL     1     -32.878  14.356  -3.668  1.00 20.00     0.168 C 
HETATM   10  C10 UNL     1     -34.995  13.519  -4.166  1.00 20.00     0.177 C 
HETATM   11  C11 UNL     1     -34.932  14.924  -4.776  1.00 20.00    -0.017 C 
HETATM   12  O12 UNL     1     -33.659  13.161  -3.780  1.00 20.00    -0.390 OA
ENDROOT
TORSDOF 0
ENDMDL
MODEL 7
REMARK VINA RESULT:      -4.6      2.068      4.433
REMARK  0 active torsions:
REMARK  status: ('A' for Active; 'I' for Inactive)
ROOT
HETATM    1  C1  UNL     1     -35.137  16.759  -1.538  1.00 20.00     0.000 C 
HETATM    2  C2  UNL     1     -33.666  16.664  -1.934  1.00 20.00     0.000 C 
HETATM    3  C3  UNL     1     -36.077  17.217  -2.649  1.00 20.00     0.000 C 
HETATM    4  C4  UNL     1     -33.368  15.687  -3.069  1.00 20.00     0.001 C 
HETATM    5  C5  UNL     1     -36.512  16.092  -3.596  1.00 20.00     0.001 C 
HETATM    6  C6  UNL     1     -33.505  16.302  -4.470  1.00 20.00     0.012 C 
HETATM    7  C7  UNL     1     -36.021  16.263  -5.036  1.00 20.00     0.012 C 
HETATM    8  C8  UNL     1     -34.307  16.032  -6.850  1.00 20.00     0.038 C 
HETATM    9  C9  UNL     1     -35.027  14.935  -7.608  1.00 20.00     0.168 C 
HETATM   10  C10 UNL     1     -34.589  14.183  -5.447  1.00 20.00     0.177 C 
HETATM   11  C11 UNL     1     -34.606  15.714  -5.376  1.00 20.00    -0.017 C 
HETATM   12  O12 UNL     1     -35.118  13.809  -6.728  1.00 20.00    -0.390 OA
ENDROOT
TORSDOF 0
ENDMDL
MODEL 8
REMARK VINA RESULT:      -4.6      2.375      4.524
REMARK  0 active torsions:
REMARK  status: ('A' for Active; 'I' for Inactive)
ROOT
HETATM    1  C1  UNL     1     -33.014  15.132  -3.471  1.00 20.00     0.000 C 
HETATM    2  C2  UNL     1     -33.481  13.714  -3.786  1.00 20.00     0.000 C 
HETATM    3  C3  UNL     1     -33.018  16.092  -4.658  1.00 20.00     0.000 C 
HETATM    4  C4  UNL     1     -34.910  13.611  -4.314  1.00 20.00     0.001 C 
HETATM    5  C5  UNL     1     -34.388  16.719  -4.944  1.00 20.00     0.001 C 
HETATM    6  C6  UNL     1     -35.023  13.777  -5.836  1.00 20.00     0.012 C 
HETATM    7  C7  UNL     1     -34.990  16.316  -6.292  1.00 20.00     0.012 C 
HETATM    8  C8  UNL     1     -36.282  14.774  -7.786  1.00 20.00     0.038 C 
HETATM    9  C9  UNL     1     -37.500  15.666  -7.918  1.00 20.00     0.168 C 
HETATM   10  C10 UNL     1     -37.185  15.162  -5.665  1.00 20.00     0.177 C 
HETATM   11  C11 UNL     1     -35.818  15.001  -6.339  1.00 20.00    -0.017 C 
HETATM   12  O12 UNL     1     -38.049  15.821  -6.604  1.00 20.00    -0.390 OA
ENDROOT
TORSDOF 0
ENDMDL
MODEL 9
REMARK VINA RESULT:      -4.6      1.839      4.465
REMARK  0 active torsions:
REMARK  status: ('A' for Active; 'I' for Inactive)
ROOT
HETATM    1  C1  UNL     1     -35.503  18.232  -1.038  1.00 20.00     0.000 C 
HETATM    2  C2  UNL     1     -36.835  18.079  -1.767  1.00 20.00     0.000 C 
HETATM    3  C3  UNL     1     -34.718  16.937  -0.847  1.00 20.00     0.000 C 
HETATM    4  C4  UNL     1     -36.730  17.522  -3.185  1.00 20.00     0.001 C 
HETATM    5  C5  UNL     1     -33.883  16.533  -2.068  1.00 20.00     0.001 C 
HETATM    6  C6  UNL     1     -36.739  15.988  -3.252  1.00 20.00     0.012 C 
HETATM    7  C7  UNL     1     -34.332  15.225  -2.726  1.00 20.00     0.012 C 
HETATM    8  C8  UNL     1     -35.776  13.891  -4.279  1.00 20.00     0.038 C 
HETATM    9  C9  UNL     1     -34.692  13.611  -5.301  1.00 20.00     0.168 C 
HETATM   10  C10 UNL     1     -34.958  15.918  -5.107  1.00 20.00     0.177 C 
HETATM   11  C11 UNL     1     -35.461  15.314  -3.791  1.00 20.00    -0.017 C 
HETATM   12  O12 UNL     1     -34.270  14.878  -5.820  1.00 20.00    -0.390 OA
ENDROOT
TORSDOF 0
ENDMDL
