MODEL 1
REMARK VINA RESULT:      -4.5      0.000      0.000
REMARK  2 active torsions:
REMARK  status: ('A' for Active; 'I' for Inactive)
REMARK    1  A    between atoms: C1_1  and  C2_2 
REMARK    2  A    between atoms: C1_1  and  C3_3 
ROOT
HETATM    1  C3  UNL     1     -34.579   5.023   5.871  1.00 20.00     0.321 C 
HETATM    2  F4  UNL     1     -35.724   4.661   6.509  1.00 20.00    -0.188 F 
HETATM    3  F5  UNL     1     -33.675   4.041   6.119  1.00 20.00    -0.188 F 
HETATM    4 CL7  UNL     1     -34.000   6.553   6.549  1.00 20.00    -0.048 Cl
ENDROOT
BRANCH   1   5
HETATM    5  C1  UNL     1     -34.856   5.100   4.375  1.00 20.00     0.112 C 
BRANCH   5   6
HETATM    6  C2  UNL     1     -34.241   6.323   3.705  1.00 20.00     0.122 C 
HETATM    7 CL6  UNL     1     -32.525   6.023   3.330  1.00 20.00    -0.130 Cl
ENDBRANCH   5   6
ENDBRANCH   1   5
TORSDOF 2
ENDMDL
MODEL 2
REMARK VINA RESULT:      -4.4      1.574      1.695
REMARK  2 active torsions:
REMARK  status: ('A' for Active; 'I' for Inactive)
REMARK    1  A    between atoms: C1_1  and  C2_2 
REMARK    2  A    between atoms: C1_1  and  C3_3 
ROOT
HETATM    1  C3  UNL     1     -35.024   4.960   4.508  1.00 20.00     0.321 C 
HETATM    2  F4  UNL     1     -36.268   5.374   4.145  1.00 20.00    -0.188 F 
HETATM    3  F5  UNL     1     -35.055   3.602   4.500  1.00 20.00    -0.188 F 
HETATM    4 CL7  UNL     1     -34.677   5.540   6.145  1.00 20.00    -0.048 Cl
ENDROOT
BRANCH   1   5
HETATM    5  C1  UNL     1     -34.022   5.456   3.473  1.00 20.00     0.112 C 
BRANCH   5   6
HETATM    6  C2  UNL     1     -33.083   6.532   4.005  1.00 20.00     0.122 C 
HETATM    7 CL6  UNL     1     -32.206   7.305   2.661  1.00 20.00    -0.130 Cl
ENDBRANCH   5   6
ENDBRANCH   1   5
TORSDOF 2
ENDMDL
MODEL 3
REMARK VINA RESULT:      -4.4      2.506      2.646
REMARK  2 active torsions:
REMARK  status: ('A' for Active; 'I' for Inactive)
REMARK    1  A    between atoms: C1_1  and  C2_2 
REMARK    2  A    between atoms: C1_1  and  C3_3 
ROOT
HETATM    1  C3  UNL     1     -34.852   5.335   3.697  1.00 20.00     0.321 C 
HETATM    2  F4  UNL     1     -36.078   5.839   3.393  1.00 20.00    -0.188 F 
HETATM    3  F5  UNL     1     -34.391   4.743   2.565  1.00 20.00    -0.188 F 
HETATM    4 CL7  UNL     1     -35.027   4.124   4.976  1.00 20.00    -0.048 Cl
ENDROOT
BRANCH   1   5
HETATM    5  C1  UNL     1     -33.932   6.486   4.085  1.00 20.00     0.112 C 
BRANCH   5   6
HETATM    6  C2  UNL     1     -32.536   6.377   3.482  1.00 20.00     0.122 C 
HETATM    7 CL6  UNL     1     -32.207   7.778   2.432  1.00 20.00    -0.130 Cl
ENDBRANCH   5   6
ENDBRANCH   1   5
TORSDOF 2
ENDMDL
MODEL 4
REMARK VINA RESULT:      -4.2      1.484      1.907
REMARK  2 active torsions:
REMARK  status: ('A' for Active; 'I' for Inactive)
REMARK    1  A    between atoms: C1_1  and  C2_2 
REMARK    2  A    between atoms: C1_1  and  C3_3 
ROOT
HETATM    1  C3  UNL     1     -34.535   5.063   6.027  1.00 20.00     0.321 C 
HETATM    2  F4  UNL     1     -33.620   4.333   6.719  1.00 20.00    -0.188 F 
HETATM    3  F5  UNL     1     -35.490   5.427   6.921  1.00 20.00    -0.188 F 
HETATM    4 CL7  UNL     1     -35.253   4.046   4.768  1.00 20.00    -0.048 Cl
ENDROOT
BRANCH   1   5
HETATM    5  C1  UNL     1     -33.851   6.307   5.473  1.00 20.00     0.112 C 
BRANCH   5   6
HETATM    6  C2  UNL     1     -33.881   6.389   3.951  1.00 20.00     0.122 C 
HETATM    7 CL6  UNL     1     -32.240   6.186   3.289  1.00 20.00    -0.130 Cl
ENDBRANCH   5   6
ENDBRANCH   1   5
TORSDOF 2
ENDMDL
MODEL 5
REMARK VINA RESULT:      -4.2      2.425      2.996
REMARK  2 active torsions:
REMARK  status: ('A' for Active; 'I' for Inactive)
REMARK    1  A    between atoms: C1_1  and  C2_2 
REMARK    2  A    between atoms: C1_1  and  C3_3 
ROOT
HETATM    1  C3  UNL     1     -34.892   5.263   3.894  1.00 20.00     0.321 C 
HETATM    2  F4  UNL     1     -36.106   5.756   3.531  1.00 20.00    -0.188 F 
HETATM    3  F5  UNL     1     -34.240   4.965   2.742  1.00 20.00    -0.188 F 
HETATM    4 CL7  UNL     1     -35.129   3.788   4.845  1.00 20.00    -0.048 Cl
ENDROOT
BRANCH   1   5
HETATM    5  C1  UNL     1     -34.130   6.345   4.650  1.00 20.00     0.112 C 
BRANCH   5   6
HETATM    6  C2  UNL     1     -34.149   6.157   6.162  1.00 20.00     0.122 C 
HETATM    7 CL6  UNL     1     -33.288   7.497   6.961  1.00 20.00    -0.130 Cl
ENDBRANCH   5   6
ENDBRANCH   1   5
TORSDOF 2
ENDMDL
MODEL 6
REMARK VINA RESULT:      -4.1      2.280      2.580
REMARK  2 active torsions:
REMARK  status: ('A' for Active; 'I' for Inactive)
REMARK    1  A    between atoms: C1_1  and  C2_2 
REMARK    2  A    between atoms: C1_1  and  C3_3 
ROOT
HETATM    1  C3  UNL     1     -34.831   5.478   4.054  1.00 20.00     0.321 C 
HETATM    2  F4  UNL     1     -34.572   6.471   4.945  1.00 20.00    -0.188 F 
HETATM    3  F5  UNL     1     -36.035   5.769   3.496  1.00 20.00    -0.188 F 
HETATM    4 CL7  UNL     1     -34.931   3.936   4.919  1.00 20.00    -0.048 Cl
ENDROOT
BRANCH   1   5
HETATM    5  C1  UNL     1     -33.752   5.491   2.979  1.00 20.00     0.112 C 
BRANCH   5   6
HETATM    6  C2  UNL     1     -32.477   6.210   3.406  1.00 20.00     0.122 C 
HETATM    7 CL6  UNL     1     -32.237   7.677   2.424  1.00 20.00    -0.130 Cl
ENDBRANCH   5   6
ENDBRANCH   1   5
TORSDOF 2
ENDMDL
MODEL 7
REMARK VINA RESULT:      -4.1      2.662      3.678
REMARK  2 active torsions:
REMARK  status: ('A' for Active; 'I' for Inactive)
REMARK    1  A    between atoms: C1_1  and  C2_2 
REMARK    2  A    between atoms: C1_1  and  C3_3 
ROOT
HETATM    1  C3  UNL     1     -32.882   6.188   3.181  1.00 20.00     0.321 C 
HETATM    2  F4  UNL     1     -31.740   5.494   3.432  1.00 20.00    -0.188 F 
HETATM    3  F5  UNL     1     -33.560   5.482   2.239  1.00 20.00    -0.188 F 
HETATM    4 CL7  UNL     1     -32.459   7.784   2.540  1.00 20.00    -0.048 Cl
ENDROOT
BRANCH   1   5
HETATM    5  C1  UNL     1     -33.705   6.258   4.461  1.00 20.00     0.112 C 
BRANCH   5   6
HETATM    6  C2  UNL     1     -34.898   5.309   4.468  1.00 20.00     0.122 C 
HETATM    7 CL6  UNL     1     -34.888   4.316   5.947  1.00 20.00    -0.130 Cl
ENDBRANCH   5   6
ENDBRANCH   1   5
TORSDOF 2
ENDMDL
MODEL 8
REMARK VINA RESULT:      -4.0      2.706      3.781
REMARK  2 active torsions:
REMARK  status: ('A' for Active; 'I' for Inactive)
REMARK    1  A    between atoms: C1_1  and  C2_2 
REMARK    2  A    between atoms: C1_1  and  C3_3 
ROOT
HETATM    1  C3  UNL     1     -32.426   6.842   3.331  1.00 20.00     0.321 C 
HETATM    2  F4  UNL     1     -31.785   7.286   4.444  1.00 20.00    -0.188 F 
HETATM    3  F5  UNL     1     -31.836   5.667   2.992  1.00 20.00    -0.188 F 
HETATM    4 CL7  UNL     1     -32.202   8.020   2.027  1.00 20.00    -0.048 Cl
ENDROOT
BRANCH   1   5
HETATM    5  C1  UNL     1     -33.891   6.601   3.673  1.00 20.00     0.112 C 
BRANCH   5   6
HETATM    6  C2  UNL     1     -34.097   5.547   4.754  1.00 20.00     0.122 C 
HETATM    7 CL6  UNL     1     -34.170   6.316   6.359  1.00 20.00    -0.130 Cl
ENDBRANCH   5   6
ENDBRANCH   1   5
TORSDOF 2
ENDMDL
MODEL 9
REMARK VINA RESULT:      -4.0      2.048      3.149
REMARK  2 active torsions:
REMARK  status: ('A' for Active; 'I' for Inactive)
REMARK    1  A    between atoms: C1_1  and  C2_2 
REMARK    2  A    between atoms: C1_1  and  C3_3 
ROOT
HETATM    1  C3  UNL     1     -34.016   5.852   3.794  1.00 20.00     0.321 C 
HETATM    2  F4  UNL     1     -34.600   5.208   2.750  1.00 20.00    -0.188 F 
HETATM    3  F5  UNL     1     -34.695   7.018   3.953  1.00 20.00    -0.188 F 
HETATM    4 CL7  UNL     1     -32.327   6.195   3.390  1.00 20.00    -0.048 Cl
ENDROOT
BRANCH   1   5
HETATM    5  C1  UNL     1     -34.169   4.996   5.046  1.00 20.00     0.112 C 
BRANCH   5   6
HETATM    6  C2  UNL     1     -34.611   5.786   6.272  1.00 20.00     0.122 C 
HETATM    7 CL6  UNL     1     -33.401   7.031   6.672  1.00 20.00    -0.130 Cl
ENDBRANCH   5   6
ENDBRANCH   1   5
TORSDOF 2
ENDMDL
