MODEL 1
REMARK VINA RESULT:      -5.0      0.000      0.000
REMARK  3 active torsions:
REMARK  status: ('A' for Active; 'I' for Inactive)
REMARK    1  A    between atoms: C1_1  and  C3_3 
REMARK    2  A    between atoms: C1_1  and  O4_4 
REMARK    3  A    between atoms: C2_2  and  O4_4 
ROOT
HETATM    1  C1  UNL     1     -33.696   6.269   4.607  1.00 20.00     0.291 C 
ENDROOT
BRANCH   1   2
HETATM    2  C3  UNL     1     -33.048   6.196   3.249  1.00 20.00     0.408 C 
HETATM    3  F7  UNL     1     -31.812   5.658   3.341  1.00 20.00    -0.169 F 
HETATM    4  F8  UNL     1     -32.923   7.422   2.699  1.00 20.00    -0.169 F 
HETATM    5  F9  UNL     1     -33.767   5.428   2.404  1.00 20.00    -0.169 F 
ENDBRANCH   1   2
BRANCH   1   6
HETATM    6  O4  UNL     1     -34.898   5.513   4.589  1.00 20.00    -0.324 OA
BRANCH   6   7
HETATM    7  C2  UNL     1     -35.043   4.693   5.740  1.00 20.00     0.500 C 
HETATM    8  F5  UNL     1     -34.802   3.402   5.409  1.00 20.00    -0.185 F 
HETATM    9  F6  UNL     1     -34.135   5.062   6.675  1.00 20.00    -0.185 F 
ENDBRANCH   6   7
ENDBRANCH   1   6
TORSDOF 3
ENDMDL
MODEL 2
REMARK VINA RESULT:      -5.0      0.040      1.274
REMARK  3 active torsions:
REMARK  status: ('A' for Active; 'I' for Inactive)
REMARK    1  A    between atoms: C1_1  and  C3_3 
REMARK    2  A    between atoms: C1_1  and  O4_4 
REMARK    3  A    between atoms: C2_2  and  O4_4 
ROOT
HETATM    1  C1  UNL     1     -33.677   6.258   4.604  1.00 20.00     0.291 C 
ENDROOT
BRANCH   1   2
HETATM    2  C3  UNL     1     -33.034   6.179   3.244  1.00 20.00     0.408 C 
HETATM    3  F7  UNL     1     -33.797   5.451   2.399  1.00 20.00    -0.169 F 
HETATM    4  F8  UNL     1     -31.820   5.593   3.309  1.00 20.00    -0.169 F 
HETATM    5  F9  UNL     1     -32.879   7.406   2.703  1.00 20.00    -0.169 F 
ENDBRANCH   1   2
BRANCH   1   6
HETATM    6  O4  UNL     1     -34.877   5.500   4.595  1.00 20.00    -0.324 OA
BRANCH   6   7
HETATM    7  C2  UNL     1     -35.013   4.680   5.747  1.00 20.00     0.500 C 
HETATM    8  F5  UNL     1     -34.768   3.390   5.416  1.00 20.00    -0.185 F 
HETATM    9  F6  UNL     1     -34.101   5.053   6.677  1.00 20.00    -0.185 F 
ENDBRANCH   6   7
ENDBRANCH   1   6
TORSDOF 3
ENDMDL
MODEL 3
REMARK VINA RESULT:      -5.0      0.019      1.257
REMARK  3 active torsions:
REMARK  status: ('A' for Active; 'I' for Inactive)
REMARK    1  A    between atoms: C1_1  and  C3_3 
REMARK    2  A    between atoms: C1_1  and  O4_4 
REMARK    3  A    between atoms: C2_2  and  O4_4 
ROOT
HETATM    1  C1  UNL     1     -33.717   6.273   4.602  1.00 20.00     0.291 C 
ENDROOT
BRANCH   1   2
HETATM    2  C3  UNL     1     -33.054   6.180   3.252  1.00 20.00     0.408 C 
HETATM    3  F7  UNL     1     -32.920   7.407   2.702  1.00 20.00    -0.169 F 
HETATM    4  F8  UNL     1     -33.780   5.425   2.401  1.00 20.00    -0.169 F 
HETATM    5  F9  UNL     1     -31.822   5.637   3.348  1.00 20.00    -0.169 F 
ENDBRANCH   1   2
BRANCH   1   6
HETATM    6  O4  UNL     1     -34.904   5.495   4.591  1.00 20.00    -0.324 OA
BRANCH   6   7
HETATM    7  C2  UNL     1     -35.039   4.688   5.751  1.00 20.00     0.500 C 
HETATM    8  F5  UNL     1     -34.797   3.394   5.434  1.00 20.00    -0.185 F 
HETATM    9  F6  UNL     1     -34.123   5.069   6.675  1.00 20.00    -0.185 F 
ENDBRANCH   6   7
ENDBRANCH   1   6
TORSDOF 3
ENDMDL
MODEL 4
REMARK VINA RESULT:      -4.9      1.094      3.784
REMARK  3 active torsions:
REMARK  status: ('A' for Active; 'I' for Inactive)
REMARK    1  A    between atoms: C1_1  and  C3_3 
REMARK    2  A    between atoms: C1_1  and  O4_4 
REMARK    3  A    between atoms: C2_2  and  O4_4 
ROOT
HETATM    1  C1  UNL     1     -34.929   5.349   4.598  1.00 20.00     0.291 C 
ENDROOT
BRANCH   1   2
HETATM    2  C3  UNL     1     -34.630   4.889   6.001  1.00 20.00     0.408 C 
HETATM    3  F7  UNL     1     -33.748   3.865   5.987  1.00 20.00    -0.169 F 
HETATM    4  F8  UNL     1     -35.747   4.461   6.625  1.00 20.00    -0.169 F 
HETATM    5  F9  UNL     1     -34.092   5.883   6.738  1.00 20.00    -0.169 F 
ENDBRANCH   1   2
BRANCH   1   6
HETATM    6  O4  UNL     1     -34.066   6.427   4.268  1.00 20.00    -0.324 OA
BRANCH   6   7
HETATM    7  C2  UNL     1     -33.311   6.181   3.091  1.00 20.00     0.500 C 
HETATM    8  F5  UNL     1     -32.054   5.809   3.429  1.00 20.00    -0.185 F 
HETATM    9  F6  UNL     1     -33.875   5.163   2.397  1.00 20.00    -0.185 F 
ENDBRANCH   6   7
ENDBRANCH   1   6
TORSDOF 3
ENDMDL
MODEL 5
REMARK VINA RESULT:      -4.9      1.071      3.606
REMARK  3 active torsions:
REMARK  status: ('A' for Active; 'I' for Inactive)
REMARK    1  A    between atoms: C1_1  and  C3_3 
REMARK    2  A    between atoms: C1_1  and  O4_4 
REMARK    3  A    between atoms: C2_2  and  O4_4 
ROOT
HETATM    1  C1  UNL     1     -33.874   5.792   5.256  1.00 20.00     0.291 C 
ENDROOT
BRANCH   1   2
HETATM    2  C3  UNL     1     -35.021   4.826   5.404  1.00 20.00     0.408 C 
HETATM    3  F7  UNL     1     -34.588   3.552   5.287  1.00 20.00    -0.169 F 
HETATM    4  F8  UNL     1     -35.959   5.030   4.455  1.00 20.00    -0.169 F 
HETATM    5  F9  UNL     1     -35.612   4.950   6.611  1.00 20.00    -0.169 F 
ENDBRANCH   1   2
BRANCH   1   6
HETATM    6  O4  UNL     1     -34.090   6.595   4.105  1.00 20.00    -0.324 OA
BRANCH   6   7
HETATM    7  C2  UNL     1     -33.269   6.213   3.012  1.00 20.00     0.500 C 
HETATM    8  F5  UNL     1     -32.069   5.787   3.474  1.00 20.00    -0.185 F 
HETATM    9  F6  UNL     1     -33.849   5.185   2.348  1.00 20.00    -0.185 F 
ENDBRANCH   6   7
ENDBRANCH   1   6
TORSDOF 3
ENDMDL
MODEL 6
REMARK VINA RESULT:      -4.9      1.072      3.683
REMARK  3 active torsions:
REMARK  status: ('A' for Active; 'I' for Inactive)
REMARK    1  A    between atoms: C1_1  and  C3_3 
REMARK    2  A    between atoms: C1_1  and  O4_4 
REMARK    3  A    between atoms: C2_2  and  O4_4 
ROOT
HETATM    1  C1  UNL     1     -33.827   5.730   5.234  1.00 20.00     0.291 C 
ENDROOT
BRANCH   1   2
HETATM    2  C3  UNL     1     -35.017   4.820   5.398  1.00 20.00     0.408 C 
HETATM    3  F7  UNL     1     -35.591   5.001   6.608  1.00 20.00    -0.169 F 
HETATM    4  F8  UNL     1     -34.657   3.522   5.304  1.00 20.00    -0.169 F 
HETATM    5  F9  UNL     1     -35.954   5.064   4.458  1.00 20.00    -0.169 F 
ENDBRANCH   1   2
BRANCH   1   6
HETATM    6  O4  UNL     1     -34.045   6.581   4.119  1.00 20.00    -0.324 OA
BRANCH   6   7
HETATM    7  C2  UNL     1     -33.255   6.221   2.996  1.00 20.00     0.500 C 
HETATM    8  F5  UNL     1     -32.038   5.799   3.415  1.00 20.00    -0.185 F 
HETATM    9  F6  UNL     1     -33.847   5.197   2.336  1.00 20.00    -0.185 F 
ENDBRANCH   6   7
ENDBRANCH   1   6
TORSDOF 3
ENDMDL
MODEL 7
REMARK VINA RESULT:      -4.9      1.116      3.836
REMARK  3 active torsions:
REMARK  status: ('A' for Active; 'I' for Inactive)
REMARK    1  A    between atoms: C1_1  and  C3_3 
REMARK    2  A    between atoms: C1_1  and  O4_4 
REMARK    3  A    between atoms: C2_2  and  O4_4 
ROOT
HETATM    1  C1  UNL     1     -33.895   6.182   5.202  1.00 20.00     0.291 C 
ENDROOT
BRANCH   1   2
HETATM    2  C3  UNL     1     -34.859   5.052   5.456  1.00 20.00     0.408 C 
HETATM    3  F7  UNL     1     -35.825   5.031   4.512  1.00 20.00    -0.169 F 
HETATM    4  F8  UNL     1     -35.461   5.183   6.657  1.00 20.00    -0.169 F 
HETATM    5  F9  UNL     1     -34.231   3.858   5.429  1.00 20.00    -0.169 F 
ENDBRANCH   1   2
BRANCH   1   6
HETATM    6  O4  UNL     1     -33.825   6.428   3.806  1.00 20.00    -0.324 OA
BRANCH   6   7
HETATM    7  C2  UNL     1     -32.504   6.703   3.365  1.00 20.00     0.500 C 
HETATM    8  F5  UNL     1     -31.964   5.583   2.828  1.00 20.00    -0.185 F 
HETATM    9  F6  UNL     1     -32.537   7.654   2.401  1.00 20.00    -0.185 F 
ENDBRANCH   6   7
ENDBRANCH   1   6
TORSDOF 3
ENDMDL
MODEL 8
REMARK VINA RESULT:      -4.8      0.980      1.231
REMARK  3 active torsions:
REMARK  status: ('A' for Active; 'I' for Inactive)
REMARK    1  A    between atoms: C1_1  and  C3_3 
REMARK    2  A    between atoms: C1_1  and  O4_4 
REMARK    3  A    between atoms: C2_2  and  O4_4 
ROOT
HETATM    1  C1  UNL     1     -33.671   6.626   4.159  1.00 20.00     0.291 C 
ENDROOT
BRANCH   1   2
HETATM    2  C3  UNL     1     -32.410   6.795   3.352  1.00 20.00     0.408 C 
HETATM    3  F7  UNL     1     -31.883   5.592   3.036  1.00 20.00    -0.169 F 
HETATM    4  F8  UNL     1     -31.477   7.485   4.042  1.00 20.00    -0.169 F 
HETATM    5  F9  UNL     1     -32.651   7.454   2.200  1.00 20.00    -0.169 F 
ENDBRANCH   1   2
BRANCH   1   6
HETATM    6  O4  UNL     1     -34.244   5.361   3.864  1.00 20.00    -0.324 OA
BRANCH   6   7
HETATM    7  C2  UNL     1     -35.153   4.927   4.865  1.00 20.00     0.500 C 
HETATM    8  F5  UNL     1     -35.052   3.586   5.018  1.00 20.00    -0.185 F 
HETATM    9  F6  UNL     1     -34.835   5.508   6.047  1.00 20.00    -0.185 F 
ENDBRANCH   6   7
ENDBRANCH   1   6
TORSDOF 3
ENDMDL
MODEL 9
REMARK VINA RESULT:      -4.8      1.876      2.471
REMARK  3 active torsions:
REMARK  status: ('A' for Active; 'I' for Inactive)
REMARK    1  A    between atoms: C1_1  and  C3_3 
REMARK    2  A    between atoms: C1_1  and  O4_4 
REMARK    3  A    between atoms: C2_2  and  O4_4 
ROOT
HETATM    1  C1  UNL     1     -33.896   6.468   3.909  1.00 20.00     0.291 C 
ENDROOT
BRANCH   1   2
HETATM    2  C3  UNL     1     -34.805   5.360   3.444  1.00 20.00     0.408 C 
HETATM    3  F7  UNL     1     -34.418   4.905   2.232  1.00 20.00    -0.169 F 
HETATM    4  F8  UNL     1     -36.081   5.787   3.334  1.00 20.00    -0.169 F 
HETATM    5  F9  UNL     1     -34.784   4.318   4.300  1.00 20.00    -0.169 F 
ENDBRANCH   1   2
BRANCH   1   6
HETATM    6  O4  UNL     1     -33.350   6.121   5.173  1.00 20.00    -0.324 OA
BRANCH   6   7
HETATM    7  C2  UNL     1     -34.023   6.755   6.250  1.00 20.00     0.500 C 
HETATM    8  F5  UNL     1     -34.752   5.838   6.930  1.00 20.00    -0.185 F 
HETATM    9  F6  UNL     1     -33.113   7.281   7.105  1.00 20.00    -0.185 F 
ENDBRANCH   6   7
ENDBRANCH   1   6
TORSDOF 3
ENDMDL
