MODEL 1
REMARK VINA RESULT:      -4.1      0.000      0.000
REMARK  0 active torsions:
REMARK  status: ('A' for Active; 'I' for Inactive)
ROOT
HETATM    1  C1  UNL     1     -35.542   5.713   3.968  1.00 20.00     0.009 A 
HETATM    2  C2  UNL     1     -34.096   5.421   3.686  1.00 20.00     0.009 A 
HETATM    3  C3  UNL     1     -34.632   5.274   5.091  1.00 20.00    -0.048 A 
HETATM    4  C4  UNL     1     -34.225   6.301   6.113  1.00 20.00     0.015 C 
HETATM    5  C5  UNL     1     -34.806   3.883   5.638  1.00 20.00     0.015 C 
ENDROOT
TORSDOF 0
ENDMDL
MODEL 2
REMARK VINA RESULT:      -4.1      0.039      1.862
REMARK  0 active torsions:
REMARK  status: ('A' for Active; 'I' for Inactive)
ROOT
HETATM    1  C1  UNL     1     -34.088   5.418   3.713  1.00 20.00     0.009 A 
HETATM    2  C2  UNL     1     -35.534   5.713   3.993  1.00 20.00     0.009 A 
HETATM    3  C3  UNL     1     -34.621   5.292   5.121  1.00 20.00    -0.048 A 
HETATM    4  C4  UNL     1     -34.792   3.908   5.689  1.00 20.00     0.015 C 
HETATM    5  C5  UNL     1     -34.214   6.334   6.126  1.00 20.00     0.015 C 
ENDROOT
TORSDOF 0
ENDMDL
MODEL 3
REMARK VINA RESULT:      -4.0      0.710      2.384
REMARK  0 active torsions:
REMARK  status: ('A' for Active; 'I' for Inactive)
ROOT
HETATM    1  C1  UNL     1     -34.690   5.571   6.228  1.00 20.00     0.009 A 
HETATM    2  C2  UNL     1     -34.376   4.219   5.655  1.00 20.00     0.009 A 
HETATM    3  C3  UNL     1     -34.501   5.412   4.738  1.00 20.00    -0.048 A 
HETATM    4  C4  UNL     1     -35.719   5.502   3.858  1.00 20.00     0.015 C 
HETATM    5  C5  UNL     1     -33.244   5.964   4.123  1.00 20.00     0.015 C 
ENDROOT
TORSDOF 0
ENDMDL
MODEL 4
REMARK VINA RESULT:      -4.0      0.707      2.242
REMARK  0 active torsions:
REMARK  status: ('A' for Active; 'I' for Inactive)
ROOT
HETATM    1  C1  UNL     1     -34.352   4.270   5.715  1.00 20.00     0.009 A 
HETATM    2  C2  UNL     1     -34.676   5.635   6.251  1.00 20.00     0.009 A 
HETATM    3  C3  UNL     1     -34.492   5.436   4.765  1.00 20.00    -0.048 A 
HETATM    4  C4  UNL     1     -33.242   5.982   4.128  1.00 20.00     0.015 C 
HETATM    5  C5  UNL     1     -35.714   5.489   3.889  1.00 20.00     0.015 C 
ENDROOT
TORSDOF 0
ENDMDL
MODEL 5
REMARK VINA RESULT:      -3.9      0.788      1.957
REMARK  0 active torsions:
REMARK  status: ('A' for Active; 'I' for Inactive)
ROOT
HETATM    1  C1  UNL     1     -34.386   4.128   5.350  1.00 20.00     0.009 A 
HETATM    2  C2  UNL     1     -35.487   4.969   4.769  1.00 20.00     0.009 A 
HETATM    3  C3  UNL     1     -34.164   5.605   5.124  1.00 20.00    -0.048 A 
HETATM    4  C4  UNL     1     -34.113   6.504   6.330  1.00 20.00     0.015 C 
HETATM    5  C5  UNL     1     -33.255   6.018   3.999  1.00 20.00     0.015 C 
ENDROOT
TORSDOF 0
ENDMDL
MODEL 6
REMARK VINA RESULT:      -3.9      0.790      1.970
REMARK  0 active torsions:
REMARK  status: ('A' for Active; 'I' for Inactive)
ROOT
HETATM    1  C1  UNL     1     -35.486   4.962   4.773  1.00 20.00     0.009 A 
HETATM    2  C2  UNL     1     -34.382   4.127   5.357  1.00 20.00     0.009 A 
HETATM    3  C3  UNL     1     -34.165   5.604   5.126  1.00 20.00    -0.048 A 
HETATM    4  C4  UNL     1     -33.257   6.017   3.998  1.00 20.00     0.015 C 
HETATM    5  C5  UNL     1     -34.117   6.507   6.328  1.00 20.00     0.015 C 
ENDROOT
TORSDOF 0
ENDMDL
MODEL 7
REMARK VINA RESULT:      -3.5      0.624      1.901
REMARK  0 active torsions:
REMARK  status: ('A' for Active; 'I' for Inactive)
ROOT
HETATM    1  C1  UNL     1     -33.307   5.784   4.411  1.00 20.00     0.009 A 
HETATM    2  C2  UNL     1     -34.080   6.466   5.503  1.00 20.00     0.009 A 
HETATM    3  C3  UNL     1     -34.686   5.289   4.777  1.00 20.00    -0.048 A 
HETATM    4  C4  UNL     1     -35.811   5.556   3.814  1.00 20.00     0.015 C 
HETATM    5  C5  UNL     1     -34.794   3.983   5.516  1.00 20.00     0.015 C 
ENDROOT
TORSDOF 0
ENDMDL
MODEL 8
REMARK VINA RESULT:      -3.5      0.633      1.979
REMARK  0 active torsions:
REMARK  status: ('A' for Active; 'I' for Inactive)
ROOT
HETATM    1  C1  UNL     1     -34.069   6.483   5.506  1.00 20.00     0.009 A 
HETATM    2  C2  UNL     1     -33.282   5.790   4.431  1.00 20.00     0.009 A 
HETATM    3  C3  UNL     1     -34.665   5.296   4.787  1.00 20.00    -0.048 A 
HETATM    4  C4  UNL     1     -34.779   3.998   5.539  1.00 20.00     0.015 C 
HETATM    5  C5  UNL     1     -35.779   5.551   3.808  1.00 20.00     0.015 C 
ENDROOT
TORSDOF 0
ENDMDL
MODEL 9
REMARK VINA RESULT:      -3.4      1.584      2.272
REMARK  0 active torsions:
REMARK  status: ('A' for Active; 'I' for Inactive)
ROOT
HETATM    1  C1  UNL     1     -32.918   7.199   3.029  1.00 20.00     0.009 A 
HETATM    2  C2  UNL     1     -32.220   5.900   3.314  1.00 20.00     0.009 A 
HETATM    3  C3  UNL     1     -33.595   6.155   3.885  1.00 20.00    -0.048 A 
HETATM    4  C4  UNL     1     -33.707   6.419   5.363  1.00 20.00     0.015 C 
HETATM    5  C5  UNL     1     -34.756   5.403   3.295  1.00 20.00     0.015 C 
ENDROOT
TORSDOF 0
ENDMDL
