MODEL 1
REMARK VINA RESULT:      -4.5      0.000      0.000
REMARK  0 active torsions:
REMARK  status: ('A' for Active; 'I' for Inactive)
ROOT
HETATM    1  C1  UNL     1     -34.015  16.280  -6.575  1.00 20.00     0.003 C 
HETATM    2  C2  UNL     1     -33.591  17.210  -5.712  1.00 20.00    -0.025 C 
HETATM    3  C3  UNL     1     -34.715  15.084  -6.131  1.00 20.00    -0.059 C 
HETATM    4  C4  UNL     1     -34.676  14.706  -4.830  1.00 20.00    -0.070 C 
HETATM    5  C5  UNL     1     -33.802  17.050  -4.239  1.00 20.00     0.040 C 
HETATM    6  C6  UNL     1     -33.925  15.563  -3.783  1.00 20.00    -0.021 C 
HETATM    7  C7  UNL     1     -35.433  14.356  -7.236  1.00 20.00     0.048 C 
HETATM    8  C8  UNL     1     -35.296  13.422  -4.331  1.00 20.00     0.044 C 
HETATM    9  C9  UNL     1     -32.508  14.974  -3.596  1.00 20.00     0.020 C 
HETATM   10  C10 UNL     1     -34.634  15.572  -2.412  1.00 20.00     0.020 C 
ENDROOT
TORSDOF 0
ENDMDL
MODEL 2
REMARK VINA RESULT:      -4.5      0.952      2.718
REMARK  0 active torsions:
REMARK  status: ('A' for Active; 'I' for Inactive)
ROOT
HETATM    1  C1  UNL     1     -33.669  17.371  -3.442  1.00 20.00     0.003 C 
HETATM    2  C2  UNL     1     -34.108  16.660  -2.397  1.00 20.00    -0.025 C 
HETATM    3  C3  UNL     1     -33.877  16.929  -4.813  1.00 20.00    -0.059 C 
HETATM    4  C4  UNL     1     -34.220  15.644  -5.077  1.00 20.00    -0.070 C 
HETATM    5  C5  UNL     1     -34.818  15.358  -2.594  1.00 20.00     0.040 C 
HETATM    6  C6  UNL     1     -34.444  14.636  -3.925  1.00 20.00    -0.021 C 
HETATM    7  C7  UNL     1     -33.659  18.009  -5.838  1.00 20.00     0.048 C 
HETATM    8  C8  UNL     1     -34.348  15.103  -6.481  1.00 20.00     0.044 C 
HETATM    9  C9  UNL     1     -33.138  13.837  -3.715  1.00 20.00     0.020 C 
HETATM   10  C10 UNL     1     -35.582  13.638  -4.229  1.00 20.00     0.020 C 
ENDROOT
TORSDOF 0
ENDMDL
MODEL 3
REMARK VINA RESULT:      -4.4      1.203      2.731
REMARK  0 active torsions:
REMARK  status: ('A' for Active; 'I' for Inactive)
ROOT
HETATM    1  C1  UNL     1     -34.892  13.802  -5.873  1.00 20.00     0.003 C 
HETATM    2  C2  UNL     1     -34.722  13.189  -4.697  1.00 20.00    -0.025 C 
HETATM    3  C3  UNL     1     -34.637  15.225  -6.041  1.00 20.00    -0.059 C 
HETATM    4  C4  UNL     1     -34.538  16.039  -4.961  1.00 20.00    -0.070 C 
HETATM    5  C5  UNL     1     -34.277  13.949  -3.488  1.00 20.00     0.040 C 
HETATM    6  C6  UNL     1     -34.649  15.464  -3.529  1.00 20.00    -0.021 C 
HETATM    7  C7  UNL     1     -34.518  15.655  -7.479  1.00 20.00     0.048 C 
HETATM    8  C8  UNL     1     -34.376  17.536  -5.076  1.00 20.00     0.044 C 
HETATM    9  C9  UNL     1     -36.106  15.638  -3.045  1.00 20.00     0.020 C 
HETATM   10  C10 UNL     1     -33.714  16.182  -2.533  1.00 20.00     0.020 C 
ENDROOT
TORSDOF 0
ENDMDL
MODEL 4
REMARK VINA RESULT:      -4.4      1.308      3.780
REMARK  0 active torsions:
REMARK  status: ('A' for Active; 'I' for Inactive)
ROOT
HETATM    1  C1  UNL     1     -33.949  14.155  -3.424  1.00 20.00     0.003 C 
HETATM    2  C2  UNL     1     -34.179  13.328  -4.449  1.00 20.00    -0.025 C 
HETATM    3  C3  UNL     1     -34.625  15.439  -3.307  1.00 20.00    -0.059 C 
HETATM    4  C4  UNL     1     -35.252  15.987  -4.377  1.00 20.00    -0.070 C 
HETATM    5  C5  UNL     1     -35.135  13.698  -5.540  1.00 20.00     0.040 C 
HETATM    6  C6  UNL     1     -35.302  15.237  -5.729  1.00 20.00    -0.021 C 
HETATM    7  C7  UNL     1     -34.531  16.052  -1.935  1.00 20.00     0.048 C 
HETATM    8  C8  UNL     1     -35.881  17.359  -4.343  1.00 20.00     0.044 C 
HETATM    9  C9  UNL     1     -34.155  15.762  -6.621  1.00 20.00     0.020 C 
HETATM   10  C10 UNL     1     -36.637  15.454  -6.474  1.00 20.00     0.020 C 
ENDROOT
TORSDOF 0
ENDMDL
MODEL 5
REMARK VINA RESULT:      -4.3     11.770     13.095
REMARK  0 active torsions:
REMARK  status: ('A' for Active; 'I' for Inactive)
ROOT
HETATM    1  C1  UNL     1     -42.689   4.767  -3.044  1.00 20.00     0.003 C 
HETATM    2  C2  UNL     1     -41.877   3.898  -2.434  1.00 20.00    -0.025 C 
HETATM    3  C3  UNL     1     -42.728   6.173  -2.672  1.00 20.00    -0.059 C 
HETATM    4  C4  UNL     1     -42.200   6.588  -1.494  1.00 20.00    -0.070 C 
HETATM    5  C5  UNL     1     -40.980   4.333  -1.318  1.00 20.00     0.040 C 
HETATM    6  C6  UNL     1     -41.503   5.583  -0.546  1.00 20.00    -0.021 C 
HETATM    7  C7  UNL     1     -43.403   7.053  -3.690  1.00 20.00     0.048 C 
HETATM    8  C8  UNL     1     -42.301   8.015  -1.008  1.00 20.00     0.044 C 
HETATM    9  C9  UNL     1     -42.527   5.127   0.518  1.00 20.00     0.020 C 
HETATM   10  C10 UNL     1     -40.289   6.202   0.179  1.00 20.00     0.020 C 
ENDROOT
TORSDOF 0
ENDMDL
MODEL 6
REMARK VINA RESULT:      -4.3      1.428      2.693
REMARK  0 active torsions:
REMARK  status: ('A' for Active; 'I' for Inactive)
ROOT
HETATM    1  C1  UNL     1     -36.185  16.478  -2.877  1.00 20.00     0.003 C 
HETATM    2  C2  UNL     1     -35.086  16.967  -2.293  1.00 20.00    -0.025 C 
HETATM    3  C3  UNL     1     -36.160  15.245  -3.651  1.00 20.00    -0.059 C 
HETATM    4  C4  UNL     1     -34.984  14.728  -4.084  1.00 20.00    -0.070 C 
HETATM    5  C5  UNL     1     -33.767  16.273  -2.429  1.00 20.00     0.040 C 
HETATM    6  C6  UNL     1     -33.643  15.411  -3.723  1.00 20.00    -0.021 C 
HETATM    7  C7  UNL     1     -37.523  14.662  -3.908  1.00 20.00     0.048 C 
HETATM    8  C8  UNL     1     -34.902  13.511  -4.974  1.00 20.00     0.044 C 
HETATM    9  C9  UNL     1     -33.230  16.325  -4.899  1.00 20.00     0.020 C 
HETATM   10  C10 UNL     1     -32.511  14.392  -3.476  1.00 20.00     0.020 C 
ENDROOT
TORSDOF 0
ENDMDL
MODEL 7
REMARK VINA RESULT:      -4.3     11.442     13.077
REMARK  0 active torsions:
REMARK  status: ('A' for Active; 'I' for Inactive)
ROOT
HETATM    1  C1  UNL     1     -40.765   4.409  -0.859  1.00 20.00     0.003 C 
HETATM    2  C2  UNL     1     -40.397   5.559  -0.285  1.00 20.00    -0.025 C 
HETATM    3  C3  UNL     1     -41.656   4.376  -2.009  1.00 20.00    -0.059 C 
HETATM    4  C4  UNL     1     -42.401   5.462  -2.334  1.00 20.00    -0.070 C 
HETATM    5  C5  UNL     1     -40.906   6.872  -0.791  1.00 20.00     0.040 C 
HETATM    6  C6  UNL     1     -42.282   6.771  -1.518  1.00 20.00    -0.021 C 
HETATM    7  C7  UNL     1     -41.659   3.059  -2.738  1.00 20.00     0.048 C 
HETATM    8  C8  UNL     1     -43.416   5.453  -3.452  1.00 20.00     0.044 C 
HETATM    9  C9  UNL     1     -43.412   6.793  -0.464  1.00 20.00     0.020 C 
HETATM   10  C10 UNL     1     -42.415   8.029  -2.402  1.00 20.00     0.020 C 
ENDROOT
TORSDOF 0
ENDMDL
MODEL 8
REMARK VINA RESULT:      -4.2      1.352      3.773
REMARK  0 active torsions:
REMARK  status: ('A' for Active; 'I' for Inactive)
ROOT
HETATM    1  C1  UNL     1     -36.592  15.429  -2.983  1.00 20.00     0.003 C 
HETATM    2  C2  UNL     1     -37.200  15.168  -4.145  1.00 20.00    -0.025 C 
HETATM    3  C3  UNL     1     -35.160  15.675  -2.904  1.00 20.00    -0.059 C 
HETATM    4  C4  UNL     1     -34.345  15.329  -3.931  1.00 20.00    -0.070 C 
HETATM    5  C5  UNL     1     -36.425  15.097  -5.422  1.00 20.00     0.040 C 
HETATM    6  C6  UNL     1     -34.926  14.710  -5.224  1.00 20.00    -0.021 C 
HETATM    7  C7  UNL     1     -34.723  16.308  -1.610  1.00 20.00     0.048 C 
HETATM    8  C8  UNL     1     -32.842  15.466  -3.865  1.00 20.00     0.044 C 
HETATM    9  C9  UNL     1     -34.812  13.173  -5.123  1.00 20.00     0.020 C 
HETATM   10  C10 UNL     1     -34.173  15.174  -6.489  1.00 20.00     0.020 C 
ENDROOT
TORSDOF 0
ENDMDL
MODEL 9
REMARK VINA RESULT:      -4.2      0.978      3.182
REMARK  0 active torsions:
REMARK  status: ('A' for Active; 'I' for Inactive)
ROOT
HETATM    1  C1  UNL     1     -33.405  16.860  -4.854  1.00 20.00     0.003 C 
HETATM    2  C2  UNL     1     -33.838  17.447  -5.975  1.00 20.00    -0.025 C 
HETATM    3  C3  UNL     1     -33.581  15.434  -4.618  1.00 20.00    -0.059 C 
HETATM    4  C4  UNL     1     -34.465  14.718  -5.355  1.00 20.00    -0.070 C 
HETATM    5  C5  UNL     1     -34.544  16.662  -7.035  1.00 20.00     0.040 C 
HETATM    6  C6  UNL     1     -35.269  15.392  -6.493  1.00 20.00    -0.021 C 
HETATM    7  C7  UNL     1     -32.722  14.892  -3.508  1.00 20.00     0.048 C 
HETATM    8  C8  UNL     1     -34.765  13.262  -5.089  1.00 20.00     0.044 C 
HETATM    9  C9  UNL     1     -36.653  15.799  -5.938  1.00 20.00     0.020 C 
HETATM   10  C10 UNL     1     -35.484  14.451  -7.698  1.00 20.00     0.020 C 
ENDROOT
TORSDOF 0
ENDMDL
