MODEL 1
REMARK VINA RESULT:      -4.2      0.000      0.000
REMARK  2 active torsions:
REMARK  status: ('A' for Active; 'I' for Inactive)
REMARK    1  A    between atoms: C6_6  and  C7_7 
REMARK    2  A    between atoms: C7_7  and  O8_8 
ROOT
HETATM    1  C1  UNL     1     -31.657   7.315   3.284  1.00 20.00     0.015 C 
HETATM    2  C2  UNL     1     -32.688   6.758   3.550  1.00 20.00    -0.079 C 
HETATM    3  C5  UNL     1     -34.272   5.048   2.778  1.00 20.00     0.061 C 
HETATM    4  C7  UNL     1     -33.957   6.077   3.871  1.00 20.00     0.119 C 
ENDROOT
BRANCH   4   5
HETATM    5  C6  UNL     1     -33.938   5.436   5.290  1.00 20.00     0.024 C 
HETATM    6  C3  UNL     1     -34.054   6.451   6.433  1.00 20.00     0.014 C 
HETATM    7  C4  UNL     1     -35.009   4.348   5.462  1.00 20.00     0.014 C 
ENDBRANCH   4   5
BRANCH   4   8
HETATM    8  O8  UNL     1     -35.004   7.056   3.830  1.00 20.00    -0.378 OA
HETATM    9  H20 UNL     1     -34.565   7.912   3.720  1.00 20.00     0.211 HD
ENDBRANCH   4   8
TORSDOF 2
ENDMDL
MODEL 2
REMARK VINA RESULT:      -4.1     11.273     12.311
REMARK  2 active torsions:
REMARK  status: ('A' for Active; 'I' for Inactive)
REMARK    1  A    between atoms: C6_6  and  C7_7 
REMARK    2  A    between atoms: C7_7  and  O8_8 
ROOT
HETATM    1  C1  UNL     1     -34.798  14.592  -6.848  1.00 20.00     0.015 C 
HETATM    2  C2  UNL     1     -34.809  14.264  -5.692  1.00 20.00    -0.079 C 
HETATM    3  C5  UNL     1     -33.380  13.788  -3.754  1.00 20.00     0.061 C 
HETATM    4  C7  UNL     1     -34.821  13.857  -4.274  1.00 20.00     0.119 C 
ENDROOT
BRANCH   4   5
HETATM    5  C6  UNL     1     -35.714  14.787  -3.401  1.00 20.00     0.024 C 
HETATM    6  C3  UNL     1     -35.171  16.215  -3.258  1.00 20.00     0.014 C 
HETATM    7  C4  UNL     1     -37.169  14.840  -3.890  1.00 20.00     0.014 C 
ENDBRANCH   4   5
BRANCH   4   8
HETATM    8  O8  UNL     1     -35.350  12.526  -4.203  1.00 20.00    -0.378 OA
HETATM    9  H20 UNL     1     -35.233  12.240  -3.286  1.00 20.00     0.211 HD
ENDBRANCH   4   8
TORSDOF 2
ENDMDL
MODEL 3
REMARK VINA RESULT:      -4.1     11.455     12.173
REMARK  2 active torsions:
REMARK  status: ('A' for Active; 'I' for Inactive)
REMARK    1  A    between atoms: C6_6  and  C7_7 
REMARK    2  A    between atoms: C7_7  and  O8_8 
ROOT
HETATM    1  C1  UNL     1     -37.735  14.785  -3.898  1.00 20.00     0.015 C 
HETATM    2  C2  UNL     1     -36.596  14.435  -4.051  1.00 20.00    -0.079 C 
HETATM    3  C5  UNL     1     -34.756  14.334  -5.673  1.00 20.00     0.061 C 
HETATM    4  C7  UNL     1     -35.199  14.001  -4.242  1.00 20.00     0.119 C 
ENDROOT
BRANCH   4   5
HETATM    5  C6  UNL     1     -34.241  14.612  -3.177  1.00 20.00     0.024 C 
HETATM    6  C3  UNL     1     -32.883  15.048  -3.739  1.00 20.00     0.014 C 
HETATM    7  C4  UNL     1     -34.878  15.781  -2.411  1.00 20.00     0.014 C 
ENDBRANCH   4   5
BRANCH   4   8
HETATM    8  O8  UNL     1     -35.161  12.573  -4.120  1.00 20.00    -0.378 OA
HETATM    9  H20 UNL     1     -34.912  12.390  -3.203  1.00 20.00     0.211 HD
ENDBRANCH   4   8
TORSDOF 2
ENDMDL
MODEL 4
REMARK VINA RESULT:      -4.1     11.438     12.150
REMARK  2 active torsions:
REMARK  status: ('A' for Active; 'I' for Inactive)
REMARK    1  A    between atoms: C6_6  and  C7_7 
REMARK    2  A    between atoms: C7_7  and  O8_8 
ROOT
HETATM    1  C1  UNL     1     -34.547  16.727  -0.800  1.00 20.00     0.015 C 
HETATM    2  C2  UNL     1     -34.893  16.174  -1.809  1.00 20.00    -0.079 C 
HETATM    3  C5  UNL     1     -35.323  16.507  -4.203  1.00 20.00     0.061 C 
HETATM    4  C7  UNL     1     -35.323  15.498  -3.048  1.00 20.00     0.119 C 
ENDROOT
BRANCH   4   5
HETATM    5  C6  UNL     1     -34.455  14.245  -3.366  1.00 20.00     0.024 C 
HETATM    6  C3  UNL     1     -35.030  13.356  -4.477  1.00 20.00     0.014 C 
HETATM    7  C4  UNL     1     -32.999  14.602  -3.700  1.00 20.00     0.014 C 
ENDBRANCH   4   5
BRANCH   4   8
HETATM    8  O8  UNL     1     -36.681  15.075  -2.869  1.00 20.00    -0.378 OA
HETATM    9  H20 UNL     1     -36.846  15.102  -1.916  1.00 20.00     0.211 HD
ENDBRANCH   4   8
TORSDOF 2
ENDMDL
MODEL 5
REMARK VINA RESULT:      -4.0     11.456     12.949
REMARK  2 active torsions:
REMARK  status: ('A' for Active; 'I' for Inactive)
REMARK    1  A    between atoms: C6_6  and  C7_7 
REMARK    2  A    between atoms: C7_7  and  O8_8 
ROOT
HETATM    1  C1  UNL     1     -34.532  16.291  -1.591  1.00 20.00     0.015 C 
HETATM    2  C2  UNL     1     -34.246  15.727  -2.612  1.00 20.00    -0.079 C 
HETATM    3  C5  UNL     1     -34.494  13.620  -3.847  1.00 20.00     0.061 C 
HETATM    4  C7  UNL     1     -33.891  15.030  -3.863  1.00 20.00     0.119 C 
ENDROOT
BRANCH   4   5
HETATM    5  C6  UNL     1     -34.319  15.834  -5.126  1.00 20.00     0.024 C 
HETATM    6  C3  UNL     1     -33.462  17.078  -5.392  1.00 20.00     0.014 C 
HETATM    7  C4  UNL     1     -34.366  14.965  -6.393  1.00 20.00     0.014 C 
ENDBRANCH   4   5
BRANCH   4   8
HETATM    8  O8  UNL     1     -32.467  14.871  -3.889  1.00 20.00    -0.378 OA
HETATM    9  H20 UNL     1     -32.277  14.278  -4.630  1.00 20.00     0.211 HD
ENDBRANCH   4   8
TORSDOF 2
ENDMDL
MODEL 6
REMARK VINA RESULT:      -3.9     11.683     12.651
REMARK  2 active torsions:
REMARK  status: ('A' for Active; 'I' for Inactive)
REMARK    1  A    between atoms: C6_6  and  C7_7 
REMARK    2  A    between atoms: C7_7  and  O8_8 
ROOT
HETATM    1  C1  UNL     1     -33.777  16.839  -5.943  1.00 20.00     0.015 C 
HETATM    2  C2  UNL     1     -33.700  16.163  -4.953  1.00 20.00    -0.079 C 
HETATM    3  C5  UNL     1     -33.677  16.241  -2.499  1.00 20.00     0.061 C 
HETATM    4  C7  UNL     1     -33.600  15.335  -3.735  1.00 20.00     0.119 C 
ENDROOT
BRANCH   4   5
HETATM    5  C6  UNL     1     -34.671  14.206  -3.700  1.00 20.00     0.024 C 
HETATM    6  C3  UNL     1     -36.116  14.720  -3.673  1.00 20.00     0.014 C 
HETATM    7  C4  UNL     1     -34.508  13.200  -4.850  1.00 20.00     0.014 C 
ENDBRANCH   4   5
BRANCH   4   8
HETATM    8  O8  UNL     1     -32.301  14.728  -3.722  1.00 20.00    -0.378 OA
HETATM    9  H20 UNL     1     -31.774  15.238  -3.090  1.00 20.00     0.211 HD
ENDBRANCH   4   8
TORSDOF 2
ENDMDL
MODEL 7
REMARK VINA RESULT:      -3.8     12.090     13.523
REMARK  2 active torsions:
REMARK  status: ('A' for Active; 'I' for Inactive)
REMARK    1  A    between atoms: C6_6  and  C7_7 
REMARK    2  A    between atoms: C7_7  and  O8_8 
ROOT
HETATM    1  C1  UNL     1     -33.569  18.361  -5.336  1.00 20.00     0.015 C 
HETATM    2  C2  UNL     1     -33.552  17.256  -4.865  1.00 20.00    -0.079 C 
HETATM    3  C5  UNL     1     -33.837  15.985  -2.784  1.00 20.00     0.061 C 
HETATM    4  C7  UNL     1     -33.525  15.900  -4.283  1.00 20.00     0.119 C 
ENDROOT
BRANCH   4   5
HETATM    5  C6  UNL     1     -34.484  14.922  -5.024  1.00 20.00     0.024 C 
HETATM    6  C3  UNL     1     -34.371  14.980  -6.553  1.00 20.00     0.014 C 
HETATM    7  C4  UNL     1     -34.325  13.468  -4.555  1.00 20.00     0.014 C 
ENDBRANCH   4   5
BRANCH   4   8
HETATM    8  O8  UNL     1     -32.188  15.398  -4.399  1.00 20.00    -0.378 OA
HETATM    9  H20 UNL     1     -31.618  16.055  -3.974  1.00 20.00     0.211 HD
ENDBRANCH   4   8
TORSDOF 2
ENDMDL
MODEL 8
REMARK VINA RESULT:      -3.7      9.203     10.331
REMARK  2 active torsions:
REMARK  status: ('A' for Active; 'I' for Inactive)
REMARK    1  A    between atoms: C6_6  and  C7_7 
REMARK    2  A    between atoms: C7_7  and  O8_8 
ROOT
HETATM    1  C1  UNL     1     -43.028   4.268   0.696  1.00 20.00     0.015 C 
HETATM    2  C2  UNL     1     -42.361   4.418  -0.291  1.00 20.00    -0.079 C 
HETATM    3  C5  UNL     1     -42.033   3.642  -2.597  1.00 20.00     0.061 C 
HETATM    4  C7  UNL     1     -41.539   4.598  -1.504  1.00 20.00     0.119 C 
ENDROOT
BRANCH   4   5
HETATM    5  C6  UNL     1     -41.517   6.078  -1.987  1.00 20.00     0.024 C 
HETATM    6  C3  UNL     1     -42.830   6.541  -2.631  1.00 20.00     0.014 C 
HETATM    7  C4  UNL     1     -41.121   7.058  -0.872  1.00 20.00     0.014 C 
ENDBRANCH   4   5
BRANCH   4   8
HETATM    8  O8  UNL     1     -40.197   4.205  -1.187  1.00 20.00    -0.378 OA
HETATM    9  H20 UNL     1     -39.749   4.076  -2.035  1.00 20.00     0.211 HD
ENDBRANCH   4   8
TORSDOF 2
ENDMDL
MODEL 9
REMARK VINA RESULT:      -3.7      9.112     10.240
REMARK  2 active torsions:
REMARK  status: ('A' for Active; 'I' for Inactive)
REMARK    1  A    between atoms: C6_6  and  C7_7 
REMARK    2  A    between atoms: C7_7  and  O8_8 
ROOT
HETATM    1  C1  UNL     1     -41.026   7.470  -0.818  1.00 20.00     0.015 C 
HETATM    2  C2  UNL     1     -41.199   6.290  -0.960  1.00 20.00    -0.079 C 
HETATM    3  C5  UNL     1     -42.180   4.293   0.079  1.00 20.00     0.061 C 
HETATM    4  C7  UNL     1     -41.408   4.838  -1.129  1.00 20.00     0.119 C 
ENDROOT
BRANCH   4   5
HETATM    5  C6  UNL     1     -42.111   4.498  -2.475  1.00 20.00     0.024 C 
HETATM    6  C3  UNL     1     -42.381   3.001  -2.675  1.00 20.00     0.014 C 
HETATM    7  C4  UNL     1     -43.416   5.284  -2.676  1.00 20.00     0.014 C 
ENDBRANCH   4   5
BRANCH   4   8
HETATM    8  O8  UNL     1     -40.122   4.205  -1.117  1.00 20.00    -0.378 OA
HETATM    9  H20 UNL     1     -39.504   4.862  -0.764  1.00 20.00     0.211 HD
ENDBRANCH   4   8
TORSDOF 2
ENDMDL
