MODEL 1
REMARK VINA RESULT:      -4.6      0.000      0.000
REMARK  1 active torsions:
REMARK  status: ('A' for Active; 'I' for Inactive)
REMARK    1  A    between atoms: C2_2  and  C3_3 
ROOT
HETATM    1  C1  UNL     1     -33.994   6.558   6.418  1.00 20.00     0.023 C 
HETATM    2  C2  UNL     1     -34.323   5.611   5.529  1.00 20.00    -0.009 C 
HETATM    3  C4  UNL     1     -34.965   4.322   5.956  1.00 20.00     0.052 C 
ENDROOT
BRANCH   2   4
HETATM    4  C3  UNL     1     -34.065   5.780   4.053  1.00 20.00     0.247 C 
HETATM    5  O5  UNL     1     -34.934   5.394   3.270  1.00 20.00    -0.274 OA
HETATM    6 CL6  UNL     1     -32.566   6.505   3.502  1.00 20.00    -0.039 Cl
ENDBRANCH   2   4
TORSDOF 1
ENDMDL
MODEL 2
REMARK VINA RESULT:      -4.5      0.133      1.439
REMARK  1 active torsions:
REMARK  status: ('A' for Active; 'I' for Inactive)
REMARK    1  A    between atoms: C2_2  and  C3_3 
ROOT
HETATM    1  C1  UNL     1     -34.945   4.315   5.960  1.00 20.00     0.023 C 
HETATM    2  C2  UNL     1     -34.405   5.458   5.514  1.00 20.00    -0.009 C 
HETATM    3  C4  UNL     1     -34.001   6.556   6.455  1.00 20.00     0.052 C 
ENDROOT
BRANCH   2   4
HETATM    4  C3  UNL     1     -34.175   5.711   4.045  1.00 20.00     0.247 C 
HETATM    5  O5  UNL     1     -35.094   5.449   3.266  1.00 20.00    -0.274 OA
HETATM    6 CL6  UNL     1     -32.640   6.357   3.496  1.00 20.00    -0.039 Cl
ENDBRANCH   2   4
TORSDOF 1
ENDMDL
MODEL 3
REMARK VINA RESULT:      -4.3      1.515      1.515
REMARK  1 active torsions:
REMARK  status: ('A' for Active; 'I' for Inactive)
REMARK    1  A    between atoms: C2_2  and  C3_3 
ROOT
HETATM    1  C1  UNL     1     -33.898   6.772   6.557  1.00 20.00     0.023 C 
HETATM    2  C2  UNL     1     -34.162   5.870   5.601  1.00 20.00    -0.009 C 
HETATM    3  C4  UNL     1     -34.968   4.635   5.887  1.00 20.00     0.052 C 
ENDROOT
BRANCH   2   4
HETATM    4  C3  UNL     1     -33.663   6.037   4.188  1.00 20.00     0.247 C 
HETATM    5  O5  UNL     1     -32.652   6.720   4.012  1.00 20.00    -0.274 OA
HETATM    6 CL6  UNL     1     -34.514   5.270   2.861  1.00 20.00    -0.039 Cl
ENDBRANCH   2   4
TORSDOF 1
ENDMDL
MODEL 4
REMARK VINA RESULT:      -4.2      1.523      2.088
REMARK  1 active torsions:
REMARK  status: ('A' for Active; 'I' for Inactive)
REMARK    1  A    between atoms: C2_2  and  C3_3 
ROOT
HETATM    1  C1  UNL     1     -34.973   4.795   5.964  1.00 20.00     0.023 C 
HETATM    2  C2  UNL     1     -34.205   5.835   5.610  1.00 20.00    -0.009 C 
HETATM    3  C4  UNL     1     -33.814   6.895   6.599  1.00 20.00     0.052 C 
ENDROOT
BRANCH   2   4
HETATM    4  C3  UNL     1     -33.694   6.004   4.202  1.00 20.00     0.247 C 
HETATM    5  O5  UNL     1     -32.670   6.670   4.038  1.00 20.00    -0.274 OA
HETATM    6 CL6  UNL     1     -34.551   5.265   2.862  1.00 20.00    -0.039 Cl
ENDBRANCH   2   4
TORSDOF 1
ENDMDL
MODEL 5
REMARK VINA RESULT:      -4.2      2.414      3.235
REMARK  1 active torsions:
REMARK  status: ('A' for Active; 'I' for Inactive)
REMARK    1  A    between atoms: C2_2  and  C3_3 
ROOT
HETATM    1  C1  UNL     1     -34.786   5.420   3.222  1.00 20.00     0.023 C 
HETATM    2  C2  UNL     1     -33.954   5.906   4.153  1.00 20.00    -0.009 C 
HETATM    3  C4  UNL     1     -32.680   6.609   3.779  1.00 20.00     0.052 C 
ENDROOT
BRANCH   2   4
HETATM    4  C3  UNL     1     -34.243   5.774   5.628  1.00 20.00     0.247 C 
HETATM    5  O5  UNL     1     -33.864   6.680   6.371  1.00 20.00    -0.274 OA
HETATM    6 CL6  UNL     1     -35.093   4.364   6.231  1.00 20.00    -0.039 Cl
ENDBRANCH   2   4
TORSDOF 1
ENDMDL
MODEL 6
REMARK VINA RESULT:      -4.2      1.926      2.290
REMARK  1 active torsions:
REMARK  status: ('A' for Active; 'I' for Inactive)
REMARK    1  A    between atoms: C2_2  and  C3_3 
ROOT
HETATM    1  C1  UNL     1     -35.536   5.332   3.704  1.00 20.00     0.023 C 
HETATM    2  C2  UNL     1     -34.773   5.271   4.804  1.00 20.00    -0.009 C 
HETATM    3  C4  UNL     1     -34.935   4.171   5.813  1.00 20.00     0.052 C 
ENDROOT
BRANCH   2   4
HETATM    4  C3  UNL     1     -33.712   6.303   5.096  1.00 20.00     0.247 C 
HETATM    5  O5  UNL     1     -32.924   6.588   4.193  1.00 20.00    -0.274 OA
HETATM    6 CL6  UNL     1     -33.630   7.053   6.679  1.00 20.00    -0.039 Cl
ENDBRANCH   2   4
TORSDOF 1
ENDMDL
MODEL 7
REMARK VINA RESULT:      -4.1      1.685      2.086
REMARK  1 active torsions:
REMARK  status: ('A' for Active; 'I' for Inactive)
REMARK    1  A    between atoms: C2_2  and  C3_3 
ROOT
HETATM    1  C1  UNL     1     -35.559   5.340   3.762  1.00 20.00     0.023 C 
HETATM    2  C2  UNL     1     -34.789   5.261   4.856  1.00 20.00    -0.009 C 
HETATM    3  C4  UNL     1     -34.959   4.156   5.859  1.00 20.00     0.052 C 
ENDROOT
BRANCH   2   4
HETATM    4  C3  UNL     1     -33.711   6.275   5.146  1.00 20.00     0.247 C 
HETATM    5  O5  UNL     1     -33.665   6.757   6.279  1.00 20.00    -0.274 OA
HETATM    6 CL6  UNL     1     -32.574   6.731   3.891  1.00 20.00    -0.039 Cl
ENDBRANCH   2   4
TORSDOF 1
ENDMDL
MODEL 8
REMARK VINA RESULT:      -4.1      2.061      2.919
REMARK  1 active torsions:
REMARK  status: ('A' for Active; 'I' for Inactive)
REMARK    1  A    between atoms: C2_2  and  C3_3 
ROOT
HETATM    1  C1  UNL     1     -35.098   5.439   3.481  1.00 20.00     0.023 C 
HETATM    2  C2  UNL     1     -34.137   5.901   4.293  1.00 20.00    -0.009 C 
HETATM    3  C4  UNL     1     -32.851   6.457   3.751  1.00 20.00     0.052 C 
ENDROOT
BRANCH   2   4
HETATM    4  C3  UNL     1     -34.287   5.887   5.793  1.00 20.00     0.247 C 
HETATM    5  O5  UNL     1     -34.924   4.962   6.299  1.00 20.00    -0.274 OA
HETATM    6 CL6  UNL     1     -33.564   7.161   6.759  1.00 20.00    -0.039 Cl
ENDBRANCH   2   4
TORSDOF 1
ENDMDL
MODEL 9
REMARK VINA RESULT:      -4.1      1.986      2.461
REMARK  1 active torsions:
REMARK  status: ('A' for Active; 'I' for Inactive)
REMARK    1  A    between atoms: C2_2  and  C3_3 
ROOT
HETATM    1  C1  UNL     1     -32.977   6.602   3.924  1.00 20.00     0.023 C 
HETATM    2  C2  UNL     1     -33.826   6.218   4.887  1.00 20.00    -0.009 C 
HETATM    3  C4  UNL     1     -33.745   6.780   6.277  1.00 20.00     0.052 C 
ENDROOT
BRANCH   2   4
HETATM    4  C3  UNL     1     -34.909   5.199   4.633  1.00 20.00     0.247 C 
HETATM    5  O5  UNL     1     -35.653   5.379   3.668  1.00 20.00    -0.274 OA
HETATM    6 CL6  UNL     1     -35.076   3.814   5.696  1.00 20.00    -0.039 Cl
ENDBRANCH   2   4
TORSDOF 1
ENDMDL
