MODEL 1
REMARK VINA RESULT:      -5.2      0.000      0.000
REMARK  0 active torsions:
REMARK  status: ('A' for Active; 'I' for Inactive)
ROOT
HETATM    1  C1  UNL     1     -34.727   5.294   5.130  1.00 20.00    -0.089 C 
HETATM    2  C2  UNL     1     -32.921   6.650   3.338  1.00 20.00    -0.089 C 
HETATM    3  C3  UNL     1     -35.137   4.302   5.933  1.00 20.00     0.014 C 
HETATM    4  C4  UNL     1     -32.511   7.642   2.535  1.00 20.00     0.014 C 
HETATM    5  C5  UNL     1     -33.919   6.466   5.631  1.00 20.00     0.037 C 
HETATM    6  C6  UNL     1     -35.018   5.311   3.647  1.00 20.00     0.037 C 
HETATM    7  C7  UNL     1     -32.629   6.632   4.820  1.00 20.00     0.037 C 
HETATM    8  C8  UNL     1     -33.729   5.478   2.836  1.00 20.00     0.037 C 
ENDROOT
TORSDOF 0
ENDMDL
MODEL 2
REMARK VINA RESULT:      -5.2      0.001      3.263
REMARK  0 active torsions:
REMARK  status: ('A' for Active; 'I' for Inactive)
ROOT
HETATM    1  C1  UNL     1     -32.920   6.650   3.339  1.00 20.00    -0.089 C 
HETATM    2  C2  UNL     1     -34.728   5.294   5.129  1.00 20.00    -0.089 C 
HETATM    3  C3  UNL     1     -32.510   7.641   2.535  1.00 20.00     0.014 C 
HETATM    4  C4  UNL     1     -35.137   4.303   5.933  1.00 20.00     0.014 C 
HETATM    5  C5  UNL     1     -32.629   6.632   4.821  1.00 20.00     0.037 C 
HETATM    6  C6  UNL     1     -33.729   5.478   2.836  1.00 20.00     0.037 C 
HETATM    7  C7  UNL     1     -33.919   6.466   5.631  1.00 20.00     0.037 C 
HETATM    8  C8  UNL     1     -35.018   5.311   3.647  1.00 20.00     0.037 C 
ENDROOT
TORSDOF 0
ENDMDL
MODEL 3
REMARK VINA RESULT:      -4.4      0.886      3.784
REMARK  0 active torsions:
REMARK  status: ('A' for Active; 'I' for Inactive)
ROOT
HETATM    1  C1  UNL     1     -33.700   6.330   3.905  1.00 20.00    -0.089 C 
HETATM    2  C2  UNL     1     -34.791   4.713   6.026  1.00 20.00    -0.089 C 
HETATM    3  C3  UNL     1     -32.797   6.688   2.981  1.00 20.00     0.014 C 
HETATM    4  C4  UNL     1     -35.695   4.356   6.950  1.00 20.00     0.014 C 
HETATM    5  C5  UNL     1     -34.833   5.378   3.609  1.00 20.00     0.037 C 
HETATM    6  C6  UNL     1     -33.646   6.832   5.329  1.00 20.00     0.037 C 
HETATM    7  C7  UNL     1     -34.844   4.211   4.603  1.00 20.00     0.037 C 
HETATM    8  C8  UNL     1     -33.658   5.666   6.323  1.00 20.00     0.037 C 
ENDROOT
TORSDOF 0
ENDMDL
MODEL 4
REMARK VINA RESULT:      -4.4      0.889      2.146
REMARK  0 active torsions:
REMARK  status: ('A' for Active; 'I' for Inactive)
ROOT
HETATM    1  C1  UNL     1     -34.795   4.715   6.031  1.00 20.00    -0.089 C 
HETATM    2  C2  UNL     1     -33.705   6.329   3.906  1.00 20.00    -0.089 C 
HETATM    3  C3  UNL     1     -35.696   4.359   6.957  1.00 20.00     0.014 C 
HETATM    4  C4  UNL     1     -32.803   6.683   2.980  1.00 20.00     0.014 C 
HETATM    5  C5  UNL     1     -34.847   4.210   4.609  1.00 20.00     0.037 C 
HETATM    6  C6  UNL     1     -33.662   5.670   6.325  1.00 20.00     0.037 C 
HETATM    7  C7  UNL     1     -34.838   5.374   3.612  1.00 20.00     0.037 C 
HETATM    8  C8  UNL     1     -33.652   6.834   5.327  1.00 20.00     0.037 C 
ENDROOT
TORSDOF 0
ENDMDL
MODEL 5
REMARK VINA RESULT:      -4.2     11.644     12.209
REMARK  0 active torsions:
REMARK  status: ('A' for Active; 'I' for Inactive)
ROOT
HETATM    1  C1  UNL     1     -34.684  16.112  -2.298  1.00 20.00    -0.089 C 
HETATM    2  C2  UNL     1     -34.925  14.232  -4.470  1.00 20.00    -0.089 C 
HETATM    3  C3  UNL     1     -34.636  16.499  -1.016  1.00 20.00     0.014 C 
HETATM    4  C4  UNL     1     -34.973  13.846  -5.753  1.00 20.00     0.014 C 
HETATM    5  C5  UNL     1     -33.454  15.704  -3.072  1.00 20.00     0.037 C 
HETATM    6  C6  UNL     1     -35.978  16.028  -3.073  1.00 20.00     0.037 C 
HETATM    7  C7  UNL     1     -33.631  14.315  -3.695  1.00 20.00     0.037 C 
HETATM    8  C8  UNL     1     -36.156  14.640  -3.698  1.00 20.00     0.037 C 
ENDROOT
TORSDOF 0
ENDMDL
MODEL 6
REMARK VINA RESULT:      -4.2     11.526     12.212
REMARK  0 active torsions:
REMARK  status: ('A' for Active; 'I' for Inactive)
ROOT
HETATM    1  C1  UNL     1     -34.936  14.131  -4.418  1.00 20.00    -0.089 C 
HETATM    2  C2  UNL     1     -34.675  16.074  -2.304  1.00 20.00    -0.089 C 
HETATM    3  C3  UNL     1     -34.973  13.704  -5.689  1.00 20.00     0.014 C 
HETATM    4  C4  UNL     1     -34.638  16.500  -1.034  1.00 20.00     0.014 C 
HETATM    5  C5  UNL     1     -33.657  14.197  -3.620  1.00 20.00     0.037 C 
HETATM    6  C6  UNL     1     -36.168  14.606  -3.685  1.00 20.00     0.037 C 
HETATM    7  C7  UNL     1     -33.444  15.599  -3.038  1.00 20.00     0.037 C 
HETATM    8  C8  UNL     1     -35.955  16.008  -3.103  1.00 20.00     0.037 C 
ENDROOT
TORSDOF 0
ENDMDL
MODEL 7
REMARK VINA RESULT:      -4.0     11.960     13.191
REMARK  0 active torsions:
REMARK  status: ('A' for Active; 'I' for Inactive)
ROOT
HETATM    1  C1  UNL     1     -34.524  15.557  -5.576  1.00 20.00    -0.089 C 
HETATM    2  C2  UNL     1     -34.526  15.681  -2.696  1.00 20.00    -0.089 C 
HETATM    3  C3  UNL     1     -34.438  14.962  -6.774  1.00 20.00     0.014 C 
HETATM    4  C4  UNL     1     -34.613  16.277  -1.498  1.00 20.00     0.014 C 
HETATM    5  C5  UNL     1     -35.831  15.712  -4.837  1.00 20.00     0.037 C 
HETATM    6  C6  UNL     1     -33.316  16.103  -4.852  1.00 20.00     0.037 C 
HETATM    7  C7  UNL     1     -35.733  15.134  -3.420  1.00 20.00     0.037 C 
HETATM    8  C8  UNL     1     -33.218  15.527  -3.435  1.00 20.00     0.037 C 
ENDROOT
TORSDOF 0
ENDMDL
MODEL 8
REMARK VINA RESULT:      -4.0     11.961     13.001
REMARK  0 active torsions:
REMARK  status: ('A' for Active; 'I' for Inactive)
ROOT
HETATM    1  C1  UNL     1     -34.543  15.672  -2.720  1.00 20.00    -0.089 C 
HETATM    2  C2  UNL     1     -34.511  15.561  -5.600  1.00 20.00    -0.089 C 
HETATM    3  C3  UNL     1     -34.636  16.263  -1.520  1.00 20.00     0.014 C 
HETATM    4  C4  UNL     1     -34.418  14.969  -6.799  1.00 20.00     0.014 C 
HETATM    5  C5  UNL     1     -35.746  15.138  -3.459  1.00 20.00     0.037 C 
HETATM    6  C6  UNL     1     -33.228  15.512  -3.446  1.00 20.00     0.037 C 
HETATM    7  C7  UNL     1     -35.825  15.722  -4.874  1.00 20.00     0.037 C 
HETATM    8  C8  UNL     1     -33.307  16.094  -4.861  1.00 20.00     0.037 C 
ENDROOT
TORSDOF 0
ENDMDL
MODEL 9
REMARK VINA RESULT:      -4.0      0.902      2.526
REMARK  0 active torsions:
REMARK  status: ('A' for Active; 'I' for Inactive)
ROOT
HETATM    1  C1  UNL     1     -33.821   6.390   5.977  1.00 20.00    -0.089 C 
HETATM    2  C2  UNL     1     -34.422   5.492   3.304  1.00 20.00    -0.089 C 
HETATM    3  C3  UNL     1     -33.965   7.147   7.074  1.00 20.00     0.014 C 
HETATM    4  C4  UNL     1     -34.278   4.735   2.208  1.00 20.00     0.014 C 
HETATM    5  C5  UNL     1     -34.575   5.097   5.776  1.00 20.00     0.037 C 
HETATM    6  C6  UNL     1     -32.909   6.778   4.836  1.00 20.00     0.037 C 
HETATM    7  C7  UNL     1     -35.334   5.106   4.444  1.00 20.00     0.037 C 
HETATM    8  C8  UNL     1     -33.667   6.784   3.505  1.00 20.00     0.037 C 
ENDROOT
TORSDOF 0
ENDMDL
