MODEL 1
REMARK VINA RESULT:      -4.7      0.000      0.000
REMARK  3 active torsions:
REMARK  status: ('A' for Active; 'I' for Inactive)
REMARK    1  A    between atoms: C3_3  and  C5_5 
REMARK    2  A    between atoms: C4_4  and  C6_6 
REMARK    3  A    between atoms: C5_5  and  C6_6 
ROOT
HETATM    1  C6  UNL     1     -34.418   6.103   4.304  1.00 20.00     0.082 C 
HETATM    2 CL7  UNL     1     -33.708   6.646   5.858  1.00 20.00    -0.125 Cl
ENDROOT
BRANCH   1   3
HETATM    3  C4  UNL     1     -35.163   4.773   4.491  1.00 20.00     0.016 C 
HETATM    4  C2  UNL     1     -34.951   4.142   5.861  1.00 20.00     0.006 C 
ENDBRANCH   1   3
BRANCH   1   5
HETATM    5  C5  UNL     1     -33.320   5.964   3.237  1.00 20.00     0.020 C 
BRANCH   5   6
HETATM    6  C3  UNL     1     -32.149   6.931   3.437  1.00 20.00    -0.003 C 
HETATM    7  C1  UNL     1     -32.074   7.948   2.307  1.00 20.00     0.005 C 
ENDBRANCH   5   6
ENDBRANCH   1   5
TORSDOF 3
ENDMDL
MODEL 2
REMARK VINA RESULT:      -4.4      1.884      2.226
REMARK  3 active torsions:
REMARK  status: ('A' for Active; 'I' for Inactive)
REMARK    1  A    between atoms: C3_3  and  C5_5 
REMARK    2  A    between atoms: C4_4  and  C6_6 
REMARK    3  A    between atoms: C5_5  and  C6_6 
ROOT
HETATM    1  C6  UNL     1     -34.080   5.278   5.167  1.00 20.00     0.082 C 
HETATM    2 CL7  UNL     1     -35.222   3.918   4.920  1.00 20.00    -0.125 Cl
ENDROOT
BRANCH   1   3
HETATM    3  C4  UNL     1     -34.401   6.014   6.477  1.00 20.00     0.016 C 
HETATM    4  C2  UNL     1     -33.528   7.239   6.718  1.00 20.00     0.006 C 
ENDBRANCH   1   3
BRANCH   1   5
HETATM    5  C5  UNL     1     -34.137   6.244   3.974  1.00 20.00     0.020 C 
BRANCH   5   6
HETATM    6  C3  UNL     1     -32.923   6.139   3.045  1.00 20.00    -0.003 C 
HETATM    7  C1  UNL     1     -31.936   7.270   3.296  1.00 20.00     0.005 C 
ENDBRANCH   5   6
ENDBRANCH   1   5
TORSDOF 3
ENDMDL
MODEL 3
REMARK VINA RESULT:      -4.3      1.469      3.961
REMARK  3 active torsions:
REMARK  status: ('A' for Active; 'I' for Inactive)
REMARK    1  A    between atoms: C3_3  and  C5_5 
REMARK    2  A    between atoms: C4_4  and  C6_6 
REMARK    3  A    between atoms: C5_5  and  C6_6 
ROOT
HETATM    1  C6  UNL     1     -33.962   6.566   4.097  1.00 20.00     0.082 C 
HETATM    2 CL7  UNL     1     -35.262   5.565   3.376  1.00 20.00    -0.125 Cl
ENDROOT
BRANCH   1   3
HETATM    3  C4  UNL     1     -32.630   6.314   3.375  1.00 20.00     0.016 C 
HETATM    4  C2  UNL     1     -32.089   7.537   2.647  1.00 20.00     0.006 C 
ENDBRANCH   1   3
BRANCH   1   5
HETATM    5  C5  UNL     1     -33.831   6.267   5.599  1.00 20.00     0.020 C 
BRANCH   5   6
HETATM    6  C3  UNL     1     -34.904   5.309   6.127  1.00 20.00    -0.003 C 
HETATM    7  C1  UNL     1     -34.451   3.860   6.020  1.00 20.00     0.005 C 
ENDBRANCH   5   6
ENDBRANCH   1   5
TORSDOF 3
ENDMDL
MODEL 4
REMARK VINA RESULT:      -4.3      1.674      1.713
REMARK  3 active torsions:
REMARK  status: ('A' for Active; 'I' for Inactive)
REMARK    1  A    between atoms: C3_3  and  C5_5 
REMARK    2  A    between atoms: C4_4  and  C6_6 
REMARK    3  A    between atoms: C5_5  and  C6_6 
ROOT
HETATM    1  C6  UNL     1     -34.388   5.280   4.231  1.00 20.00     0.082 C 
HETATM    2 CL7  UNL     1     -35.859   5.726   3.309  1.00 20.00    -0.125 Cl
ENDROOT
BRANCH   1   3
HETATM    3  C4  UNL     1     -34.752   4.926   5.681  1.00 20.00     0.016 C 
HETATM    4  C2  UNL     1     -34.363   6.000   6.688  1.00 20.00     0.006 C 
ENDBRANCH   1   3
BRANCH   1   5
HETATM    5  C5  UNL     1     -33.367   6.428   4.193  1.00 20.00     0.020 C 
BRANCH   5   6
HETATM    6  C3  UNL     1     -32.407   6.352   3.002  1.00 20.00    -0.003 C 
HETATM    7  C1  UNL     1     -32.091   7.737   2.458  1.00 20.00     0.005 C 
ENDBRANCH   5   6
ENDBRANCH   1   5
TORSDOF 3
ENDMDL
MODEL 5
REMARK VINA RESULT:      -4.2      1.800      3.537
REMARK  3 active torsions:
REMARK  status: ('A' for Active; 'I' for Inactive)
REMARK    1  A    between atoms: C3_3  and  C5_5 
REMARK    2  A    between atoms: C4_4  and  C6_6 
REMARK    3  A    between atoms: C5_5  and  C6_6 
ROOT
HETATM    1  C6  UNL     1     -34.766   5.757   3.978  1.00 20.00     0.082 C 
HETATM    2 CL7  UNL     1     -36.338   6.004   3.153  1.00 20.00    -0.125 Cl
ENDROOT
BRANCH   1   3
HETATM    3  C4  UNL     1     -33.664   5.459   2.950  1.00 20.00     0.016 C 
HETATM    4  C2  UNL     1     -32.403   6.290   3.150  1.00 20.00     0.006 C 
ENDBRANCH   1   3
BRANCH   1   5
HETATM    5  C5  UNL     1     -34.876   4.616   5.002  1.00 20.00     0.020 C 
BRANCH   5   6
HETATM    6  C3  UNL     1     -34.540   5.045   6.433  1.00 20.00    -0.003 C 
HETATM    7  C1  UNL     1     -34.053   6.487   6.477  1.00 20.00     0.005 C 
ENDBRANCH   5   6
ENDBRANCH   1   5
TORSDOF 3
ENDMDL
MODEL 6
REMARK VINA RESULT:      -4.0      0.782      3.788
REMARK  3 active torsions:
REMARK  status: ('A' for Active; 'I' for Inactive)
REMARK    1  A    between atoms: C3_3  and  C5_5 
REMARK    2  A    between atoms: C4_4  and  C6_6 
REMARK    3  A    between atoms: C5_5  and  C6_6 
ROOT
HETATM    1  C6  UNL     1     -33.411   5.981   4.266  1.00 20.00     0.082 C 
HETATM    2 CL7  UNL     1     -33.322   7.045   5.707  1.00 20.00    -0.125 Cl
ENDROOT
BRANCH   1   3
HETATM    3  C4  UNL     1     -32.798   6.682   3.045  1.00 20.00     0.016 C 
HETATM    4  C2  UNL     1     -31.625   7.590   3.387  1.00 20.00     0.006 C 
ENDBRANCH   1   3
BRANCH   1   5
HETATM    5  C5  UNL     1     -34.870   5.583   3.989  1.00 20.00     0.020 C 
BRANCH   5   6
HETATM    6  C3  UNL     1     -35.268   4.245   4.619  1.00 20.00    -0.003 C 
HETATM    7  C1  UNL     1     -35.086   4.270   6.130  1.00 20.00     0.005 C 
ENDBRANCH   5   6
ENDBRANCH   1   5
TORSDOF 3
ENDMDL
MODEL 7
REMARK VINA RESULT:      -3.7      1.872      3.406
REMARK  3 active torsions:
REMARK  status: ('A' for Active; 'I' for Inactive)
REMARK    1  A    between atoms: C3_3  and  C5_5 
REMARK    2  A    between atoms: C4_4  and  C6_6 
REMARK    3  A    between atoms: C5_5  and  C6_6 
ROOT
HETATM    1  C6  UNL     1     -33.218   5.900   4.058  1.00 20.00     0.082 C 
HETATM    2 CL7  UNL     1     -32.003   7.104   3.522  1.00 20.00    -0.125 Cl
ENDROOT
BRANCH   1   3
HETATM    3  C4  UNL     1     -34.114   5.483   2.882  1.00 20.00     0.016 C 
HETATM    4  C2  UNL     1     -35.582   5.837   3.078  1.00 20.00     0.006 C 
ENDBRANCH   1   3
BRANCH   1   5
HETATM    5  C5  UNL     1     -34.062   6.472   5.208  1.00 20.00     0.020 C 
BRANCH   5   6
HETATM    6  C3  UNL     1     -34.146   5.544   6.425  1.00 20.00    -0.003 C 
HETATM    7  C1  UNL     1     -35.005   4.323   6.129  1.00 20.00     0.005 C 
ENDBRANCH   5   6
ENDBRANCH   1   5
TORSDOF 3
ENDMDL
MODEL 8
REMARK VINA RESULT:      -3.6     11.717     12.245
REMARK  3 active torsions:
REMARK  status: ('A' for Active; 'I' for Inactive)
REMARK    1  A    between atoms: C3_3  and  C5_5 
REMARK    2  A    between atoms: C4_4  and  C6_6 
REMARK    3  A    between atoms: C5_5  and  C6_6 
ROOT
HETATM    1  C6  UNL     1     -33.238  15.253  -3.473  1.00 20.00     0.082 C 
HETATM    2 CL7  UNL     1     -33.148  16.265  -4.950  1.00 20.00    -0.125 Cl
ENDROOT
BRANCH   1   3
HETATM    3  C4  UNL     1     -33.481  13.783  -3.845  1.00 20.00     0.016 C 
HETATM    4  C2  UNL     1     -34.935  13.467  -4.168  1.00 20.00     0.006 C 
ENDBRANCH   1   3
BRANCH   1   5
HETATM    5  C5  UNL     1     -34.347  15.768  -2.542  1.00 20.00     0.020 C 
BRANCH   5   6
HETATM    6  C3  UNL     1     -33.889  16.897  -1.612  1.00 20.00    -0.003 C 
HETATM    7  C1  UNL     1     -34.727  16.941  -0.343  1.00 20.00     0.005 C 
ENDBRANCH   5   6
ENDBRANCH   1   5
TORSDOF 3
ENDMDL
MODEL 9
REMARK VINA RESULT:      -3.6      1.584      4.247
REMARK  3 active torsions:
REMARK  status: ('A' for Active; 'I' for Inactive)
REMARK    1  A    between atoms: C3_3  and  C5_5 
REMARK    2  A    between atoms: C4_4  and  C6_6 
REMARK    3  A    between atoms: C5_5  and  C6_6 
ROOT
HETATM    1  C6  UNL     1     -32.953   6.501   2.969  1.00 20.00     0.082 C 
HETATM    2 CL7  UNL     1     -31.920   5.037   2.913  1.00 20.00    -0.125 Cl
ENDROOT
BRANCH   1   3
HETATM    3  C4  UNL     1     -32.086   7.768   2.988  1.00 20.00     0.016 C 
HETATM    4  C2  UNL     1     -32.030   8.490   1.648  1.00 20.00     0.006 C 
ENDBRANCH   1   3
BRANCH   1   5
HETATM    5  C5  UNL     1     -33.875   6.455   4.199  1.00 20.00     0.020 C 
BRANCH   5   6
HETATM    6  C3  UNL     1     -34.894   5.312   4.156  1.00 20.00    -0.003 C 
HETATM    7  C1  UNL     1     -34.917   4.544   5.470  1.00 20.00     0.005 C 
ENDBRANCH   5   6
ENDBRANCH   1   5
TORSDOF 3
ENDMDL
