MODEL 1
REMARK VINA RESULT:      -4.9      0.000      0.000
REMARK  2 active torsions:
REMARK  status: ('A' for Active; 'I' for Inactive)
REMARK    1  A    between atoms: C1_1  and  C2_2 
REMARK    2  A    between atoms: C2_2  and  C3_3 
ROOT
HETATM    1  C2  UNL     1     -34.003   6.450   4.211  1.00 20.00     0.203 C 
HETATM    2 CL8  UNL     1     -34.021   6.287   5.995  1.00 20.00    -0.115 Cl
ENDROOT
BRANCH   1   3
HETATM    3  C1  UNL     1     -32.573   6.378   3.677  1.00 20.00     0.143 C 
HETATM    4 CL7  UNL     1     -32.235   7.676   2.503  1.00 20.00    -0.129 Cl
ENDBRANCH   1   3
BRANCH   1   5
HETATM    5  C3  UNL     1     -34.870   5.357   3.610  1.00 20.00     0.405 C 
HETATM    6  F4  UNL     1     -36.133   5.782   3.390  1.00 20.00    -0.169 F 
HETATM    7  F5  UNL     1     -34.366   4.942   2.426  1.00 20.00    -0.169 F 
HETATM    8  F6  UNL     1     -34.929   4.278   4.421  1.00 20.00    -0.169 F 
ENDBRANCH   1   5
TORSDOF 2
ENDMDL
MODEL 2
REMARK VINA RESULT:      -4.7      2.428      2.746
REMARK  2 active torsions:
REMARK  status: ('A' for Active; 'I' for Inactive)
REMARK    1  A    between atoms: C1_1  and  C2_2 
REMARK    2  A    between atoms: C2_2  and  C3_3 
ROOT
HETATM    1  C2  UNL     1     -34.207   5.314   4.686  1.00 20.00     0.203 C 
HETATM    2 CL8  UNL     1     -35.760   5.413   3.799  1.00 20.00    -0.115 Cl
ENDROOT
BRANCH   1   3
HETATM    3  C1  UNL     1     -33.317   6.511   4.352  1.00 20.00     0.143 C 
HETATM    4 CL7  UNL     1     -32.170   6.142   3.039  1.00 20.00    -0.129 Cl
ENDBRANCH   1   3
BRANCH   1   5
HETATM    5  C3  UNL     1     -34.496   5.243   6.175  1.00 20.00     0.405 C 
HETATM    6  F4  UNL     1     -34.463   6.463   6.753  1.00 20.00    -0.169 F 
HETATM    7  F5  UNL     1     -35.721   4.717   6.401  1.00 20.00    -0.169 F 
HETATM    8  F6  UNL     1     -33.600   4.457   6.811  1.00 20.00    -0.169 F 
ENDBRANCH   1   5
TORSDOF 2
ENDMDL
MODEL 3
REMARK VINA RESULT:      -4.7      2.434      2.768
REMARK  2 active torsions:
REMARK  status: ('A' for Active; 'I' for Inactive)
REMARK    1  A    between atoms: C1_1  and  C2_2 
REMARK    2  A    between atoms: C2_2  and  C3_3 
ROOT
HETATM    1  C2  UNL     1     -34.210   5.316   4.683  1.00 20.00     0.203 C 
HETATM    2 CL8  UNL     1     -35.758   5.427   3.787  1.00 20.00    -0.115 Cl
ENDROOT
BRANCH   1   3
HETATM    3  C1  UNL     1     -33.312   6.509   4.359  1.00 20.00     0.143 C 
HETATM    4 CL7  UNL     1     -32.182   6.150   3.029  1.00 20.00    -0.129 Cl
ENDBRANCH   1   3
BRANCH   1   5
HETATM    5  C3  UNL     1     -34.509   5.239   6.170  1.00 20.00     0.405 C 
HETATM    6  F4  UNL     1     -35.730   4.715   6.411  1.00 20.00    -0.169 F 
HETATM    7  F5  UNL     1     -33.599   4.465   6.803  1.00 20.00    -0.169 F 
HETATM    8  F6  UNL     1     -34.461   6.462   6.742  1.00 20.00    -0.169 F 
ENDBRANCH   1   5
TORSDOF 2
ENDMDL
MODEL 4
REMARK VINA RESULT:      -4.7      1.744      2.573
REMARK  2 active torsions:
REMARK  status: ('A' for Active; 'I' for Inactive)
REMARK    1  A    between atoms: C1_1  and  C2_2 
REMARK    2  A    between atoms: C2_2  and  C3_3 
ROOT
HETATM    1  C2  UNL     1     -34.753   5.729   5.224  1.00 20.00     0.203 C 
HETATM    2 CL8  UNL     1     -33.784   6.685   6.389  1.00 20.00    -0.115 Cl
ENDROOT
BRANCH   1   3
HETATM    3  C1  UNL     1     -34.159   5.826   3.820  1.00 20.00     0.143 C 
HETATM    4 CL7  UNL     1     -32.572   6.637   3.822  1.00 20.00    -0.129 Cl
ENDBRANCH   1   3
BRANCH   1   5
HETATM    5  C3  UNL     1     -34.809   4.288   5.699  1.00 20.00     0.405 C 
HETATM    6  F4  UNL     1     -33.618   3.871   6.181  1.00 20.00    -0.169 F 
HETATM    7  F5  UNL     1     -35.723   4.143   6.685  1.00 20.00    -0.169 F 
HETATM    8  F6  UNL     1     -35.167   3.456   4.697  1.00 20.00    -0.169 F 
ENDBRANCH   1   5
TORSDOF 2
ENDMDL
MODEL 5
REMARK VINA RESULT:      -4.5      2.611      3.535
REMARK  2 active torsions:
REMARK  status: ('A' for Active; 'I' for Inactive)
REMARK    1  A    between atoms: C1_1  and  C2_2 
REMARK    2  A    between atoms: C2_2  and  C3_3 
ROOT
HETATM    1  C2  UNL     1     -33.854   6.571   4.021  1.00 20.00     0.203 C 
HETATM    2 CL8  UNL     1     -34.650   5.205   3.178  1.00 20.00    -0.115 Cl
ENDROOT
BRANCH   1   3
HETATM    3  C1  UNL     1     -33.778   6.308   5.524  1.00 20.00     0.143 C 
HETATM    4 CL7  UNL     1     -34.867   4.988   6.025  1.00 20.00    -0.129 Cl
ENDBRANCH   1   3
BRANCH   1   5
HETATM    5  C3  UNL     1     -32.470   6.773   3.428  1.00 20.00     0.405 C 
HETATM    6  F4  UNL     1     -31.666   7.474   4.255  1.00 20.00    -0.169 F 
HETATM    7  F5  UNL     1     -31.873   5.584   3.188  1.00 20.00    -0.169 F 
HETATM    8  F6  UNL     1     -32.534   7.433   2.251  1.00 20.00    -0.169 F 
ENDBRANCH   1   5
TORSDOF 2
ENDMDL
MODEL 6
REMARK VINA RESULT:      -4.5      2.613      3.451
REMARK  2 active torsions:
REMARK  status: ('A' for Active; 'I' for Inactive)
REMARK    1  A    between atoms: C1_1  and  C2_2 
REMARK    2  A    between atoms: C2_2  and  C3_3 
ROOT
HETATM    1  C2  UNL     1     -33.861   6.567   4.025  1.00 20.00     0.203 C 
HETATM    2 CL8  UNL     1     -34.661   5.196   3.194  1.00 20.00    -0.115 Cl
ENDROOT
BRANCH   1   3
HETATM    3  C1  UNL     1     -33.779   6.313   5.529  1.00 20.00     0.143 C 
HETATM    4 CL7  UNL     1     -34.865   4.995   6.042  1.00 20.00    -0.129 Cl
ENDBRANCH   1   3
BRANCH   1   5
HETATM    5  C3  UNL     1     -32.480   6.765   3.425  1.00 20.00     0.405 C 
HETATM    6  F4  UNL     1     -32.531   7.440   2.256  1.00 20.00    -0.169 F 
HETATM    7  F5  UNL     1     -31.687   7.465   4.267  1.00 20.00    -0.169 F 
HETATM    8  F6  UNL     1     -31.872   5.581   3.194  1.00 20.00    -0.169 F 
ENDBRANCH   1   5
TORSDOF 2
ENDMDL
MODEL 7
REMARK VINA RESULT:      -4.3      0.825      2.376
REMARK  2 active torsions:
REMARK  status: ('A' for Active; 'I' for Inactive)
REMARK    1  A    between atoms: C1_1  and  C2_2 
REMARK    2  A    between atoms: C2_2  and  C3_3 
ROOT
HETATM    1  C2  UNL     1     -33.462   5.862   4.215  1.00 20.00     0.203 C 
HETATM    2 CL8  UNL     1     -32.644   7.006   3.104  1.00 20.00    -0.115 Cl
ENDROOT
BRANCH   1   3
HETATM    3  C1  UNL     1     -33.901   6.573   5.494  1.00 20.00     0.143 C 
HETATM    4 CL7  UNL     1     -34.715   5.464   6.627  1.00 20.00    -0.129 Cl
ENDBRANCH   1   3
BRANCH   1   5
HETATM    5  C3  UNL     1     -34.647   5.242   3.495  1.00 20.00     0.405 C 
HETATM    6  F4  UNL     1     -35.743   6.028   3.562  1.00 20.00    -0.169 F 
HETATM    7  F5  UNL     1     -34.365   5.044   2.188  1.00 20.00    -0.169 F 
HETATM    8  F6  UNL     1     -34.965   4.040   4.023  1.00 20.00    -0.169 F 
ENDBRANCH   1   5
TORSDOF 2
ENDMDL
MODEL 8
REMARK VINA RESULT:      -4.3      0.830      2.692
REMARK  2 active torsions:
REMARK  status: ('A' for Active; 'I' for Inactive)
REMARK    1  A    between atoms: C1_1  and  C2_2 
REMARK    2  A    between atoms: C2_2  and  C3_3 
ROOT
HETATM    1  C2  UNL     1     -33.460   5.860   4.219  1.00 20.00     0.203 C 
HETATM    2 CL8  UNL     1     -32.628   7.005   3.120  1.00 20.00    -0.115 Cl
ENDROOT
BRANCH   1   3
HETATM    3  C1  UNL     1     -33.914   6.569   5.494  1.00 20.00     0.143 C 
HETATM    4 CL7  UNL     1     -34.715   5.451   6.629  1.00 20.00    -0.129 Cl
ENDBRANCH   1   3
BRANCH   1   5
HETATM    5  C3  UNL     1     -34.637   5.243   3.485  1.00 20.00     0.405 C 
HETATM    6  F4  UNL     1     -34.366   5.045   2.176  1.00 20.00    -0.169 F 
HETATM    7  F5  UNL     1     -34.962   4.044   4.020  1.00 20.00    -0.169 F 
HETATM    8  F6  UNL     1     -35.733   6.029   3.568  1.00 20.00    -0.169 F 
ENDBRANCH   1   5
TORSDOF 2
ENDMDL
MODEL 9
REMARK VINA RESULT:      -4.1      1.966      3.213
REMARK  2 active torsions:
REMARK  status: ('A' for Active; 'I' for Inactive)
REMARK    1  A    between atoms: C1_1  and  C2_2 
REMARK    2  A    between atoms: C2_2  and  C3_3 
ROOT
HETATM    1  C2  UNL     1     -33.682   5.544   4.789  1.00 20.00     0.203 C 
HETATM    2 CL8  UNL     1     -33.694   6.895   5.966  1.00 20.00    -0.115 Cl
ENDROOT
BRANCH   1   3
HETATM    3  C1  UNL     1     -35.045   4.853   4.746  1.00 20.00     0.143 C 
HETATM    4 CL7  UNL     1     -35.425   4.035   6.284  1.00 20.00    -0.129 Cl
ENDBRANCH   1   3
BRANCH   1   5
HETATM    5  C3  UNL     1     -33.298   6.086   3.423  1.00 20.00     0.405 C 
HETATM    6  F4  UNL     1     -31.982   5.923   3.169  1.00 20.00    -0.169 F 
HETATM    7  F5  UNL     1     -33.985   5.454   2.445  1.00 20.00    -0.169 F 
HETATM    8  F6  UNL     1     -33.580   7.404   3.323  1.00 20.00    -0.169 F 
ENDBRANCH   1   5
TORSDOF 2
ENDMDL
