MODEL 1
REMARK VINA RESULT:      -3.7      0.000      0.000
REMARK  3 active torsions:
REMARK  status: ('A' for Active; 'I' for Inactive)
REMARK    1  A    between atoms: C2_2  and  C6_6 
REMARK    2  A    between atoms: C6_6  and  O9_9 
REMARK    3  A    between atoms: C7_7  and  O9_9 
ROOT
HETATM    1  O9  UNL     1     -33.359   5.153   4.323  1.00 20.00    -0.379 OA
ENDROOT
BRANCH   1   2
HETATM    2  C6  UNL     1     -33.410   6.005   3.189  1.00 20.00     0.202 C 
BRANCH   2   3
HETATM    3  C2  UNL     1     -32.030   6.575   2.938  1.00 20.00     0.169 A 
HETATM    4  C1  UNL     1     -31.563   7.819   3.640  1.00 20.00     0.202 A 
HETATM    5  O8  UNL     1     -32.023   7.846   2.280  1.00 20.00    -0.379 OA
ENDBRANCH   2   3
ENDBRANCH   1   2
BRANCH   1   6
HETATM    6  C7  UNL     1     -34.553   5.253   5.100  1.00 20.00     0.050 C 
HETATM    7  C3  UNL     1     -34.340   6.306   6.185  1.00 20.00     0.045 C 
HETATM    8  C4  UNL     1     -35.680   5.672   4.158  1.00 20.00     0.045 C 
HETATM    9  C5  UNL     1     -34.848   3.887   5.717  1.00 20.00     0.045 C 
ENDBRANCH   1   6
TORSDOF 3
ENDMDL
MODEL 2
REMARK VINA RESULT:      -3.7      0.023      1.454
REMARK  3 active torsions:
REMARK  status: ('A' for Active; 'I' for Inactive)
REMARK    1  A    between atoms: C2_2  and  C6_6 
REMARK    2  A    between atoms: C6_6  and  O9_9 
REMARK    3  A    between atoms: C7_7  and  O9_9 
ROOT
HETATM    1  O9  UNL     1     -33.355   5.176   4.344  1.00 20.00    -0.379 OA
ENDROOT
BRANCH   1   2
HETATM    2  C6  UNL     1     -33.407   6.018   3.202  1.00 20.00     0.202 C 
BRANCH   2   3
HETATM    3  C2  UNL     1     -32.027   6.582   2.941  1.00 20.00     0.169 A 
HETATM    4  C1  UNL     1     -31.547   7.820   3.644  1.00 20.00     0.202 A 
HETATM    5  O8  UNL     1     -32.018   7.855   2.288  1.00 20.00    -0.379 OA
ENDBRANCH   2   3
ENDBRANCH   1   2
BRANCH   1   6
HETATM    6  C7  UNL     1     -34.568   5.245   5.094  1.00 20.00     0.050 C 
HETATM    7  C3  UNL     1     -34.847   3.870   5.697  1.00 20.00     0.045 C 
HETATM    8  C4  UNL     1     -34.368   6.284   6.196  1.00 20.00     0.045 C 
HETATM    9  C5  UNL     1     -35.697   5.668   4.156  1.00 20.00     0.045 C 
ENDBRANCH   1   6
TORSDOF 3
ENDMDL
MODEL 3
REMARK VINA RESULT:      -3.6     11.411     12.442
REMARK  3 active torsions:
REMARK  status: ('A' for Active; 'I' for Inactive)
REMARK    1  A    between atoms: C2_2  and  C6_6 
REMARK    2  A    between atoms: C6_6  and  O9_9 
REMARK    3  A    between atoms: C7_7  and  O9_9 
ROOT
HETATM    1  O9  UNL     1     -33.692  15.679  -3.035  1.00 20.00    -0.379 OA
ENDROOT
BRANCH   1   2
HETATM    2  C6  UNL     1     -34.472  14.501  -3.160  1.00 20.00     0.202 C 
BRANCH   2   3
HETATM    3  C2  UNL     1     -34.029  13.744  -4.394  1.00 20.00     0.169 A 
HETATM    4  C1  UNL     1     -34.864  13.736  -5.643  1.00 20.00     0.202 A 
HETATM    5  O8  UNL     1     -34.854  12.625  -4.733  1.00 20.00    -0.379 OA
ENDBRANCH   2   3
ENDBRANCH   1   2
BRANCH   1   6
HETATM    6  C7  UNL     1     -34.466  16.761  -2.515  1.00 20.00     0.050 C 
HETATM    7  C3  UNL     1     -33.802  18.074  -2.923  1.00 20.00     0.045 C 
HETATM    8  C4  UNL     1     -35.865  16.655  -3.116  1.00 20.00     0.045 C 
HETATM    9  C5  UNL     1     -34.524  16.629  -0.993  1.00 20.00     0.045 C 
ENDBRANCH   1   6
TORSDOF 3
ENDMDL
MODEL 4
REMARK VINA RESULT:      -3.6     11.432     12.539
REMARK  3 active torsions:
REMARK  status: ('A' for Active; 'I' for Inactive)
REMARK    1  A    between atoms: C2_2  and  C6_6 
REMARK    2  A    between atoms: C6_6  and  O9_9 
REMARK    3  A    between atoms: C7_7  and  O9_9 
ROOT
HETATM    1  O9  UNL     1     -33.736  15.762  -3.040  1.00 20.00    -0.379 OA
ENDROOT
BRANCH   1   2
HETATM    2  C6  UNL     1     -34.500  14.570  -3.137  1.00 20.00     0.202 C 
BRANCH   2   3
HETATM    3  C2  UNL     1     -34.053  13.795  -4.357  1.00 20.00     0.169 A 
HETATM    4  C1  UNL     1     -34.901  13.735  -5.596  1.00 20.00     0.202 A 
HETATM    5  O8  UNL     1     -34.853  12.647  -4.659  1.00 20.00    -0.379 OA
ENDBRANCH   2   3
ENDBRANCH   1   2
BRANCH   1   6
HETATM    6  C7  UNL     1     -34.503  16.826  -2.477  1.00 20.00     0.050 C 
HETATM    7  C3  UNL     1     -35.897  16.804  -3.101  1.00 20.00     0.045 C 
HETATM    8  C4  UNL     1     -34.584  16.587  -0.971  1.00 20.00     0.045 C 
HETATM    9  C5  UNL     1     -33.794  18.147  -2.774  1.00 20.00     0.045 C 
ENDBRANCH   1   6
TORSDOF 3
ENDMDL
MODEL 5
REMARK VINA RESULT:      -3.4     11.517     12.927
REMARK  3 active torsions:
REMARK  status: ('A' for Active; 'I' for Inactive)
REMARK    1  A    between atoms: C2_2  and  C6_6 
REMARK    2  A    between atoms: C6_6  and  O9_9 
REMARK    3  A    between atoms: C7_7  and  O9_9 
ROOT
HETATM    1  O9  UNL     1     -35.371  15.684  -4.621  1.00 20.00    -0.379 OA
ENDROOT
BRANCH   1   2
HETATM    2  C6  UNL     1     -36.567  16.104  -3.983  1.00 20.00     0.202 C 
BRANCH   2   3
HETATM    3  C2  UNL     1     -37.719  15.266  -4.493  1.00 20.00     0.169 A 
HETATM    4  C1  UNL     1     -38.997  15.142  -3.712  1.00 20.00     0.202 A 
HETATM    5  O8  UNL     1     -38.004  14.105  -3.707  1.00 20.00    -0.379 OA
ENDBRANCH   2   3
ENDBRANCH   1   2
BRANCH   1   6
HETATM    6  C7  UNL     1     -34.395  15.263  -3.667  1.00 20.00     0.050 C 
HETATM    7  C3  UNL     1     -34.780  15.820  -2.298  1.00 20.00     0.045 C 
HETATM    8  C4  UNL     1     -34.402  13.736  -3.647  1.00 20.00     0.045 C 
HETATM    9  C5  UNL     1     -33.029  15.788  -4.105  1.00 20.00     0.045 C 
ENDBRANCH   1   6
TORSDOF 3
ENDMDL
MODEL 6
REMARK VINA RESULT:      -3.4     11.493     12.516
REMARK  3 active torsions:
REMARK  status: ('A' for Active; 'I' for Inactive)
REMARK    1  A    between atoms: C2_2  and  C6_6 
REMARK    2  A    between atoms: C6_6  and  O9_9 
REMARK    3  A    between atoms: C7_7  and  O9_9 
ROOT
HETATM    1  O9  UNL     1     -34.446  15.987  -4.278  1.00 20.00    -0.379 OA
ENDROOT
BRANCH   1   2
HETATM    2  C6  UNL     1     -33.684  16.095  -3.086  1.00 20.00     0.202 C 
BRANCH   2   3
HETATM    3  C2  UNL     1     -34.437  16.957  -2.096  1.00 20.00     0.169 A 
HETATM    4  C1  UNL     1     -33.775  17.469  -0.848  1.00 20.00     0.202 A 
HETATM    5  O8  UNL     1     -34.665  16.342  -0.824  1.00 20.00    -0.379 OA
ENDBRANCH   2   3
ENDBRANCH   1   2
BRANCH   1   6
HETATM    6  C7  UNL     1     -34.712  14.621  -4.601  1.00 20.00     0.050 C 
HETATM    7  C3  UNL     1     -36.114  14.269  -4.109  1.00 20.00     0.045 C 
HETATM    8  C4  UNL     1     -34.624  14.483  -6.119  1.00 20.00     0.045 C 
HETATM    9  C5  UNL     1     -33.660  13.747  -3.919  1.00 20.00     0.045 C 
ENDBRANCH   1   6
TORSDOF 3
ENDMDL
MODEL 7
REMARK VINA RESULT:      -3.3     12.114     13.889
REMARK  3 active torsions:
REMARK  status: ('A' for Active; 'I' for Inactive)
REMARK    1  A    between atoms: C2_2  and  C6_6 
REMARK    2  A    between atoms: C6_6  and  O9_9 
REMARK    3  A    between atoms: C7_7  and  O9_9 
ROOT
HETATM    1  O9  UNL     1     -35.628  16.132  -5.183  1.00 20.00    -0.379 OA
ENDROOT
BRANCH   1   2
HETATM    2  C6  UNL     1     -35.796  14.742  -5.414  1.00 20.00     0.202 C 
BRANCH   2   3
HETATM    3  C2  UNL     1     -35.541  13.994  -4.124  1.00 20.00     0.169 A 
HETATM    4  C1  UNL     1     -34.149  13.614  -3.707  1.00 20.00     0.202 A 
HETATM    5  O8  UNL     1     -35.047  12.662  -4.296  1.00 20.00    -0.379 OA
ENDBRANCH   2   3
ENDBRANCH   1   2
BRANCH   1   6
HETATM    6  C7  UNL     1     -34.611  16.678  -6.024  1.00 20.00     0.050 C 
HETATM    7  C3  UNL     1     -33.382  16.980  -5.169  1.00 20.00     0.045 C 
HETATM    8  C4  UNL     1     -34.282  15.630  -7.086  1.00 20.00     0.045 C 
HETATM    9  C5  UNL     1     -35.149  17.951  -6.675  1.00 20.00     0.045 C 
ENDBRANCH   1   6
TORSDOF 3
ENDMDL
MODEL 8
REMARK VINA RESULT:      -3.3     11.674     12.757
REMARK  3 active torsions:
REMARK  status: ('A' for Active; 'I' for Inactive)
REMARK    1  A    between atoms: C2_2  and  C6_6 
REMARK    2  A    between atoms: C6_6  and  O9_9 
REMARK    3  A    between atoms: C7_7  and  O9_9 
ROOT
HETATM    1  O9  UNL     1     -35.174  15.732  -3.872  1.00 20.00    -0.379 OA
ENDROOT
BRANCH   1   2
HETATM    2  C6  UNL     1     -34.975  15.470  -2.492  1.00 20.00     0.202 C 
BRANCH   2   3
HETATM    3  C2  UNL     1     -34.997  16.779  -1.733  1.00 20.00     0.169 A 
HETATM    4  C1  UNL     1     -33.746  17.347  -1.124  1.00 20.00     0.202 A 
HETATM    5  O8  UNL     1     -34.727  16.659  -0.333  1.00 20.00    -0.379 OA
ENDBRANCH   2   3
ENDBRANCH   1   2
BRANCH   1   6
HETATM    6  C7  UNL     1     -34.101  15.213  -4.658  1.00 20.00     0.050 C 
HETATM    7  C3  UNL     1     -33.152  16.359  -5.004  1.00 20.00     0.045 C 
HETATM    8  C4  UNL     1     -33.385  14.157  -3.818  1.00 20.00     0.045 C 
HETATM    9  C5  UNL     1     -34.684  14.587  -5.925  1.00 20.00     0.045 C 
ENDBRANCH   1   6
TORSDOF 3
ENDMDL
MODEL 9
REMARK VINA RESULT:      -3.3     11.189     12.411
REMARK  3 active torsions:
REMARK  status: ('A' for Active; 'I' for Inactive)
REMARK    1  A    between atoms: C2_2  and  C6_6 
REMARK    2  A    between atoms: C6_6  and  O9_9 
REMARK    3  A    between atoms: C7_7  and  O9_9 
ROOT
HETATM    1  O9  UNL     1     -36.818  13.937  -3.838  1.00 20.00    -0.379 OA
ENDROOT
BRANCH   1   2
HETATM    2  C6  UNL     1     -35.564  13.867  -4.498  1.00 20.00     0.202 C 
BRANCH   2   3
HETATM    3  C2  UNL     1     -34.460  13.908  -3.464  1.00 20.00     0.169 A 
HETATM    4  C1  UNL     1     -33.156  14.600  -3.743  1.00 20.00     0.202 A 
HETATM    5  O8  UNL     1     -33.285  13.172  -3.819  1.00 20.00    -0.379 OA
ENDBRANCH   2   3
ENDBRANCH   1   2
BRANCH   1   6
HETATM    6  C7  UNL     1     -37.600  15.028  -4.326  1.00 20.00     0.050 C 
HETATM    7  C3  UNL     1     -39.077  14.651  -4.225  1.00 20.00     0.045 C 
HETATM    8  C4  UNL     1     -37.293  16.240  -3.449  1.00 20.00     0.045 C 
HETATM    9  C5  UNL     1     -37.205  15.299  -5.776  1.00 20.00     0.045 C 
ENDBRANCH   1   6
TORSDOF 3
ENDMDL
