MODEL 1
REMARK VINA RESULT:      -4.0      0.000      0.000
REMARK  2 active torsions:
REMARK  status: ('A' for Active; 'I' for Inactive)
REMARK    1  A    between atoms: C1_1  and  C2_2 
REMARK    2  A    between atoms: C1_1  and  C3_3 
ROOT
HETATM    1  C1  UNL     1     -33.979   5.797   3.878  1.00 20.00     0.173 C 
HETATM    2  O4  UNL     1     -34.350   5.302   2.813  1.00 20.00    -0.294 OA
ENDROOT
BRANCH   1   3
HETATM    3  C2  UNL     1     -32.686   6.575   4.013  1.00 20.00     0.195 C 
HETATM    4 CL5  UNL     1     -32.326   7.460   2.523  1.00 20.00    -0.122 Cl
ENDBRANCH   1   3
BRANCH   1   5
HETATM    5  C3  UNL     1     -34.775   5.628   5.152  1.00 20.00     0.248 C 
HETATM    6 CL6  UNL     1     -33.967   6.555   6.422  1.00 20.00    -0.100 Cl
HETATM    7 CL7  UNL     1     -34.862   3.909   5.560  1.00 20.00    -0.100 Cl
ENDBRANCH   1   5
TORSDOF 2
ENDMDL
MODEL 2
REMARK VINA RESULT:      -3.9      1.040      1.869
REMARK  2 active torsions:
REMARK  status: ('A' for Active; 'I' for Inactive)
REMARK    1  A    between atoms: C1_1  and  C2_2 
REMARK    2  A    between atoms: C1_1  and  C3_3 
ROOT
HETATM    1  C1  UNL     1     -34.478   5.616   3.963  1.00 20.00     0.173 C 
HETATM    2  O4  UNL     1     -35.674   5.684   3.679  1.00 20.00    -0.294 OA
ENDROOT
BRANCH   1   3
HETATM    3  C2  UNL     1     -33.379   5.855   2.948  1.00 20.00     0.195 C 
HETATM    4 CL5  UNL     1     -32.135   6.925   3.607  1.00 20.00    -0.122 Cl
ENDBRANCH   1   3
BRANCH   1   5
HETATM    5  C3  UNL     1     -34.013   5.245   5.353  1.00 20.00     0.248 C 
HETATM    6 CL6  UNL     1     -35.081   3.974   5.959  1.00 20.00    -0.100 Cl
HETATM    7 CL7  UNL     1     -34.063   6.681   6.386  1.00 20.00    -0.100 Cl
ENDBRANCH   1   5
TORSDOF 2
ENDMDL
MODEL 3
REMARK VINA RESULT:      -3.7      1.994      2.181
REMARK  2 active torsions:
REMARK  status: ('A' for Active; 'I' for Inactive)
REMARK    1  A    between atoms: C1_1  and  C2_2 
REMARK    2  A    between atoms: C1_1  and  C3_3 
ROOT
HETATM    1  C1  UNL     1     -33.830   6.252   5.174  1.00 20.00     0.173 C 
HETATM    2  O4  UNL     1     -33.826   6.644   6.342  1.00 20.00    -0.294 OA
ENDROOT
BRANCH   1   3
HETATM    3  C2  UNL     1     -33.118   6.991   4.060  1.00 20.00     0.195 C 
HETATM    4 CL5  UNL     1     -32.170   5.873   3.069  1.00 20.00    -0.122 Cl
ENDBRANCH   1   3
BRANCH   1   5
HETATM    5  C3  UNL     1     -34.587   5.012   4.756  1.00 20.00     0.248 C 
HETATM    6 CL6  UNL     1     -35.864   5.510   3.639  1.00 20.00    -0.100 Cl
HETATM    7 CL7  UNL     1     -35.254   4.225   6.193  1.00 20.00    -0.100 Cl
ENDBRANCH   1   5
TORSDOF 2
ENDMDL
MODEL 4
REMARK VINA RESULT:      -3.6      0.825      3.055
REMARK  2 active torsions:
REMARK  status: ('A' for Active; 'I' for Inactive)
REMARK    1  A    between atoms: C1_1  and  C2_2 
REMARK    2  A    between atoms: C1_1  and  C3_3 
ROOT
HETATM    1  C1  UNL     1     -34.415   5.587   3.636  1.00 20.00     0.173 C 
HETATM    2  O4  UNL     1     -34.153   5.142   2.518  1.00 20.00    -0.294 OA
ENDROOT
BRANCH   1   3
HETATM    3  C2  UNL     1     -35.492   4.997   4.522  1.00 20.00     0.195 C 
HETATM    4 CL5  UNL     1     -34.835   3.699   5.530  1.00 20.00    -0.122 Cl
ENDBRANCH   1   3
BRANCH   1   5
HETATM    5  C3  UNL     1     -33.700   6.797   4.195  1.00 20.00     0.248 C 
HETATM    6 CL6  UNL     1     -32.057   6.802   3.543  1.00 20.00    -0.100 Cl
HETATM    7 CL7  UNL     1     -33.696   6.706   5.961  1.00 20.00    -0.100 Cl
ENDBRANCH   1   5
TORSDOF 2
ENDMDL
MODEL 5
REMARK VINA RESULT:      -3.5      1.806      2.935
REMARK  2 active torsions:
REMARK  status: ('A' for Active; 'I' for Inactive)
REMARK    1  A    between atoms: C1_1  and  C2_2 
REMARK    2  A    between atoms: C1_1  and  C3_3 
ROOT
HETATM    1  C1  UNL     1     -33.894   6.169   4.868  1.00 20.00     0.173 C 
HETATM    2  O4  UNL     1     -32.917   6.681   4.322  1.00 20.00    -0.294 OA
ENDROOT
BRANCH   1   3
HETATM    3  C2  UNL     1     -34.143   6.263   6.359  1.00 20.00     0.195 C 
HETATM    4 CL5  UNL     1     -33.222   7.597   7.068  1.00 20.00    -0.122 Cl
ENDBRANCH   1   3
BRANCH   1   5
HETATM    5  C3  UNL     1     -34.909   5.365   4.086  1.00 20.00     0.248 C 
HETATM    6 CL6  UNL     1     -35.149   3.830   4.930  1.00 20.00    -0.100 Cl
HETATM    7 CL7  UNL     1     -34.308   5.112   2.441  1.00 20.00    -0.100 Cl
ENDBRANCH   1   5
TORSDOF 2
ENDMDL
MODEL 6
REMARK VINA RESULT:      -3.5      1.847      3.790
REMARK  2 active torsions:
REMARK  status: ('A' for Active; 'I' for Inactive)
REMARK    1  A    between atoms: C1_1  and  C2_2 
REMARK    2  A    between atoms: C1_1  and  C3_3 
ROOT
HETATM    1  C1  UNL     1     -34.124   6.120   4.811  1.00 20.00     0.173 C 
HETATM    2  O4  UNL     1     -33.709   6.609   5.862  1.00 20.00    -0.294 OA
ENDROOT
BRANCH   1   3
HETATM    3  C2  UNL     1     -35.149   5.005   4.774  1.00 20.00     0.195 C 
HETATM    4 CL5  UNL     1     -35.090   4.047   6.260  1.00 20.00    -0.122 Cl
ENDBRANCH   1   3
BRANCH   1   5
HETATM    5  C3  UNL     1     -33.603   6.573   3.466  1.00 20.00     0.248 C 
HETATM    6 CL6  UNL     1     -33.844   5.250   2.319  1.00 20.00    -0.100 Cl
HETATM    7 CL7  UNL     1     -31.892   6.996   3.617  1.00 20.00    -0.100 Cl
ENDBRANCH   1   5
TORSDOF 2
ENDMDL
MODEL 7
REMARK VINA RESULT:      -3.5      2.091      2.208
REMARK  2 active torsions:
REMARK  status: ('A' for Active; 'I' for Inactive)
REMARK    1  A    between atoms: C1_1  and  C2_2 
REMARK    2  A    between atoms: C1_1  and  C3_3 
ROOT
HETATM    1  C1  UNL     1     -33.604   6.201   4.353  1.00 20.00     0.173 C 
HETATM    2  O4  UNL     1     -32.540   6.778   4.129  1.00 20.00    -0.294 OA
ENDROOT
BRANCH   1   3
HETATM    3  C2  UNL     1     -34.369   5.447   3.285  1.00 20.00     0.195 C 
HETATM    4 CL5  UNL     1     -36.113   5.671   3.483  1.00 20.00    -0.122 Cl
ENDBRANCH   1   3
BRANCH   1   5
HETATM    5  C3  UNL     1     -34.253   6.236   5.719  1.00 20.00     0.248 C 
HETATM    6 CL6  UNL     1     -33.235   7.221   6.776  1.00 20.00    -0.100 Cl
HETATM    7 CL7  UNL     1     -34.413   4.584   6.330  1.00 20.00    -0.100 Cl
ENDBRANCH   1   5
TORSDOF 2
ENDMDL
MODEL 8
REMARK VINA RESULT:      -3.5      1.973      3.177
REMARK  2 active torsions:
REMARK  status: ('A' for Active; 'I' for Inactive)
REMARK    1  A    between atoms: C1_1  and  C2_2 
REMARK    2  A    between atoms: C1_1  and  C3_3 
ROOT
HETATM    1  C1  UNL     1     -34.754   4.827   5.096  1.00 20.00     0.173 C 
HETATM    2  O4  UNL     1     -35.098   3.695   4.758  1.00 20.00    -0.294 OA
ENDROOT
BRANCH   1   3
HETATM    3  C2  UNL     1     -34.479   5.205   6.537  1.00 20.00     0.195 C 
HETATM    4 CL5  UNL     1     -33.861   6.859   6.647  1.00 20.00    -0.122 Cl
ENDBRANCH   1   3
BRANCH   1   5
HETATM    5  C3  UNL     1     -34.617   5.948   4.091  1.00 20.00     0.248 C 
HETATM    6 CL6  UNL     1     -36.028   5.895   3.027  1.00 20.00    -0.100 Cl
HETATM    7 CL7  UNL     1     -33.114   5.736   3.183  1.00 20.00    -0.100 Cl
ENDBRANCH   1   5
TORSDOF 2
ENDMDL
MODEL 9
REMARK VINA RESULT:      -3.5      1.824      2.228
REMARK  2 active torsions:
REMARK  status: ('A' for Active; 'I' for Inactive)
REMARK    1  A    between atoms: C1_1  and  C2_2 
REMARK    2  A    between atoms: C1_1  and  C3_3 
ROOT
HETATM    1  C1  UNL     1     -33.468   6.265   4.376  1.00 20.00     0.173 C 
HETATM    2  O4  UNL     1     -33.433   6.769   5.499  1.00 20.00    -0.294 OA
ENDROOT
BRANCH   1   3
HETATM    3  C2  UNL     1     -32.289   6.294   3.427  1.00 20.00     0.195 C 
HETATM    4 CL5  UNL     1     -32.254   7.808   2.512  1.00 20.00    -0.122 Cl
ENDBRANCH   1   3
BRANCH   1   5
HETATM    5  C3  UNL     1     -34.721   5.609   3.841  1.00 20.00     0.248 C 
HETATM    6 CL6  UNL     1     -35.153   4.293   4.940  1.00 20.00    -0.100 Cl
HETATM    7 CL7  UNL     1     -34.412   5.011   2.206  1.00 20.00    -0.100 Cl
ENDBRANCH   1   5
TORSDOF 2
ENDMDL
