MODEL 1
REMARK VINA RESULT:      -3.7      0.000      0.000
REMARK  2 active torsions:
REMARK  status: ('A' for Active; 'I' for Inactive)
REMARK    1  A    between atoms: C1_1  and  C6_6 
REMARK    2  A    between atoms: C6_6  and  O8_8 
ROOT
HETATM    1  C3  UNL     1     -35.744  15.747  -2.946  1.00 20.00     0.054 C 
HETATM    2  C4  UNL     1     -36.212  15.407  -5.387  1.00 20.00     0.054 C 
HETATM    3  C6  UNL     1     -36.020  14.716  -4.039  1.00 20.00     0.112 C 
ENDROOT
BRANCH   3   4
HETATM    4  C1  UNL     1     -34.883  13.693  -4.136  1.00 20.00     0.156 C 
HETATM    5  C2  UNL     1     -33.504  14.126  -3.698  1.00 20.00     0.094 C 
HETATM    6  O7  UNL     1     -35.075  12.539  -4.525  1.00 20.00    -0.295 OA
ENDBRANCH   3   4
BRANCH   3   7
HETATM    7  O8  UNL     1     -37.224  14.032  -3.716  1.00 20.00    -0.378 OA
HETATM    8  C5  UNL     1     -38.368  14.822  -4.011  1.00 20.00     0.203 C 
ENDBRANCH   3   7
TORSDOF 2
ENDMDL
MODEL 2
REMARK VINA RESULT:      -3.6      1.685      3.103
REMARK  2 active torsions:
REMARK  status: ('A' for Active; 'I' for Inactive)
REMARK    1  A    between atoms: C1_1  and  C6_6 
REMARK    2  A    between atoms: C6_6  and  O8_8 
ROOT
HETATM    1  C3  UNL     1     -34.367  15.648  -2.638  1.00 20.00     0.054 C 
HETATM    2  C4  UNL     1     -32.835  13.849  -3.480  1.00 20.00     0.054 C 
HETATM    3  C6  UNL     1     -34.058  14.705  -3.801  1.00 20.00     0.112 C 
ENDROOT
BRANCH   3   4
HETATM    4  C1  UNL     1     -35.257  13.803  -4.117  1.00 20.00     0.156 C 
HETATM    5  C2  UNL     1     -36.637  14.415  -4.055  1.00 20.00     0.094 C 
HETATM    6  O7  UNL     1     -35.117  12.624  -4.445  1.00 20.00    -0.295 OA
ENDBRANCH   3   4
BRANCH   3   7
HETATM    7  O8  UNL     1     -33.762  15.491  -4.947  1.00 20.00    -0.378 OA
HETATM    8  C5  UNL     1     -33.535  16.851  -4.603  1.00 20.00     0.203 C 
ENDBRANCH   3   7
TORSDOF 2
ENDMDL
MODEL 3
REMARK VINA RESULT:      -3.5      1.952      3.156
REMARK  2 active torsions:
REMARK  status: ('A' for Active; 'I' for Inactive)
REMARK    1  A    between atoms: C1_1  and  C6_6 
REMARK    2  A    between atoms: C6_6  and  O8_8 
ROOT
HETATM    1  C3  UNL     1     -34.897  15.371  -3.080  1.00 20.00     0.054 C 
HETATM    2  C4  UNL     1     -32.726  14.192  -3.513  1.00 20.00     0.054 C 
HETATM    3  C6  UNL     1     -33.954  14.833  -4.156  1.00 20.00     0.112 C 
ENDROOT
BRANCH   3   4
HETATM    4  C1  UNL     1     -34.663  13.814  -5.055  1.00 20.00     0.156 C 
HETATM    5  C2  UNL     1     -35.113  14.271  -6.423  1.00 20.00     0.094 C 
HETATM    6  O7  UNL     1     -34.842  12.647  -4.703  1.00 20.00    -0.295 OA
ENDBRANCH   3   4
BRANCH   3   7
HETATM    7  O8  UNL     1     -33.518  15.924  -4.956  1.00 20.00    -0.378 OA
HETATM    8  C5  UNL     1     -33.684  17.164  -4.282  1.00 20.00     0.203 C 
ENDBRANCH   3   7
TORSDOF 2
ENDMDL
MODEL 4
REMARK VINA RESULT:      -3.5     11.750     12.555
REMARK  2 active torsions:
REMARK  status: ('A' for Active; 'I' for Inactive)
REMARK    1  A    between atoms: C1_1  and  C6_6 
REMARK    2  A    between atoms: C6_6  and  O8_8 
ROOT
HETATM    1  C3  UNL     1     -34.021   4.873   2.665  1.00 20.00     0.054 C 
HETATM    2  C4  UNL     1     -36.101   6.064   3.405  1.00 20.00     0.054 C 
HETATM    3  C6  UNL     1     -34.706   5.603   3.820  1.00 20.00     0.112 C 
ENDROOT
BRANCH   3   4
HETATM    4  C1  UNL     1     -34.800   4.710   5.062  1.00 20.00     0.156 C 
HETATM    5  C2  UNL     1     -34.565   5.348   6.411  1.00 20.00     0.094 C 
HETATM    6  O7  UNL     1     -35.089   3.514   4.985  1.00 20.00    -0.295 OA
ENDBRANCH   3   4
BRANCH   3   7
HETATM    7  O8  UNL     1     -33.935   6.753   4.142  1.00 20.00    -0.378 OA
HETATM    8  C5  UNL     1     -32.673   6.735   3.489  1.00 20.00     0.203 C 
ENDBRANCH   3   7
TORSDOF 2
ENDMDL
MODEL 5
REMARK VINA RESULT:      -3.5      1.847      2.727
REMARK  2 active torsions:
REMARK  status: ('A' for Active; 'I' for Inactive)
REMARK    1  A    between atoms: C1_1  and  C6_6 
REMARK    2  A    between atoms: C6_6  and  O8_8 
ROOT
HETATM    1  C3  UNL     1     -36.136  15.207  -5.504  1.00 20.00     0.054 C 
HETATM    2  C4  UNL     1     -33.783  16.044  -5.268  1.00 20.00     0.054 C 
HETATM    3  C6  UNL     1     -34.656  14.846  -5.630  1.00 20.00     0.112 C 
ENDROOT
BRANCH   3   4
HETATM    4  C1  UNL     1     -34.299  13.652  -4.738  1.00 20.00     0.156 C 
HETATM    5  C2  UNL     1     -33.237  13.852  -3.682  1.00 20.00     0.094 C 
HETATM    6  O7  UNL     1     -34.872  12.566  -4.842  1.00 20.00    -0.295 OA
ENDBRANCH   3   4
BRANCH   3   7
HETATM    7  O8  UNL     1     -34.394  14.499  -6.984  1.00 20.00    -0.378 OA
HETATM    8  C5  UNL     1     -35.586  14.479  -7.757  1.00 20.00     0.203 C 
ENDBRANCH   3   7
TORSDOF 2
ENDMDL
MODEL 6
REMARK VINA RESULT:      -3.5      1.593      2.454
REMARK  2 active torsions:
REMARK  status: ('A' for Active; 'I' for Inactive)
REMARK    1  A    between atoms: C1_1  and  C6_6 
REMARK    2  A    between atoms: C6_6  and  O8_8 
ROOT
HETATM    1  C3  UNL     1     -36.739  14.940  -3.528  1.00 20.00     0.054 C 
HETATM    2  C4  UNL     1     -34.674  15.789  -2.384  1.00 20.00     0.054 C 
HETATM    3  C6  UNL     1     -35.226  15.124  -3.643  1.00 20.00     0.112 C 
ENDROOT
BRANCH   3   4
HETATM    4  C1  UNL     1     -34.520  13.783  -3.876  1.00 20.00     0.156 C 
HETATM    5  C2  UNL     1     -33.036  13.710  -3.607  1.00 20.00     0.094 C 
HETATM    6  O7  UNL     1     -35.134  12.779  -4.240  1.00 20.00    -0.295 OA
ENDBRANCH   3   4
BRANCH   3   7
HETATM    7  O8  UNL     1     -34.961  15.978  -4.747  1.00 20.00    -0.378 OA
HETATM    8  C5  UNL     1     -34.159  17.089  -4.369  1.00 20.00     0.203 C 
ENDBRANCH   3   7
TORSDOF 2
ENDMDL
MODEL 7
REMARK VINA RESULT:      -3.5      2.088      2.807
REMARK  2 active torsions:
REMARK  status: ('A' for Active; 'I' for Inactive)
REMARK    1  A    between atoms: C1_1  and  C6_6 
REMARK    2  A    between atoms: C6_6  and  O8_8 
ROOT
HETATM    1  C3  UNL     1     -32.720  14.066  -3.483  1.00 20.00     0.054 C 
HETATM    2  C4  UNL     1     -33.575  16.013  -4.813  1.00 20.00     0.054 C 
HETATM    3  C6  UNL     1     -33.957  14.719  -4.100  1.00 20.00     0.112 C 
ENDROOT
BRANCH   3   4
HETATM    4  C1  UNL     1     -34.654  13.769  -5.081  1.00 20.00     0.156 C 
HETATM    5  C2  UNL     1     -35.046  14.314  -6.434  1.00 20.00     0.094 C 
HETATM    6  O7  UNL     1     -34.868  12.587  -4.804  1.00 20.00    -0.295 OA
ENDBRANCH   3   4
BRANCH   3   7
HETATM    7  O8  UNL     1     -34.863  15.040  -3.052  1.00 20.00    -0.378 OA
HETATM    8  C5  UNL     1     -34.357  16.079  -2.226  1.00 20.00     0.203 C 
ENDBRANCH   3   7
TORSDOF 2
ENDMDL
MODEL 8
REMARK VINA RESULT:      -3.5      1.712      2.051
REMARK  2 active torsions:
REMARK  status: ('A' for Active; 'I' for Inactive)
REMARK    1  A    between atoms: C1_1  and  C6_6 
REMARK    2  A    between atoms: C6_6  and  O8_8 
ROOT
HETATM    1  C3  UNL     1     -33.843  15.935  -5.588  1.00 20.00     0.054 C 
HETATM    2  C4  UNL     1     -35.232  14.315  -6.907  1.00 20.00     0.054 C 
HETATM    3  C6  UNL     1     -34.900  14.834  -5.510  1.00 20.00     0.112 C 
ENDROOT
BRANCH   3   4
HETATM    4  C1  UNL     1     -34.429  13.676  -4.623  1.00 20.00     0.156 C 
HETATM    5  C2  UNL     1     -33.241  13.915  -3.721  1.00 20.00     0.094 C 
HETATM    6  O7  UNL     1     -35.008  12.588  -4.608  1.00 20.00    -0.295 OA
ENDBRANCH   3   4
BRANCH   3   7
HETATM    7  O8  UNL     1     -36.082  15.388  -4.950  1.00 20.00    -0.378 OA
HETATM    8  C5  UNL     1     -35.834  16.653  -4.352  1.00 20.00     0.203 C 
ENDBRANCH   3   7
TORSDOF 2
ENDMDL
MODEL 9
REMARK VINA RESULT:      -3.4      1.260      1.955
REMARK  2 active torsions:
REMARK  status: ('A' for Active; 'I' for Inactive)
REMARK    1  A    between atoms: C1_1  and  C6_6 
REMARK    2  A    between atoms: C6_6  and  O8_8 
ROOT
HETATM    1  C3  UNL     1     -35.173  16.025  -4.859  1.00 20.00     0.054 C 
HETATM    2  C4  UNL     1     -37.009  14.548  -3.998  1.00 20.00     0.054 C 
HETATM    3  C6  UNL     1     -35.541  14.941  -3.846  1.00 20.00     0.112 C 
ENDROOT
BRANCH   3   4
HETATM    4  C1  UNL     1     -34.651  13.704  -4.010  1.00 20.00     0.156 C 
HETATM    5  C2  UNL     1     -33.186  13.838  -3.668  1.00 20.00     0.094 C 
HETATM    6  O7  UNL     1     -35.104  12.619  -4.378  1.00 20.00    -0.295 OA
ENDBRANCH   3   4
BRANCH   3   7
HETATM    7  O8  UNL     1     -35.356  15.468  -2.539  1.00 20.00    -0.378 OA
HETATM    8  C5  UNL     1     -35.324  16.889  -2.549  1.00 20.00     0.203 C 
ENDBRANCH   3   7
TORSDOF 2
ENDMDL
