MODEL 1
REMARK VINA RESULT:      -3.5      0.000      0.000
REMARK  2 active torsions:
REMARK  status: ('A' for Active; 'I' for Inactive)
REMARK    1  A    between atoms: C7_7  and  O9_9 
REMARK    2  A    between atoms: C8_8  and  O9_9 
ROOT
HETATM    1  O9  UNL     1     -35.142  15.119  -2.943  1.00 20.00    -0.371 OA
ENDROOT
BRANCH   1   2
HETATM    2  C7  UNL     1     -34.942  16.484  -2.572  1.00 20.00     0.051 C 
HETATM    3  C1  UNL     1     -36.227  17.259  -2.862  1.00 20.00     0.045 C 
HETATM    4  C2  UNL     1     -34.622  16.512  -1.079  1.00 20.00     0.045 C 
HETATM    5  C3  UNL     1     -33.774  17.043  -3.382  1.00 20.00     0.045 C 
ENDBRANCH   1   2
BRANCH   1   6
HETATM    6  C8  UNL     1     -34.338  14.766  -4.057  1.00 20.00     0.051 C 
HETATM    7  C4  UNL     1     -32.869  14.898  -3.659  1.00 20.00     0.045 C 
HETATM    8  C5  UNL     1     -34.668  13.321  -4.424  1.00 20.00     0.045 C 
HETATM    9  C6  UNL     1     -34.674  15.705  -5.216  1.00 20.00     0.045 C 
ENDBRANCH   1   6
TORSDOF 2
ENDMDL
MODEL 2
REMARK VINA RESULT:      -3.5      0.029      3.346
REMARK  2 active torsions:
REMARK  status: ('A' for Active; 'I' for Inactive)
REMARK    1  A    between atoms: C7_7  and  O9_9 
REMARK    2  A    between atoms: C8_8  and  O9_9 
ROOT
HETATM    1  O9  UNL     1     -35.132  15.129  -2.908  1.00 20.00    -0.371 OA
ENDROOT
BRANCH   1   2
HETATM    2  C7  UNL     1     -34.332  14.781  -4.040  1.00 20.00     0.051 C 
HETATM    3  C1  UNL     1     -32.860  14.920  -3.657  1.00 20.00     0.045 C 
HETATM    4  C2  UNL     1     -34.659  13.335  -4.406  1.00 20.00     0.045 C 
HETATM    5  C3  UNL     1     -34.687  15.719  -5.193  1.00 20.00     0.045 C 
ENDBRANCH   1   2
BRANCH   1   6
HETATM    6  C8  UNL     1     -34.946  16.488  -2.546  1.00 20.00     0.051 C 
HETATM    7  C4  UNL     1     -36.240  17.249  -2.830  1.00 20.00     0.045 C 
HETATM    8  C5  UNL     1     -34.616  16.525  -1.055  1.00 20.00     0.045 C 
HETATM    9  C6  UNL     1     -33.788  17.057  -3.366  1.00 20.00     0.045 C 
ENDBRANCH   1   6
TORSDOF 2
ENDMDL
MODEL 3
REMARK VINA RESULT:      -3.5     11.116     12.369
REMARK  2 active torsions:
REMARK  status: ('A' for Active; 'I' for Inactive)
REMARK    1  A    between atoms: C7_7  and  O9_9 
REMARK    2  A    between atoms: C8_8  and  O9_9 
ROOT
HETATM    1  O9  UNL     1     -41.278   6.610  -2.174  1.00 20.00    -0.371 OA
ENDROOT
BRANCH   1   2
HETATM    2  C7  UNL     1     -41.400   5.713  -1.069  1.00 20.00     0.051 C 
HETATM    3  C1  UNL     1     -40.942   4.326  -1.516  1.00 20.00     0.045 C 
HETATM    4  C2  UNL     1     -40.507   6.241   0.051  1.00 20.00     0.045 C 
HETATM    5  C3  UNL     1     -42.862   5.687  -0.623  1.00 20.00     0.045 C 
ENDBRANCH   1   2
BRANCH   1   6
HETATM    6  C8  UNL     1     -42.547   7.086  -2.593  1.00 20.00     0.051 C 
HETATM    7  C4  UNL     1     -43.175   7.875  -1.445  1.00 20.00     0.045 C 
HETATM    8  C5  UNL     1     -42.323   7.987  -3.806  1.00 20.00     0.045 C 
HETATM    9  C6  UNL     1     -43.417   5.887  -2.969  1.00 20.00     0.045 C 
ENDBRANCH   1   6
TORSDOF 2
ENDMDL
MODEL 4
REMARK VINA RESULT:      -3.5     11.132     12.327
REMARK  2 active torsions:
REMARK  status: ('A' for Active; 'I' for Inactive)
REMARK    1  A    between atoms: C7_7  and  O9_9 
REMARK    2  A    between atoms: C8_8  and  O9_9 
ROOT
HETATM    1  O9  UNL     1     -41.286   6.640  -2.146  1.00 20.00    -0.371 OA
ENDROOT
BRANCH   1   2
HETATM    2  C7  UNL     1     -42.565   7.085  -2.601  1.00 20.00     0.051 C 
HETATM    3  C1  UNL     1     -43.231   7.878  -1.478  1.00 20.00     0.045 C 
HETATM    4  C2  UNL     1     -42.335   7.971  -3.823  1.00 20.00     0.045 C 
HETATM    5  C3  UNL     1     -43.400   5.861  -2.974  1.00 20.00     0.045 C 
ENDBRANCH   1   2
BRANCH   1   6
HETATM    6  C8  UNL     1     -41.411   5.744  -1.054  1.00 20.00     0.051 C 
HETATM    7  C4  UNL     1     -40.991   4.350  -1.517  1.00 20.00     0.045 C 
HETATM    8  C5  UNL     1     -40.490   6.241   0.058  1.00 20.00     0.045 C 
HETATM    9  C6  UNL     1     -42.867   5.746  -0.587  1.00 20.00     0.045 C 
ENDBRANCH   1   6
TORSDOF 2
ENDMDL
MODEL 5
REMARK VINA RESULT:      -3.5     11.106     12.312
REMARK  2 active torsions:
REMARK  status: ('A' for Active; 'I' for Inactive)
REMARK    1  A    between atoms: C7_7  and  O9_9 
REMARK    2  A    between atoms: C8_8  and  O9_9 
ROOT
HETATM    1  O9  UNL     1     -41.269   6.612  -2.174  1.00 20.00    -0.371 OA
ENDROOT
BRANCH   1   2
HETATM    2  C7  UNL     1     -42.543   7.095  -2.603  1.00 20.00     0.051 C 
HETATM    3  C1  UNL     1     -43.169   7.895  -1.461  1.00 20.00     0.045 C 
HETATM    4  C2  UNL     1     -42.309   7.988  -3.819  1.00 20.00     0.045 C 
HETATM    5  C3  UNL     1     -43.417   5.899  -2.974  1.00 20.00     0.045 C 
ENDBRANCH   1   2
BRANCH   1   6
HETATM    6  C8  UNL     1     -41.398   5.737  -1.064  1.00 20.00     0.051 C 
HETATM    7  C4  UNL     1     -42.862   5.713  -0.630  1.00 20.00     0.045 C 
HETATM    8  C5  UNL     1     -40.948   4.350  -1.518  1.00 20.00     0.045 C 
HETATM    9  C6  UNL     1     -40.503   6.249   0.065  1.00 20.00     0.045 C 
ENDBRANCH   1   6
TORSDOF 2
ENDMDL
MODEL 6
REMARK VINA RESULT:      -3.5      1.368      3.250
REMARK  2 active torsions:
REMARK  status: ('A' for Active; 'I' for Inactive)
REMARK    1  A    between atoms: C7_7  and  O9_9 
REMARK    2  A    between atoms: C8_8  and  O9_9 
ROOT
HETATM    1  O9  UNL     1     -35.012  15.982  -4.491  1.00 20.00    -0.371 OA
ENDROOT
BRANCH   1   2
HETATM    2  C7  UNL     1     -35.370  14.600  -4.546  1.00 20.00     0.051 C 
HETATM    3  C1  UNL     1     -36.823  14.455  -4.097  1.00 20.00     0.045 C 
HETATM    4  C2  UNL     1     -35.206  14.140  -5.993  1.00 20.00     0.045 C 
HETATM    5  C3  UNL     1     -34.434  13.819  -3.625  1.00 20.00     0.045 C 
ENDBRANCH   1   2
BRANCH   1   6
HETATM    6  C8  UNL     1     -34.086  16.233  -3.446  1.00 20.00     0.051 C 
HETATM    7  C4  UNL     1     -32.851  15.361  -3.671  1.00 20.00     0.045 C 
HETATM    8  C5  UNL     1     -33.718  17.713  -3.504  1.00 20.00     0.045 C 
HETATM    9  C6  UNL     1     -34.754  15.897  -2.113  1.00 20.00     0.045 C 
ENDBRANCH   1   6
TORSDOF 2
ENDMDL
MODEL 7
REMARK VINA RESULT:      -3.5      1.557      2.894
REMARK  2 active torsions:
REMARK  status: ('A' for Active; 'I' for Inactive)
REMARK    1  A    between atoms: C7_7  and  O9_9 
REMARK    2  A    between atoms: C8_8  and  O9_9 
ROOT
HETATM    1  O9  UNL     1     -34.329  15.710  -4.917  1.00 20.00    -0.371 OA
ENDROOT
BRANCH   1   2
HETATM    2  C7  UNL     1     -34.474  15.222  -3.582  1.00 20.00     0.051 C 
HETATM    3  C1  UNL     1     -33.823  13.842  -3.497  1.00 20.00     0.045 C 
HETATM    4  C2  UNL     1     -33.768  16.208  -2.654  1.00 20.00     0.045 C 
HETATM    5  C3  UNL     1     -35.963  15.144  -3.252  1.00 20.00     0.045 C 
ENDBRANCH   1   2
BRANCH   1   6
HETATM    6  C8  UNL     1     -35.023  14.890  -5.843  1.00 20.00     0.051 C 
HETATM    7  C4  UNL     1     -36.483  15.336  -5.890  1.00 20.00     0.045 C 
HETATM    8  C5  UNL     1     -34.360  15.074  -7.207  1.00 20.00     0.045 C 
HETATM    9  C6  UNL     1     -34.912  13.436  -5.384  1.00 20.00     0.045 C 
ENDBRANCH   1   6
TORSDOF 2
ENDMDL
MODEL 8
REMARK VINA RESULT:      -3.5      1.194      3.324
REMARK  2 active torsions:
REMARK  status: ('A' for Active; 'I' for Inactive)
REMARK    1  A    between atoms: C7_7  and  O9_9 
REMARK    2  A    between atoms: C8_8  and  O9_9 
ROOT
HETATM    1  O9  UNL     1     -35.236  15.575  -3.892  1.00 20.00    -0.371 OA
ENDROOT
BRANCH   1   2
HETATM    2  C7  UNL     1     -35.107  14.938  -5.164  1.00 20.00     0.051 C 
HETATM    3  C1  UNL     1     -34.702  13.481  -4.939  1.00 20.00     0.045 C 
HETATM    4  C2  UNL     1     -36.464  15.018  -5.858  1.00 20.00     0.045 C 
HETATM    5  C3  UNL     1     -34.045  15.680  -5.973  1.00 20.00     0.045 C 
ENDBRANCH   1   2
BRANCH   1   6
HETATM    6  C8  UNL     1     -33.992  16.088  -3.444  1.00 20.00     0.051 C 
HETATM    7  C4  UNL     1     -33.667  17.346  -4.249  1.00 20.00     0.045 C 
HETATM    8  C5  UNL     1     -34.138  16.421  -1.961  1.00 20.00     0.045 C 
HETATM    9  C6  UNL     1     -32.921  15.017  -3.652  1.00 20.00     0.045 C 
ENDBRANCH   1   6
TORSDOF 2
ENDMDL
MODEL 9
REMARK VINA RESULT:      -3.4      1.183      1.965
REMARK  2 active torsions:
REMARK  status: ('A' for Active; 'I' for Inactive)
REMARK    1  A    between atoms: C7_7  and  O9_9 
REMARK    2  A    between atoms: C8_8  and  O9_9 
ROOT
HETATM    1  O9  UNL     1     -35.249  15.563  -3.906  1.00 20.00    -0.371 OA
ENDROOT
BRANCH   1   2
HETATM    2  C7  UNL     1     -34.009  16.086  -3.428  1.00 20.00     0.051 C 
HETATM    3  C1  UNL     1     -33.689  17.363  -4.204  1.00 20.00     0.045 C 
HETATM    4  C2  UNL     1     -34.180  16.388  -1.941  1.00 20.00     0.045 C 
HETATM    5  C3  UNL     1     -32.923  15.033  -3.641  1.00 20.00     0.045 C 
ENDBRANCH   1   2
BRANCH   1   6
HETATM    6  C8  UNL     1     -35.092  14.940  -5.170  1.00 20.00     0.051 C 
HETATM    7  C4  UNL     1     -34.671  13.488  -4.949  1.00 20.00     0.045 C 
HETATM    8  C5  UNL     1     -36.440  15.006  -5.886  1.00 20.00     0.045 C 
HETATM    9  C6  UNL     1     -34.027  15.702  -5.959  1.00 20.00     0.045 C 
ENDBRANCH   1   6
TORSDOF 2
ENDMDL
