MODEL 1
REMARK VINA RESULT:      -4.4      0.000      0.000
REMARK  3 active torsions:
REMARK  status: ('A' for Active; 'I' for Inactive)
REMARK    1  A    between atoms: C2_2  and  C7_7 
REMARK    2  A    between atoms: C5_5  and  C6_6 
REMARK    3  A    between atoms: C6_6  and  C7_7 
ROOT
HETATM    1  C4  UNL     1     -35.306   5.386   3.653  1.00 20.00     0.012 C 
HETATM    2  C7  UNL     1     -34.122   6.263   4.061  1.00 20.00     0.012 C 
ENDROOT
BRANCH   2   3
HETATM    3  C2  UNL     1     -33.670   5.893   5.477  1.00 20.00     0.149 A 
HETATM    4  C1  UNL     1     -33.825   6.858   6.620  1.00 20.00     0.200 A 
HETATM    5  O8  UNL     1     -34.734   5.762   6.425  1.00 20.00    -0.381 OA
ENDBRANCH   2   3
BRANCH   2   6
HETATM    6  C6  UNL     1     -32.935   6.140   3.086  1.00 20.00     0.006 C 
BRANCH   6   7
HETATM    7  C5  UNL     1     -31.935   7.292   3.194  1.00 20.00    -0.004 C 
HETATM    8  C3  UNL     1     -32.062   8.247   2.016  1.00 20.00     0.005 C 
ENDBRANCH   6   7
ENDBRANCH   2   6
TORSDOF 3
ENDMDL
MODEL 2
REMARK VINA RESULT:      -4.2      1.994      3.958
REMARK  3 active torsions:
REMARK  status: ('A' for Active; 'I' for Inactive)
REMARK    1  A    between atoms: C2_2  and  C7_7 
REMARK    2  A    between atoms: C5_5  and  C6_6 
REMARK    3  A    between atoms: C6_6  and  C7_7 
ROOT
HETATM    1  C4  UNL     1     -33.448   6.808   5.395  1.00 20.00     0.012 C 
HETATM    2  C7  UNL     1     -33.720   6.623   3.902  1.00 20.00     0.012 C 
ENDROOT
BRANCH   2   3
HETATM    3  C2  UNL     1     -32.403   6.686   3.125  1.00 20.00     0.149 A 
HETATM    4  C1  UNL     1     -32.041   7.891   2.301  1.00 20.00     0.200 A 
HETATM    5  O8  UNL     1     -31.476   7.666   3.603  1.00 20.00    -0.381 OA
ENDBRANCH   2   3
BRANCH   2   6
HETATM    6  C6  UNL     1     -34.444   5.298   3.596  1.00 20.00     0.006 C 
BRANCH   6   7
HETATM    7  C5  UNL     1     -35.456   4.894   4.669  1.00 20.00    -0.004 C 
HETATM    8  C3  UNL     1     -34.867   3.870   5.629  1.00 20.00     0.005 C 
ENDBRANCH   6   7
ENDBRANCH   2   6
TORSDOF 3
ENDMDL
MODEL 3
REMARK VINA RESULT:      -4.2      1.169      2.044
REMARK  3 active torsions:
REMARK  status: ('A' for Active; 'I' for Inactive)
REMARK    1  A    between atoms: C2_2  and  C7_7 
REMARK    2  A    between atoms: C5_5  and  C6_6 
REMARK    3  A    between atoms: C6_6  and  C7_7 
ROOT
HETATM    1  C4  UNL     1     -33.741   6.898   6.364  1.00 20.00     0.012 C 
HETATM    2  C7  UNL     1     -33.758   6.001   5.126  1.00 20.00     0.012 C 
ENDROOT
BRANCH   2   3
HETATM    3  C2  UNL     1     -35.038   5.162   5.113  1.00 20.00     0.149 A 
HETATM    4  C1  UNL     1     -34.987   3.662   5.200  1.00 20.00     0.200 A 
HETATM    5  O8  UNL     1     -35.312   4.476   6.338  1.00 20.00    -0.381 OA
ENDBRANCH   2   3
BRANCH   2   6
HETATM    6  C6  UNL     1     -33.647   6.804   3.816  1.00 20.00     0.006 C 
BRANCH   6   7
HETATM    7  C5  UNL     1     -32.229   6.845   3.244  1.00 20.00    -0.004 C 
HETATM    8  C3  UNL     1     -32.060   7.994   2.261  1.00 20.00     0.005 C 
ENDBRANCH   6   7
ENDBRANCH   2   6
TORSDOF 3
ENDMDL
MODEL 4
REMARK VINA RESULT:      -3.7      1.841      3.669
REMARK  3 active torsions:
REMARK  status: ('A' for Active; 'I' for Inactive)
REMARK    1  A    between atoms: C2_2  and  C7_7 
REMARK    2  A    between atoms: C5_5  and  C6_6 
REMARK    3  A    between atoms: C6_6  and  C7_7 
ROOT
HETATM    1  C4  UNL     1     -34.577   5.470   2.769  1.00 20.00     0.012 C 
HETATM    2  C7  UNL     1     -33.501   5.645   3.841  1.00 20.00     0.012 C 
ENDROOT
BRANCH   2   3
HETATM    3  C2  UNL     1     -32.234   6.228   3.211  1.00 20.00     0.149 A 
HETATM    4  C1  UNL     1     -32.236   7.593   2.579  1.00 20.00     0.200 A 
HETATM    5  O8  UNL     1     -31.701   7.368   3.893  1.00 20.00    -0.381 OA
ENDBRANCH   2   3
BRANCH   2   6
HETATM    6  C6  UNL     1     -33.968   6.544   5.002  1.00 20.00     0.006 C 
BRANCH   6   7
HETATM    7  C5  UNL     1     -34.281   5.771   6.284  1.00 20.00    -0.004 C 
HETATM    8  C3  UNL     1     -34.898   4.414   5.977  1.00 20.00     0.005 C 
ENDBRANCH   6   7
ENDBRANCH   2   6
TORSDOF 3
ENDMDL
MODEL 5
REMARK VINA RESULT:      -3.7     11.128     11.862
REMARK  3 active torsions:
REMARK  status: ('A' for Active; 'I' for Inactive)
REMARK    1  A    between atoms: C2_2  and  C7_7 
REMARK    2  A    between atoms: C5_5  and  C6_6 
REMARK    3  A    between atoms: C6_6  and  C7_7 
ROOT
HETATM    1  C4  UNL     1     -32.753  15.291  -3.477  1.00 20.00     0.012 C 
HETATM    2  C7  UNL     1     -34.279  15.221  -3.545  1.00 20.00     0.012 C 
ENDROOT
BRANCH   2   3
HETATM    3  C2  UNL     1     -34.721  13.770  -3.748  1.00 20.00     0.149 A 
HETATM    4  C1  UNL     1     -34.983  13.220  -5.123  1.00 20.00     0.200 A 
HETATM    5  O8  UNL     1     -33.763  12.944  -4.417  1.00 20.00    -0.381 OA
ENDBRANCH   2   3
BRANCH   2   6
HETATM    6  C6  UNL     1     -34.951  15.800  -2.286  1.00 20.00     0.006 C 
BRANCH   6   7
HETATM    7  C5  UNL     1     -34.075  16.803  -1.533  1.00 20.00    -0.004 C 
HETATM    8  C3  UNL     1     -34.659  17.135  -0.168  1.00 20.00     0.005 C 
ENDBRANCH   6   7
ENDBRANCH   2   6
TORSDOF 3
ENDMDL
MODEL 6
REMARK VINA RESULT:      -3.6     11.092     12.012
REMARK  3 active torsions:
REMARK  status: ('A' for Active; 'I' for Inactive)
REMARK    1  A    between atoms: C2_2  and  C7_7 
REMARK    2  A    between atoms: C5_5  and  C6_6 
REMARK    3  A    between atoms: C6_6  and  C7_7 
ROOT
HETATM    1  C4  UNL     1     -34.447  13.596  -3.760  1.00 20.00     0.012 C 
HETATM    2  C7  UNL     1     -34.865  15.066  -3.710  1.00 20.00     0.012 C 
ENDROOT
BRANCH   2   3
HETATM    3  C2  UNL     1     -36.336  15.171  -3.301  1.00 20.00     0.149 A 
HETATM    4  C1  UNL     1     -37.411  15.442  -4.317  1.00 20.00     0.200 A 
HETATM    5  O8  UNL     1     -37.170  14.122  -3.803  1.00 20.00    -0.381 OA
ENDBRANCH   2   3
BRANCH   2   6
HETATM    6  C6  UNL     1     -33.995  15.893  -2.745  1.00 20.00     0.006 C 
BRANCH   6   7
HETATM    7  C5  UNL     1     -34.724  16.303  -1.465  1.00 20.00    -0.004 C 
HETATM    8  C3  UNL     1     -33.977  17.406  -0.730  1.00 20.00     0.005 C 
ENDBRANCH   6   7
ENDBRANCH   2   6
TORSDOF 3
ENDMDL
MODEL 7
REMARK VINA RESULT:      -3.6     11.413     12.315
REMARK  3 active torsions:
REMARK  status: ('A' for Active; 'I' for Inactive)
REMARK    1  A    between atoms: C2_2  and  C7_7 
REMARK    2  A    between atoms: C5_5  and  C6_6 
REMARK    3  A    between atoms: C6_6  and  C7_7 
ROOT
HETATM    1  C4  UNL     1     -33.258  16.409  -5.032  1.00 20.00     0.012 C 
HETATM    2  C7  UNL     1     -34.098  15.795  -3.912  1.00 20.00     0.012 C 
ENDROOT
BRANCH   2   3
HETATM    3  C2  UNL     1     -33.983  14.270  -3.956  1.00 20.00     0.149 A 
HETATM    4  C1  UNL     1     -35.187  13.405  -4.207  1.00 20.00     0.200 A 
HETATM    5  O8  UNL     1     -34.232  13.692  -5.241  1.00 20.00    -0.381 OA
ENDBRANCH   2   3
BRANCH   2   6
HETATM    6  C6  UNL     1     -33.686  16.310  -2.519  1.00 20.00     0.006 C 
BRANCH   6   7
HETATM    7  C5  UNL     1     -34.820  16.265  -1.493  1.00 20.00    -0.004 C 
HETATM    8  C3  UNL     1     -34.527  17.170  -0.304  1.00 20.00     0.005 C 
ENDBRANCH   6   7
ENDBRANCH   2   6
TORSDOF 3
ENDMDL
MODEL 8
REMARK VINA RESULT:      -3.5     11.548     12.769
REMARK  3 active torsions:
REMARK  status: ('A' for Active; 'I' for Inactive)
REMARK    1  A    between atoms: C2_2  and  C7_7 
REMARK    2  A    between atoms: C5_5  and  C6_6 
REMARK    3  A    between atoms: C6_6  and  C7_7 
ROOT
HETATM    1  C4  UNL     1     -34.246  13.952  -3.606  1.00 20.00     0.012 C 
HETATM    2  C7  UNL     1     -34.033  15.434  -3.295  1.00 20.00     0.012 C 
ENDROOT
BRANCH   2   3
HETATM    3  C2  UNL     1     -34.427  16.278  -4.509  1.00 20.00     0.149 A 
HETATM    4  C1  UNL     1     -33.413  17.117  -5.237  1.00 20.00     0.200 A 
HETATM    5  O8  UNL     1     -33.851  15.847  -5.746  1.00 20.00    -0.381 OA
ENDBRANCH   2   3
BRANCH   2   6
HETATM    6  C6  UNL     1     -34.827  15.895  -2.058  1.00 20.00     0.006 C 
BRANCH   6   7
HETATM    7  C5  UNL     1     -34.093  16.941  -1.217  1.00 20.00    -0.004 C 
HETATM    8  C3  UNL     1     -34.825  17.216   0.088  1.00 20.00     0.005 C 
ENDBRANCH   6   7
ENDBRANCH   2   6
TORSDOF 3
ENDMDL
MODEL 9
REMARK VINA RESULT:      -3.4     11.003     11.860
REMARK  3 active torsions:
REMARK  status: ('A' for Active; 'I' for Inactive)
REMARK    1  A    between atoms: C2_2  and  C7_7 
REMARK    2  A    between atoms: C5_5  and  C6_6 
REMARK    3  A    between atoms: C6_6  and  C7_7 
ROOT
HETATM    1  C4  UNL     1     -37.207  14.660  -4.127  1.00 20.00     0.012 C 
HETATM    2  C7  UNL     1     -35.835  14.728  -3.458  1.00 20.00     0.012 C 
ENDROOT
BRANCH   2   3
HETATM    3  C2  UNL     1     -34.762  14.221  -4.425  1.00 20.00     0.149 A 
HETATM    4  C1  UNL     1     -33.594  13.410  -3.937  1.00 20.00     0.200 A 
HETATM    5  O8  UNL     1     -34.724  12.799  -4.579  1.00 20.00    -0.381 OA
ENDBRANCH   2   3
BRANCH   2   6
HETATM    6  C6  UNL     1     -35.481  16.152  -2.985  1.00 20.00     0.006 C 
BRANCH   6   7
HETATM    7  C5  UNL     1     -34.825  16.190  -1.604  1.00 20.00    -0.004 C 
HETATM    8  C3  UNL     1     -33.717  17.232  -1.546  1.00 20.00     0.005 C 
ENDBRANCH   6   7
ENDBRANCH   2   6
TORSDOF 3
ENDMDL
