MODEL 1
REMARK VINA RESULT:      -4.7      0.000      0.000
REMARK  4 active torsions:
REMARK  status: ('A' for Active; 'I' for Inactive)
REMARK    1  A    between atoms: C5_5  and  C6_6 
REMARK    2  A    between atoms: C6_6  and  C9_9 
REMARK    3  A    between atoms: C7_7  and  C8_8 
REMARK    4  A    between atoms: C7_7  and  C9_9 
ROOT
HETATM    1  C4  UNL     1     -34.042   4.791   2.094  1.00 20.00     0.010 C 
HETATM    2  C9  UNL     1     -33.802   6.060   2.919  1.00 20.00    -0.018 C 
ENDROOT
BRANCH   2   3
HETATM    3  C6  UNL     1     -32.306   6.126   3.306  1.00 20.00     0.004 C 
BRANCH   3   4
HETATM    4  C5  UNL     1     -31.726   7.543   3.295  1.00 20.00    -0.004 C 
HETATM    5  C1  UNL     1     -32.066   8.271   2.003  1.00 20.00     0.005 C 
ENDBRANCH   3   4
ENDBRANCH   2   3
BRANCH   2   6
HETATM    6  C7  UNL     1     -34.713   6.118   4.164  1.00 20.00     0.008 C 
BRANCH   6   7
HETATM    7  C8  UNL     1     -34.117   5.554   5.470  1.00 20.00    -0.022 C 
HETATM    8  C2  UNL     1     -34.986   4.397   5.976  1.00 20.00     0.009 C 
HETATM    9  C3  UNL     1     -33.992   6.617   6.562  1.00 20.00     0.009 C 
ENDBRANCH   6   7
ENDBRANCH   2   6
TORSDOF 4
ENDMDL
MODEL 2
REMARK VINA RESULT:      -4.6      0.942      1.334
REMARK  4 active torsions:
REMARK  status: ('A' for Active; 'I' for Inactive)
REMARK    1  A    between atoms: C5_5  and  C6_6 
REMARK    2  A    between atoms: C6_6  and  C9_9 
REMARK    3  A    between atoms: C7_7  and  C8_8 
REMARK    4  A    between atoms: C7_7  and  C9_9 
ROOT
HETATM    1  C4  UNL     1     -32.167   5.264   3.081  1.00 20.00     0.010 C 
HETATM    2  C9  UNL     1     -33.037   6.510   2.888  1.00 20.00    -0.018 C 
ENDROOT
BRANCH   2   3
HETATM    3  C6  UNL     1     -32.133   7.763   2.949  1.00 20.00     0.004 C 
BRANCH   3   4
HETATM    4  C5  UNL     1     -31.874   8.407   1.584  1.00 20.00    -0.004 C 
HETATM    5  C1  UNL     1     -32.513   9.784   1.492  1.00 20.00     0.005 C 
ENDBRANCH   3   4
ENDBRANCH   2   3
BRANCH   2   6
HETATM    6  C7  UNL     1     -34.177   6.582   3.927  1.00 20.00     0.008 C 
BRANCH   6   7
HETATM    7  C8  UNL     1     -33.979   5.752   5.213  1.00 20.00    -0.022 C 
HETATM    8  C2  UNL     1     -35.085   4.697   5.321  1.00 20.00     0.009 C 
HETATM    9  C3  UNL     1     -33.971   6.620   6.472  1.00 20.00     0.009 C 
ENDBRANCH   6   7
ENDBRANCH   2   6
TORSDOF 4
ENDMDL
MODEL 3
REMARK VINA RESULT:      -4.5      0.983      4.062
REMARK  4 active torsions:
REMARK  status: ('A' for Active; 'I' for Inactive)
REMARK    1  A    between atoms: C5_5  and  C6_6 
REMARK    2  A    between atoms: C6_6  and  C9_9 
REMARK    3  A    between atoms: C7_7  and  C8_8 
REMARK    4  A    between atoms: C7_7  and  C9_9 
ROOT
HETATM    1  C4  UNL     1     -35.162   5.817   3.110  1.00 20.00     0.010 C 
HETATM    2  C9  UNL     1     -33.854   5.591   3.877  1.00 20.00    -0.018 C 
ENDROOT
BRANCH   2   3
HETATM    3  C6  UNL     1     -33.949   6.308   5.243  1.00 20.00     0.004 C 
BRANCH   3   4
HETATM    4  C5  UNL     1     -34.639   5.477   6.330  1.00 20.00    -0.004 C 
HETATM    5  C1  UNL     1     -34.770   4.020   5.914  1.00 20.00     0.005 C 
ENDBRANCH   3   4
ENDBRANCH   2   3
BRANCH   2   6
HETATM    6  C7  UNL     1     -32.627   6.068   3.070  1.00 20.00     0.008 C 
BRANCH   6   7
HETATM    7  C8  UNL     1     -32.267   7.563   3.198  1.00 20.00    -0.022 C 
HETATM    8  C2  UNL     1     -32.062   8.165   1.804  1.00 20.00     0.009 C 
HETATM    9  C3  UNL     1     -31.015   7.792   4.045  1.00 20.00     0.009 C 
ENDBRANCH   6   7
ENDBRANCH   2   6
TORSDOF 4
ENDMDL
MODEL 4
REMARK VINA RESULT:      -4.1      0.835      3.976
REMARK  4 active torsions:
REMARK  status: ('A' for Active; 'I' for Inactive)
REMARK    1  A    between atoms: C5_5  and  C6_6 
REMARK    2  A    between atoms: C6_6  and  C9_9 
REMARK    3  A    between atoms: C7_7  and  C8_8 
REMARK    4  A    between atoms: C7_7  and  C9_9 
ROOT
HETATM    1  C4  UNL     1     -34.218   4.995   1.959  1.00 20.00     0.010 C 
HETATM    2  C9  UNL     1     -33.983   5.466   3.399  1.00 20.00    -0.018 C 
ENDROOT
BRANCH   2   3
HETATM    3  C6  UNL     1     -35.273   5.227   4.217  1.00 20.00     0.004 C 
BRANCH   3   4
HETATM    4  C5  UNL     1     -35.024   4.622   5.602  1.00 20.00    -0.004 C 
HETATM    5  C1  UNL     1     -34.419   5.644   6.552  1.00 20.00     0.005 C 
ENDBRANCH   3   4
ENDBRANCH   2   3
BRANCH   2   6
HETATM    6  C7  UNL     1     -33.541   6.945   3.454  1.00 20.00     0.008 C 
BRANCH   6   7
HETATM    7  C8  UNL     1     -32.125   7.252   2.923  1.00 20.00    -0.022 C 
HETATM    8  C2  UNL     1     -31.227   7.700   4.081  1.00 20.00     0.009 C 
HETATM    9  C3  UNL     1     -32.131   8.324   1.833  1.00 20.00     0.009 C 
ENDBRANCH   6   7
ENDBRANCH   2   6
TORSDOF 4
ENDMDL
MODEL 5
REMARK VINA RESULT:      -4.0      0.998      4.462
REMARK  4 active torsions:
REMARK  status: ('A' for Active; 'I' for Inactive)
REMARK    1  A    between atoms: C5_5  and  C6_6 
REMARK    2  A    between atoms: C6_6  and  C9_9 
REMARK    3  A    between atoms: C7_7  and  C8_8 
REMARK    4  A    between atoms: C7_7  and  C9_9 
ROOT
HETATM    1  C4  UNL     1     -33.164   5.642   2.315  1.00 20.00     0.010 C 
HETATM    2  C9  UNL     1     -32.535   6.354   3.517  1.00 20.00    -0.018 C 
ENDROOT
BRANCH   2   3
HETATM    3  C6  UNL     1     -33.627   6.585   4.587  1.00 20.00     0.004 C 
BRANCH   3   4
HETATM    4  C5  UNL     1     -34.689   5.482   4.634  1.00 20.00    -0.004 C 
HETATM    5  C1  UNL     1     -34.792   4.872   6.023  1.00 20.00     0.005 C 
ENDBRANCH   3   4
ENDBRANCH   2   3
BRANCH   2   6
HETATM    6  C7  UNL     1     -31.853   7.678   3.107  1.00 20.00     0.008 C 
BRANCH   6   7
HETATM    7  C8  UNL     1     -32.459   8.407   1.890  1.00 20.00    -0.022 C 
HETATM    8  C2  UNL     1     -31.473   8.360   0.718  1.00 20.00     0.009 C 
HETATM    9  C3  UNL     1     -32.819   9.860   2.200  1.00 20.00     0.009 C 
ENDBRANCH   6   7
ENDBRANCH   2   6
TORSDOF 4
ENDMDL
MODEL 6
REMARK VINA RESULT:      -4.0     10.932     12.212
REMARK  4 active torsions:
REMARK  status: ('A' for Active; 'I' for Inactive)
REMARK    1  A    between atoms: C5_5  and  C6_6 
REMARK    2  A    between atoms: C6_6  and  C9_9 
REMARK    3  A    between atoms: C7_7  and  C8_8 
REMARK    4  A    between atoms: C7_7  and  C9_9 
ROOT
HETATM    1  C4  UNL     1     -32.866  13.838  -3.554  1.00 20.00     0.010 C 
HETATM    2  C9  UNL     1     -34.397  13.785  -3.581  1.00 20.00    -0.018 C 
ENDROOT
BRANCH   2   3
HETATM    3  C6  UNL     1     -34.857  13.389  -5.003  1.00 20.00     0.004 C 
BRANCH   3   4
HETATM    4  C5  UNL     1     -35.403  14.560  -5.825  1.00 20.00    -0.004 C 
HETATM    5  C1  UNL     1     -34.405  15.006  -6.884  1.00 20.00     0.005 C 
ENDBRANCH   3   4
ENDBRANCH   2   3
BRANCH   2   6
HETATM    6  C7  UNL     1     -35.026  15.122  -3.132  1.00 20.00     0.008 C 
BRANCH   6   7
HETATM    7  C8  UNL     1     -34.069  16.137  -2.473  1.00 20.00    -0.022 C 
HETATM    8  C2  UNL     1     -34.606  16.530  -1.093  1.00 20.00     0.009 C 
HETATM    9  C3  UNL     1     -33.874  17.392  -3.324  1.00 20.00     0.009 C 
ENDBRANCH   6   7
ENDBRANCH   2   6
TORSDOF 4
ENDMDL
MODEL 7
REMARK VINA RESULT:      -3.8     10.920     12.600
REMARK  4 active torsions:
REMARK  status: ('A' for Active; 'I' for Inactive)
REMARK    1  A    between atoms: C5_5  and  C6_6 
REMARK    2  A    between atoms: C6_6  and  C9_9 
REMARK    3  A    between atoms: C7_7  and  C8_8 
REMARK    4  A    between atoms: C7_7  and  C9_9 
ROOT
HETATM    1  C4  UNL     1     -34.419  16.565  -1.257  1.00 20.00     0.010 C 
HETATM    2  C9  UNL     1     -34.083  16.116  -2.683  1.00 20.00    -0.018 C 
ENDROOT
BRANCH   2   3
HETATM    3  C6  UNL     1     -34.009  17.363  -3.593  1.00 20.00     0.004 C 
BRANCH   3   4
HETATM    4  C5  UNL     1     -33.392  17.091  -4.968  1.00 20.00    -0.004 C 
HETATM    5  C1  UNL     1     -34.398  17.330  -6.084  1.00 20.00     0.005 C 
ENDBRANCH   3   4
ENDBRANCH   2   3
BRANCH   2   6
HETATM    6  C7  UNL     1     -35.102  15.085  -3.215  1.00 20.00     0.008 C 
BRANCH   6   7
HETATM    7  C8  UNL     1     -34.518  13.749  -3.719  1.00 20.00    -0.022 C 
HETATM    8  C2  UNL     1     -32.997  13.748  -3.533  1.00 20.00     0.009 C 
HETATM    9  C3  UNL     1     -34.856  13.481  -5.186  1.00 20.00     0.009 C 
ENDBRANCH   6   7
ENDBRANCH   2   6
TORSDOF 4
ENDMDL
MODEL 8
REMARK VINA RESULT:      -3.8     10.925     12.296
REMARK  4 active torsions:
REMARK  status: ('A' for Active; 'I' for Inactive)
REMARK    1  A    between atoms: C5_5  and  C6_6 
REMARK    2  A    between atoms: C6_6  and  C9_9 
REMARK    3  A    between atoms: C7_7  and  C8_8 
REMARK    4  A    between atoms: C7_7  and  C9_9 
ROOT
HETATM    1  C4  UNL     1     -33.378  16.632  -4.918  1.00 20.00     0.010 C 
HETATM    2  C9  UNL     1     -33.112  15.958  -3.567  1.00 20.00    -0.018 C 
ENDROOT
BRANCH   2   3
HETATM    3  C6  UNL     1     -32.983  14.434  -3.789  1.00 20.00     0.004 C 
BRANCH   3   4
HETATM    4  C5  UNL     1     -34.295  13.668  -3.598  1.00 20.00    -0.004 C 
HETATM    5  C1  UNL     1     -34.893  13.254  -4.935  1.00 20.00     0.005 C 
ENDBRANCH   3   4
ENDBRANCH   2   3
BRANCH   2   6
HETATM    6  C7  UNL     1     -34.209  16.291  -2.533  1.00 20.00     0.008 C 
BRANCH   6   7
HETATM    7  C8  UNL     1     -33.766  17.129  -1.316  1.00 20.00    -0.022 C 
HETATM    8  C2  UNL     1     -34.818  17.024  -0.207  1.00 20.00     0.009 C 
HETATM    9  C3  UNL     1     -33.540  18.599  -1.672  1.00 20.00     0.009 C 
ENDBRANCH   6   7
ENDBRANCH   2   6
TORSDOF 4
ENDMDL
MODEL 9
REMARK VINA RESULT:      -3.8     11.010     13.186
REMARK  4 active torsions:
REMARK  status: ('A' for Active; 'I' for Inactive)
REMARK    1  A    between atoms: C5_5  and  C6_6 
REMARK    2  A    between atoms: C6_6  and  C9_9 
REMARK    3  A    between atoms: C7_7  and  C8_8 
REMARK    4  A    between atoms: C7_7  and  C9_9 
ROOT
HETATM    1  C4  UNL     1     -34.190  13.743  -3.657  1.00 20.00     0.010 C 
HETATM    2  C9  UNL     1     -33.710  15.138  -3.240  1.00 20.00    -0.018 C 
ENDROOT
BRANCH   2   3
HETATM    3  C6  UNL     1     -34.902  15.914  -2.636  1.00 20.00     0.004 C 
BRANCH   3   4
HETATM    4  C5  UNL     1     -34.660  16.405  -1.205  1.00 20.00    -0.004 C 
HETATM    5  C1  UNL     1     -33.660  17.551  -1.175  1.00 20.00     0.005 C 
ENDBRANCH   3   4
ENDBRANCH   2   3
BRANCH   2   6
HETATM    6  C7  UNL     1     -33.074  15.903  -4.422  1.00 20.00     0.008 C 
BRANCH   6   7
HETATM    7  C8  UNL     1     -34.046  16.695  -5.321  1.00 20.00    -0.022 C 
HETATM    8  C2  UNL     1     -34.183  15.993  -6.676  1.00 20.00     0.009 C 
HETATM    9  C3  UNL     1     -33.596  18.141  -5.534  1.00 20.00     0.009 C 
ENDBRANCH   6   7
ENDBRANCH   2   6
TORSDOF 4
ENDMDL
