MODEL 1
REMARK VINA RESULT:      -3.4      0.000      0.000
REMARK  1 active torsions:
REMARK  status: ('A' for Active; 'I' for Inactive)
REMARK    1  A    between atoms: C4_4  and  C5_5 
ROOT
HETATM    1  C1  UNL     1     -35.789   5.749   3.927  1.00 20.00     0.015 C 
HETATM    2  C2  UNL     1     -34.737   3.928   5.277  1.00 20.00     0.015 C 
HETATM    3  C3  UNL     1     -34.246   6.333   5.803  1.00 20.00     0.015 C 
HETATM    4  C5  UNL     1     -34.509   5.324   4.672  1.00 20.00    -0.039 C 
ENDROOT
BRANCH   4   5
HETATM    5  C4  UNL     1     -33.348   5.309   3.652  1.00 20.00     0.122 C 
HETATM    6 CL6  UNL     1     -32.418   6.829   3.584  1.00 20.00    -0.130 Cl
ENDBRANCH   4   5
TORSDOF 1
ENDMDL
MODEL 2
REMARK VINA RESULT:      -3.3      1.413      2.448
REMARK  1 active torsions:
REMARK  status: ('A' for Active; 'I' for Inactive)
REMARK    1  A    between atoms: C4_4  and  C5_5 
ROOT
HETATM    1  C1  UNL     1     -34.637   3.665   4.838  1.00 20.00     0.015 C 
HETATM    2  C2  UNL     1     -35.858   5.672   3.988  1.00 20.00     0.015 C 
HETATM    3  C3  UNL     1     -33.350   5.674   4.098  1.00 20.00     0.015 C 
HETATM    4  C5  UNL     1     -34.637   5.205   4.799  1.00 20.00    -0.039 C 
ENDROOT
BRANCH   4   5
HETATM    5  C4  UNL     1     -34.702   5.719   6.255  1.00 20.00     0.122 C 
HETATM    6 CL6  UNL     1     -33.586   7.064   6.603  1.00 20.00    -0.130 Cl
ENDBRANCH   4   5
TORSDOF 1
ENDMDL
MODEL 3
REMARK VINA RESULT:      -3.2      1.590      2.219
REMARK  1 active torsions:
REMARK  status: ('A' for Active; 'I' for Inactive)
REMARK    1  A    between atoms: C4_4  and  C5_5 
ROOT
HETATM    1  C1  UNL     1     -33.879   4.969   2.788  1.00 20.00     0.015 C 
HETATM    2  C2  UNL     1     -34.900   4.101   4.897  1.00 20.00     0.015 C 
HETATM    3  C3  UNL     1     -36.059   5.898   3.582  1.00 20.00     0.015 C 
HETATM    4  C5  UNL     1     -34.692   5.360   4.038  1.00 20.00    -0.039 C 
ENDROOT
BRANCH   4   5
HETATM    5  C4  UNL     1     -33.893   6.437   4.806  1.00 20.00     0.122 C 
HETATM    6 CL6  UNL     1     -34.129   6.396   6.573  1.00 20.00    -0.130 Cl
ENDBRANCH   4   5
TORSDOF 1
ENDMDL
MODEL 4
REMARK VINA RESULT:      -3.0      2.063      2.895
REMARK  1 active torsions:
REMARK  status: ('A' for Active; 'I' for Inactive)
REMARK    1  A    between atoms: C4_4  and  C5_5 
ROOT
HETATM    1  C1  UNL     1     -33.993   6.406   4.963  1.00 20.00     0.015 C 
HETATM    2  C2  UNL     1     -33.750   5.238   2.767  1.00 20.00     0.015 C 
HETATM    3  C3  UNL     1     -36.007   6.026   3.534  1.00 20.00     0.015 C 
HETATM    4  C5  UNL     1     -34.667   5.421   3.989  1.00 20.00    -0.039 C 
ENDROOT
BRANCH   4   5
HETATM    5  C4  UNL     1     -34.880   4.085   4.735  1.00 20.00     0.122 C 
HETATM    6 CL6  UNL     1     -35.204   4.268   6.478  1.00 20.00    -0.130 Cl
ENDBRANCH   4   5
TORSDOF 1
ENDMDL
MODEL 5
REMARK VINA RESULT:      -2.9     12.022     12.764
REMARK  1 active torsions:
REMARK  status: ('A' for Active; 'I' for Inactive)
REMARK    1  A    between atoms: C4_4  and  C5_5 
ROOT
HETATM    1  C1  UNL     1     -34.670  15.523  -5.406  1.00 20.00     0.015 C 
HETATM    2  C2  UNL     1     -32.994  15.043  -3.615  1.00 20.00     0.015 C 
HETATM    3  C3  UNL     1     -34.791  13.371  -4.143  1.00 20.00     0.015 C 
HETATM    4  C5  UNL     1     -34.467  14.870  -4.025  1.00 20.00    -0.039 C 
ENDROOT
BRANCH   4   5
HETATM    5  C4  UNL     1     -35.413  15.571  -3.024  1.00 20.00     0.122 C 
HETATM    6 CL6  UNL     1     -34.604  16.163  -1.549  1.00 20.00    -0.130 Cl
ENDBRANCH   4   5
TORSDOF 1
ENDMDL
MODEL 6
REMARK VINA RESULT:      -2.9     12.031     12.775
REMARK  1 active torsions:
REMARK  status: ('A' for Active; 'I' for Inactive)
REMARK    1  A    between atoms: C4_4  and  C5_5 
ROOT
HETATM    1  C1  UNL     1     -34.796  13.357  -4.225  1.00 20.00     0.015 C 
HETATM    2  C2  UNL     1     -34.547  15.498  -5.488  1.00 20.00     0.015 C 
HETATM    3  C3  UNL     1     -32.969  14.949  -3.615  1.00 20.00     0.015 C 
HETATM    4  C5  UNL     1     -34.425  14.847  -4.100  1.00 20.00    -0.039 C 
ENDROOT
BRANCH   4   5
HETATM    5  C4  UNL     1     -35.399  15.497  -3.090  1.00 20.00     0.122 C 
HETATM    6 CL6  UNL     1     -34.611  16.133  -1.624  1.00 20.00    -0.130 Cl
ENDBRANCH   4   5
TORSDOF 1
ENDMDL
MODEL 7
REMARK VINA RESULT:      -2.9     12.032     12.779
REMARK  1 active torsions:
REMARK  status: ('A' for Active; 'I' for Inactive)
REMARK    1  A    between atoms: C4_4  and  C5_5 
ROOT
HETATM    1  C1  UNL     1     -33.032  15.050  -3.593  1.00 20.00     0.015 C 
HETATM    2  C2  UNL     1     -34.788  13.362  -4.152  1.00 20.00     0.015 C 
HETATM    3  C3  UNL     1     -34.624  15.495  -5.467  1.00 20.00     0.015 C 
HETATM    4  C5  UNL     1     -34.487  14.869  -4.068  1.00 20.00    -0.039 C 
ENDROOT
BRANCH   4   5
HETATM    5  C4  UNL     1     -35.412  15.569  -3.047  1.00 20.00     0.122 C 
HETATM    6 CL6  UNL     1     -34.575  16.150  -1.585  1.00 20.00    -0.130 Cl
ENDBRANCH   4   5
TORSDOF 1
ENDMDL
MODEL 8
REMARK VINA RESULT:      -2.9     12.260     12.856
REMARK  1 active torsions:
REMARK  status: ('A' for Active; 'I' for Inactive)
REMARK    1  A    between atoms: C4_4  and  C5_5 
ROOT
HETATM    1  C1  UNL     1     -35.774  14.004  -4.182  1.00 20.00     0.015 C 
HETATM    2  C2  UNL     1     -33.333  13.701  -3.741  1.00 20.00     0.015 C 
HETATM    3  C3  UNL     1     -34.591  15.572  -2.637  1.00 20.00     0.015 C 
HETATM    4  C5  UNL     1     -34.447  14.745  -3.926  1.00 20.00    -0.039 C 
ENDROOT
BRANCH   4   5
HETATM    5  C4  UNL     1     -34.167  15.653  -5.146  1.00 20.00     0.122 C 
HETATM    6 CL6  UNL     1     -34.402  14.851  -6.720  1.00 20.00    -0.130 Cl
ENDBRANCH   4   5
TORSDOF 1
ENDMDL
MODEL 9
REMARK VINA RESULT:      -2.9     12.268     12.924
REMARK  1 active torsions:
REMARK  status: ('A' for Active; 'I' for Inactive)
REMARK    1  A    between atoms: C4_4  and  C5_5 
ROOT
HETATM    1  C1  UNL     1     -34.524  15.584  -2.673  1.00 20.00     0.015 C 
HETATM    2  C2  UNL     1     -35.776  14.019  -4.164  1.00 20.00     0.015 C 
HETATM    3  C3  UNL     1     -33.330  13.660  -3.729  1.00 20.00     0.015 C 
HETATM    4  C5  UNL     1     -34.425  14.720  -3.944  1.00 20.00    -0.039 C 
ENDROOT
BRANCH   4   5
HETATM    5  C4  UNL     1     -34.078  15.651  -5.127  1.00 20.00     0.122 C 
HETATM    6 CL6  UNL     1     -34.361  14.928  -6.732  1.00 20.00    -0.130 Cl
ENDBRANCH   4   5
TORSDOF 1
ENDMDL
