MODEL 1
REMARK VINA RESULT:      -6.0      0.000      0.000
REMARK  2 active torsions:
REMARK  status: ('A' for Active; 'I' for Inactive)
REMARK    1  A    between atoms: C5_5  and  C7_7 
REMARK    2  A    between atoms: C7_7  and  C8_8 
ROOT
HETATM    1  C1  UNL     1     -34.325   5.559   6.447  1.00 20.00    -0.030 C 
HETATM    2  C2  UNL     1     -34.003   6.323   5.399  1.00 20.00    -0.026 C 
HETATM    3  C3  UNL     1     -35.165   4.393   6.047  1.00 20.00     0.027 C 
HETATM    4  C4  UNL     1     -35.011   4.373   4.525  1.00 20.00     0.012 C 
HETATM    5  C5  UNL     1     -34.584   5.793   4.125  1.00 20.00     0.008 C 
ENDROOT
BRANCH   5   6
HETATM    6  C7  UNL     1     -33.594   5.795   2.970  1.00 20.00     0.008 C 
BRANCH   6   7
HETATM    7  C8  UNL     1     -32.305   6.524   3.342  1.00 20.00    -0.004 C 
HETATM    8  C6  UNL     1     -32.095   7.759   2.480  1.00 20.00     0.005 C 
ENDBRANCH   6   7
ENDBRANCH   5   6
TORSDOF 2
ENDMDL
MODEL 2
REMARK VINA RESULT:      -5.2      0.835      1.555
REMARK  2 active torsions:
REMARK  status: ('A' for Active; 'I' for Inactive)
REMARK    1  A    between atoms: C5_5  and  C7_7 
REMARK    2  A    between atoms: C7_7  and  C8_8 
ROOT
HETATM    1  C1  UNL     1     -35.353   4.456   5.183  1.00 20.00    -0.030 C 
HETATM    2  C2  UNL     1     -34.664   4.805   4.093  1.00 20.00    -0.026 C 
HETATM    3  C3  UNL     1     -34.860   5.165   6.400  1.00 20.00     0.027 C 
HETATM    4  C4  UNL     1     -33.985   6.274   5.813  1.00 20.00     0.012 C 
HETATM    5  C5  UNL     1     -33.591   5.802   4.407  1.00 20.00     0.008 C 
ENDROOT
BRANCH   5   6
HETATM    6  C7  UNL     1     -33.529   6.948   3.408  1.00 20.00     0.008 C 
BRANCH   6   7
HETATM    7  C8  UNL     1     -32.102   7.185   2.918  1.00 20.00    -0.004 C 
HETATM    8  C6  UNL     1     -32.040   8.327   1.916  1.00 20.00     0.005 C 
ENDBRANCH   6   7
ENDBRANCH   5   6
TORSDOF 2
ENDMDL
MODEL 3
REMARK VINA RESULT:      -4.4      0.966      3.740
REMARK  2 active torsions:
REMARK  status: ('A' for Active; 'I' for Inactive)
REMARK    1  A    between atoms: C5_5  and  C7_7 
REMARK    2  A    between atoms: C7_7  and  C8_8 
ROOT
HETATM    1  C1  UNL     1     -32.433   5.858   2.723  1.00 20.00    -0.030 C 
HETATM    2  C2  UNL     1     -33.674   5.377   2.599  1.00 20.00    -0.026 C 
HETATM    3  C3  UNL     1     -32.336   6.864   3.820  1.00 20.00     0.027 C 
HETATM    4  C4  UNL     1     -33.646   6.660   4.582  1.00 20.00     0.012 C 
HETATM    5  C5  UNL     1     -34.611   5.991   3.593  1.00 20.00     0.008 C 
ENDROOT
BRANCH   5   6
HETATM    6  C7  UNL     1     -35.518   4.973   4.268  1.00 20.00     0.008 C 
BRANCH   6   7
HETATM    7  C8  UNL     1     -34.752   4.135   5.290  1.00 20.00    -0.004 C 
HETATM    8  C6  UNL     1     -35.115   4.527   6.714  1.00 20.00     0.005 C 
ENDBRANCH   6   7
ENDBRANCH   5   6
TORSDOF 2
ENDMDL
MODEL 4
REMARK VINA RESULT:      -4.1     11.490     12.726
REMARK  2 active torsions:
REMARK  status: ('A' for Active; 'I' for Inactive)
REMARK    1  A    between atoms: C5_5  and  C7_7 
REMARK    2  A    between atoms: C7_7  and  C8_8 
ROOT
HETATM    1  C1  UNL     1     -34.678  14.439  -5.750  1.00 20.00    -0.030 C 
HETATM    2  C2  UNL     1     -33.984  15.465  -5.249  1.00 20.00    -0.026 C 
HETATM    3  C3  UNL     1     -34.678  13.267  -4.827  1.00 20.00     0.027 C 
HETATM    4  C4  UNL     1     -34.164  13.869  -3.518  1.00 20.00     0.012 C 
HETATM    5  C5  UNL     1     -33.399  15.141  -3.909  1.00 20.00     0.008 C 
ENDROOT
BRANCH   5   6
HETATM    6  C7  UNL     1     -33.579  16.259  -2.893  1.00 20.00     0.008 C 
BRANCH   6   7
HETATM    7  C8  UNL     1     -34.769  15.992  -1.974  1.00 20.00    -0.004 C 
HETATM    8  C6  UNL     1     -34.634  16.739  -0.657  1.00 20.00     0.005 C 
ENDBRANCH   6   7
ENDBRANCH   5   6
TORSDOF 2
ENDMDL
MODEL 5
REMARK VINA RESULT:      -4.0     11.799     12.479
REMARK  2 active torsions:
REMARK  status: ('A' for Active; 'I' for Inactive)
REMARK    1  A    between atoms: C5_5  and  C7_7 
REMARK    2  A    between atoms: C7_7  and  C8_8 
ROOT
HETATM    1  C1  UNL     1     -35.227  14.078  -3.774  1.00 20.00    -0.030 C 
HETATM    2  C2  UNL     1     -35.321  15.310  -3.266  1.00 20.00    -0.026 C 
HETATM    3  C3  UNL     1     -33.837  13.767  -4.219  1.00 20.00     0.027 C 
HETATM    4  C4  UNL     1     -33.018  14.886  -3.575  1.00 20.00     0.012 C 
HETATM    5  C5  UNL     1     -34.007  16.027  -3.296  1.00 20.00     0.008 C 
ENDROOT
BRANCH   5   6
HETATM    6  C7  UNL     1     -33.695  16.759  -1.999  1.00 20.00     0.008 C 
BRANCH   6   7
HETATM    7  C8  UNL     1     -34.751  16.478  -0.932  1.00 20.00    -0.004 C 
HETATM    8  C6  UNL     1     -34.691  17.499   0.192  1.00 20.00     0.005 C 
ENDBRANCH   6   7
ENDBRANCH   5   6
TORSDOF 2
ENDMDL
MODEL 6
REMARK VINA RESULT:      -3.9     11.719     12.755
REMARK  2 active torsions:
REMARK  status: ('A' for Active; 'I' for Inactive)
REMARK    1  A    between atoms: C5_5  and  C7_7 
REMARK    2  A    between atoms: C7_7  and  C8_8 
ROOT
HETATM    1  C1  UNL     1     -35.228  16.049  -2.732  1.00 20.00    -0.030 C 
HETATM    2  C2  UNL     1     -35.592  14.896  -3.301  1.00 20.00    -0.026 C 
HETATM    3  C3  UNL     1     -33.746  16.168  -2.617  1.00 20.00     0.027 C 
HETATM    4  C4  UNL     1     -33.246  15.049  -3.532  1.00 20.00     0.012 C 
HETATM    5  C5  UNL     1     -34.406  14.051  -3.652  1.00 20.00     0.008 C 
ENDROOT
BRANCH   5   6
HETATM    6  C7  UNL     1     -34.501  13.438  -5.042  1.00 20.00     0.008 C 
BRANCH   6   7
HETATM    7  C8  UNL     1     -35.310  14.322  -5.988  1.00 20.00    -0.004 C 
HETATM    8  C6  UNL     1     -34.426  14.955  -7.050  1.00 20.00     0.005 C 
ENDBRANCH   6   7
ENDBRANCH   5   6
TORSDOF 2
ENDMDL
MODEL 7
REMARK VINA RESULT:      -3.8      0.888      3.737
REMARK  2 active torsions:
REMARK  status: ('A' for Active; 'I' for Inactive)
REMARK    1  A    between atoms: C5_5  and  C7_7 
REMARK    2  A    between atoms: C7_7  and  C8_8 
ROOT
HETATM    1  C1  UNL     1     -32.117   7.612   4.009  1.00 20.00    -0.030 C 
HETATM    2  C2  UNL     1     -32.997   6.862   4.679  1.00 20.00    -0.026 C 
HETATM    3  C3  UNL     1     -31.837   7.061   2.652  1.00 20.00     0.027 C 
HETATM    4  C4  UNL     1     -32.960   6.040   2.465  1.00 20.00     0.012 C 
HETATM    5  C5  UNL     1     -33.443   5.679   3.877  1.00 20.00     0.008 C 
ENDROOT
BRANCH   5   6
HETATM    6  C7  UNL     1     -34.947   5.452   3.933  1.00 20.00     0.008 C 
BRANCH   6   7
HETATM    7  C8  UNL     1     -35.295   4.228   4.779  1.00 20.00    -0.004 C 
HETATM    8  C6  UNL     1     -34.982   4.460   6.248  1.00 20.00     0.005 C 
ENDBRANCH   6   7
ENDBRANCH   5   6
TORSDOF 2
ENDMDL
MODEL 8
REMARK VINA RESULT:      -3.8      9.473     10.595
REMARK  2 active torsions:
REMARK  status: ('A' for Active; 'I' for Inactive)
REMARK    1  A    between atoms: C5_5  and  C7_7 
REMARK    2  A    between atoms: C7_7  and  C8_8 
ROOT
HETATM    1  C1  UNL     1     -41.879   7.099  -2.092  1.00 20.00    -0.030 C 
HETATM    2  C2  UNL     1     -42.208   5.866  -2.490  1.00 20.00    -0.026 C 
HETATM    3  C3  UNL     1     -41.130   7.084  -0.803  1.00 20.00     0.027 C 
HETATM    4  C4  UNL     1     -40.745   5.611  -0.654  1.00 20.00     0.012 C 
HETATM    5  C5  UNL     1     -41.736   4.825  -1.523  1.00 20.00     0.008 C 
ENDROOT
BRANCH   5   6
HETATM    6  C7  UNL     1     -41.087   3.629  -2.203  1.00 20.00     0.008 C 
BRANCH   6   7
HETATM    7  C8  UNL     1     -42.108   2.815  -2.996  1.00 20.00    -0.004 C 
HETATM    8  C6  UNL     1     -41.429   1.791  -3.890  1.00 20.00     0.005 C 
ENDBRANCH   6   7
ENDBRANCH   5   6
TORSDOF 2
ENDMDL
MODEL 9
REMARK VINA RESULT:      -3.7     12.004     13.448
REMARK  2 active torsions:
REMARK  status: ('A' for Active; 'I' for Inactive)
REMARK    1  A    between atoms: C5_5  and  C7_7 
REMARK    2  A    between atoms: C7_7  and  C8_8 
ROOT
HETATM    1  C1  UNL     1     -34.182  15.884  -6.564  1.00 20.00    -0.030 C 
HETATM    2  C2  UNL     1     -33.722  15.980  -5.313  1.00 20.00    -0.026 C 
HETATM    3  C3  UNL     1     -34.735  14.529  -6.849  1.00 20.00     0.027 C 
HETATM    4  C4  UNL     1     -34.860  13.915  -5.453  1.00 20.00     0.012 C 
HETATM    5  C5  UNL     1     -33.887  14.696  -4.559  1.00 20.00     0.008 C 
ENDROOT
BRANCH   5   6
HETATM    6  C7  UNL     1     -34.428  14.895  -3.151  1.00 20.00     0.008 C 
BRANCH   6   7
HETATM    7  C8  UNL     1     -33.888  16.178  -2.522  1.00 20.00    -0.004 C 
HETATM    8  C6  UNL     1     -34.615  16.513  -1.230  1.00 20.00     0.005 C 
ENDBRANCH   6   7
ENDBRANCH   5   6
TORSDOF 2
ENDMDL
