MODEL 1
REMARK VINA RESULT:      -4.5      0.000      0.000
REMARK  1 active torsions:
REMARK  status: ('A' for Active; 'I' for Inactive)
REMARK    1  A    between atoms: C4_4  and  C8_8 
ROOT
HETATM    1  C1  UNL     1     -34.482  13.523  -5.030  1.00 20.00    -0.007 C 
HETATM    2  C2  UNL     1     -34.582  14.542  -5.896  1.00 20.00     0.009 C 
HETATM    3  C5  UNL     1     -33.718  13.618  -3.744  1.00 20.00     0.029 C 
HETATM    4  C6  UNL     1     -33.969  15.893  -5.668  1.00 20.00     0.061 C 
HETATM    5  C7  UNL     1     -32.840  14.872  -3.647  1.00 20.00     0.014 C 
HETATM    6  C8  UNL     1     -33.516  16.128  -4.214  1.00 20.00     0.035 C 
HETATM    7 CL9  UNL     1     -35.466  14.356  -7.369  1.00 20.00    -0.089 Cl
ENDROOT
BRANCH   6   8
HETATM    8  C4  UNL     1     -34.658  16.595  -3.357  1.00 20.00     0.007 C 
HETATM    9  C3  UNL     1     -35.754  17.202  -3.823  1.00 20.00     0.032 C 
HETATM   10 CL10 UNL     1     -34.481  16.299  -1.661  1.00 20.00    -0.089 Cl
ENDBRANCH   6   8
TORSDOF 1
ENDMDL
MODEL 2
REMARK VINA RESULT:      -4.4      1.031      1.202
REMARK  1 active torsions:
REMARK  status: ('A' for Active; 'I' for Inactive)
REMARK    1  A    between atoms: C4_4  and  C8_8 
ROOT
HETATM    1  C1  UNL     1     -34.434  13.477  -4.984  1.00 20.00    -0.007 C 
HETATM    2  C2  UNL     1     -34.585  14.528  -5.801  1.00 20.00     0.009 C 
HETATM    3  C5  UNL     1     -33.593  13.521  -3.744  1.00 20.00     0.029 C 
HETATM    4  C6  UNL     1     -33.957  15.871  -5.557  1.00 20.00     0.061 C 
HETATM    5  C7  UNL     1     -32.708  14.771  -3.651  1.00 20.00     0.014 C 
HETATM    6  C8  UNL     1     -33.417  16.048  -4.125  1.00 20.00     0.035 C 
HETATM    7 CL9  UNL     1     -35.558  14.400  -7.224  1.00 20.00    -0.089 Cl
ENDROOT
BRANCH   6   8
HETATM    8  C4  UNL     1     -34.503  16.480  -3.182  1.00 20.00     0.007 C 
HETATM    9  C3  UNL     1     -34.433  16.380  -1.851  1.00 20.00     0.032 C 
HETATM   10 CL10 UNL     1     -35.915  17.142  -3.933  1.00 20.00    -0.089 Cl
ENDBRANCH   6   8
TORSDOF 1
ENDMDL
MODEL 3
REMARK VINA RESULT:      -4.2      1.324      3.647
REMARK  1 active torsions:
REMARK  status: ('A' for Active; 'I' for Inactive)
REMARK    1  A    between atoms: C4_4  and  C8_8 
ROOT
HETATM    1  C1  UNL     1     -33.477  14.785  -3.213  1.00 20.00    -0.007 C 
HETATM    2  C2  UNL     1     -34.484  15.533  -2.743  1.00 20.00     0.009 C 
HETATM    3  C5  UNL     1     -33.681  13.651  -4.172  1.00 20.00     0.029 C 
HETATM    4  C6  UNL     1     -35.920  15.344  -3.140  1.00 20.00     0.061 C 
HETATM    5  C7  UNL     1     -35.153  13.253  -4.341  1.00 20.00     0.014 C 
HETATM    6  C8  UNL     1     -36.103  14.458  -4.388  1.00 20.00     0.035 C 
HETATM    7 CL9  UNL     1     -34.176  16.815  -1.625  1.00 20.00    -0.089 Cl
ENDROOT
BRANCH   6   8
HETATM    8  C4  UNL     1     -35.948  15.257  -5.650  1.00 20.00     0.007 C 
HETATM    9  C3  UNL     1     -36.129  16.579  -5.735  1.00 20.00     0.032 C 
HETATM   10 CL10 UNL     1     -35.506  14.346  -7.053  1.00 20.00    -0.089 Cl
ENDBRANCH   6   8
TORSDOF 1
ENDMDL
MODEL 4
REMARK VINA RESULT:      -4.2      1.013      4.054
REMARK  1 active torsions:
REMARK  status: ('A' for Active; 'I' for Inactive)
REMARK    1  A    between atoms: C4_4  and  C8_8 
ROOT
HETATM    1  C1  UNL     1     -34.966  17.440  -3.303  1.00 20.00    -0.007 C 
HETATM    2  C2  UNL     1     -34.342  16.555  -2.513  1.00 20.00     0.009 C 
HETATM    3  C5  UNL     1     -34.698  17.551  -4.774  1.00 20.00     0.029 C 
HETATM    4  C6  UNL     1     -33.332  15.561  -3.009  1.00 20.00     0.061 C 
HETATM    5  C7  UNL     1     -33.462  16.767  -5.230  1.00 20.00     0.014 C 
HETATM    6  C8  UNL     1     -33.325  15.401  -4.542  1.00 20.00     0.035 C 
HETATM    7 CL9  UNL     1     -34.688  16.494  -0.821  1.00 20.00    -0.089 Cl
ENDROOT
BRANCH   6   8
HETATM    8  C4  UNL     1     -34.378  14.429  -4.993  1.00 20.00     0.007 C 
HETATM    9  C3  UNL     1     -34.964  13.526  -4.199  1.00 20.00     0.032 C 
HETATM   10 CL10 UNL     1     -34.817  14.534  -6.663  1.00 20.00    -0.089 Cl
ENDBRANCH   6   8
TORSDOF 1
ENDMDL
MODEL 5
REMARK VINA RESULT:      -4.2      1.277      1.474
REMARK  1 active torsions:
REMARK  status: ('A' for Active; 'I' for Inactive)
REMARK    1  A    between atoms: C4_4  and  C8_8 
ROOT
HETATM    1  C1  UNL     1     -35.444  14.946  -5.387  1.00 20.00    -0.007 C 
HETATM    2  C2  UNL     1     -34.440  15.721  -5.820  1.00 20.00     0.009 C 
HETATM    3  C5  UNL     1     -35.430  14.262  -4.053  1.00 20.00     0.029 C 
HETATM    4  C6  UNL     1     -33.207  16.016  -5.015  1.00 20.00     0.061 C 
HETATM    5  C7  UNL     1     -34.061  14.301  -3.362  1.00 20.00     0.014 C 
HETATM    6  C8  UNL     1     -33.341  15.647  -3.525  1.00 20.00     0.035 C 
HETATM    7 CL9  UNL     1     -34.516  16.464  -7.379  1.00 20.00    -0.089 Cl
ENDROOT
BRANCH   6   8
HETATM    8  C4  UNL     1     -34.007  16.748  -2.749  1.00 20.00     0.007 C 
HETATM    9  C3  UNL     1     -34.120  18.011  -3.174  1.00 20.00     0.032 C 
HETATM   10 CL10 UNL     1     -34.651  16.284  -1.212  1.00 20.00    -0.089 Cl
ENDBRANCH   6   8
TORSDOF 1
ENDMDL
MODEL 6
REMARK VINA RESULT:      -4.2      1.483      2.642
REMARK  1 active torsions:
REMARK  status: ('A' for Active; 'I' for Inactive)
REMARK    1  A    between atoms: C4_4  and  C8_8 
ROOT
HETATM    1  C1  UNL     1     -36.272  15.863  -5.943  1.00 20.00    -0.007 C 
HETATM    2  C2  UNL     1     -35.410  14.888  -6.265  1.00 20.00     0.009 C 
HETATM    3  C5  UNL     1     -36.894  15.986  -4.585  1.00 20.00     0.029 C 
HETATM    4  C6  UNL     1     -34.949  13.831  -5.303  1.00 20.00     0.061 C 
HETATM    5  C7  UNL     1     -36.678  14.751  -3.700  1.00 20.00     0.014 C 
HETATM    6  C8  UNL     1     -35.269  14.155  -3.831  1.00 20.00     0.035 C 
HETATM    7 CL9  UNL     1     -34.744  14.798  -7.857  1.00 20.00    -0.089 Cl
ENDROOT
BRANCH   6   8
HETATM    8  C4  UNL     1     -34.217  15.041  -3.228  1.00 20.00     0.007 C 
HETATM    9  C3  UNL     1     -32.968  15.157  -3.692  1.00 20.00     0.032 C 
HETATM   10 CL10 UNL     1     -34.718  15.946  -1.841  1.00 20.00    -0.089 Cl
ENDBRANCH   6   8
TORSDOF 1
ENDMDL
MODEL 7
REMARK VINA RESULT:      -4.0      1.790      3.656
REMARK  1 active torsions:
REMARK  status: ('A' for Active; 'I' for Inactive)
REMARK    1  A    between atoms: C4_4  and  C8_8 
ROOT
HETATM    1  C1  UNL     1     -34.211  17.439  -4.280  1.00 20.00    -0.007 C 
HETATM    2  C2  UNL     1     -35.004  17.257  -3.214  1.00 20.00     0.009 C 
HETATM    3  C5  UNL     1     -33.224  16.413  -4.747  1.00 20.00     0.029 C 
HETATM    4  C6  UNL     1     -35.015  16.002  -2.388  1.00 20.00     0.061 C 
HETATM    5  C7  UNL     1     -33.007  15.273  -3.744  1.00 20.00     0.014 C 
HETATM    6  C8  UNL     1     -34.304  14.813  -3.063  1.00 20.00     0.035 C 
HETATM    7 CL9  UNL     1     -36.108  18.492  -2.721  1.00 20.00    -0.089 Cl
ENDROOT
BRANCH   6   8
HETATM    8  C4  UNL     1     -35.222  14.096  -4.011  1.00 20.00     0.007 C 
HETATM    9  C3  UNL     1     -34.820  13.204  -4.922  1.00 20.00     0.032 C 
HETATM   10 CL10 UNL     1     -36.898  14.496  -3.864  1.00 20.00    -0.089 Cl
ENDBRANCH   6   8
TORSDOF 1
ENDMDL
MODEL 8
REMARK VINA RESULT:      -4.0      1.672      3.784
REMARK  1 active torsions:
REMARK  status: ('A' for Active; 'I' for Inactive)
REMARK    1  A    between atoms: C4_4  and  C8_8 
ROOT
HETATM    1  C1  UNL     1     -34.086  17.533  -3.209  1.00 20.00    -0.007 C 
HETATM    2  C2  UNL     1     -34.212  16.407  -2.492  1.00 20.00     0.009 C 
HETATM    3  C5  UNL     1     -33.719  17.538  -4.663  1.00 20.00     0.029 C 
HETATM    4  C6  UNL     1     -34.029  15.030  -3.063  1.00 20.00     0.061 C 
HETATM    5  C7  UNL     1     -33.231  16.176  -5.173  1.00 20.00     0.014 C 
HETATM    6  C8  UNL     1     -34.031  14.996  -4.604  1.00 20.00     0.035 C 
HETATM    7 CL9  UNL     1     -34.621  16.477  -0.815  1.00 20.00    -0.089 Cl
ENDROOT
BRANCH   6   8
HETATM    8  C4  UNL     1     -35.431  14.942  -5.146  1.00 20.00     0.007 C 
HETATM    9  C3  UNL     1     -35.763  15.223  -6.410  1.00 20.00     0.032 C 
HETATM   10 CL10 UNL     1     -36.648  14.481  -4.007  1.00 20.00    -0.089 Cl
ENDBRANCH   6   8
TORSDOF 1
ENDMDL
MODEL 9
REMARK VINA RESULT:      -4.0      2.086      2.670
REMARK  1 active torsions:
REMARK  status: ('A' for Active; 'I' for Inactive)
REMARK    1  A    between atoms: C4_4  and  C8_8 
ROOT
HETATM    1  C1  UNL     1     -36.036  14.774  -3.612  1.00 20.00    -0.007 C 
HETATM    2  C2  UNL     1     -34.838  14.282  -3.956  1.00 20.00     0.009 C 
HETATM    3  C5  UNL     1     -36.205  15.911  -2.650  1.00 20.00     0.029 C 
HETATM    4  C6  UNL     1     -33.534  14.825  -3.445  1.00 20.00     0.061 C 
HETATM    5  C7  UNL     1     -34.919  16.266  -1.893  1.00 20.00     0.014 C 
HETATM    6  C8  UNL     1     -33.663  16.206  -2.774  1.00 20.00     0.035 C 
HETATM    7 CL9  UNL     1     -34.719  12.956  -5.059  1.00 20.00    -0.089 Cl
ENDROOT
BRANCH   6   8
HETATM    8  C4  UNL     1     -33.627  17.311  -3.791  1.00 20.00     0.007 C 
HETATM    9  C3  UNL     1     -33.862  18.599  -3.516  1.00 20.00     0.032 C 
HETATM   10 CL10 UNL     1     -33.254  16.819  -5.406  1.00 20.00    -0.089 Cl
ENDBRANCH   6   8
TORSDOF 1
ENDMDL
