MODEL 1
REMARK VINA RESULT:      -4.8      0.000      0.000
REMARK  2 active torsions:
REMARK  status: ('A' for Active; 'I' for Inactive)
REMARK    1  A    between atoms: C2_2  and  C3_3 
REMARK    2  A    between atoms: C3_3  and  O4_4 
ROOT
HETATM    1  C3  UNL     1     -34.989   5.456   3.881  1.00 20.00     0.398 C 
HETATM    2  F6  UNL     1     -36.165   5.827   3.321  1.00 20.00    -0.171 F 
HETATM    3  F7  UNL     1     -34.414   4.541   3.060  1.00 20.00    -0.171 F 
ENDROOT
BRANCH   1   4
HETATM    4  C2  UNL     1     -35.220   4.828   5.238  1.00 20.00     0.367 C 
HETATM    5  F5  UNL     1     -34.762   3.548   5.209  1.00 20.00    -0.223 F 
HETATM    6 CL8  UNL     1     -34.361   5.709   6.520  1.00 20.00    -0.080 Cl
ENDBRANCH   1   4
BRANCH   1   7
HETATM    7  O4  UNL     1     -34.126   6.584   3.979  1.00 20.00    -0.328 OA
HETATM    8  C1  UNL     1     -32.887   6.385   3.314  1.00 20.00     0.208 C 
ENDBRANCH   1   7
TORSDOF 2
ENDMDL
MODEL 2
REMARK VINA RESULT:      -4.4      1.813      1.813
REMARK  2 active torsions:
REMARK  status: ('A' for Active; 'I' for Inactive)
REMARK    1  A    between atoms: C2_2  and  C3_3 
REMARK    2  A    between atoms: C3_3  and  O4_4 
ROOT
HETATM    1  C3  UNL     1     -34.001   5.894   4.062  1.00 20.00     0.398 C 
HETATM    2  F6  UNL     1     -34.527   7.131   3.894  1.00 20.00    -0.171 F 
HETATM    3  F7  UNL     1     -34.800   5.017   3.404  1.00 20.00    -0.171 F 
ENDROOT
BRANCH   1   4
HETATM    4  C2  UNL     1     -33.964   5.527   5.529  1.00 20.00     0.367 C 
HETATM    5  F5  UNL     1     -34.326   6.615   6.260  1.00 20.00    -0.223 F 
HETATM    6 CL8  UNL     1     -35.083   4.197   5.899  1.00 20.00    -0.080 Cl
ENDBRANCH   1   4
BRANCH   1   7
HETATM    7  O4  UNL     1     -32.700   5.844   3.488  1.00 20.00    -0.328 OA
HETATM    8  C1  UNL     1     -32.227   7.123   3.093  1.00 20.00     0.208 C 
ENDBRANCH   1   7
TORSDOF 2
ENDMDL
MODEL 3
REMARK VINA RESULT:      -4.2      1.720      2.777
REMARK  2 active torsions:
REMARK  status: ('A' for Active; 'I' for Inactive)
REMARK    1  A    between atoms: C2_2  and  C3_3 
REMARK    2  A    between atoms: C3_3  and  O4_4 
ROOT
HETATM    1  C3  UNL     1     -34.939   5.227   4.092  1.00 20.00     0.398 C 
HETATM    2  F6  UNL     1     -35.167   3.969   4.540  1.00 20.00    -0.171 F 
HETATM    3  F7  UNL     1     -36.092   5.682   3.542  1.00 20.00    -0.171 F 
ENDROOT
BRANCH   1   4
HETATM    4  C2  UNL     1     -33.853   5.227   3.038  1.00 20.00     0.367 C 
HETATM    5  F5  UNL     1     -34.438   5.211   1.811  1.00 20.00    -0.223 F 
HETATM    6 CL8  UNL     1     -32.827   6.672   3.157  1.00 20.00    -0.080 Cl
ENDBRANCH   1   4
BRANCH   1   7
HETATM    7  O4  UNL     1     -34.591   6.071   5.184  1.00 20.00    -0.328 OA
HETATM    8  C1  UNL     1     -34.563   5.376   6.423  1.00 20.00     0.208 C 
ENDBRANCH   1   7
TORSDOF 2
ENDMDL
MODEL 4
REMARK VINA RESULT:      -4.1      2.369      3.268
REMARK  2 active torsions:
REMARK  status: ('A' for Active; 'I' for Inactive)
REMARK    1  A    between atoms: C2_2  and  C3_3 
REMARK    2  A    between atoms: C3_3  and  O4_4 
ROOT
HETATM    1  C3  UNL     1     -33.798   6.048   3.706  1.00 20.00     0.398 C 
HETATM    2  F6  UNL     1     -34.324   5.298   2.708  1.00 20.00    -0.171 F 
HETATM    3  F7  UNL     1     -34.529   7.188   3.792  1.00 20.00    -0.171 F 
ENDROOT
BRANCH   1   4
HETATM    4  C2  UNL     1     -32.359   6.404   3.402  1.00 20.00     0.367 C 
HETATM    5  F5  UNL     1     -31.795   5.380   2.707  1.00 20.00    -0.223 F 
HETATM    6 CL8  UNL     1     -32.243   7.884   2.427  1.00 20.00    -0.080 Cl
ENDBRANCH   1   4
BRANCH   1   7
HETATM    7  O4  UNL     1     -33.902   5.346   4.940  1.00 20.00    -0.328 OA
HETATM    8  C1  UNL     1     -35.119   4.622   5.056  1.00 20.00     0.208 C 
ENDBRANCH   1   7
TORSDOF 2
ENDMDL
MODEL 5
REMARK VINA RESULT:      -4.1      2.087      2.830
REMARK  2 active torsions:
REMARK  status: ('A' for Active; 'I' for Inactive)
REMARK    1  A    between atoms: C2_2  and  C3_3 
REMARK    2  A    between atoms: C3_3  and  O4_4 
ROOT
HETATM    1  C3  UNL     1     -34.976   5.423   4.004  1.00 20.00     0.398 C 
HETATM    2  F6  UNL     1     -34.497   4.334   3.357  1.00 20.00    -0.171 F 
HETATM    3  F7  UNL     1     -36.067   5.858   3.324  1.00 20.00    -0.171 F 
ENDROOT
BRANCH   1   4
HETATM    4  C2  UNL     1     -33.939   6.524   4.032  1.00 20.00     0.367 C 
HETATM    5  F5  UNL     1     -33.586   6.756   5.325  1.00 20.00    -0.223 F 
HETATM    6 CL8  UNL     1     -32.483   6.074   3.119  1.00 20.00    -0.080 Cl
ENDBRANCH   1   4
BRANCH   1   7
HETATM    7  O4  UNL     1     -35.375   5.063   5.322  1.00 20.00    -0.328 OA
HETATM    8  C1  UNL     1     -34.771   3.856   5.765  1.00 20.00     0.208 C 
ENDBRANCH   1   7
TORSDOF 2
ENDMDL
MODEL 6
REMARK VINA RESULT:      -4.1      1.776      2.056
REMARK  2 active torsions:
REMARK  status: ('A' for Active; 'I' for Inactive)
REMARK    1  A    between atoms: C2_2  and  C3_3 
REMARK    2  A    between atoms: C3_3  and  O4_4 
ROOT
HETATM    1  C3  UNL     1     -33.977   6.278   4.480  1.00 20.00     0.398 C 
HETATM    2  F6  UNL     1     -33.610   6.630   5.736  1.00 20.00    -0.171 F 
HETATM    3  F7  UNL     1     -34.523   7.371   3.890  1.00 20.00    -0.171 F 
ENDROOT
BRANCH   1   4
HETATM    4  C2  UNL     1     -35.006   5.169   4.518  1.00 20.00     0.367 C 
HETATM    5  F5  UNL     1     -34.767   4.319   3.484  1.00 20.00    -0.223 F 
HETATM    6 CL8  UNL     1     -34.922   4.251   6.037  1.00 20.00    -0.080 Cl
ENDBRANCH   1   4
BRANCH   1   7
HETATM    7  O4  UNL     1     -32.828   5.885   3.737  1.00 20.00    -0.328 OA
HETATM    8  C1  UNL     1     -32.168   6.986   3.128  1.00 20.00     0.208 C 
ENDBRANCH   1   7
TORSDOF 2
ENDMDL
MODEL 7
REMARK VINA RESULT:      -4.1      2.033      2.325
REMARK  2 active torsions:
REMARK  status: ('A' for Active; 'I' for Inactive)
REMARK    1  A    between atoms: C2_2  and  C3_3 
REMARK    2  A    between atoms: C3_3  and  O4_4 
ROOT
HETATM    1  C3  UNL     1     -33.206   6.023   3.394  1.00 20.00     0.398 C 
HETATM    2  F6  UNL     1     -33.875   5.390   2.401  1.00 20.00    -0.171 F 
HETATM    3  F7  UNL     1     -31.919   5.596   3.360  1.00 20.00    -0.171 F 
ENDROOT
BRANCH   1   4
HETATM    4  C2  UNL     1     -33.806   5.682   4.741  1.00 20.00     0.367 C 
HETATM    5  F5  UNL     1     -33.960   6.830   5.452  1.00 20.00    -0.223 F 
HETATM    6 CL8  UNL     1     -35.394   4.903   4.571  1.00 20.00    -0.080 Cl
ENDBRANCH   1   4
BRANCH   1   7
HETATM    7  O4  UNL     1     -33.226   7.428   3.167  1.00 20.00    -0.328 OA
HETATM    8  C1  UNL     1     -32.112   7.874   2.406  1.00 20.00     0.208 C 
ENDBRANCH   1   7
TORSDOF 2
ENDMDL
MODEL 8
REMARK VINA RESULT:      -3.8      2.041      2.914
REMARK  2 active torsions:
REMARK  status: ('A' for Active; 'I' for Inactive)
REMARK    1  A    between atoms: C2_2  and  C3_3 
REMARK    2  A    between atoms: C3_3  and  O4_4 
ROOT
HETATM    1  C3  UNL     1     -34.720   4.744   5.697  1.00 20.00     0.398 C 
HETATM    2  F6  UNL     1     -33.472   4.264   5.916  1.00 20.00    -0.171 F 
HETATM    3  F7  UNL     1     -35.595   3.906   6.306  1.00 20.00    -0.171 F 
ENDROOT
BRANCH   1   4
HETATM    4  C2  UNL     1     -35.022   4.786   4.215  1.00 20.00     0.367 C 
HETATM    5  F5  UNL     1     -36.222   5.397   4.033  1.00 20.00    -0.223 F 
HETATM    6 CL8  UNL     1     -33.782   5.692   3.321  1.00 20.00    -0.080 Cl
ENDBRANCH   1   4
BRANCH   1   7
HETATM    7  O4  UNL     1     -34.846   6.036   6.282  1.00 20.00    -0.328 OA
HETATM    8  C1  UNL     1     -33.591   6.671   6.479  1.00 20.00     0.208 C 
ENDBRANCH   1   7
TORSDOF 2
ENDMDL
MODEL 9
REMARK VINA RESULT:      -3.7      1.791      2.160
REMARK  2 active torsions:
REMARK  status: ('A' for Active; 'I' for Inactive)
REMARK    1  A    between atoms: C2_2  and  C3_3 
REMARK    2  A    between atoms: C3_3  and  O4_4 
ROOT
HETATM    1  C3  UNL     1     -34.034   6.135   4.247  1.00 20.00     0.398 C 
HETATM    2  F6  UNL     1     -34.412   7.253   3.582  1.00 20.00    -0.171 F 
HETATM    3  F7  UNL     1     -33.326   5.363   3.384  1.00 20.00    -0.171 F 
ENDROOT
BRANCH   1   4
HETATM    4  C2  UNL     1     -35.245   5.363   4.723  1.00 20.00     0.367 C 
HETATM    5  F5  UNL     1     -36.180   5.369   3.735  1.00 20.00    -0.223 F 
HETATM    6 CL8  UNL     1     -34.837   3.678   5.108  1.00 20.00    -0.080 Cl
ENDBRANCH   1   4
BRANCH   1   7
HETATM    7  O4  UNL     1     -33.191   6.487   5.339  1.00 20.00    -0.328 OA
HETATM    8  C1  UNL     1     -33.918   6.735   6.533  1.00 20.00     0.208 C 
ENDBRANCH   1   7
TORSDOF 2
ENDMDL
