MODEL 1
REMARK VINA RESULT:      -3.9      0.000      0.000
REMARK  2 active torsions:
REMARK  status: ('A' for Active; 'I' for Inactive)
REMARK    1  A    between atoms: C1_1  and  C3_3 
REMARK    2  A    between atoms: C2_2  and  C3_3 
ROOT
HETATM    1  C3  UNL     1     -33.744   5.535   4.687  1.00 20.00     0.187 C 
HETATM    2 BR7  UNL     1     -33.975   6.551   6.345  1.00 20.00    -0.077 Br
ENDROOT
BRANCH   1   3
HETATM    3  C1  UNL     1     -35.092   4.856   4.435  1.00 20.00     0.190 C 
HETATM    4  O4  UNL     1     -35.219   3.716   4.969  1.00 20.00    -0.647 OA
HETATM    5  O5  UNL     1     -35.913   5.493   3.717  1.00 20.00    -0.647 OA
ENDBRANCH   1   3
BRANCH   1   6
HETATM    6  C2  UNL     1     -33.233   6.463   3.603  1.00 20.00     0.248 C 
HETATM    7  F6  UNL     1     -32.163   5.908   2.971  1.00 20.00    -0.254 F 
ENDBRANCH   1   6
TORSDOF 2
ENDMDL
MODEL 2
REMARK VINA RESULT:      -3.7      2.404      2.708
REMARK  2 active torsions:
REMARK  status: ('A' for Active; 'I' for Inactive)
REMARK    1  A    between atoms: C1_1  and  C3_3 
REMARK    2  A    between atoms: C2_2  and  C3_3 
ROOT
HETATM    1  C3  UNL     1     -33.828   5.643   5.372  1.00 20.00     0.187 C 
HETATM    2 BR7  UNL     1     -35.014   4.123   5.712  1.00 20.00    -0.077 Br
ENDROOT
BRANCH   1   3
HETATM    3  C1  UNL     1     -34.071   6.030   3.911  1.00 20.00     0.190 C 
HETATM    4  O4  UNL     1     -35.091   5.498   3.385  1.00 20.00    -0.647 OA
HETATM    5  O5  UNL     1     -33.228   6.816   3.395  1.00 20.00    -0.647 OA
ENDBRANCH   1   3
BRANCH   1   6
HETATM    6  C2  UNL     1     -34.080   6.714   6.414  1.00 20.00     0.248 C 
HETATM    7  F6  UNL     1     -32.903   7.246   6.841  1.00 20.00    -0.254 F 
ENDBRANCH   1   6
TORSDOF 2
ENDMDL
MODEL 3
REMARK VINA RESULT:      -3.7      2.389      2.746
REMARK  2 active torsions:
REMARK  status: ('A' for Active; 'I' for Inactive)
REMARK    1  A    between atoms: C1_1  and  C3_3 
REMARK    2  A    between atoms: C2_2  and  C3_3 
ROOT
HETATM    1  C3  UNL     1     -33.848   5.615   5.384  1.00 20.00     0.187 C 
HETATM    2 BR7  UNL     1     -35.034   4.095   5.731  1.00 20.00    -0.077 Br
ENDROOT
BRANCH   1   3
HETATM    3  C1  UNL     1     -34.112   6.014   3.930  1.00 20.00     0.190 C 
HETATM    4  O4  UNL     1     -33.262   6.810   3.437  1.00 20.00    -0.647 OA
HETATM    5  O5  UNL     1     -35.146   5.523   3.396  1.00 20.00    -0.647 OA
ENDBRANCH   1   3
BRANCH   1   6
HETATM    6  C2  UNL     1     -34.082   6.679   6.438  1.00 20.00     0.248 C 
HETATM    7  F6  UNL     1     -32.905   7.267   6.786  1.00 20.00    -0.254 F 
ENDBRANCH   1   6
TORSDOF 2
ENDMDL
MODEL 4
REMARK VINA RESULT:      -3.7      2.538      2.973
REMARK  2 active torsions:
REMARK  status: ('A' for Active; 'I' for Inactive)
REMARK    1  A    between atoms: C1_1  and  C3_3 
REMARK    2  A    between atoms: C2_2  and  C3_3 
ROOT
HETATM    1  C3  UNL     1     -34.709   5.553   4.863  1.00 20.00     0.187 C 
HETATM    2 BR7  UNL     1     -33.921   6.526   6.369  1.00 20.00    -0.077 Br
ENDROOT
BRANCH   1   3
HETATM    3  C1  UNL     1     -33.794   5.840   3.670  1.00 20.00     0.190 C 
HETATM    4  O4  UNL     1     -32.817   6.603   3.923  1.00 20.00    -0.647 OA
HETATM    5  O5  UNL     1     -34.122   5.305   2.574  1.00 20.00    -0.647 OA
ENDBRANCH   1   3
BRANCH   1   6
HETATM    6  C2  UNL     1     -34.889   4.099   5.251  1.00 20.00     0.248 C 
HETATM    7  F6  UNL     1     -35.475   4.005   6.475  1.00 20.00    -0.254 F 
ENDBRANCH   1   6
TORSDOF 2
ENDMDL
MODEL 5
REMARK VINA RESULT:      -3.6     12.122     12.421
REMARK  2 active torsions:
REMARK  status: ('A' for Active; 'I' for Inactive)
REMARK    1  A    between atoms: C1_1  and  C3_3 
REMARK    2  A    between atoms: C2_2  and  C3_3 
ROOT
HETATM    1  C3  UNL     1     -34.620  14.969  -3.884  1.00 20.00     0.187 C 
HETATM    2 BR7  UNL     1     -34.203  15.727  -5.641  1.00 20.00    -0.077 Br
ENDROOT
BRANCH   1   3
HETATM    3  C1  UNL     1     -34.204  13.498  -3.966  1.00 20.00     0.190 C 
HETATM    4  O4  UNL     1     -35.123  12.707  -4.329  1.00 20.00    -0.647 OA
HETATM    5  O5  UNL     1     -33.010  13.238  -3.651  1.00 20.00    -0.647 OA
ENDBRANCH   1   3
BRANCH   1   6
HETATM    6  C2  UNL     1     -33.957  15.808  -2.811  1.00 20.00     0.248 C 
HETATM    7  F6  UNL     1     -34.652  15.719  -1.644  1.00 20.00    -0.254 F 
ENDBRANCH   1   6
TORSDOF 2
ENDMDL
MODEL 6
REMARK VINA RESULT:      -3.6     12.284     12.672
REMARK  2 active torsions:
REMARK  status: ('A' for Active; 'I' for Inactive)
REMARK    1  A    between atoms: C1_1  and  C3_3 
REMARK    2  A    between atoms: C2_2  and  C3_3 
ROOT
HETATM    1  C3  UNL     1     -34.324  14.883  -4.487  1.00 20.00     0.187 C 
HETATM    2 BR7  UNL     1     -34.506  15.037  -6.431  1.00 20.00    -0.077 Br
ENDROOT
BRANCH   1   3
HETATM    3  C1  UNL     1     -34.120  13.391  -4.215  1.00 20.00     0.190 C 
HETATM    4  O4  UNL     1     -32.966  13.081  -3.801  1.00 20.00    -0.647 OA
HETATM    5  O5  UNL     1     -35.110  12.641  -4.446  1.00 20.00    -0.647 OA
ENDBRANCH   1   3
BRANCH   1   6
HETATM    6  C2  UNL     1     -33.231  15.820  -4.015  1.00 20.00     0.248 C 
HETATM    7  F6  UNL     1     -33.293  15.978  -2.665  1.00 20.00    -0.254 F 
ENDBRANCH   1   6
TORSDOF 2
ENDMDL
MODEL 7
REMARK VINA RESULT:      -3.6     12.047     12.352
REMARK  2 active torsions:
REMARK  status: ('A' for Active; 'I' for Inactive)
REMARK    1  A    between atoms: C1_1  and  C3_3 
REMARK    2  A    between atoms: C2_2  and  C3_3 
ROOT
HETATM    1  C3  UNL     1     -34.804  14.982  -4.109  1.00 20.00     0.187 C 
HETATM    2 BR7  UNL     1     -33.224  16.066  -4.516  1.00 20.00    -0.077 Br
ENDROOT
BRANCH   1   3
HETATM    3  C1  UNL     1     -34.303  13.537  -4.053  1.00 20.00     0.190 C 
HETATM    4  O4  UNL     1     -33.099  13.408  -3.687  1.00 20.00    -0.647 OA
HETATM    5  O5  UNL     1     -35.132  12.646  -4.390  1.00 20.00    -0.647 OA
ENDBRANCH   1   3
BRANCH   1   6
HETATM    6  C2  UNL     1     -35.471  15.524  -2.861  1.00 20.00     0.248 C 
HETATM    7  F6  UNL     1     -34.568  15.624  -1.848  1.00 20.00    -0.254 F 
ENDBRANCH   1   6
TORSDOF 2
ENDMDL
MODEL 8
REMARK VINA RESULT:      -3.6      2.231      2.655
REMARK  2 active torsions:
REMARK  status: ('A' for Active; 'I' for Inactive)
REMARK    1  A    between atoms: C1_1  and  C3_3 
REMARK    2  A    between atoms: C2_2  and  C3_3 
ROOT
HETATM    1  C3  UNL     1     -34.258   6.318   4.892  1.00 20.00     0.187 C 
HETATM    2 BR7  UNL     1     -32.781   6.360   3.608  1.00 20.00    -0.077 Br
ENDROOT
BRANCH   1   3
HETATM    3  C1  UNL     1     -35.157   5.164   4.441  1.00 20.00     0.190 C 
HETATM    4  O4  UNL     1     -35.947   5.448   3.494  1.00 20.00    -0.647 OA
HETATM    5  O5  UNL     1     -35.024   4.076   5.067  1.00 20.00    -0.647 OA
ENDBRANCH   1   3
BRANCH   1   6
HETATM    6  C2  UNL     1     -33.694   6.235   6.296  1.00 20.00     0.248 C 
HETATM    7  F6  UNL     1     -33.971   7.375   6.986  1.00 20.00    -0.254 F 
ENDBRANCH   1   6
TORSDOF 2
ENDMDL
MODEL 9
REMARK VINA RESULT:      -3.5      2.363      2.470
REMARK  2 active torsions:
REMARK  status: ('A' for Active; 'I' for Inactive)
REMARK    1  A    between atoms: C1_1  and  C3_3 
REMARK    2  A    between atoms: C2_2  and  C3_3 
ROOT
HETATM    1  C3  UNL     1     -34.016   6.537   4.590  1.00 20.00     0.187 C 
HETATM    2 BR7  UNL     1     -35.181   5.099   3.949  1.00 20.00    -0.077 Br
ENDROOT
BRANCH   1   3
HETATM    3  C1  UNL     1     -33.980   6.383   6.112  1.00 20.00     0.190 C 
HETATM    4  O4  UNL     1     -34.730   5.472   6.570  1.00 20.00    -0.647 OA
HETATM    5  O5  UNL     1     -33.228   7.182   6.736  1.00 20.00    -0.647 OA
ENDBRANCH   1   3
BRANCH   1   6
HETATM    6  C2  UNL     1     -32.688   6.461   3.863  1.00 20.00     0.248 C 
HETATM    7  F6  UNL     1     -32.815   5.737   2.719  1.00 20.00    -0.254 F 
ENDBRANCH   1   6
TORSDOF 2
ENDMDL
