MODEL 1
REMARK VINA RESULT:      -4.5      0.000      0.000
REMARK  3 active torsions:
REMARK  status: ('A' for Active; 'I' for Inactive)
REMARK    1  A    between atoms: C1_1  and  C5_5 
REMARK    2  A    between atoms: C2_2  and  C6_6 
REMARK    3  A    between atoms: C6_6  and  C7_7 
ROOT
HETATM    1  C1  UNL     1     -32.335   6.132   3.177  1.00 20.00     0.150 A 
HETATM    2  C2  UNL     1     -33.375   5.592   4.129  1.00 20.00     0.151 A 
HETATM    3  O8  UNL     1     -33.705   5.971   2.786  1.00 20.00    -0.376 OA
ENDROOT
BRANCH   2   4
HETATM    4  C6  UNL     1     -34.032   6.435   5.209  1.00 20.00     0.034 C 
BRANCH   4   5
HETATM    5  C7  UNL     1     -34.531   5.572   6.367  1.00 20.00    -0.002 C 
HETATM    6  C4  UNL     1     -35.014   4.215   5.882  1.00 20.00     0.005 C 
ENDBRANCH   4   5
ENDBRANCH   2   4
BRANCH   1   7
HETATM    7  C5  UNL     1     -31.857   7.539   3.206  1.00 20.00     0.030 C 
HETATM    8  C3  UNL     1     -32.078   8.268   1.903  1.00 20.00     0.007 C 
ENDBRANCH   1   7
TORSDOF 3
ENDMDL
MODEL 2
REMARK VINA RESULT:      -4.4      1.024      1.323
REMARK  3 active torsions:
REMARK  status: ('A' for Active; 'I' for Inactive)
REMARK    1  A    between atoms: C1_1  and  C5_5 
REMARK    2  A    between atoms: C2_2  and  C6_6 
REMARK    3  A    between atoms: C6_6  and  C7_7 
ROOT
HETATM    1  C1  UNL     1     -32.047   7.246   3.288  1.00 20.00     0.150 A 
HETATM    2  C2  UNL     1     -32.898   6.199   3.967  1.00 20.00     0.151 A 
HETATM    3  O8  UNL     1     -32.120   5.900   2.800  1.00 20.00    -0.376 OA
ENDROOT
BRANCH   2   4
HETATM    4  C6  UNL     1     -34.402   6.097   3.773  1.00 20.00     0.034 C 
BRANCH   4   5
HETATM    5  C7  UNL     1     -35.004   4.994   4.642  1.00 20.00    -0.002 C 
HETATM    6  C4  UNL     1     -34.700   5.216   6.115  1.00 20.00     0.005 C 
ENDBRANCH   4   5
ENDBRANCH   2   4
BRANCH   1   7
HETATM    7  C5  UNL     1     -32.600   8.274   2.368  1.00 20.00     0.030 C 
HETATM    8  C3  UNL     1     -31.727   8.520   1.162  1.00 20.00     0.007 C 
ENDBRANCH   1   7
TORSDOF 3
ENDMDL
MODEL 3
REMARK VINA RESULT:      -4.3      0.856      4.151
REMARK  3 active torsions:
REMARK  status: ('A' for Active; 'I' for Inactive)
REMARK    1  A    between atoms: C1_1  and  C5_5 
REMARK    2  A    between atoms: C2_2  and  C6_6 
REMARK    3  A    between atoms: C6_6  and  C7_7 
ROOT
HETATM    1  C1  UNL     1     -34.752   5.931   4.189  1.00 20.00     0.150 A 
HETATM    2  C2  UNL     1     -33.756   6.283   3.110  1.00 20.00     0.151 A 
HETATM    3  O8  UNL     1     -34.427   5.016   3.135  1.00 20.00    -0.376 OA
ENDROOT
BRANCH   2   4
HETATM    4  C6  UNL     1     -32.251   6.211   3.311  1.00 20.00     0.034 C 
BRANCH   4   5
HETATM    5  C7  UNL     1     -31.605   7.590   3.194  1.00 20.00    -0.002 C 
HETATM    6  C4  UNL     1     -32.100   8.335   1.965  1.00 20.00     0.005 C 
ENDBRANCH   4   5
ENDBRANCH   2   4
BRANCH   1   7
HETATM    7  C5  UNL     1     -34.354   5.483   5.549  1.00 20.00     0.030 C 
HETATM    8  C3  UNL     1     -34.948   4.148   5.930  1.00 20.00     0.007 C 
ENDBRANCH   1   7
TORSDOF 3
ENDMDL
MODEL 4
REMARK VINA RESULT:      -4.2      1.129      1.789
REMARK  3 active torsions:
REMARK  status: ('A' for Active; 'I' for Inactive)
REMARK    1  A    between atoms: C1_1  and  C5_5 
REMARK    2  A    between atoms: C2_2  and  C6_6 
REMARK    3  A    between atoms: C6_6  and  C7_7 
ROOT
HETATM    1  C1  UNL     1     -33.989   5.538   2.975  1.00 20.00     0.150 A 
HETATM    2  C2  UNL     1     -34.849   4.933   4.059  1.00 20.00     0.151 A 
HETATM    3  O8  UNL     1     -34.898   6.332   3.749  1.00 20.00    -0.376 OA
ENDROOT
BRANCH   2   4
HETATM    4  C6  UNL     1     -34.327   4.606   5.449  1.00 20.00     0.034 C 
BRANCH   4   5
HETATM    5  C7  UNL     1     -34.759   5.657   6.470  1.00 20.00    -0.002 C 
HETATM    6  C4  UNL     1     -33.734   6.774   6.587  1.00 20.00     0.005 C 
ENDBRANCH   4   5
ENDBRANCH   2   4
BRANCH   1   7
HETATM    7  C5  UNL     1     -32.553   5.870   3.165  1.00 20.00     0.030 C 
HETATM    8  C3  UNL     1     -32.237   7.318   2.878  1.00 20.00     0.007 C 
ENDBRANCH   1   7
TORSDOF 3
ENDMDL
MODEL 5
REMARK VINA RESULT:      -4.1      1.544      3.846
REMARK  3 active torsions:
REMARK  status: ('A' for Active; 'I' for Inactive)
REMARK    1  A    between atoms: C1_1  and  C5_5 
REMARK    2  A    between atoms: C2_2  and  C6_6 
REMARK    3  A    between atoms: C6_6  and  C7_7 
ROOT
HETATM    1  C1  UNL     1     -35.255   5.158   5.254  1.00 20.00     0.150 A 
HETATM    2  C2  UNL     1     -34.998   5.181   3.766  1.00 20.00     0.151 A 
HETATM    3  O8  UNL     1     -35.189   3.952   4.481  1.00 20.00    -0.376 OA
ENDROOT
BRANCH   2   4
HETATM    4  C6  UNL     1     -33.614   5.359   3.164  1.00 20.00     0.034 C 
BRANCH   4   5
HETATM    5  C7  UNL     1     -33.271   6.836   2.977  1.00 20.00    -0.002 C 
HETATM    6  C4  UNL     1     -31.856   7.142   3.440  1.00 20.00     0.005 C 
ENDBRANCH   4   5
ENDBRANCH   2   4
BRANCH   1   7
HETATM    7  C5  UNL     1     -34.180   5.307   6.268  1.00 20.00     0.030 C 
HETATM    8  C3  UNL     1     -33.904   6.746   6.632  1.00 20.00     0.007 C 
ENDBRANCH   1   7
TORSDOF 3
ENDMDL
MODEL 6
REMARK VINA RESULT:      -4.0     11.103     12.053
REMARK  3 active torsions:
REMARK  status: ('A' for Active; 'I' for Inactive)
REMARK    1  A    between atoms: C1_1  and  C5_5 
REMARK    2  A    between atoms: C2_2  and  C6_6 
REMARK    3  A    between atoms: C6_6  and  C7_7 
ROOT
HETATM    1  C1  UNL     1     -34.395  13.521  -5.147  1.00 20.00     0.150 A 
HETATM    2  C2  UNL     1     -34.316  13.854  -3.676  1.00 20.00     0.151 A 
HETATM    3  O8  UNL     1     -35.132  12.780  -4.165  1.00 20.00    -0.376 OA
ENDROOT
BRANCH   2   4
HETATM    4  C6  UNL     1     -35.086  15.000  -3.040  1.00 20.00     0.034 C 
BRANCH   4   5
HETATM    5  C7  UNL     1     -34.143  16.052  -2.458  1.00 20.00    -0.002 C 
HETATM    6  C4  UNL     1     -34.609  16.522  -1.090  1.00 20.00     0.005 C 
ENDBRANCH   4   5
ENDBRANCH   2   4
BRANCH   1   7
HETATM    7  C5  UNL     1     -35.232  14.283  -6.110  1.00 20.00     0.030 C 
HETATM    8  C3  UNL     1     -34.421  15.004  -7.159  1.00 20.00     0.007 C 
ENDBRANCH   1   7
TORSDOF 3
ENDMDL
MODEL 7
REMARK VINA RESULT:      -3.9      0.920      4.406
REMARK  3 active torsions:
REMARK  status: ('A' for Active; 'I' for Inactive)
REMARK    1  A    between atoms: C1_1  and  C5_5 
REMARK    2  A    between atoms: C2_2  and  C6_6 
REMARK    3  A    between atoms: C6_6  and  C7_7 
ROOT
HETATM    1  C1  UNL     1     -33.714   5.953   3.927  1.00 20.00     0.150 A 
HETATM    2  C2  UNL     1     -32.948   6.550   2.771  1.00 20.00     0.151 A 
HETATM    3  O8  UNL     1     -32.460   5.411   3.493  1.00 20.00    -0.376 OA
ENDROOT
BRANCH   2   4
HETATM    4  C6  UNL     1     -32.090   7.799   2.899  1.00 20.00     0.034 C 
BRANCH   4   5
HETATM    5  C7  UNL     1     -31.860   8.461   1.541  1.00 20.00    -0.002 C 
HETATM    6  C4  UNL     1     -32.500   9.838   1.477  1.00 20.00     0.005 C 
ENDBRANCH   4   5
ENDBRANCH   2   4
BRANCH   1   7
HETATM    7  C5  UNL     1     -33.703   6.530   5.297  1.00 20.00     0.030 C 
HETATM    8  C3  UNL     1     -34.448   5.685   6.301  1.00 20.00     0.007 C 
ENDBRANCH   1   7
TORSDOF 3
ENDMDL
MODEL 8
REMARK VINA RESULT:      -3.7     11.624     12.319
REMARK  3 active torsions:
REMARK  status: ('A' for Active; 'I' for Inactive)
REMARK    1  A    between atoms: C1_1  and  C5_5 
REMARK    2  A    between atoms: C2_2  and  C6_6 
REMARK    3  A    between atoms: C6_6  and  C7_7 
ROOT
HETATM    1  C1  UNL     1     -33.952  15.466  -4.688  1.00 20.00     0.150 A 
HETATM    2  C2  UNL     1     -33.838  16.662  -3.772  1.00 20.00     0.151 A 
HETATM    3  O8  UNL     1     -32.754  16.250  -4.615  1.00 20.00    -0.376 OA
ENDROOT
BRANCH   2   4
HETATM    4  C6  UNL     1     -33.566  16.545  -2.281  1.00 20.00     0.034 C 
BRANCH   4   5
HETATM    5  C7  UNL     1     -34.864  16.450  -1.481  1.00 20.00    -0.002 C 
HETATM    6  C4  UNL     1     -34.737  17.134  -0.129  1.00 20.00     0.005 C 
ENDBRANCH   4   5
ENDBRANCH   2   4
BRANCH   1   7
HETATM    7  C5  UNL     1     -33.810  14.064  -4.217  1.00 20.00     0.030 C 
HETATM    8  C3  UNL     1     -35.089  13.271  -4.322  1.00 20.00     0.007 C 
ENDBRANCH   1   7
TORSDOF 3
ENDMDL
MODEL 9
REMARK VINA RESULT:      -3.6      1.548      4.305
REMARK  3 active torsions:
REMARK  status: ('A' for Active; 'I' for Inactive)
REMARK    1  A    between atoms: C1_1  and  C5_5 
REMARK    2  A    between atoms: C2_2  and  C6_6 
REMARK    3  A    between atoms: C6_6  and  C7_7 
ROOT
HETATM    1  C1  UNL     1     -34.017   5.560   6.364  1.00 20.00     0.150 A 
HETATM    2  C2  UNL     1     -33.272   6.503   5.450  1.00 20.00     0.151 A 
HETATM    3  O8  UNL     1     -34.185   6.981   6.447  1.00 20.00    -0.376 OA
ENDROOT
BRANCH   2   4
HETATM    4  C6  UNL     1     -33.693   6.778   4.016  1.00 20.00     0.034 C 
BRANCH   4   5
HETATM    5  C7  UNL     1     -32.539   6.550   3.040  1.00 20.00    -0.002 C 
HETATM    6  C4  UNL     1     -32.080   7.853   2.406  1.00 20.00     0.005 C 
ENDBRANCH   4   5
ENDBRANCH   2   4
BRANCH   1   7
HETATM    7  C5  UNL     1     -35.232   4.812   5.947  1.00 20.00     0.030 C 
HETATM    8  C3  UNL     1     -34.923   3.617   5.077  1.00 20.00     0.007 C 
ENDBRANCH   1   7
TORSDOF 3
ENDMDL
