MODEL 1
REMARK VINA RESULT:      -3.8      0.000      0.000
REMARK  2 active torsions:
REMARK  status: ('A' for Active; 'I' for Inactive)
REMARK    1  A    between atoms: C1_1  and  C5_5 
REMARK    2  A    between atoms: C1_1  and  C6_6 
ROOT
HETATM    1  C1  UNL     1     -34.886  15.560  -3.087  1.00 20.00     0.167 C 
HETATM    2  O7  UNL     1     -36.110  15.658  -2.952  1.00 20.00    -0.294 OA
ENDROOT
BRANCH   1   3
HETATM    3  C5  UNL     1     -33.950  16.403  -2.244  1.00 20.00     0.248 C 
HETATM    4 CL8  UNL     1     -34.667  16.584  -0.636  1.00 20.00    -0.100 Cl
HETATM    5 CL9  UNL     1     -33.754  17.972  -3.041  1.00 20.00    -0.100 Cl
ENDBRANCH   1   3
BRANCH   1   6
HETATM    6  C6  UNL     1     -34.271  14.581  -4.109  1.00 20.00     0.012 C 
HETATM    7  C2  UNL     1     -35.168  13.337  -4.237  1.00 20.00     0.022 C 
HETATM    8  C3  UNL     1     -34.176  15.256  -5.484  1.00 20.00     0.022 C 
HETATM    9  C4  UNL     1     -32.883  14.133  -3.630  1.00 20.00     0.022 C 
ENDBRANCH   1   6
TORSDOF 2
ENDMDL
MODEL 2
REMARK VINA RESULT:      -3.7      2.853      3.541
REMARK  2 active torsions:
REMARK  status: ('A' for Active; 'I' for Inactive)
REMARK    1  A    between atoms: C1_1  and  C5_5 
REMARK    2  A    between atoms: C1_1  and  C6_6 
ROOT
HETATM    1  C1  UNL     1     -33.909  15.860  -4.952  1.00 20.00     0.167 C 
HETATM    2  O7  UNL     1     -32.815  16.433  -4.912  1.00 20.00    -0.294 OA
ENDROOT
BRANCH   1   3
HETATM    3  C5  UNL     1     -34.830  16.045  -6.140  1.00 20.00     0.248 C 
HETATM    4 CL8  UNL     1     -34.404  14.837  -7.362  1.00 20.00    -0.100 Cl
HETATM    5 CL9  UNL     1     -34.611  17.689  -6.758  1.00 20.00    -0.100 Cl
ENDBRANCH   1   3
BRANCH   1   6
HETATM    6  C6  UNL     1     -34.371  14.941  -3.802  1.00 20.00     0.012 C 
HETATM    7  C2  UNL     1     -35.816  14.478  -4.060  1.00 20.00     0.022 C 
HETATM    8  C3  UNL     1     -33.468  13.702  -3.729  1.00 20.00     0.022 C 
HETATM    9  C4  UNL     1     -34.337  15.712  -2.474  1.00 20.00     0.022 C 
ENDBRANCH   1   6
TORSDOF 2
ENDMDL
MODEL 3
REMARK VINA RESULT:      -3.7      2.862      3.668
REMARK  2 active torsions:
REMARK  status: ('A' for Active; 'I' for Inactive)
REMARK    1  A    between atoms: C1_1  and  C5_5 
REMARK    2  A    between atoms: C1_1  and  C6_6 
ROOT
HETATM    1  C1  UNL     1     -33.924  15.869  -4.968  1.00 20.00     0.167 C 
HETATM    2  O7  UNL     1     -32.827  16.437  -4.929  1.00 20.00    -0.294 OA
ENDROOT
BRANCH   1   3
HETATM    3  C5  UNL     1     -34.844  16.056  -6.157  1.00 20.00     0.248 C 
HETATM    4 CL8  UNL     1     -34.428  14.841  -7.375  1.00 20.00    -0.100 Cl
HETATM    5 CL9  UNL     1     -34.612  17.697  -6.781  1.00 20.00    -0.100 Cl
ENDBRANCH   1   3
BRANCH   1   6
HETATM    6  C6  UNL     1     -34.391  14.954  -3.816  1.00 20.00     0.012 C 
HETATM    7  C2  UNL     1     -33.475  13.720  -3.734  1.00 20.00     0.022 C 
HETATM    8  C3  UNL     1     -34.309  15.710  -2.483  1.00 20.00     0.022 C 
HETATM    9  C4  UNL     1     -35.826  14.478  -4.079  1.00 20.00     0.022 C 
ENDBRANCH   1   6
TORSDOF 2
ENDMDL
MODEL 4
REMARK VINA RESULT:      -3.7      3.043      3.748
REMARK  2 active torsions:
REMARK  status: ('A' for Active; 'I' for Inactive)
REMARK    1  A    between atoms: C1_1  and  C5_5 
REMARK    2  A    between atoms: C1_1  and  C6_6 
ROOT
HETATM    1  C1  UNL     1     -34.810  14.151  -5.035  1.00 20.00     0.167 C 
HETATM    2  O7  UNL     1     -34.939  12.922  -5.067  1.00 20.00    -0.294 OA
ENDROOT
BRANCH   1   3
HETATM    3  C5  UNL     1     -35.562  15.027  -6.017  1.00 20.00     0.248 C 
HETATM    4 CL8  UNL     1     -37.246  15.134  -5.484  1.00 20.00    -0.100 Cl
HETATM    5 CL9  UNL     1     -35.440  14.287  -7.621  1.00 20.00    -0.100 Cl
ENDBRANCH   1   3
BRANCH   1   6
HETATM    6  C6  UNL     1     -33.888  14.831  -4.002  1.00 20.00     0.012 C 
HETATM    7  C2  UNL     1     -34.724  15.316  -2.804  1.00 20.00     0.022 C 
HETATM    8  C3  UNL     1     -32.845  13.827  -3.493  1.00 20.00     0.022 C 
HETATM    9  C4  UNL     1     -33.200  16.046  -4.640  1.00 20.00     0.022 C 
ENDBRANCH   1   6
TORSDOF 2
ENDMDL
MODEL 5
REMARK VINA RESULT:      -3.7      3.027      3.734
REMARK  2 active torsions:
REMARK  status: ('A' for Active; 'I' for Inactive)
REMARK    1  A    between atoms: C1_1  and  C5_5 
REMARK    2  A    between atoms: C1_1  and  C6_6 
ROOT
HETATM    1  C1  UNL     1     -34.817  14.154  -4.992  1.00 20.00     0.167 C 
HETATM    2  O7  UNL     1     -34.954  12.927  -5.018  1.00 20.00    -0.294 OA
ENDROOT
BRANCH   1   3
HETATM    3  C5  UNL     1     -35.558  15.031  -5.981  1.00 20.00     0.248 C 
HETATM    4 CL8  UNL     1     -37.247  15.144  -5.461  1.00 20.00    -0.100 Cl
HETATM    5 CL9  UNL     1     -35.427  14.288  -7.583  1.00 20.00    -0.100 Cl
ENDBRANCH   1   3
BRANCH   1   6
HETATM    6  C6  UNL     1     -33.895  14.833  -3.958  1.00 20.00     0.012 C 
HETATM    7  C2  UNL     1     -33.187  16.035  -4.609  1.00 20.00     0.022 C 
HETATM    8  C3  UNL     1     -34.726  15.342  -2.772  1.00 20.00     0.022 C 
HETATM    9  C4  UNL     1     -32.827  13.839  -3.482  1.00 20.00     0.022 C 
ENDBRANCH   1   6
TORSDOF 2
ENDMDL
MODEL 6
REMARK VINA RESULT:      -3.6      1.725      2.530
REMARK  2 active torsions:
REMARK  status: ('A' for Active; 'I' for Inactive)
REMARK    1  A    between atoms: C1_1  and  C5_5 
REMARK    2  A    between atoms: C1_1  and  C6_6 
ROOT
HETATM    1  C1  UNL     1     -33.788  16.100  -4.250  1.00 20.00     0.167 C 
HETATM    2  O7  UNL     1     -32.781  16.416  -4.893  1.00 20.00    -0.294 OA
ENDROOT
BRANCH   1   3
HETATM    3  C5  UNL     1     -34.417  17.078  -3.279  1.00 20.00     0.248 C 
HETATM    4 CL8  UNL     1     -34.035  18.719  -3.822  1.00 20.00    -0.100 Cl
HETATM    5 CL9  UNL     1     -33.751  16.762  -1.669  1.00 20.00    -0.100 Cl
ENDBRANCH   1   3
BRANCH   1   6
HETATM    6  C6  UNL     1     -34.436  14.709  -4.414  1.00 20.00     0.012 C 
HETATM    7  C2  UNL     1     -34.631  14.403  -5.910  1.00 20.00     0.022 C 
HETATM    8  C3  UNL     1     -33.522  13.633  -3.812  1.00 20.00     0.022 C 
HETATM    9  C4  UNL     1     -35.811  14.692  -3.731  1.00 20.00     0.022 C 
ENDBRANCH   1   6
TORSDOF 2
ENDMDL
MODEL 7
REMARK VINA RESULT:      -3.6      2.509      3.147
REMARK  2 active torsions:
REMARK  status: ('A' for Active; 'I' for Inactive)
REMARK    1  A    between atoms: C1_1  and  C5_5 
REMARK    2  A    between atoms: C1_1  and  C6_6 
ROOT
HETATM    1  C1  UNL     1     -33.866  15.878  -4.997  1.00 20.00     0.167 C 
HETATM    2  O7  UNL     1     -32.775  16.452  -4.916  1.00 20.00    -0.294 OA
ENDROOT
BRANCH   1   3
HETATM    3  C5  UNL     1     -34.361  15.005  -3.861  1.00 20.00     0.248 C 
HETATM    4 CL8  UNL     1     -34.261  15.942  -2.362  1.00 20.00    -0.100 Cl
HETATM    5 CL9  UNL     1     -33.336  13.563  -3.787  1.00 20.00    -0.100 Cl
ENDBRANCH   1   3
BRANCH   1   6
HETATM    6  C6  UNL     1     -34.757  16.027  -6.247  1.00 20.00     0.012 C 
HETATM    7  C2  UNL     1     -36.239  15.986  -5.833  1.00 20.00     0.022 C 
HETATM    8  C3  UNL     1     -34.479  17.375  -6.928  1.00 20.00     0.022 C 
HETATM    9  C4  UNL     1     -34.491  14.868  -7.218  1.00 20.00     0.022 C 
ENDBRANCH   1   6
TORSDOF 2
ENDMDL
MODEL 8
REMARK VINA RESULT:      -3.6     11.817     12.923
REMARK  2 active torsions:
REMARK  status: ('A' for Active; 'I' for Inactive)
REMARK    1  A    between atoms: C1_1  and  C5_5 
REMARK    2  A    between atoms: C1_1  and  C6_6 
ROOT
HETATM    1  C1  UNL     1     -42.581   5.526  -2.609  1.00 20.00     0.167 C 
HETATM    2  O7  UNL     1     -43.417   5.354  -3.502  1.00 20.00    -0.294 OA
ENDROOT
BRANCH   1   3
HETATM    3  C5  UNL     1     -42.086   6.920  -2.279  1.00 20.00     0.248 C 
HETATM    4 CL8  UNL     1     -43.029   7.531  -0.911  1.00 20.00    -0.100 Cl
HETATM    5 CL9  UNL     1     -42.301   7.935  -3.713  1.00 20.00    -0.100 Cl
ENDBRANCH   1   3
BRANCH   1   6
HETATM    6  C6  UNL     1     -42.017   4.338  -1.803  1.00 20.00     0.012 C 
HETATM    7  C2  UNL     1     -43.057   3.877  -0.766  1.00 20.00     0.022 C 
HETATM    8  C3  UNL     1     -41.717   3.164  -2.746  1.00 20.00     0.022 C 
HETATM    9  C4  UNL     1     -40.746   4.770  -1.059  1.00 20.00     0.022 C 
ENDBRANCH   1   6
TORSDOF 2
ENDMDL
MODEL 9
REMARK VINA RESULT:      -3.6      1.437      1.688
REMARK  2 active torsions:
REMARK  status: ('A' for Active; 'I' for Inactive)
REMARK    1  A    between atoms: C1_1  and  C5_5 
REMARK    2  A    between atoms: C1_1  and  C6_6 
ROOT
HETATM    1  C1  UNL     1     -35.451  15.265  -3.560  1.00 20.00     0.167 C 
HETATM    2  O7  UNL     1     -36.442  14.537  -3.441  1.00 20.00    -0.294 OA
ENDROOT
BRANCH   1   3
HETATM    3  C5  UNL     1     -35.381  16.593  -2.833  1.00 20.00     0.248 C 
HETATM    4 CL8  UNL     1     -34.704  16.305  -1.223  1.00 20.00    -0.100 Cl
HETATM    5 CL9  UNL     1     -37.021  17.254  -2.732  1.00 20.00    -0.100 Cl
ENDBRANCH   1   3
BRANCH   1   6
HETATM    6  C6  UNL     1     -34.258  14.852  -4.447  1.00 20.00     0.012 C 
HETATM    7  C2  UNL     1     -33.499  13.690  -3.781  1.00 20.00     0.022 C 
HETATM    8  C3  UNL     1     -34.765  14.380  -5.816  1.00 20.00     0.022 C 
HETATM    9  C4  UNL     1     -33.294  16.035  -4.607  1.00 20.00     0.022 C 
ENDBRANCH   1   6
TORSDOF 2
ENDMDL
