MODEL 1
REMARK VINA RESULT:      -2.9      0.000      0.000
REMARK  0 active torsions:
REMARK  status: ('A' for Active; 'I' for Inactive)
ROOT
HETATM    1  C1  UNL     1     -34.992   4.357   5.721  1.00 20.00     0.196 C 
HETATM    2  C2  UNL     1     -35.097   4.993   4.362  1.00 20.00     0.196 C 
HETATM    3  C3  UNL     1     -33.983   6.375   5.754  1.00 20.00     0.337 C 
HETATM    4  O4  UNL     1     -34.713   5.463   6.579  1.00 20.00    -0.365 OA
HETATM    5  O5  UNL     1     -34.069   5.980   4.382  1.00 20.00    -0.365 OA
ENDROOT
TORSDOF 0
ENDMDL
MODEL 2
REMARK VINA RESULT:      -2.9      0.024      1.763
REMARK  0 active torsions:
REMARK  status: ('A' for Active; 'I' for Inactive)
ROOT
HETATM    1  C1  UNL     1     -35.098   4.989   4.349  1.00 20.00     0.196 C 
HETATM    2  C2  UNL     1     -34.988   4.336   5.699  1.00 20.00     0.196 C 
HETATM    3  C3  UNL     1     -33.998   6.362   5.762  1.00 20.00     0.337 C 
HETATM    4  O4  UNL     1     -34.078   5.987   4.384  1.00 20.00    -0.365 OA
HETATM    5  O5  UNL     1     -34.722   5.432   6.572  1.00 20.00    -0.365 OA
ENDROOT
TORSDOF 0
ENDMDL
MODEL 3
REMARK VINA RESULT:      -2.8      0.850      2.356
REMARK  0 active torsions:
REMARK  status: ('A' for Active; 'I' for Inactive)
ROOT
HETATM    1  C1  UNL     1     -33.947   6.130   4.548  1.00 20.00     0.196 C 
HETATM    2  C2  UNL     1     -34.107   6.279   6.036  1.00 20.00     0.196 C 
HETATM    3  C3  UNL     1     -35.023   4.327   5.374  1.00 20.00     0.337 C 
HETATM    4  O4  UNL     1     -34.930   5.152   4.210  1.00 20.00    -0.365 OA
HETATM    5  O5  UNL     1     -34.351   4.945   6.475  1.00 20.00    -0.365 OA
ENDROOT
TORSDOF 0
ENDMDL
MODEL 4
REMARK VINA RESULT:      -2.8      0.857      1.705
REMARK  0 active torsions:
REMARK  status: ('A' for Active; 'I' for Inactive)
ROOT
HETATM    1  C1  UNL     1     -34.124   6.241   6.052  1.00 20.00     0.196 C 
HETATM    2  C2  UNL     1     -33.951   6.123   4.563  1.00 20.00     0.196 C 
HETATM    3  C3  UNL     1     -35.030   4.301   5.341  1.00 20.00     0.337 C 
HETATM    4  O4  UNL     1     -34.369   4.896   6.461  1.00 20.00    -0.365 OA
HETATM    5  O5  UNL     1     -34.928   5.152   4.195  1.00 20.00    -0.365 OA
ENDROOT
TORSDOF 0
ENDMDL
MODEL 5
REMARK VINA RESULT:      -2.5     12.318     12.727
REMARK  0 active torsions:
REMARK  status: ('A' for Active; 'I' for Inactive)
ROOT
HETATM    1  C1  UNL     1     -35.822  13.860  -4.316  1.00 20.00     0.196 C 
HETATM    2  C2  UNL     1     -35.335  14.950  -3.401  1.00 20.00     0.196 C 
HETATM    3  C3  UNL     1     -33.625  13.564  -3.895  1.00 20.00     0.337 C 
HETATM    4  O4  UNL     1     -34.830  12.844  -4.172  1.00 20.00    -0.365 OA
HETATM    5  O5  UNL     1     -33.922  14.929  -3.590  1.00 20.00    -0.365 OA
ENDROOT
TORSDOF 0
ENDMDL
MODEL 6
REMARK VINA RESULT:      -2.5     12.327     12.729
REMARK  0 active torsions:
REMARK  status: ('A' for Active; 'I' for Inactive)
ROOT
HETATM    1  C1  UNL     1     -35.381  14.943  -3.411  1.00 20.00     0.196 C 
HETATM    2  C2  UNL     1     -35.854  13.845  -4.324  1.00 20.00     0.196 C 
HETATM    3  C3  UNL     1     -33.654  13.577  -3.901  1.00 20.00     0.337 C 
HETATM    4  O4  UNL     1     -33.967  14.940  -3.599  1.00 20.00    -0.365 OA
HETATM    5  O5  UNL     1     -34.850  12.843  -4.176  1.00 20.00    -0.365 OA
ENDROOT
TORSDOF 0
ENDMDL
MODEL 7
REMARK VINA RESULT:      -2.5     12.330     13.044
REMARK  0 active torsions:
REMARK  status: ('A' for Active; 'I' for Inactive)
ROOT
HETATM    1  C1  UNL     1     -33.892  14.920  -4.458  1.00 20.00     0.196 C 
HETATM    2  C2  UNL     1     -33.656  13.543  -3.900  1.00 20.00     0.196 C 
HETATM    3  C3  UNL     1     -35.867  13.853  -4.222  1.00 20.00     0.337 C 
HETATM    4  O4  UNL     1     -35.272  15.153  -4.178  1.00 20.00    -0.365 OA
HETATM    5  O5  UNL     1     -34.853  12.844  -4.233  1.00 20.00    -0.365 OA
ENDROOT
TORSDOF 0
ENDMDL
MODEL 8
REMARK VINA RESULT:      -2.5     12.341     13.029
REMARK  0 active torsions:
REMARK  status: ('A' for Active; 'I' for Inactive)
ROOT
HETATM    1  C1  UNL     1     -33.660  13.582  -3.905  1.00 20.00     0.196 C 
HETATM    2  C2  UNL     1     -33.921  14.928  -4.523  1.00 20.00     0.196 C 
HETATM    3  C3  UNL     1     -35.877  13.840  -4.239  1.00 20.00     0.337 C 
HETATM    4  O4  UNL     1     -34.847  12.848  -4.206  1.00 20.00    -0.365 OA
HETATM    5  O5  UNL     1     -35.303  15.150  -4.252  1.00 20.00    -0.365 OA
ENDROOT
TORSDOF 0
ENDMDL
MODEL 9
REMARK VINA RESULT:      -2.4      8.660      9.300
REMARK  0 active torsions:
REMARK  status: ('A' for Active; 'I' for Inactive)
ROOT
HETATM    1  C1  UNL     1     -40.809   4.860  -0.809  1.00 20.00     0.196 C 
HETATM    2  C2  UNL     1     -41.651   5.239  -1.997  1.00 20.00     0.196 C 
HETATM    3  C3  UNL     1     -41.049   7.102  -0.877  1.00 20.00     0.337 C 
HETATM    4  O4  UNL     1     -40.895   6.009   0.033  1.00 20.00    -0.365 OA
HETATM    5  O5  UNL     1     -41.342   6.617  -2.190  1.00 20.00    -0.365 OA
ENDROOT
TORSDOF 0
ENDMDL
