MODEL 1
REMARK VINA RESULT:      -4.4      0.000      0.000
REMARK  3 active torsions:
REMARK  status: ('A' for Active; 'I' for Inactive)
REMARK    1  A    between atoms: C2_2  and  C3_3 
REMARK    2  A    between atoms: C3_3  and  C5_5 
REMARK    3  A    between atoms: C4_4  and  C5_5 
ROOT
HETATM    1  C5  UNL     1     -34.224   6.198   4.250  1.00 20.00     0.096 C 
HETATM    2 CL7  UNL     1     -33.758   6.601   5.938  1.00 20.00    -0.124 Cl
ENDROOT
BRANCH   1   3
HETATM    3  C3  UNL     1     -32.967   6.008   3.384  1.00 20.00     0.021 C 
BRANCH   3   4
HETATM    4  C2  UNL     1     -32.001   7.198   3.445  1.00 20.00    -0.003 C 
HETATM    5  C1  UNL     1     -32.091   8.051   2.190  1.00 20.00     0.005 C 
ENDBRANCH   3   4
ENDBRANCH   1   3
BRANCH   1   6
HETATM    6  C4  UNL     1     -35.111   4.952   4.294  1.00 20.00     0.134 C 
HETATM    7 CL6  UNL     1     -35.019   4.125   5.870  1.00 20.00    -0.129 Cl
ENDBRANCH   1   6
TORSDOF 3
ENDMDL
MODEL 2
REMARK VINA RESULT:      -4.2      1.161      2.341
REMARK  3 active torsions:
REMARK  status: ('A' for Active; 'I' for Inactive)
REMARK    1  A    between atoms: C2_2  and  C3_3 
REMARK    2  A    between atoms: C3_3  and  C5_5 
REMARK    3  A    between atoms: C4_4  and  C5_5 
ROOT
HETATM    1  C5  UNL     1     -34.069   5.285   5.166  1.00 20.00     0.096 C 
HETATM    2 CL7  UNL     1     -35.210   3.911   4.965  1.00 20.00    -0.124 Cl
ENDROOT
BRANCH   1   3
HETATM    3  C3  UNL     1     -34.142   6.219   3.946  1.00 20.00     0.021 C 
BRANCH   3   4
HETATM    4  C2  UNL     1     -32.898   6.152   3.053  1.00 20.00    -0.003 C 
HETATM    5  C1  UNL     1     -31.924   7.275   3.373  1.00 20.00     0.005 C 
ENDBRANCH   3   4
ENDBRANCH   1   3
BRANCH   1   6
HETATM    6  C4  UNL     1     -34.414   5.991   6.480  1.00 20.00     0.134 C 
HETATM    7 CL6  UNL     1     -33.307   7.345   6.819  1.00 20.00    -0.129 Cl
ENDBRANCH   1   6
TORSDOF 3
ENDMDL
MODEL 3
REMARK VINA RESULT:      -4.1      2.379      4.220
REMARK  3 active torsions:
REMARK  status: ('A' for Active; 'I' for Inactive)
REMARK    1  A    between atoms: C2_2  and  C3_3 
REMARK    2  A    between atoms: C3_3  and  C5_5 
REMARK    3  A    between atoms: C4_4  and  C5_5 
ROOT
HETATM    1  C5  UNL     1     -33.659   6.571   3.689  1.00 20.00     0.096 C 
HETATM    2 CL7  UNL     1     -34.208   5.249   2.602  1.00 20.00    -0.124 Cl
ENDROOT
BRANCH   1   3
HETATM    3  C3  UNL     1     -33.918   6.193   5.157  1.00 20.00     0.021 C 
BRANCH   3   4
HETATM    4  C2  UNL     1     -35.088   5.218   5.336  1.00 20.00    -0.003 C 
HETATM    5  C1  UNL     1     -34.626   3.905   5.948  1.00 20.00     0.005 C 
ENDBRANCH   3   4
ENDBRANCH   1   3
BRANCH   1   6
HETATM    6  C4  UNL     1     -32.180   6.835   3.393  1.00 20.00     0.134 C 
HETATM    7 CL6  UNL     1     -31.965   8.060   2.116  1.00 20.00    -0.129 Cl
ENDBRANCH   1   6
TORSDOF 3
ENDMDL
MODEL 4
REMARK VINA RESULT:      -4.0      1.501      1.730
REMARK  3 active torsions:
REMARK  status: ('A' for Active; 'I' for Inactive)
REMARK    1  A    between atoms: C2_2  and  C3_3 
REMARK    2  A    between atoms: C3_3  and  C5_5 
REMARK    3  A    between atoms: C4_4  and  C5_5 
ROOT
HETATM    1  C5  UNL     1     -34.519   5.261   4.003  1.00 20.00     0.096 C 
HETATM    2 CL7  UNL     1     -36.072   5.837   3.306  1.00 20.00    -0.124 Cl
ENDROOT
BRANCH   1   3
HETATM    3  C3  UNL     1     -33.520   6.426   4.106  1.00 20.00     0.021 C 
BRANCH   3   4
HETATM    4  C2  UNL     1     -32.388   6.350   3.074  1.00 20.00    -0.003 C 
HETATM    5  C1  UNL     1     -32.093   7.716   2.474  1.00 20.00     0.005 C 
ENDBRANCH   3   4
ENDBRANCH   1   3
BRANCH   1   6
HETATM    6  C4  UNL     1     -34.825   4.615   5.356  1.00 20.00     0.134 C 
HETATM    7 CL6  UNL     1     -34.581   5.751   6.707  1.00 20.00    -0.129 Cl
ENDBRANCH   1   6
TORSDOF 3
ENDMDL
MODEL 5
REMARK VINA RESULT:      -3.7      1.662      3.901
REMARK  3 active torsions:
REMARK  status: ('A' for Active; 'I' for Inactive)
REMARK    1  A    between atoms: C2_2  and  C3_3 
REMARK    2  A    between atoms: C3_3  and  C5_5 
REMARK    3  A    between atoms: C4_4  and  C5_5 
ROOT
HETATM    1  C5  UNL     1     -33.455   5.990   4.265  1.00 20.00     0.096 C 
HETATM    2 CL7  UNL     1     -33.411   7.022   5.736  1.00 20.00    -0.124 Cl
ENDROOT
BRANCH   1   3
HETATM    3  C3  UNL     1     -34.891   5.504   4.001  1.00 20.00     0.021 C 
BRANCH   3   4
HETATM    4  C2  UNL     1     -35.214   4.167   4.679  1.00 20.00    -0.003 C 
HETATM    5  C1  UNL     1     -35.102   4.271   6.192  1.00 20.00     0.005 C 
ENDBRANCH   3   4
ENDBRANCH   1   3
BRANCH   1   6
HETATM    6  C4  UNL     1     -32.878   6.806   3.105  1.00 20.00     0.134 C 
HETATM    7 CL6  UNL     1     -31.385   7.659   3.569  1.00 20.00    -0.129 Cl
ENDBRANCH   1   6
TORSDOF 3
ENDMDL
MODEL 6
REMARK VINA RESULT:      -3.7      2.342      3.442
REMARK  3 active torsions:
REMARK  status: ('A' for Active; 'I' for Inactive)
REMARK    1  A    between atoms: C2_2  and  C3_3 
REMARK    2  A    between atoms: C3_3  and  C5_5 
REMARK    3  A    between atoms: C4_4  and  C5_5 
ROOT
HETATM    1  C5  UNL     1     -33.347   5.828   4.087  1.00 20.00     0.096 C 
HETATM    2 CL7  UNL     1     -32.052   6.943   3.530  1.00 20.00    -0.124 Cl
ENDROOT
BRANCH   1   3
HETATM    3  C3  UNL     1     -34.109   6.449   5.269  1.00 20.00     0.021 C 
BRANCH   3   4
HETATM    4  C2  UNL     1     -34.310   5.480   6.441  1.00 20.00    -0.003 C 
HETATM    5  C1  UNL     1     -34.841   4.137   5.964  1.00 20.00     0.005 C 
ENDBRANCH   3   4
ENDBRANCH   1   3
BRANCH   1   6
HETATM    6  C4  UNL     1     -34.249   5.524   2.889  1.00 20.00     0.134 C 
HETATM    7 CL6  UNL     1     -35.966   5.838   3.250  1.00 20.00    -0.129 Cl
ENDBRANCH   1   6
TORSDOF 3
ENDMDL
MODEL 7
REMARK VINA RESULT:      -3.4     11.247     12.054
REMARK  3 active torsions:
REMARK  status: ('A' for Active; 'I' for Inactive)
REMARK    1  A    between atoms: C2_2  and  C3_3 
REMARK    2  A    between atoms: C3_3  and  C5_5 
REMARK    3  A    between atoms: C4_4  and  C5_5 
ROOT
HETATM    1  C5  UNL     1     -34.328  13.858  -3.532  1.00 20.00     0.096 C 
HETATM    2 CL7  UNL     1     -32.554  14.144  -3.556  1.00 20.00    -0.124 Cl
ENDROOT
BRANCH   1   3
HETATM    3  C3  UNL     1     -35.065  15.138  -3.103  1.00 20.00     0.021 C 
BRANCH   3   4
HETATM    4  C2  UNL     1     -34.150  16.172  -2.436  1.00 20.00    -0.003 C 
HETATM    5  C1  UNL     1     -34.632  16.517  -1.035  1.00 20.00     0.005 C 
ENDBRANCH   3   4
ENDBRANCH   1   3
BRANCH   1   6
HETATM    6  C4  UNL     1     -34.741  13.369  -4.922  1.00 20.00     0.134 C 
HETATM    7 CL6  UNL     1     -34.472  14.610  -6.173  1.00 20.00    -0.129 Cl
ENDBRANCH   1   6
TORSDOF 3
ENDMDL
MODEL 8
REMARK VINA RESULT:      -3.4     11.265     12.174
REMARK  3 active torsions:
REMARK  status: ('A' for Active; 'I' for Inactive)
REMARK    1  A    between atoms: C2_2  and  C3_3 
REMARK    2  A    between atoms: C3_3  and  C5_5 
REMARK    3  A    between atoms: C4_4  and  C5_5 
ROOT
HETATM    1  C5  UNL     1     -33.283  15.283  -3.508  1.00 20.00     0.096 C 
HETATM    2 CL7  UNL     1     -33.352  16.179  -5.064  1.00 20.00    -0.124 Cl
ENDROOT
BRANCH   1   3
HETATM    3  C3  UNL     1     -34.369  15.802  -2.549  1.00 20.00     0.021 C 
BRANCH   3   4
HETATM    4  C2  UNL     1     -33.856  16.863  -1.567  1.00 20.00    -0.003 C 
HETATM    5  C1  UNL     1     -34.748  16.958  -0.339  1.00 20.00     0.005 C 
ENDBRANCH   3   4
ENDBRANCH   1   3
BRANCH   1   6
HETATM    6  C4  UNL     1     -33.426  13.792  -3.820  1.00 20.00     0.134 C 
HETATM    7 CL6  UNL     1     -35.111  13.348  -4.192  1.00 20.00    -0.129 Cl
ENDBRANCH   1   6
TORSDOF 3
ENDMDL
MODEL 9
REMARK VINA RESULT:      -3.4      1.839      3.551
REMARK  3 active torsions:
REMARK  status: ('A' for Active; 'I' for Inactive)
REMARK    1  A    between atoms: C2_2  and  C3_3 
REMARK    2  A    between atoms: C3_3  and  C5_5 
REMARK    3  A    between atoms: C4_4  and  C5_5 
ROOT
HETATM    1  C5  UNL     1     -33.676   6.707   3.904  1.00 20.00     0.096 C 
HETATM    2 CL7  UNL     1     -32.507   7.265   2.658  1.00 20.00    -0.124 Cl
ENDROOT
BRANCH   1   3
HETATM    3  C3  UNL     1     -34.342   5.395   3.457  1.00 20.00     0.021 C 
BRANCH   3   4
HETATM    4  C2  UNL     1     -35.469   4.936   4.390  1.00 20.00    -0.003 C 
HETATM    5  C1  UNL     1     -34.981   3.883   5.372  1.00 20.00     0.005 C 
ENDBRANCH   3   4
ENDBRANCH   1   3
BRANCH   1   6
HETATM    6  C4  UNL     1     -32.918   6.570   5.227  1.00 20.00     0.134 C 
HETATM    7 CL6  UNL     1     -33.917   7.057   6.620  1.00 20.00    -0.129 Cl
ENDBRANCH   1   6
TORSDOF 3
ENDMDL
