MODEL 1
REMARK VINA RESULT:      -3.4      0.000      0.000
REMARK  0 active torsions:
REMARK  status: ('A' for Active; 'I' for Inactive)
ROOT
HETATM    1  C1  UNL     1     -33.623   5.652   3.944  1.00 20.00     0.051 C 
HETATM    2  C2  UNL     1     -34.436   6.028   6.292  1.00 20.00     0.051 C 
HETATM    3  C3  UNL     1     -34.647   3.756   5.237  1.00 20.00     0.051 C 
HETATM    4  C4  UNL     1     -34.652   5.260   4.995  1.00 20.00     0.092 C 
HETATM    5  F5  UNL     1     -35.885   5.597   4.514  1.00 20.00    -0.244 F 
ENDROOT
TORSDOF 0
ENDMDL
MODEL 2
REMARK VINA RESULT:      -3.4      0.070      1.917
REMARK  0 active torsions:
REMARK  status: ('A' for Active; 'I' for Inactive)
ROOT
HETATM    1  C1  UNL     1     -34.386   6.115   6.259  1.00 20.00     0.051 C 
HETATM    2  C2  UNL     1     -34.641   3.797   5.320  1.00 20.00     0.051 C 
HETATM    3  C3  UNL     1     -33.607   5.613   3.923  1.00 20.00     0.051 C 
HETATM    4  C4  UNL     1     -34.628   5.288   5.004  1.00 20.00     0.092 C 
HETATM    5  F5  UNL     1     -35.862   5.619   4.522  1.00 20.00    -0.244 F 
ENDROOT
TORSDOF 0
ENDMDL
MODEL 3
REMARK VINA RESULT:      -3.4      0.027      1.960
REMARK  0 active torsions:
REMARK  status: ('A' for Active; 'I' for Inactive)
ROOT
HETATM    1  C1  UNL     1     -34.658   3.759   5.263  1.00 20.00     0.051 C 
HETATM    2  C2  UNL     1     -33.623   5.617   3.924  1.00 20.00     0.051 C 
HETATM    3  C3  UNL     1     -34.421   6.050   6.268  1.00 20.00     0.051 C 
HETATM    4  C4  UNL     1     -34.651   5.256   4.989  1.00 20.00     0.092 C 
HETATM    5  F5  UNL     1     -35.883   5.594   4.507  1.00 20.00    -0.244 F 
ENDROOT
TORSDOF 0
ENDMDL
MODEL 4
REMARK VINA RESULT:      -3.4      1.366      1.963
REMARK  0 active torsions:
REMARK  status: ('A' for Active; 'I' for Inactive)
ROOT
HETATM    1  C1  UNL     1     -34.289   6.335   6.082  1.00 20.00     0.051 C 
HETATM    2  C2  UNL     1     -35.536   5.697   3.995  1.00 20.00     0.051 C 
HETATM    3  C3  UNL     1     -34.726   3.913   5.570  1.00 20.00     0.051 C 
HETATM    4  C4  UNL     1     -34.452   5.292   4.985  1.00 20.00     0.092 C 
HETATM    5  F5  UNL     1     -33.272   5.224   4.301  1.00 20.00    -0.244 F 
ENDROOT
TORSDOF 0
ENDMDL
MODEL 5
REMARK VINA RESULT:      -3.4      1.381      2.159
REMARK  0 active torsions:
REMARK  status: ('A' for Active; 'I' for Inactive)
ROOT
HETATM    1  C1  UNL     1     -35.502   5.695   4.015  1.00 20.00     0.051 C 
HETATM    2  C2  UNL     1     -34.732   3.949   5.651  1.00 20.00     0.051 C 
HETATM    3  C3  UNL     1     -34.265   6.380   6.093  1.00 20.00     0.051 C 
HETATM    4  C4  UNL     1     -34.433   5.306   5.026  1.00 20.00     0.092 C 
HETATM    5  F5  UNL     1     -33.248   5.200   4.355  1.00 20.00    -0.244 F 
ENDROOT
TORSDOF 0
ENDMDL
MODEL 6
REMARK VINA RESULT:      -3.4      1.369      2.013
REMARK  0 active torsions:
REMARK  status: ('A' for Active; 'I' for Inactive)
ROOT
HETATM    1  C1  UNL     1     -34.734   3.925   5.581  1.00 20.00     0.051 C 
HETATM    2  C2  UNL     1     -34.278   6.348   6.072  1.00 20.00     0.051 C 
HETATM    3  C3  UNL     1     -35.532   5.701   3.992  1.00 20.00     0.051 C 
HETATM    4  C4  UNL     1     -34.450   5.296   4.984  1.00 20.00     0.092 C 
HETATM    5  F5  UNL     1     -33.271   5.213   4.299  1.00 20.00    -0.244 F 
ENDROOT
TORSDOF 0
ENDMDL
MODEL 7
REMARK VINA RESULT:      -2.9      8.383      8.738
REMARK  0 active torsions:
REMARK  status: ('A' for Active; 'I' for Inactive)
ROOT
HETATM    1  C1  UNL     1     -40.726   4.639  -1.053  1.00 20.00     0.051 C 
HETATM    2  C2  UNL     1     -42.479   5.649   0.439  1.00 20.00     0.051 C 
HETATM    3  C3  UNL     1     -41.376   7.050  -1.334  1.00 20.00     0.051 C 
HETATM    4  C4  UNL     1     -41.199   5.903  -0.348  1.00 20.00     0.092 C 
HETATM    5  F5  UNL     1     -40.231   6.267   0.542  1.00 20.00    -0.244 F 
ENDROOT
TORSDOF 0
ENDMDL
MODEL 8
REMARK VINA RESULT:      -2.9      8.384      8.744
REMARK  0 active torsions:
REMARK  status: ('A' for Active; 'I' for Inactive)
ROOT
HETATM    1  C1  UNL     1     -42.478   5.661   0.425  1.00 20.00     0.051 C 
HETATM    2  C2  UNL     1     -41.360   7.041  -1.354  1.00 20.00     0.051 C 
HETATM    3  C3  UNL     1     -40.720   4.630  -1.047  1.00 20.00     0.051 C 
HETATM    4  C4  UNL     1     -41.193   5.902  -0.356  1.00 20.00     0.092 C 
HETATM    5  F5  UNL     1     -40.229   6.272   0.537  1.00 20.00    -0.244 F 
ENDROOT
TORSDOF 0
ENDMDL
MODEL 9
REMARK VINA RESULT:      -2.9      8.409      8.744
REMARK  0 active torsions:
REMARK  status: ('A' for Active; 'I' for Inactive)
ROOT
HETATM    1  C1  UNL     1     -41.411   6.939  -1.410  1.00 20.00     0.051 C 
HETATM    2  C2  UNL     1     -40.711   4.551  -1.054  1.00 20.00     0.051 C 
HETATM    3  C3  UNL     1     -42.478   5.575   0.412  1.00 20.00     0.051 C 
HETATM    4  C4  UNL     1     -41.207   5.828  -0.389  1.00 20.00     0.092 C 
HETATM    5  F5  UNL     1     -40.242   6.242   0.485  1.00 20.00    -0.244 F 
ENDROOT
TORSDOF 0
ENDMDL
