MODEL 1
REMARK VINA RESULT:      -3.8      0.000      0.000
REMARK  2 active torsions:
REMARK  status: ('A' for Active; 'I' for Inactive)
REMARK    1  A    between atoms: C2_2  and  C3_3 
REMARK    2  A    between atoms: C2_2  and  C4_4 
ROOT
HETATM    1  C1  UNL     1     -35.152   4.357   4.485  1.00 20.00     0.016 C 
HETATM    2  C2  UNL     1     -34.551   5.469   4.943  1.00 20.00    -0.062 C 
ENDROOT
BRANCH   2   3
HETATM    3  C3  UNL     1     -34.396   5.711   6.419  1.00 20.00     0.149 C 
HETATM    4 CL5  UNL     1     -33.495   7.214   6.720  1.00 20.00    -0.126 Cl
ENDBRANCH   2   3
BRANCH   2   5
HETATM    5  C4  UNL     1     -34.016   6.505   3.995  1.00 20.00     0.149 C 
HETATM    6 CL6  UNL     1     -32.432   6.014   3.352  1.00 20.00    -0.126 Cl
ENDBRANCH   2   5
TORSDOF 2
ENDMDL
MODEL 2
REMARK VINA RESULT:      -3.8      0.026      2.610
REMARK  2 active torsions:
REMARK  status: ('A' for Active; 'I' for Inactive)
REMARK    1  A    between atoms: C2_2  and  C3_3 
REMARK    2  A    between atoms: C2_2  and  C4_4 
ROOT
HETATM    1  C1  UNL     1     -35.148   4.338   4.510  1.00 20.00     0.016 C 
HETATM    2  C2  UNL     1     -34.547   5.452   4.959  1.00 20.00    -0.062 C 
ENDROOT
BRANCH   2   3
HETATM    3  C3  UNL     1     -34.023   6.486   4.001  1.00 20.00     0.149 C 
HETATM    4 CL5  UNL     1     -32.420   6.023   3.387  1.00 20.00    -0.126 Cl
ENDBRANCH   2   3
BRANCH   2   5
HETATM    5  C4  UNL     1     -34.379   5.701   6.432  1.00 20.00     0.149 C 
HETATM    6 CL6  UNL     1     -33.489   7.214   6.718  1.00 20.00    -0.126 Cl
ENDBRANCH   2   5
TORSDOF 2
ENDMDL
MODEL 3
REMARK VINA RESULT:      -3.8      1.678      3.033
REMARK  2 active torsions:
REMARK  status: ('A' for Active; 'I' for Inactive)
REMARK    1  A    between atoms: C2_2  and  C3_3 
REMARK    2  A    between atoms: C2_2  and  C4_4 
ROOT
HETATM    1  C1  UNL     1     -34.723   5.394   3.348  1.00 20.00     0.016 C 
HETATM    2  C2  UNL     1     -33.678   5.965   3.971  1.00 20.00    -0.062 C 
ENDROOT
BRANCH   2   3
HETATM    3  C3  UNL     1     -32.367   6.160   3.260  1.00 20.00     0.149 C 
HETATM    4 CL5  UNL     1     -32.285   7.776   2.521  1.00 20.00    -0.126 Cl
ENDBRANCH   2   3
BRANCH   2   5
HETATM    5  C4  UNL     1     -33.786   6.427   5.397  1.00 20.00     0.149 C 
HETATM    6 CL6  UNL     1     -34.749   5.282   6.359  1.00 20.00    -0.126 Cl
ENDBRANCH   2   5
TORSDOF 2
ENDMDL
MODEL 4
REMARK VINA RESULT:      -3.8      1.686      1.803
REMARK  2 active torsions:
REMARK  status: ('A' for Active; 'I' for Inactive)
REMARK    1  A    between atoms: C2_2  and  C3_3 
REMARK    2  A    between atoms: C2_2  and  C4_4 
ROOT
HETATM    1  C1  UNL     1     -34.720   5.440   3.315  1.00 20.00     0.016 C 
HETATM    2  C2  UNL     1     -33.674   5.979   3.963  1.00 20.00    -0.062 C 
ENDROOT
BRANCH   2   3
HETATM    3  C3  UNL     1     -33.792   6.405   5.400  1.00 20.00     0.149 C 
HETATM    4 CL5  UNL     1     -34.766   5.240   6.326  1.00 20.00    -0.126 Cl
ENDBRANCH   2   3
BRANCH   2   5
HETATM    5  C4  UNL     1     -32.353   6.173   3.272  1.00 20.00     0.149 C 
HETATM    6 CL6  UNL     1     -32.278   7.770   2.493  1.00 20.00    -0.126 Cl
ENDBRANCH   2   5
TORSDOF 2
ENDMDL
MODEL 5
REMARK VINA RESULT:      -3.7      1.817      2.275
REMARK  2 active torsions:
REMARK  status: ('A' for Active; 'I' for Inactive)
REMARK    1  A    between atoms: C2_2  and  C3_3 
REMARK    2  A    between atoms: C2_2  and  C4_4 
ROOT
HETATM    1  C1  UNL     1     -33.714   6.627   5.588  1.00 20.00     0.016 C 
HETATM    2  C2  UNL     1     -34.013   5.939   4.473  1.00 20.00    -0.062 C 
ENDROOT
BRANCH   2   3
HETATM    3  C3  UNL     1     -35.140   4.944   4.459  1.00 20.00     0.149 C 
HETATM    4 CL5  UNL     1     -35.171   4.002   5.967  1.00 20.00    -0.126 Cl
ENDBRANCH   2   3
BRANCH   2   5
HETATM    5  C4  UNL     1     -33.229   6.140   3.207  1.00 20.00     0.149 C 
HETATM    6 CL6  UNL     1     -31.858   7.239   3.481  1.00 20.00    -0.126 Cl
ENDBRANCH   2   5
TORSDOF 2
ENDMDL
MODEL 6
REMARK VINA RESULT:      -3.7      1.813      3.069
REMARK  2 active torsions:
REMARK  status: ('A' for Active; 'I' for Inactive)
REMARK    1  A    between atoms: C2_2  and  C3_3 
REMARK    2  A    between atoms: C2_2  and  C4_4 
ROOT
HETATM    1  C1  UNL     1     -33.713   6.627   5.590  1.00 20.00     0.016 C 
HETATM    2  C2  UNL     1     -34.014   5.940   4.475  1.00 20.00    -0.062 C 
ENDROOT
BRANCH   2   3
HETATM    3  C3  UNL     1     -33.235   6.147   3.206  1.00 20.00     0.149 C 
HETATM    4 CL5  UNL     1     -31.856   7.235   3.483  1.00 20.00    -0.126 Cl
ENDBRANCH   2   3
BRANCH   2   5
HETATM    5  C4  UNL     1     -35.139   4.943   4.462  1.00 20.00     0.149 C 
HETATM    6 CL6  UNL     1     -35.171   4.008   5.975  1.00 20.00    -0.126 Cl
ENDBRANCH   2   5
TORSDOF 2
ENDMDL
MODEL 7
REMARK VINA RESULT:      -3.6      1.660      1.660
REMARK  2 active torsions:
REMARK  status: ('A' for Active; 'I' for Inactive)
REMARK    1  A    between atoms: C2_2  and  C3_3 
REMARK    2  A    between atoms: C2_2  and  C4_4 
ROOT
HETATM    1  C1  UNL     1     -35.071   5.441   3.653  1.00 20.00     0.016 C 
HETATM    2  C2  UNL     1     -34.219   5.956   4.555  1.00 20.00    -0.062 C 
ENDROOT
BRANCH   2   3
HETATM    3  C3  UNL     1     -34.392   5.686   6.024  1.00 20.00     0.149 C 
HETATM    4 CL5  UNL     1     -35.236   4.143   6.286  1.00 20.00    -0.126 Cl
ENDBRANCH   2   3
BRANCH   2   5
HETATM    5  C4  UNL     1     -33.066   6.820   4.125  1.00 20.00     0.149 C 
HETATM    6 CL6  UNL     1     -32.073   5.986   2.908  1.00 20.00    -0.126 Cl
ENDBRANCH   2   5
TORSDOF 2
ENDMDL
MODEL 8
REMARK VINA RESULT:      -3.5      1.866      2.355
REMARK  2 active torsions:
REMARK  status: ('A' for Active; 'I' for Inactive)
REMARK    1  A    between atoms: C2_2  and  C3_3 
REMARK    2  A    between atoms: C2_2  and  C4_4 
ROOT
HETATM    1  C1  UNL     1     -34.009   5.452   2.662  1.00 20.00     0.016 C 
HETATM    2  C2  UNL     1     -34.245   5.686   3.964  1.00 20.00    -0.062 C 
ENDROOT
BRANCH   2   3
HETATM    3  C3  UNL     1     -33.360   6.608   4.756  1.00 20.00     0.149 C 
HETATM    4 CL5  UNL     1     -33.925   6.734   6.438  1.00 20.00    -0.126 Cl
ENDBRANCH   2   3
BRANCH   2   5
HETATM    5  C4  UNL     1     -35.400   5.033   4.669  1.00 20.00     0.149 C 
HETATM    6 CL6  UNL     1     -34.837   3.698   5.700  1.00 20.00    -0.126 Cl
ENDBRANCH   2   5
TORSDOF 2
ENDMDL
MODEL 9
REMARK VINA RESULT:      -3.5      1.871      2.591
REMARK  2 active torsions:
REMARK  status: ('A' for Active; 'I' for Inactive)
REMARK    1  A    between atoms: C2_2  and  C3_3 
REMARK    2  A    between atoms: C2_2  and  C4_4 
ROOT
HETATM    1  C1  UNL     1     -33.952   5.441   2.666  1.00 20.00     0.016 C 
HETATM    2  C2  UNL     1     -34.226   5.701   3.955  1.00 20.00    -0.062 C 
ENDROOT
BRANCH   2   3
HETATM    3  C3  UNL     1     -35.397   5.054   4.642  1.00 20.00     0.149 C 
HETATM    4 CL5  UNL     1     -34.861   3.700   5.662  1.00 20.00    -0.126 Cl
ENDBRANCH   2   3
BRANCH   2   5
HETATM    5  C4  UNL     1     -33.372   6.646   4.752  1.00 20.00     0.149 C 
HETATM    6 CL6  UNL     1     -33.926   6.728   6.440  1.00 20.00    -0.126 Cl
ENDBRANCH   2   5
TORSDOF 2
ENDMDL
