MODEL 1
REMARK VINA RESULT:      -3.9      0.000      0.000
REMARK  3 active torsions:
REMARK  status: ('A' for Active; 'I' for Inactive)
REMARK    1  A    between atoms: C1_1  and  C5_5 
REMARK    2  A    between atoms: C1_1  and  O8_8 
REMARK    3  A    between atoms: C6_6  and  O8_8 
ROOT
HETATM    1  O8  UNL     1     -33.099   5.317   4.565  1.00 20.00    -0.310 OA
ENDROOT
BRANCH   1   2
HETATM    2  C1  UNL     1     -33.005   5.936   3.348  1.00 20.00     0.273 C 
HETATM    3  O7  UNL     1     -33.581   5.585   2.327  1.00 20.00    -0.264 OA
BRANCH   2   4
HETATM    4  C5  UNL     1     -32.080   7.115   3.482  1.00 20.00     0.225 C 
HETATM    5 CL9  UNL     1     -32.075   8.061   1.984  1.00 20.00    -0.120 Cl
ENDBRANCH   2   4
ENDBRANCH   1   2
BRANCH   1   6
HETATM    6  C6  UNL     1     -34.372   5.404   5.207  1.00 20.00     0.060 C 
HETATM    7  C2  UNL     1     -34.730   4.028   5.766  1.00 20.00     0.045 C 
HETATM    8  C3  UNL     1     -34.250   6.428   6.334  1.00 20.00     0.045 C 
HETATM    9  C4  UNL     1     -35.405   5.859   4.177  1.00 20.00     0.045 C 
ENDBRANCH   1   6
TORSDOF 3
ENDMDL
MODEL 2
REMARK VINA RESULT:      -3.9      0.020      1.451
REMARK  3 active torsions:
REMARK  status: ('A' for Active; 'I' for Inactive)
REMARK    1  A    between atoms: C1_1  and  C5_5 
REMARK    2  A    between atoms: C1_1  and  O8_8 
REMARK    3  A    between atoms: C6_6  and  O8_8 
ROOT
HETATM    1  O8  UNL     1     -33.116   5.295   4.546  1.00 20.00    -0.310 OA
ENDROOT
BRANCH   1   2
HETATM    2  C1  UNL     1     -33.018   5.933   3.338  1.00 20.00     0.273 C 
HETATM    3  O7  UNL     1     -33.601   5.605   2.313  1.00 20.00    -0.264 OA
BRANCH   2   4
HETATM    4  C5  UNL     1     -32.080   7.099   3.488  1.00 20.00     0.225 C 
HETATM    5 CL9  UNL     1     -32.073   8.072   2.007  1.00 20.00    -0.120 Cl
ENDBRANCH   2   4
ENDBRANCH   1   2
BRANCH   1   6
HETATM    6  C6  UNL     1     -34.379   5.406   5.203  1.00 20.00     0.060 C 
HETATM    7  C2  UNL     1     -35.421   5.854   4.181  1.00 20.00     0.045 C 
HETATM    8  C3  UNL     1     -34.730   4.027   5.760  1.00 20.00     0.045 C 
HETATM    9  C4  UNL     1     -34.251   6.426   6.334  1.00 20.00     0.045 C 
ENDBRANCH   1   6
TORSDOF 3
ENDMDL
MODEL 3
REMARK VINA RESULT:      -3.8     11.856     12.543
REMARK  3 active torsions:
REMARK  status: ('A' for Active; 'I' for Inactive)
REMARK    1  A    between atoms: C1_1  and  C5_5 
REMARK    2  A    between atoms: C1_1  and  O8_8 
REMARK    3  A    between atoms: C6_6  and  O8_8 
ROOT
HETATM    1  O8  UNL     1     -35.621  14.858  -3.375  1.00 20.00    -0.310 OA
ENDROOT
BRANCH   1   2
HETATM    2  C1  UNL     1     -35.384  13.946  -4.368  1.00 20.00     0.273 C 
HETATM    3  O7  UNL     1     -34.874  12.845  -4.213  1.00 20.00    -0.264 OA
BRANCH   2   4
HETATM    4  C5  UNL     1     -35.860  14.525  -5.673  1.00 20.00     0.225 C 
HETATM    5 CL9  UNL     1     -34.506  14.667  -6.807  1.00 20.00    -0.120 Cl
ENDBRANCH   2   4
ENDBRANCH   1   2
BRANCH   1   6
HETATM    6  C6  UNL     1     -34.569  15.791  -3.128  1.00 20.00     0.060 C 
HETATM    7  C2  UNL     1     -34.801  17.026  -3.996  1.00 20.00     0.045 C 
HETATM    8  C3  UNL     1     -34.618  16.158  -1.646  1.00 20.00     0.045 C 
HETATM    9  C4  UNL     1     -33.238  15.126  -3.473  1.00 20.00     0.045 C 
ENDBRANCH   1   6
TORSDOF 3
ENDMDL
MODEL 4
REMARK VINA RESULT:      -3.8     11.910     13.239
REMARK  3 active torsions:
REMARK  status: ('A' for Active; 'I' for Inactive)
REMARK    1  A    between atoms: C1_1  and  C5_5 
REMARK    2  A    between atoms: C1_1  and  O8_8 
REMARK    3  A    between atoms: C6_6  and  O8_8 
ROOT
HETATM    1  O8  UNL     1     -34.156  14.525  -5.683  1.00 20.00    -0.310 OA
ENDROOT
BRANCH   1   2
HETATM    2  C1  UNL     1     -34.514  13.635  -4.707  1.00 20.00     0.273 C 
HETATM    3  O7  UNL     1     -34.934  12.502  -4.899  1.00 20.00    -0.264 OA
BRANCH   2   4
HETATM    4  C5  UNL     1     -34.300  14.285  -3.366  1.00 20.00     0.225 C 
HETATM    5 CL9  UNL     1     -33.049  15.534  -3.486  1.00 20.00    -0.120 Cl
ENDBRANCH   2   4
ENDBRANCH   1   2
BRANCH   1   6
HETATM    6  C6  UNL     1     -35.236  15.155  -6.373  1.00 20.00     0.060 C 
HETATM    7  C2  UNL     1     -36.481  15.088  -5.491  1.00 20.00     0.045 C 
HETATM    8  C3  UNL     1     -34.835  16.606  -6.630  1.00 20.00     0.045 C 
HETATM    9  C4  UNL     1     -35.465  14.419  -7.693  1.00 20.00     0.045 C 
ENDBRANCH   1   6
TORSDOF 3
ENDMDL
MODEL 5
REMARK VINA RESULT:      -3.8     11.857     12.541
REMARK  3 active torsions:
REMARK  status: ('A' for Active; 'I' for Inactive)
REMARK    1  A    between atoms: C1_1  and  C5_5 
REMARK    2  A    between atoms: C1_1  and  O8_8 
REMARK    3  A    between atoms: C6_6  and  O8_8 
ROOT
HETATM    1  O8  UNL     1     -35.623  14.872  -3.393  1.00 20.00    -0.310 OA
ENDROOT
BRANCH   1   2
HETATM    2  C1  UNL     1     -35.373  13.947  -4.372  1.00 20.00     0.273 C 
HETATM    3  O7  UNL     1     -34.852  12.854  -4.199  1.00 20.00    -0.264 OA
BRANCH   2   4
HETATM    4  C5  UNL     1     -35.849  14.503  -5.686  1.00 20.00     0.225 C 
HETATM    5 CL9  UNL     1     -34.488  14.665  -6.809  1.00 20.00    -0.120 Cl
ENDBRANCH   2   4
ENDBRANCH   1   2
BRANCH   1   6
HETATM    6  C6  UNL     1     -34.565  15.792  -3.126  1.00 20.00     0.060 C 
HETATM    7  C2  UNL     1     -33.239  15.126  -3.487  1.00 20.00     0.045 C 
HETATM    8  C3  UNL     1     -34.800  17.027  -3.994  1.00 20.00     0.045 C 
HETATM    9  C4  UNL     1     -34.604  16.163  -1.644  1.00 20.00     0.045 C 
ENDBRANCH   1   6
TORSDOF 3
ENDMDL
MODEL 6
REMARK VINA RESULT:      -3.6     11.976     12.878
REMARK  3 active torsions:
REMARK  status: ('A' for Active; 'I' for Inactive)
REMARK    1  A    between atoms: C1_1  and  C5_5 
REMARK    2  A    between atoms: C1_1  and  O8_8 
REMARK    3  A    between atoms: C6_6  and  O8_8 
ROOT
HETATM    1  O8  UNL     1     -34.882  15.905  -3.982  1.00 20.00    -0.310 OA
ENDROOT
BRANCH   1   2
HETATM    2  C1  UNL     1     -33.795  16.731  -3.876  1.00 20.00     0.273 C 
HETATM    3  O7  UNL     1     -32.984  16.953  -4.765  1.00 20.00    -0.264 OA
BRANCH   2   4
HETATM    4  C5  UNL     1     -33.773  17.317  -2.491  1.00 20.00     0.225 C 
HETATM    5 CL9  UNL     1     -34.682  16.281  -1.376  1.00 20.00    -0.120 Cl
ENDBRANCH   2   4
ENDBRANCH   1   2
BRANCH   1   6
HETATM    6  C6  UNL     1     -34.621  14.603  -4.508  1.00 20.00     0.060 C 
HETATM    7  C2  UNL     1     -34.442  14.718  -6.021  1.00 20.00     0.045 C 
HETATM    8  C3  UNL     1     -33.341  14.090  -3.852  1.00 20.00     0.045 C 
HETATM    9  C4  UNL     1     -35.802  13.695  -4.167  1.00 20.00     0.045 C 
ENDBRANCH   1   6
TORSDOF 3
ENDMDL
MODEL 7
REMARK VINA RESULT:      -3.6     11.665     12.840
REMARK  3 active torsions:
REMARK  status: ('A' for Active; 'I' for Inactive)
REMARK    1  A    between atoms: C1_1  and  C5_5 
REMARK    2  A    between atoms: C1_1  and  O8_8 
REMARK    3  A    between atoms: C6_6  and  O8_8 
ROOT
HETATM    1  O8  UNL     1     -34.001  15.624  -5.056  1.00 20.00    -0.310 OA
ENDROOT
BRANCH   1   2
HETATM    2  C1  UNL     1     -33.308  15.592  -3.875  1.00 20.00     0.273 C 
HETATM    3  O7  UNL     1     -32.449  14.773  -3.579  1.00 20.00    -0.264 OA
BRANCH   2   4
HETATM    4  C5  UNL     1     -33.781  16.731  -3.012  1.00 20.00     0.225 C 
HETATM    5 CL9  UNL     1     -34.634  16.106  -1.591  1.00 20.00    -0.120 Cl
ENDBRANCH   2   4
ENDBRANCH   1   2
BRANCH   1   6
HETATM    6  C6  UNL     1     -35.074  14.689  -5.169  1.00 20.00     0.060 C 
HETATM    7  C2  UNL     1     -36.370  15.384  -4.757  1.00 20.00     0.045 C 
HETATM    8  C3  UNL     1     -35.143  14.243  -6.629  1.00 20.00     0.045 C 
HETATM    9  C4  UNL     1     -34.781  13.499  -4.257  1.00 20.00     0.045 C 
ENDBRANCH   1   6
TORSDOF 3
ENDMDL
MODEL 8
REMARK VINA RESULT:      -3.6      2.418      3.834
REMARK  3 active torsions:
REMARK  status: ('A' for Active; 'I' for Inactive)
REMARK    1  A    between atoms: C1_1  and  C5_5 
REMARK    2  A    between atoms: C1_1  and  O8_8 
REMARK    3  A    between atoms: C6_6  and  O8_8 
ROOT
HETATM    1  O8  UNL     1     -33.644   7.242   3.746  1.00 20.00    -0.310 OA
ENDROOT
BRANCH   1   2
HETATM    2  C1  UNL     1     -34.258   6.051   4.027  1.00 20.00     0.273 C 
HETATM    3  O7  UNL     1     -34.747   5.293   3.200  1.00 20.00    -0.264 OA
BRANCH   2   4
HETATM    4  C5  UNL     1     -34.225   5.835   5.515  1.00 20.00     0.225 C 
HETATM    5 CL9  UNL     1     -34.923   4.257   5.919  1.00 20.00    -0.120 Cl
ENDBRANCH   2   4
ENDBRANCH   1   2
BRANCH   1   6
HETATM    6  C6  UNL     1     -32.323   7.147   3.213  1.00 20.00     0.060 C 
HETATM    7  C2  UNL     1     -32.254   7.978   1.934  1.00 20.00     0.045 C 
HETATM    8  C3  UNL     1     -31.362   7.696   4.265  1.00 20.00     0.045 C 
HETATM    9  C4  UNL     1     -32.020   5.677   2.924  1.00 20.00     0.045 C 
ENDBRANCH   1   6
TORSDOF 3
ENDMDL
MODEL 9
REMARK VINA RESULT:      -3.6     11.433     12.487
REMARK  3 active torsions:
REMARK  status: ('A' for Active; 'I' for Inactive)
REMARK    1  A    between atoms: C1_1  and  C5_5 
REMARK    2  A    between atoms: C1_1  and  O8_8 
REMARK    3  A    between atoms: C6_6  and  O8_8 
ROOT
HETATM    1  O8  UNL     1     -35.738  14.740  -3.384  1.00 20.00    -0.310 OA
ENDROOT
BRANCH   1   2
HETATM    2  C1  UNL     1     -34.840  13.833  -3.881  1.00 20.00     0.273 C 
HETATM    3  O7  UNL     1     -35.116  12.714  -4.293  1.00 20.00    -0.264 OA
BRANCH   2   4
HETATM    4  C5  UNL     1     -33.467  14.446  -3.835  1.00 20.00     0.225 C 
HETATM    5 CL9  UNL     1     -33.471  15.875  -2.788  1.00 20.00    -0.120 Cl
ENDBRANCH   2   4
ENDBRANCH   1   2
BRANCH   1   6
HETATM    6  C6  UNL     1     -36.646  15.296  -4.336  1.00 20.00     0.060 C 
HETATM    7  C2  UNL     1     -36.686  16.810  -4.141  1.00 20.00     0.045 C 
HETATM    8  C3  UNL     1     -36.125  14.945  -5.728  1.00 20.00     0.045 C 
HETATM    9  C4  UNL     1     -38.026  14.681  -4.108  1.00 20.00     0.045 C 
ENDBRANCH   1   6
TORSDOF 3
ENDMDL
