MODEL 1
REMARK VINA RESULT:      -4.9      0.000      0.000
REMARK  5 active torsions:
REMARK  status: ('A' for Active; 'I' for Inactive)
REMARK    1  A    between atoms: C1_1  and  C5_5 
REMARK    2  A    between atoms: C1_1  and  C9_9 
REMARK    3  A    between atoms: C5_5  and  C6_6 
REMARK    4  A    between atoms: C7_7  and  C9_9 
REMARK    5  A    between atoms: C8_8  and  C9_9 
ROOT
HETATM    1  C1  UNL     1     -32.630   6.485   3.443  1.00 20.00     0.131 C 
HETATM    2  O10 UNL     1     -32.121   5.453   3.007  1.00 20.00    -0.298 OA
ENDROOT
BRANCH   1   3
HETATM    3  C5  UNL     1     -32.040   7.862   3.175  1.00 20.00     0.078 C 
BRANCH   3   4
HETATM    4  C6  UNL     1     -31.975   8.227   1.694  1.00 20.00     0.003 C 
HETATM    5  C2  UNL     1     -32.418   9.659   1.426  1.00 20.00     0.005 C 
ENDBRANCH   3   4
ENDBRANCH   1   3
BRANCH   1   6
HETATM    6  C9  UNL     1     -33.916   6.451   4.268  1.00 20.00     0.054 C 
BRANCH   6   7
HETATM    7  C7  UNL     1     -33.593   6.076   5.723  1.00 20.00     0.007 C 
HETATM    8  C3  UNL     1     -33.668   7.266   6.671  1.00 20.00     0.006 C 
ENDBRANCH   6   7
BRANCH   6   9
HETATM    9  C8  UNL     1     -34.907   5.445   3.660  1.00 20.00     0.007 C 
HETATM   10  C4  UNL     1     -35.279   4.326   4.625  1.00 20.00     0.006 C 
ENDBRANCH   6   9
ENDBRANCH   1   6
TORSDOF 5
ENDMDL
MODEL 2
REMARK VINA RESULT:      -4.3      1.074      2.232
REMARK  5 active torsions:
REMARK  status: ('A' for Active; 'I' for Inactive)
REMARK    1  A    between atoms: C1_1  and  C5_5 
REMARK    2  A    between atoms: C1_1  and  C9_9 
REMARK    3  A    between atoms: C5_5  and  C6_6 
REMARK    4  A    between atoms: C7_7  and  C9_9 
REMARK    5  A    between atoms: C8_8  and  C9_9 
ROOT
HETATM    1  C1  UNL     1     -33.352   5.924   3.216  1.00 20.00     0.131 C 
HETATM    2  O10 UNL     1     -33.980   5.455   2.267  1.00 20.00    -0.298 OA
ENDROOT
BRANCH   1   3
HETATM    3  C5  UNL     1     -32.117   6.793   3.028  1.00 20.00     0.078 C 
BRANCH   3   4
HETATM    4  C6  UNL     1     -32.420   8.184   2.476  1.00 20.00     0.003 C 
HETATM    5  C2  UNL     1     -31.772   8.428   1.120  1.00 20.00     0.005 C 
ENDBRANCH   3   4
ENDBRANCH   1   3
BRANCH   1   6
HETATM    6  C9  UNL     1     -33.793   5.683   4.660  1.00 20.00     0.054 C 
BRANCH   6   7
HETATM    7  C7  UNL     1     -35.058   4.808   4.679  1.00 20.00     0.007 C 
HETATM    8  C3  UNL     1     -35.176   3.968   5.944  1.00 20.00     0.006 C 
ENDBRANCH   6   7
BRANCH   6   9
HETATM    9  C8  UNL     1     -34.056   7.025   5.363  1.00 20.00     0.007 C 
HETATM   10  C4  UNL     1     -33.447   7.088   6.758  1.00 20.00     0.006 C 
ENDBRANCH   6   9
ENDBRANCH   1   6
TORSDOF 5
ENDMDL
MODEL 3
REMARK VINA RESULT:      -4.3     10.715     11.890
REMARK  5 active torsions:
REMARK  status: ('A' for Active; 'I' for Inactive)
REMARK    1  A    between atoms: C1_1  and  C5_5 
REMARK    2  A    between atoms: C1_1  and  C9_9 
REMARK    3  A    between atoms: C5_5  and  C6_6 
REMARK    4  A    between atoms: C7_7  and  C9_9 
REMARK    5  A    between atoms: C8_8  and  C9_9 
ROOT
HETATM    1  C1  UNL     1     -35.202  13.888  -3.922  1.00 20.00     0.131 C 
HETATM    2  O10 UNL     1     -34.867  12.774  -4.324  1.00 20.00    -0.298 OA
ENDROOT
BRANCH   1   3
HETATM    3  C5  UNL     1     -36.545  14.512  -4.275  1.00 20.00     0.078 C 
BRANCH   3   4
HETATM    4  C6  UNL     1     -36.628  15.025  -5.710  1.00 20.00     0.003 C 
HETATM    5  C2  UNL     1     -36.826  16.533  -5.780  1.00 20.00     0.005 C 
ENDBRANCH   3   4
ENDBRANCH   1   3
BRANCH   1   6
HETATM    6  C9  UNL     1     -34.293  14.712  -3.011  1.00 20.00     0.054 C 
BRANCH   6   7
HETATM    7  C7  UNL     1     -35.037  15.970  -2.533  1.00 20.00     0.007 C 
HETATM    8  C3  UNL     1     -34.578  16.442  -1.159  1.00 20.00     0.006 C 
ENDBRANCH   6   7
BRANCH   6   9
HETATM    9  C8  UNL     1     -33.007  15.099  -3.759  1.00 20.00     0.007 C 
HETATM   10  C4  UNL     1     -33.208  16.269  -4.715  1.00 20.00     0.006 C 
ENDBRANCH   6   9
ENDBRANCH   1   6
TORSDOF 5
ENDMDL
MODEL 4
REMARK VINA RESULT:      -4.2     10.648     12.197
REMARK  5 active torsions:
REMARK  status: ('A' for Active; 'I' for Inactive)
REMARK    1  A    between atoms: C1_1  and  C5_5 
REMARK    2  A    between atoms: C1_1  and  C9_9 
REMARK    3  A    between atoms: C5_5  and  C6_6 
REMARK    4  A    between atoms: C7_7  and  C9_9 
REMARK    5  A    between atoms: C8_8  and  C9_9 
ROOT
HETATM    1  C1  UNL     1     -34.537  13.825  -4.534  1.00 20.00     0.131 C 
HETATM    2  O10 UNL     1     -34.796  12.651  -4.798  1.00 20.00    -0.298 OA
ENDROOT
BRANCH   1   3
HETATM    3  C5  UNL     1     -33.624  14.221  -3.383  1.00 20.00     0.078 C 
BRANCH   3   4
HETATM    4  C6  UNL     1     -33.606  15.720  -3.098  1.00 20.00     0.003 C 
HETATM    5  C2  UNL     1     -34.470  16.097  -1.902  1.00 20.00     0.005 C 
ENDBRANCH   3   4
ENDBRANCH   1   3
BRANCH   1   6
HETATM    6  C9  UNL     1     -35.102  14.972  -5.372  1.00 20.00     0.054 C 
BRANCH   6   7
HETATM    7  C7  UNL     1     -36.636  14.876  -5.421  1.00 20.00     0.007 C 
HETATM    8  C3  UNL     1     -37.278  14.945  -4.042  1.00 20.00     0.006 C 
ENDBRANCH   6   7
BRANCH   6   9
HETATM    9  C8  UNL     1     -34.513  14.929  -6.791  1.00 20.00     0.007 C 
HETATM   10  C4  UNL     1     -35.523  14.468  -7.835  1.00 20.00     0.006 C 
ENDBRANCH   6   9
ENDBRANCH   1   6
TORSDOF 5
ENDMDL
MODEL 5
REMARK VINA RESULT:      -4.2     10.755     11.931
REMARK  5 active torsions:
REMARK  status: ('A' for Active; 'I' for Inactive)
REMARK    1  A    between atoms: C1_1  and  C5_5 
REMARK    2  A    between atoms: C1_1  and  C9_9 
REMARK    3  A    between atoms: C5_5  and  C6_6 
REMARK    4  A    between atoms: C7_7  and  C9_9 
REMARK    5  A    between atoms: C8_8  and  C9_9 
ROOT
HETATM    1  C1  UNL     1     -33.452  14.995  -3.370  1.00 20.00     0.131 C 
HETATM    2  O10 UNL     1     -32.290  14.677  -3.620  1.00 20.00    -0.298 OA
ENDROOT
BRANCH   1   3
HETATM    3  C5  UNL     1     -34.622  14.045  -3.582  1.00 20.00     0.078 C 
BRANCH   3   4
HETATM    4  C6  UNL     1     -34.591  13.319  -4.925  1.00 20.00     0.003 C 
HETATM    5  C2  UNL     1     -34.918  14.239  -6.093  1.00 20.00     0.005 C 
ENDBRANCH   3   4
ENDBRANCH   1   3
BRANCH   1   6
HETATM    6  C9  UNL     1     -33.796  16.371  -2.799  1.00 20.00     0.054 C 
BRANCH   6   7
HETATM    7  C7  UNL     1     -34.713  16.213  -1.575  1.00 20.00     0.007 C 
HETATM    8  C3  UNL     1     -34.383  17.194  -0.458  1.00 20.00     0.006 C 
ENDBRANCH   6   7
BRANCH   6   9
HETATM    9  C8  UNL     1     -34.475  17.234  -3.874  1.00 20.00     0.007 C 
HETATM   10  C4  UNL     1     -33.529  17.625  -5.002  1.00 20.00     0.006 C 
ENDBRANCH   6   9
ENDBRANCH   1   6
TORSDOF 5
ENDMDL
MODEL 6
REMARK VINA RESULT:      -4.1     10.870     11.846
REMARK  5 active torsions:
REMARK  status: ('A' for Active; 'I' for Inactive)
REMARK    1  A    between atoms: C1_1  and  C5_5 
REMARK    2  A    between atoms: C1_1  and  C9_9 
REMARK    3  A    between atoms: C5_5  and  C6_6 
REMARK    4  A    between atoms: C7_7  and  C9_9 
REMARK    5  A    between atoms: C8_8  and  C9_9 
ROOT
HETATM    1  C1  UNL     1     -33.531  15.322  -3.688  1.00 20.00     0.131 C 
HETATM    2  O10 UNL     1     -32.770  16.071  -4.300  1.00 20.00    -0.298 OA
ENDROOT
BRANCH   1   3
HETATM    3  C5  UNL     1     -33.494  13.809  -3.853  1.00 20.00     0.078 C 
BRANCH   3   4
HETATM    4  C6  UNL     1     -34.696  13.241  -4.602  1.00 20.00     0.003 C 
HETATM    5  C2  UNL     1     -34.947  13.951  -5.926  1.00 20.00     0.005 C 
ENDBRANCH   3   4
ENDBRANCH   1   3
BRANCH   1   6
HETATM    6  C9  UNL     1     -34.554  15.867  -2.692  1.00 20.00     0.054 C 
BRANCH   6   7
HETATM    7  C7  UNL     1     -35.635  16.665  -3.439  1.00 20.00     0.007 C 
HETATM    8  C3  UNL     1     -36.984  15.958  -3.460  1.00 20.00     0.006 C 
ENDBRANCH   6   7
BRANCH   6   9
HETATM    9  C8  UNL     1     -33.855  16.753  -1.648  1.00 20.00     0.007 C 
HETATM   10  C4  UNL     1     -34.690  16.954  -0.390  1.00 20.00     0.006 C 
ENDBRANCH   6   9
ENDBRANCH   1   6
TORSDOF 5
ENDMDL
MODEL 7
REMARK VINA RESULT:      -4.1      1.247      2.114
REMARK  5 active torsions:
REMARK  status: ('A' for Active; 'I' for Inactive)
REMARK    1  A    between atoms: C1_1  and  C5_5 
REMARK    2  A    between atoms: C1_1  and  C9_9 
REMARK    3  A    between atoms: C5_5  and  C6_6 
REMARK    4  A    between atoms: C7_7  and  C9_9 
REMARK    5  A    between atoms: C8_8  and  C9_9 
ROOT
HETATM    1  C1  UNL     1     -32.229   7.017   3.487  1.00 20.00     0.131 C 
HETATM    2  O10 UNL     1     -31.358   7.589   4.141  1.00 20.00    -0.298 OA
ENDROOT
BRANCH   1   3
HETATM    3  C5  UNL     1     -32.450   7.291   2.006  1.00 20.00     0.078 C 
BRANCH   3   4
HETATM    4  C6  UNL     1     -31.726   8.534   1.494  1.00 20.00     0.003 C 
HETATM    5  C2  UNL     1     -32.591   9.785   1.568  1.00 20.00     0.005 C 
ENDBRANCH   3   4
ENDBRANCH   1   3
BRANCH   1   6
HETATM    6  C9  UNL     1     -33.137   5.963   4.121  1.00 20.00     0.054 C 
BRANCH   6   7
HETATM    7  C7  UNL     1     -34.135   5.438   3.076  1.00 20.00     0.007 C 
HETATM    8  C3  UNL     1     -35.586   5.689   3.465  1.00 20.00     0.006 C 
ENDBRANCH   6   7
BRANCH   6   9
HETATM    9  C8  UNL     1     -33.883   6.564   5.324  1.00 20.00     0.007 C 
HETATM   10  C4  UNL     1     -34.231   5.523   6.381  1.00 20.00     0.006 C 
ENDBRANCH   6   9
ENDBRANCH   1   6
TORSDOF 5
ENDMDL
MODEL 8
REMARK VINA RESULT:      -4.1     11.031     12.066
REMARK  5 active torsions:
REMARK  status: ('A' for Active; 'I' for Inactive)
REMARK    1  A    between atoms: C1_1  and  C5_5 
REMARK    2  A    between atoms: C1_1  and  C9_9 
REMARK    3  A    between atoms: C5_5  and  C6_6 
REMARK    4  A    between atoms: C7_7  and  C9_9 
REMARK    5  A    between atoms: C8_8  and  C9_9 
ROOT
HETATM    1  C1  UNL     1     -34.895  13.914  -4.589  1.00 20.00     0.131 C 
HETATM    2  O10 UNL     1     -34.866  12.684  -4.594  1.00 20.00    -0.298 OA
ENDROOT
BRANCH   1   3
HETATM    3  C5  UNL     1     -34.497  14.745  -5.801  1.00 20.00     0.078 C 
BRANCH   3   4
HETATM    4  C6  UNL     1     -35.194  14.324  -7.092  1.00 20.00     0.003 C 
HETATM    5  C2  UNL     1     -36.391  15.205  -7.422  1.00 20.00     0.005 C 
ENDBRANCH   3   4
ENDBRANCH   1   3
BRANCH   1   6
HETATM    6  C9  UNL     1     -35.364  14.695  -3.361  1.00 20.00     0.054 C 
BRANCH   6   7
HETATM    7  C7  UNL     1     -36.587  15.552  -3.723  1.00 20.00     0.007 C 
HETATM    8  C3  UNL     1     -37.835  14.719  -3.990  1.00 20.00     0.006 C 
ENDBRANCH   6   7
BRANCH   6   9
HETATM    9  C8  UNL     1     -34.224  15.580  -2.831  1.00 20.00     0.007 C 
HETATM   10  C4  UNL     1     -34.588  16.301  -1.539  1.00 20.00     0.006 C 
ENDBRANCH   6   9
ENDBRANCH   1   6
TORSDOF 5
ENDMDL
MODEL 9
REMARK VINA RESULT:      -4.1     10.965     12.613
REMARK  5 active torsions:
REMARK  status: ('A' for Active; 'I' for Inactive)
REMARK    1  A    between atoms: C1_1  and  C5_5 
REMARK    2  A    between atoms: C1_1  and  C9_9 
REMARK    3  A    between atoms: C5_5  and  C6_6 
REMARK    4  A    between atoms: C7_7  and  C9_9 
REMARK    5  A    between atoms: C8_8  and  C9_9 
ROOT
HETATM    1  C1  UNL     1     -34.533  16.753  -4.435  1.00 20.00     0.131 C 
HETATM    2  O10 UNL     1     -35.741  16.982  -4.373  1.00 20.00    -0.298 OA
ENDROOT
BRANCH   1   3
HETATM    3  C5  UNL     1     -33.719  17.000  -5.697  1.00 20.00     0.078 C 
BRANCH   3   4
HETATM    4  C6  UNL     1     -34.426  16.571  -6.980  1.00 20.00     0.003 C 
HETATM    5  C2  UNL     1     -34.436  15.059  -7.163  1.00 20.00     0.005 C 
ENDBRANCH   3   4
ENDBRANCH   1   3
BRANCH   1   6
HETATM    6  C9  UNL     1     -33.760  16.225  -3.226  1.00 20.00     0.054 C 
BRANCH   6   7
HETATM    7  C7  UNL     1     -32.925  15.001  -3.636  1.00 20.00     0.007 C 
HETATM    8  C3  UNL     1     -33.761  13.736  -3.783  1.00 20.00     0.006 C 
ENDBRANCH   6   7
BRANCH   6   9
HETATM    9  C8  UNL     1     -34.734  15.858  -2.095  1.00 20.00     0.007 C 
HETATM   10  C4  UNL     1     -34.552  16.724  -0.855  1.00 20.00     0.006 C 
ENDBRANCH   6   9
ENDBRANCH   1   6
TORSDOF 5
ENDMDL
