MODEL 1
REMARK VINA RESULT:      -4.3      0.000      0.000
REMARK  3 active torsions:
REMARK  status: ('A' for Active; 'I' for Inactive)
REMARK    1  A    between atoms: C2_2  and  C7_7 
REMARK    2  A    between atoms: C5_5  and  C6_6 
REMARK    3  A    between atoms: C6_6  and  C7_7 
ROOT
HETATM    1  C4  UNL     1     -35.003   5.582   3.365  1.00 20.00     0.012 C 
HETATM    2  C7  UNL     1     -34.033   6.499   4.112  1.00 20.00     0.012 C 
ENDROOT
BRANCH   2   3
HETATM    3  C2  UNL     1     -32.625   6.344   3.532  1.00 20.00     0.149 A 
HETATM    4  C1  UNL     1     -31.658   7.493   3.521  1.00 20.00     0.200 A 
HETATM    5  O8  UNL     1     -32.383   7.105   2.344  1.00 20.00    -0.381 OA
ENDBRANCH   2   3
BRANCH   2   6
HETATM    6  C6  UNL     1     -34.008   6.220   5.626  1.00 20.00     0.006 C 
BRANCH   6   7
HETATM    7  C5  UNL     1     -35.003   5.142   6.064  1.00 20.00    -0.004 C 
HETATM    8  C3  UNL     1     -34.377   3.756   6.011  1.00 20.00     0.005 C 
ENDBRANCH   6   7
ENDBRANCH   2   6
TORSDOF 3
ENDMDL
MODEL 2
REMARK VINA RESULT:      -4.2      2.108      3.974
REMARK  3 active torsions:
REMARK  status: ('A' for Active; 'I' for Inactive)
REMARK    1  A    between atoms: C2_2  and  C7_7 
REMARK    2  A    between atoms: C5_5  and  C6_6 
REMARK    3  A    between atoms: C6_6  and  C7_7 
ROOT
HETATM    1  C4  UNL     1     -34.400   5.132   2.292  1.00 20.00     0.012 C 
HETATM    2  C7  UNL     1     -33.913   5.363   3.723  1.00 20.00     0.012 C 
ENDROOT
BRANCH   2   3
HETATM    3  C2  UNL     1     -35.047   5.068   4.708  1.00 20.00     0.149 A 
HETATM    4  C1  UNL     1     -34.770   4.457   6.053  1.00 20.00     0.200 A 
HETATM    5  O8  UNL     1     -35.273   3.677   4.957  1.00 20.00    -0.381 OA
ENDBRANCH   2   3
BRANCH   2   6
HETATM    6  C6  UNL     1     -33.389   6.794   3.943  1.00 20.00     0.006 C 
BRANCH   6   7
HETATM    7  C5  UNL     1     -32.015   7.044   3.316  1.00 20.00    -0.004 C 
HETATM    8  C3  UNL     1     -32.092   8.084   2.208  1.00 20.00     0.005 C 
ENDBRANCH   6   7
ENDBRANCH   2   6
TORSDOF 3
ENDMDL
MODEL 3
REMARK VINA RESULT:      -4.2      2.152      3.666
REMARK  3 active torsions:
REMARK  status: ('A' for Active; 'I' for Inactive)
REMARK    1  A    between atoms: C2_2  and  C7_7 
REMARK    2  A    between atoms: C5_5  and  C6_6 
REMARK    3  A    between atoms: C6_6  and  C7_7 
ROOT
HETATM    1  C4  UNL     1     -35.225   4.321   4.577  1.00 20.00     0.012 C 
HETATM    2  C7  UNL     1     -34.046   5.296   4.588  1.00 20.00     0.012 C 
ENDROOT
BRANCH   2   3
HETATM    3  C2  UNL     1     -34.370   6.486   5.495  1.00 20.00     0.149 A 
HETATM    4  C1  UNL     1     -33.416   6.927   6.569  1.00 20.00     0.200 A 
HETATM    5  O8  UNL     1     -34.584   6.147   6.869  1.00 20.00    -0.381 OA
ENDBRANCH   2   3
BRANCH   2   6
HETATM    6  C6  UNL     1     -33.684   5.798   3.178  1.00 20.00     0.006 C 
BRANCH   6   7
HETATM    7  C5  UNL     1     -32.238   6.284   3.056  1.00 20.00    -0.004 C 
HETATM    8  C3  UNL     1     -32.176   7.711   2.533  1.00 20.00     0.005 C 
ENDBRANCH   6   7
ENDBRANCH   2   6
TORSDOF 3
ENDMDL
MODEL 4
REMARK VINA RESULT:      -4.0      2.146      4.056
REMARK  3 active torsions:
REMARK  status: ('A' for Active; 'I' for Inactive)
REMARK    1  A    between atoms: C2_2  and  C7_7 
REMARK    2  A    between atoms: C5_5  and  C6_6 
REMARK    3  A    between atoms: C6_6  and  C7_7 
ROOT
HETATM    1  C4  UNL     1     -33.722   6.929   6.598  1.00 20.00     0.012 C 
HETATM    2  C7  UNL     1     -33.815   6.588   5.109  1.00 20.00     0.012 C 
ENDROOT
BRANCH   2   3
HETATM    3  C2  UNL     1     -34.170   5.109   4.940  1.00 20.00     0.149 A 
HETATM    4  C1  UNL     1     -35.485   4.687   4.348  1.00 20.00     0.200 A 
HETATM    5  O8  UNL     1     -35.250   4.657   5.764  1.00 20.00    -0.381 OA
ENDBRANCH   2   3
BRANCH   2   6
HETATM    6  C6  UNL     1     -32.513   6.903   4.351  1.00 20.00     0.006 C 
BRANCH   6   7
HETATM    7  C5  UNL     1     -32.654   6.805   2.830  1.00 20.00    -0.004 C 
HETATM    8  C3  UNL     1     -32.074   8.031   2.140  1.00 20.00     0.005 C 
ENDBRANCH   6   7
ENDBRANCH   2   6
TORSDOF 3
ENDMDL
MODEL 5
REMARK VINA RESULT:      -3.9     11.450     12.048
REMARK  3 active torsions:
REMARK  status: ('A' for Active; 'I' for Inactive)
REMARK    1  A    between atoms: C2_2  and  C7_7 
REMARK    2  A    between atoms: C5_5  and  C6_6 
REMARK    3  A    between atoms: C6_6  and  C7_7 
ROOT
HETATM    1  C4  UNL     1     -37.261  14.605  -4.077  1.00 20.00     0.012 C 
HETATM    2  C7  UNL     1     -35.835  15.133  -3.913  1.00 20.00     0.012 C 
ENDROOT
BRANCH   2   3
HETATM    3  C2  UNL     1     -34.891  13.973  -3.585  1.00 20.00     0.149 A 
HETATM    4  C1  UNL     1     -33.938  13.432  -4.614  1.00 20.00     0.200 A 
HETATM    5  O8  UNL     1     -35.167  12.761  -4.296  1.00 20.00    -0.381 OA
ENDBRANCH   2   3
BRANCH   2   6
HETATM    6  C6  UNL     1     -35.729  16.215  -2.823  1.00 20.00     0.006 C 
BRANCH   6   7
HETATM    7  C5  UNL     1     -34.463  16.100  -1.970  1.00 20.00    -0.004 C 
HETATM    8  C3  UNL     1     -34.642  16.778  -0.620  1.00 20.00     0.005 C 
ENDBRANCH   6   7
ENDBRANCH   2   6
TORSDOF 3
ENDMDL
MODEL 6
REMARK VINA RESULT:      -3.8     11.497     12.506
REMARK  3 active torsions:
REMARK  status: ('A' for Active; 'I' for Inactive)
REMARK    1  A    between atoms: C2_2  and  C7_7 
REMARK    2  A    between atoms: C5_5  and  C6_6 
REMARK    3  A    between atoms: C6_6  and  C7_7 
ROOT
HETATM    1  C4  UNL     1     -34.356  13.632  -3.794  1.00 20.00     0.012 C 
HETATM    2  C7  UNL     1     -35.136  14.875  -3.364  1.00 20.00     0.012 C 
ENDROOT
BRANCH   2   3
HETATM    3  C2  UNL     1     -36.422  14.988  -4.186  1.00 20.00     0.149 A 
HETATM    4  C1  UNL     1     -37.701  15.475  -3.566  1.00 20.00     0.200 A 
HETATM    5  O8  UNL     1     -37.458  14.079  -3.798  1.00 20.00    -0.381 OA
ENDBRANCH   2   3
BRANCH   2   6
HETATM    6  C6  UNL     1     -34.310  16.167  -3.507  1.00 20.00     0.006 C 
BRANCH   6   7
HETATM    7  C5  UNL     1     -33.732  16.671  -2.183  1.00 20.00    -0.004 C 
HETATM    8  C3  UNL     1     -34.711  16.463  -1.037  1.00 20.00     0.005 C 
ENDBRANCH   6   7
ENDBRANCH   2   6
TORSDOF 3
ENDMDL
MODEL 7
REMARK VINA RESULT:      -3.8     11.862     12.443
REMARK  3 active torsions:
REMARK  status: ('A' for Active; 'I' for Inactive)
REMARK    1  A    between atoms: C2_2  and  C7_7 
REMARK    2  A    between atoms: C5_5  and  C6_6 
REMARK    3  A    between atoms: C6_6  and  C7_7 
ROOT
HETATM    1  C4  UNL     1     -33.439  16.643  -4.066  1.00 20.00     0.012 C 
HETATM    2  C7  UNL     1     -34.029  15.446  -3.317  1.00 20.00     0.012 C 
ENDROOT
BRANCH   2   3
HETATM    3  C2  UNL     1     -34.941  14.650  -4.254  1.00 20.00     0.149 A 
HETATM    4  C1  UNL     1     -34.616  13.234  -4.638  1.00 20.00     0.200 A 
HETATM    5  O8  UNL     1     -34.361  14.335  -5.524  1.00 20.00    -0.381 OA
ENDBRANCH   2   3
BRANCH   2   6
HETATM    6  C6  UNL     1     -34.811  15.866  -2.059  1.00 20.00     0.006 C 
BRANCH   6   7
HETATM    7  C5  UNL     1     -34.088  16.919  -1.216  1.00 20.00    -0.004 C 
HETATM    8  C3  UNL     1     -34.850  17.220   0.066  1.00 20.00     0.005 C 
ENDBRANCH   6   7
ENDBRANCH   2   6
TORSDOF 3
ENDMDL
MODEL 8
REMARK VINA RESULT:      -3.7      1.257      1.917
REMARK  3 active torsions:
REMARK  status: ('A' for Active; 'I' for Inactive)
REMARK    1  A    between atoms: C2_2  and  C7_7 
REMARK    2  A    between atoms: C5_5  and  C6_6 
REMARK    3  A    between atoms: C6_6  and  C7_7 
ROOT
HETATM    1  C4  UNL     1     -32.070   5.404   2.900  1.00 20.00     0.012 C 
HETATM    2  C7  UNL     1     -33.003   6.615   2.934  1.00 20.00     0.012 C 
ENDROOT
BRANCH   2   3
HETATM    3  C2  UNL     1     -32.181   7.902   2.820  1.00 20.00     0.149 A 
HETATM    4  C1  UNL     1     -32.590   9.005   1.885  1.00 20.00     0.200 A 
HETATM    5  O8  UNL     1     -31.537   8.087   1.555  1.00 20.00    -0.381 OA
ENDBRANCH   2   3
BRANCH   2   6
HETATM    6  C6  UNL     1     -33.865   6.658   4.209  1.00 20.00     0.006 C 
BRANCH   6   7
HETATM    7  C5  UNL     1     -34.702   5.394   4.421  1.00 20.00    -0.004 C 
HETATM    8  C3  UNL     1     -34.761   5.009   5.892  1.00 20.00     0.005 C 
ENDBRANCH   6   7
ENDBRANCH   2   6
TORSDOF 3
ENDMDL
MODEL 9
REMARK VINA RESULT:      -3.7      1.117      1.701
REMARK  3 active torsions:
REMARK  status: ('A' for Active; 'I' for Inactive)
REMARK    1  A    between atoms: C2_2  and  C7_7 
REMARK    2  A    between atoms: C5_5  and  C6_6 
REMARK    3  A    between atoms: C6_6  and  C7_7 
ROOT
HETATM    1  C4  UNL     1     -33.685   6.928   6.054  1.00 20.00     0.012 C 
HETATM    2  C7  UNL     1     -33.612   6.152   4.737  1.00 20.00     0.012 C 
ENDROOT
BRANCH   2   3
HETATM    3  C2  UNL     1     -33.070   7.063   3.632  1.00 20.00     0.149 A 
HETATM    4  C1  UNL     1     -32.044   6.568   2.651  1.00 20.00     0.200 A 
HETATM    5  O8  UNL     1     -31.685   7.400   3.765  1.00 20.00    -0.381 OA
ENDBRANCH   2   3
BRANCH   2   6
HETATM    6  C6  UNL     1     -34.977   5.577   4.316  1.00 20.00     0.006 C 
BRANCH   6   7
HETATM    7  C5  UNL     1     -35.184   4.122   4.744  1.00 20.00    -0.004 C 
HETATM    8  C3  UNL     1     -35.160   3.982   6.259  1.00 20.00     0.005 C 
ENDBRANCH   6   7
ENDBRANCH   2   6
TORSDOF 3
ENDMDL
