MODEL 1
REMARK VINA RESULT:      -3.9      0.000      0.000
REMARK  2 active torsions:
REMARK  status: ('A' for Active; 'I' for Inactive)
REMARK    1  A    between atoms: C1_1  and  C2_2 
REMARK    2  A    between atoms: C1_1  and  C3_3 
ROOT
HETATM    1  C1  UNL     1     -34.137   6.351   4.283  1.00 20.00     0.148 C 
HETATM    2 CL4  UNL     1     -35.670   5.629   3.648  1.00 20.00    -0.119 Cl
ENDROOT
BRANCH   1   3
HETATM    3  C2  UNL     1     -32.990   6.060   3.293  1.00 20.00     0.199 C 
HETATM    4 CL5  UNL     1     -33.543   5.042   1.923  1.00 20.00    -0.106 Cl
HETATM    5 CL6  UNL     1     -32.306   7.560   2.599  1.00 20.00    -0.106 Cl
ENDBRANCH   1   3
BRANCH   1   6
HETATM    6  C3  UNL     1     -33.876   5.866   5.727  1.00 20.00     0.199 C 
HETATM    7 CL7  UNL     1     -35.081   4.680   6.297  1.00 20.00    -0.106 Cl
HETATM    8 CL8  UNL     1     -33.796   7.233   6.880  1.00 20.00    -0.106 Cl
ENDBRANCH   1   6
TORSDOF 2
ENDMDL
MODEL 2
REMARK VINA RESULT:      -3.7      1.013      3.786
REMARK  2 active torsions:
REMARK  status: ('A' for Active; 'I' for Inactive)
REMARK    1  A    between atoms: C1_1  and  C2_2 
REMARK    2  A    between atoms: C1_1  and  C3_3 
ROOT
HETATM    1  C1  UNL     1     -33.822   6.608   4.446  1.00 20.00     0.148 C 
HETATM    2 CL4  UNL     1     -33.598   6.751   6.236  1.00 20.00    -0.119 Cl
ENDROOT
BRANCH   1   3
HETATM    3  C2  UNL     1     -34.639   5.336   4.135  1.00 20.00     0.199 C 
HETATM    4 CL5  UNL     1     -34.923   4.358   5.612  1.00 20.00    -0.106 Cl
HETATM    5 CL6  UNL     1     -36.239   5.720   3.434  1.00 20.00    -0.106 Cl
ENDBRANCH   1   3
BRANCH   1   6
HETATM    6  C3  UNL     1     -32.456   6.684   3.729  1.00 20.00     0.199 C 
HETATM    7 CL7  UNL     1     -32.333   8.058   2.597  1.00 20.00    -0.106 Cl
HETATM    8 CL8  UNL     1     -32.077   5.164   2.861  1.00 20.00    -0.106 Cl
ENDBRANCH   1   6
TORSDOF 2
ENDMDL
MODEL 3
REMARK VINA RESULT:      -3.6      1.029      2.636
REMARK  2 active torsions:
REMARK  status: ('A' for Active; 'I' for Inactive)
REMARK    1  A    between atoms: C1_1  and  C2_2 
REMARK    2  A    between atoms: C1_1  and  C3_3 
ROOT
HETATM    1  C1  UNL     1     -33.426   5.836   4.963  1.00 20.00     0.148 C 
HETATM    2 CL4  UNL     1     -33.785   6.913   6.372  1.00 20.00    -0.119 Cl
ENDROOT
BRANCH   1   3
HETATM    3  C2  UNL     1     -33.037   6.702   3.746  1.00 20.00     0.199 C 
HETATM    4 CL5  UNL     1     -31.518   7.609   4.041  1.00 20.00    -0.106 Cl
HETATM    5 CL6  UNL     1     -32.794   5.718   2.273  1.00 20.00    -0.106 Cl
ENDBRANCH   1   3
BRANCH   1   6
HETATM    6  C3  UNL     1     -34.607   4.872   4.712  1.00 20.00     0.199 C 
HETATM    7 CL7  UNL     1     -35.912   5.600   3.739  1.00 20.00    -0.106 Cl
HETATM    8 CL8  UNL     1     -35.288   4.245   6.245  1.00 20.00    -0.106 Cl
ENDBRANCH   1   6
TORSDOF 2
ENDMDL
MODEL 4
REMARK VINA RESULT:      -3.6     11.889     13.381
REMARK  2 active torsions:
REMARK  status: ('A' for Active; 'I' for Inactive)
REMARK    1  A    between atoms: C1_1  and  C2_2 
REMARK    2  A    between atoms: C1_1  and  C3_3 
ROOT
HETATM    1  C1  UNL     1     -33.467  15.704  -3.618  1.00 20.00     0.148 C 
HETATM    2 CL4  UNL     1     -33.473  13.900  -3.759  1.00 20.00    -0.119 Cl
ENDROOT
BRANCH   1   3
HETATM    3  C2  UNL     1     -34.786  16.167  -2.964  1.00 20.00     0.199 C 
HETATM    4 CL5  UNL     1     -36.123  15.016  -3.289  1.00 20.00    -0.106 Cl
HETATM    5 CL6  UNL     1     -34.636  16.322  -1.188  1.00 20.00    -0.106 Cl
ENDBRANCH   1   3
BRANCH   1   6
HETATM    6  C3  UNL     1     -33.173  16.347  -4.991  1.00 20.00     0.199 C 
HETATM    7 CL7  UNL     1     -33.468  18.107  -5.020  1.00 20.00    -0.106 Cl
HETATM    8 CL8  UNL     1     -34.109  15.566  -6.304  1.00 20.00    -0.106 Cl
ENDBRANCH   1   6
TORSDOF 2
ENDMDL
MODEL 5
REMARK VINA RESULT:      -3.5     11.881     13.249
REMARK  2 active torsions:
REMARK  status: ('A' for Active; 'I' for Inactive)
REMARK    1  A    between atoms: C1_1  and  C2_2 
REMARK    2  A    between atoms: C1_1  and  C3_3 
ROOT
HETATM    1  C1  UNL     1     -34.607  15.782  -4.618  1.00 20.00     0.148 C 
HETATM    2 CL4  UNL     1     -33.355  16.859  -5.358  1.00 20.00    -0.119 Cl
ENDROOT
BRANCH   1   3
HETATM    3  C2  UNL     1     -34.045  15.164  -3.321  1.00 20.00     0.199 C 
HETATM    4 CL5  UNL     1     -32.313  14.727  -3.495  1.00 20.00    -0.106 Cl
HETATM    5 CL6  UNL     1     -34.175  16.285  -1.933  1.00 20.00    -0.106 Cl
ENDBRANCH   1   3
BRANCH   1   6
HETATM    6  C3  UNL     1     -35.105  14.751  -5.655  1.00 20.00     0.199 C 
HETATM    7 CL7  UNL     1     -34.885  13.061  -5.127  1.00 20.00    -0.106 Cl
HETATM    8 CL8  UNL     1     -34.322  14.982  -7.249  1.00 20.00    -0.106 Cl
ENDBRANCH   1   6
TORSDOF 2
ENDMDL
MODEL 6
REMARK VINA RESULT:      -3.4     12.005     13.239
REMARK  2 active torsions:
REMARK  status: ('A' for Active; 'I' for Inactive)
REMARK    1  A    between atoms: C1_1  and  C2_2 
REMARK    2  A    between atoms: C1_1  and  C3_3 
ROOT
HETATM    1  C1  UNL     1     -34.445  15.827  -4.823  1.00 20.00     0.148 C 
HETATM    2 CL4  UNL     1     -33.944  17.011  -6.096  1.00 20.00    -0.119 Cl
ENDROOT
BRANCH   1   3
HETATM    3  C2  UNL     1     -33.524  15.979  -3.595  1.00 20.00     0.199 C 
HETATM    4 CL5  UNL     1     -34.456  15.926  -2.062  1.00 20.00    -0.106 Cl
HETATM    5 CL6  UNL     1     -32.292  14.685  -3.515  1.00 20.00    -0.106 Cl
ENDBRANCH   1   3
BRANCH   1   6
HETATM    6  C3  UNL     1     -34.496  14.399  -5.413  1.00 20.00     0.199 C 
HETATM    7 CL7  UNL     1     -35.240  14.336  -7.033  1.00 20.00    -0.106 Cl
HETATM    8 CL8  UNL     1     -35.347  13.261  -4.323  1.00 20.00    -0.106 Cl
ENDBRANCH   1   6
TORSDOF 2
ENDMDL
MODEL 7
REMARK VINA RESULT:      -3.4     11.363     12.596
REMARK  2 active torsions:
REMARK  status: ('A' for Active; 'I' for Inactive)
REMARK    1  A    between atoms: C1_1  and  C2_2 
REMARK    2  A    between atoms: C1_1  and  C3_3 
ROOT
HETATM    1  C1  UNL     1     -35.281  15.180  -3.165  1.00 20.00     0.148 C 
HETATM    2 CL4  UNL     1     -36.161  16.272  -4.308  1.00 20.00    -0.119 Cl
ENDROOT
BRANCH   1   3
HETATM    3  C2  UNL     1     -34.163  15.975  -2.460  1.00 20.00     0.199 C 
HETATM    4 CL5  UNL     1     -33.708  17.439  -3.392  1.00 20.00    -0.106 Cl
HETATM    5 CL6  UNL     1     -34.650  16.513  -0.826  1.00 20.00    -0.106 Cl
ENDBRANCH   1   3
BRANCH   1   6
HETATM    6  C3  UNL     1     -34.798  13.911  -3.904  1.00 20.00     0.199 C 
HETATM    7 CL7  UNL     1     -33.060  13.584  -3.671  1.00 20.00    -0.106 Cl
HETATM    8 CL8  UNL     1     -35.160  13.986  -5.656  1.00 20.00    -0.106 Cl
ENDBRANCH   1   6
TORSDOF 2
ENDMDL
MODEL 8
REMARK VINA RESULT:      -3.4     11.730     12.424
REMARK  2 active torsions:
REMARK  status: ('A' for Active; 'I' for Inactive)
REMARK    1  A    between atoms: C1_1  and  C2_2 
REMARK    2  A    between atoms: C1_1  and  C3_3 
ROOT
HETATM    1  C1  UNL     1     -34.471  14.704  -3.059  1.00 20.00     0.148 C 
HETATM    2 CL4  UNL     1     -32.804  15.010  -3.690  1.00 20.00    -0.119 Cl
ENDROOT
BRANCH   1   3
HETATM    3  C2  UNL     1     -35.285  13.938  -4.123  1.00 20.00     0.199 C 
HETATM    4 CL5  UNL     1     -37.013  14.420  -4.104  1.00 20.00    -0.106 Cl
HETATM    5 CL6  UNL     1     -34.669  14.230  -5.777  1.00 20.00    -0.106 Cl
ENDBRANCH   1   3
BRANCH   1   6
HETATM    6  C3  UNL     1     -35.116  16.027  -2.588  1.00 20.00     0.199 C 
HETATM    7 CL7  UNL     1     -34.794  17.394  -3.688  1.00 20.00    -0.106 Cl
HETATM    8 CL8  UNL     1     -34.600  16.463  -0.930  1.00 20.00    -0.106 Cl
ENDBRANCH   1   6
TORSDOF 2
ENDMDL
MODEL 9
REMARK VINA RESULT:      -3.4     12.273     13.322
REMARK  2 active torsions:
REMARK  status: ('A' for Active; 'I' for Inactive)
REMARK    1  A    between atoms: C1_1  and  C2_2 
REMARK    2  A    between atoms: C1_1  and  C3_3 
ROOT
HETATM    1  C1  UNL     1     -33.559  15.754  -4.502  1.00 20.00     0.148 C 
HETATM    2 CL4  UNL     1     -32.407  14.687  -3.603  1.00 20.00    -0.119 Cl
ENDROOT
BRANCH   1   3
HETATM    3  C2  UNL     1     -34.209  16.746  -3.516  1.00 20.00     0.199 C 
HETATM    4 CL5  UNL     1     -35.749  17.403  -4.161  1.00 20.00    -0.106 Cl
HETATM    5 CL6  UNL     1     -34.574  15.983  -1.940  1.00 20.00    -0.106 Cl
ENDBRANCH   1   3
BRANCH   1   6
HETATM    6  C3  UNL     1     -34.564  14.898  -5.306  1.00 20.00     0.199 C 
HETATM    7 CL7  UNL     1     -34.569  13.181  -4.819  1.00 20.00    -0.106 Cl
HETATM    8 CL8  UNL     1     -34.273  15.014  -7.069  1.00 20.00    -0.106 Cl
ENDBRANCH   1   6
TORSDOF 2
ENDMDL
