MODEL 1
REMARK VINA RESULT:      -5.5      0.000      0.000
REMARK  2 active torsions:
REMARK  status: ('A' for Active; 'I' for Inactive)
REMARK    1  A    between atoms: C1_1  and  C2_2 
REMARK    2  A    between atoms: C1_1  and  C3_3 
ROOT
HETATM    1  C1  UNL     1     -34.120   5.932   4.828  1.00 20.00     0.234 C 
ENDROOT
BRANCH   1   2
HETATM    2  C2  UNL     1     -34.400   5.632   6.284  1.00 20.00     0.396 C 
HETATM    3  F4  UNL     1     -33.581   4.670   6.757  1.00 20.00    -0.171 F 
HETATM    4  F5  UNL     1     -34.211   6.738   7.039  1.00 20.00    -0.171 F 
HETATM    5  F6  UNL     1     -35.674   5.225   6.468  1.00 20.00    -0.171 F 
ENDBRANCH   1   2
BRANCH   1   6
HETATM    6  C3  UNL     1     -34.947   5.082   3.891  1.00 20.00     0.396 C 
HETATM    7  F7  UNL     1     -34.361   5.012   2.675  1.00 20.00    -0.171 F 
HETATM    8  F8  UNL     1     -36.183   5.595   3.719  1.00 20.00    -0.171 F 
HETATM    9  F9  UNL     1     -35.079   3.821   4.354  1.00 20.00    -0.171 F 
ENDBRANCH   1   6
TORSDOF 2
ENDMDL
MODEL 2
REMARK VINA RESULT:      -5.5      0.027      3.400
REMARK  2 active torsions:
REMARK  status: ('A' for Active; 'I' for Inactive)
REMARK    1  A    between atoms: C1_1  and  C2_2 
REMARK    2  A    between atoms: C1_1  and  C3_3 
ROOT
HETATM    1  C1  UNL     1     -34.120   5.929   4.822  1.00 20.00     0.234 C 
ENDROOT
BRANCH   1   2
HETATM    2  C2  UNL     1     -34.946   5.092   3.872  1.00 20.00     0.396 C 
HETATM    3  F4  UNL     1     -36.178   5.615   3.696  1.00 20.00    -0.171 F 
HETATM    4  F5  UNL     1     -34.352   5.029   2.659  1.00 20.00    -0.171 F 
HETATM    5  F6  UNL     1     -35.089   3.828   4.322  1.00 20.00    -0.171 F 
ENDBRANCH   1   2
BRANCH   1   6
HETATM    6  C3  UNL     1     -34.409   5.615   6.273  1.00 20.00     0.396 C 
HETATM    7  F7  UNL     1     -34.226   6.712   7.039  1.00 20.00    -0.171 F 
HETATM    8  F8  UNL     1     -33.591   4.648   6.742  1.00 20.00    -0.171 F 
HETATM    9  F9  UNL     1     -35.683   5.204   6.445  1.00 20.00    -0.171 F 
ENDBRANCH   1   6
TORSDOF 2
ENDMDL
MODEL 3
REMARK VINA RESULT:      -5.4      1.302      3.209
REMARK  2 active torsions:
REMARK  status: ('A' for Active; 'I' for Inactive)
REMARK    1  A    between atoms: C1_1  and  C2_2 
REMARK    2  A    between atoms: C1_1  and  C3_3 
ROOT
HETATM    1  C1  UNL     1     -35.158   4.933   4.539  1.00 20.00     0.234 C 
ENDROOT
BRANCH   1   2
HETATM    2  C2  UNL     1     -34.193   5.731   3.691  1.00 20.00     0.396 C 
HETATM    3  F4  UNL     1     -32.920   5.575   4.111  1.00 20.00    -0.171 F 
HETATM    4  F5  UNL     1     -34.251   5.327   2.402  1.00 20.00    -0.171 F 
HETATM    5  F6  UNL     1     -34.484   7.048   3.718  1.00 20.00    -0.171 F 
ENDBRANCH   1   2
BRANCH   1   6
HETATM    6  C3  UNL     1     -34.740   4.872   5.991  1.00 20.00     0.396 C 
HETATM    7  F7  UNL     1     -35.772   4.466   6.763  1.00 20.00    -0.171 F 
HETATM    8  F8  UNL     1     -34.343   6.080   6.443  1.00 20.00    -0.171 F 
HETATM    9  F9  UNL     1     -33.725   4.003   6.176  1.00 20.00    -0.171 F 
ENDBRANCH   1   6
TORSDOF 2
ENDMDL
MODEL 4
REMARK VINA RESULT:      -5.4      1.305      2.159
REMARK  2 active torsions:
REMARK  status: ('A' for Active; 'I' for Inactive)
REMARK    1  A    between atoms: C1_1  and  C2_2 
REMARK    2  A    between atoms: C1_1  and  C3_3 
ROOT
HETATM    1  C1  UNL     1     -35.162   4.928   4.540  1.00 20.00     0.234 C 
ENDROOT
BRANCH   1   2
HETATM    2  C2  UNL     1     -34.742   4.855   5.991  1.00 20.00     0.396 C 
HETATM    3  F4  UNL     1     -34.351   6.061   6.453  1.00 20.00    -0.171 F 
HETATM    4  F5  UNL     1     -35.771   4.437   6.761  1.00 20.00    -0.171 F 
HETATM    5  F6  UNL     1     -33.722   3.990   6.168  1.00 20.00    -0.171 F 
ENDBRANCH   1   2
BRANCH   1   6
HETATM    6  C3  UNL     1     -34.198   5.731   3.697  1.00 20.00     0.396 C 
HETATM    7  F7  UNL     1     -34.255   5.333   2.406  1.00 20.00    -0.171 F 
HETATM    8  F8  UNL     1     -32.924   5.574   4.116  1.00 20.00    -0.171 F 
HETATM    9  F9  UNL     1     -34.489   7.048   3.731  1.00 20.00    -0.171 F 
ENDBRANCH   1   6
TORSDOF 2
ENDMDL
MODEL 5
REMARK VINA RESULT:      -5.4      1.300      3.191
REMARK  2 active torsions:
REMARK  status: ('A' for Active; 'I' for Inactive)
REMARK    1  A    between atoms: C1_1  and  C2_2 
REMARK    2  A    between atoms: C1_1  and  C3_3 
ROOT
HETATM    1  C1  UNL     1     -35.157   4.922   4.539  1.00 20.00     0.234 C 
ENDROOT
BRANCH   1   2
HETATM    2  C2  UNL     1     -34.195   5.731   3.698  1.00 20.00     0.396 C 
HETATM    3  F4  UNL     1     -32.922   5.581   4.121  1.00 20.00    -0.171 F 
HETATM    4  F5  UNL     1     -34.246   5.333   2.407  1.00 20.00    -0.171 F 
HETATM    5  F6  UNL     1     -34.494   7.046   3.732  1.00 20.00    -0.171 F 
ENDBRANCH   1   2
BRANCH   1   6
HETATM    6  C3  UNL     1     -34.753   4.870   5.995  1.00 20.00     0.396 C 
HETATM    7  F7  UNL     1     -33.731   4.003   6.171  1.00 20.00    -0.171 F 
HETATM    8  F8  UNL     1     -35.774   4.461   6.778  1.00 20.00    -0.171 F 
HETATM    9  F9  UNL     1     -34.344   6.077   6.438  1.00 20.00    -0.171 F 
ENDBRANCH   1   6
TORSDOF 2
ENDMDL
MODEL 6
REMARK VINA RESULT:      -5.4      1.306      2.164
REMARK  2 active torsions:
REMARK  status: ('A' for Active; 'I' for Inactive)
REMARK    1  A    between atoms: C1_1  and  C2_2 
REMARK    2  A    between atoms: C1_1  and  C3_3 
ROOT
HETATM    1  C1  UNL     1     -35.153   4.954   4.519  1.00 20.00     0.234 C 
ENDROOT
BRANCH   1   2
HETATM    2  C2  UNL     1     -34.748   4.893   5.974  1.00 20.00     0.396 C 
HETATM    3  F4  UNL     1     -35.769   4.480   6.754  1.00 20.00    -0.171 F 
HETATM    4  F5  UNL     1     -33.726   4.024   6.144  1.00 20.00    -0.171 F 
HETATM    5  F6  UNL     1     -34.339   6.097   6.425  1.00 20.00    -0.171 F 
ENDBRANCH   1   2
BRANCH   1   6
HETATM    6  C3  UNL     1     -34.171   5.737   3.676  1.00 20.00     0.396 C 
HETATM    7  F7  UNL     1     -34.239   5.343   2.384  1.00 20.00    -0.171 F 
HETATM    8  F8  UNL     1     -32.902   5.549   4.093  1.00 20.00    -0.171 F 
HETATM    9  F9  UNL     1     -34.432   7.060   3.714  1.00 20.00    -0.171 F 
ENDBRANCH   1   6
TORSDOF 2
ENDMDL
MODEL 7
REMARK VINA RESULT:      -5.4      1.302      1.773
REMARK  2 active torsions:
REMARK  status: ('A' for Active; 'I' for Inactive)
REMARK    1  A    between atoms: C1_1  and  C2_2 
REMARK    2  A    between atoms: C1_1  and  C3_3 
ROOT
HETATM    1  C1  UNL     1     -35.154   4.924   4.549  1.00 20.00     0.234 C 
ENDROOT
BRANCH   1   2
HETATM    2  C2  UNL     1     -34.754   4.879   6.007  1.00 20.00     0.396 C 
HETATM    3  F4  UNL     1     -33.725   4.029   6.211  1.00 20.00    -0.171 F 
HETATM    4  F5  UNL     1     -34.363   6.102   6.428  1.00 20.00    -0.171 F 
HETATM    5  F6  UNL     1     -35.781   4.487   6.790  1.00 20.00    -0.171 F 
ENDBRANCH   1   2
BRANCH   1   6
HETATM    6  C3  UNL     1     -34.201   5.746   3.711  1.00 20.00     0.396 C 
HETATM    7  F7  UNL     1     -34.262   5.365   2.416  1.00 20.00    -0.171 F 
HETATM    8  F8  UNL     1     -32.924   5.593   4.122  1.00 20.00    -0.171 F 
HETATM    9  F9  UNL     1     -34.503   7.060   3.765  1.00 20.00    -0.171 F 
ENDBRANCH   1   6
TORSDOF 2
ENDMDL
MODEL 8
REMARK VINA RESULT:      -5.4      1.302      3.222
REMARK  2 active torsions:
REMARK  status: ('A' for Active; 'I' for Inactive)
REMARK    1  A    between atoms: C1_1  and  C2_2 
REMARK    2  A    between atoms: C1_1  and  C3_3 
ROOT
HETATM    1  C1  UNL     1     -35.169   4.903   4.535  1.00 20.00     0.234 C 
ENDROOT
BRANCH   1   2
HETATM    2  C2  UNL     1     -34.216   5.717   3.689  1.00 20.00     0.396 C 
HETATM    3  F4  UNL     1     -34.504   7.034   3.749  1.00 20.00    -0.171 F 
HETATM    4  F5  UNL     1     -32.945   5.557   4.122  1.00 20.00    -0.171 F 
HETATM    5  F6  UNL     1     -34.256   5.338   2.395  1.00 20.00    -0.171 F 
ENDBRANCH   1   2
BRANCH   1   6
HETATM    6  C3  UNL     1     -34.759   4.857   5.990  1.00 20.00     0.396 C 
HETATM    7  F7  UNL     1     -33.733   3.995   6.164  1.00 20.00    -0.171 F 
HETATM    8  F8  UNL     1     -35.776   4.445   6.777  1.00 20.00    -0.171 F 
HETATM    9  F9  UNL     1     -34.355   6.067   6.428  1.00 20.00    -0.171 F 
ENDBRANCH   1   6
TORSDOF 2
ENDMDL
MODEL 9
REMARK VINA RESULT:      -5.3      1.362      3.148
REMARK  2 active torsions:
REMARK  status: ('A' for Active; 'I' for Inactive)
REMARK    1  A    between atoms: C1_1  and  C2_2 
REMARK    2  A    between atoms: C1_1  and  C3_3 
ROOT
HETATM    1  C1  UNL     1     -33.830   5.568   4.956  1.00 20.00     0.234 C 
ENDROOT
BRANCH   1   2
HETATM    2  C2  UNL     1     -33.448   5.978   3.552  1.00 20.00     0.396 C 
HETATM    3  F4  UNL     1     -33.741   7.274   3.318  1.00 20.00    -0.171 F 
HETATM    4  F5  UNL     1     -32.119   5.819   3.358  1.00 20.00    -0.171 F 
HETATM    5  F6  UNL     1     -34.087   5.232   2.628  1.00 20.00    -0.171 F 
ENDBRANCH   1   2
BRANCH   1   6
HETATM    6  C3  UNL     1     -35.113   4.770   4.998  1.00 20.00     0.396 C 
HETATM    7  F7  UNL     1     -35.592   4.711   6.261  1.00 20.00    -0.171 F 
HETATM    8  F8  UNL     1     -34.921   3.502   4.576  1.00 20.00    -0.171 F 
HETATM    9  F9  UNL     1     -36.068   5.328   4.225  1.00 20.00    -0.171 F 
ENDBRANCH   1   6
TORSDOF 2
ENDMDL
