MODEL 1
REMARK VINA RESULT:      -4.6      0.000      0.000
REMARK  0 active torsions:
REMARK  status: ('A' for Active; 'I' for Inactive)
ROOT
HETATM    1  C1  UNL     1     -35.153  14.322  -3.924  1.00 20.00    -0.013 A 
HETATM    2  C2  UNL     1     -34.303  15.236  -3.434  1.00 20.00    -0.070 A 
HETATM    3  C3  UNL     1     -36.506  14.800  -3.580  1.00 20.00     0.160 A 
HETATM    4  C4  UNL     1     -34.963  16.389  -2.711  1.00 20.00     0.022 A 
HETATM    5  C5  UNL     1     -36.471  16.112  -2.839  1.00 20.00     0.064 A 
HETATM    6  C6  UNL     1     -34.935  13.064  -4.677  1.00 20.00     0.052 C 
HETATM    7  C7  UNL     1     -32.815  15.222  -3.569  1.00 20.00     0.044 C 
HETATM    8  C8  UNL     1     -34.542  16.474  -1.244  1.00 20.00     0.015 C 
HETATM    9  C9  UNL     1     -37.203  17.188  -3.626  1.00 20.00     0.019 C 
HETATM   10  O10 UNL     1     -37.527  14.197  -3.879  1.00 20.00    -0.292 OA
ENDROOT
TORSDOF 0
ENDMDL
MODEL 2
REMARK VINA RESULT:      -4.5     11.825     12.543
REMARK  0 active torsions:
REMARK  status: ('A' for Active; 'I' for Inactive)
ROOT
HETATM    1  C1  UNL     1     -33.084   6.527   4.211  1.00 20.00    -0.013 A 
HETATM    2  C2  UNL     1     -33.672   6.484   5.416  1.00 20.00    -0.070 A 
HETATM    3  C3  UNL     1     -33.919   5.697   3.322  1.00 20.00     0.160 A 
HETATM    4  C4  UNL     1     -34.921   5.634   5.480  1.00 20.00     0.022 A 
HETATM    5  C5  UNL     1     -35.112   5.122   4.041  1.00 20.00     0.064 A 
HETATM    6  C6  UNL     1     -31.868   7.220   3.723  1.00 20.00     0.052 C 
HETATM    7  C7  UNL     1     -33.226   7.208   6.644  1.00 20.00     0.044 C 
HETATM    8  C8  UNL     1     -34.784   4.471   6.463  1.00 20.00     0.015 C 
HETATM    9  C9  UNL     1     -36.405   5.614   3.408  1.00 20.00     0.019 C 
HETATM   10  O10 UNL     1     -33.666   5.517   2.139  1.00 20.00    -0.292 OA
ENDROOT
TORSDOF 0
ENDMDL
MODEL 3
REMARK VINA RESULT:      -4.4     10.827     11.474
REMARK  0 active torsions:
REMARK  status: ('A' for Active; 'I' for Inactive)
ROOT
HETATM    1  C1  UNL     1     -41.908   5.275  -2.006  1.00 20.00    -0.013 A 
HETATM    2  C2  UNL     1     -41.604   6.375  -1.303  1.00 20.00    -0.070 A 
HETATM    3  C3  UNL     1     -42.911   5.695  -3.004  1.00 20.00     0.160 A 
HETATM    4  C4  UNL     1     -42.356   7.620  -1.719  1.00 20.00     0.022 A 
HETATM    5  C5  UNL     1     -43.225   7.166  -2.905  1.00 20.00     0.064 A 
HETATM    6  C6  UNL     1     -41.419   3.878  -1.927  1.00 20.00     0.052 C 
HETATM    7  C7  UNL     1     -40.597   6.473  -0.204  1.00 20.00     0.044 C 
HETATM    8  C8  UNL     1     -43.219   8.185  -0.590  1.00 20.00     0.015 C 
HETATM    9  C9  UNL     1     -42.869   7.876  -4.202  1.00 20.00     0.019 C 
HETATM   10  O10 UNL     1     -43.410   4.930  -3.817  1.00 20.00    -0.292 OA
ENDROOT
TORSDOF 0
ENDMDL
MODEL 4
REMARK VINA RESULT:      -4.3      2.341      3.730
REMARK  0 active torsions:
REMARK  status: ('A' for Active; 'I' for Inactive)
ROOT
HETATM    1  C1  UNL     1     -34.188  17.602  -4.161  1.00 20.00    -0.013 A 
HETATM    2  C2  UNL     1     -35.073  17.548  -3.155  1.00 20.00    -0.070 A 
HETATM    3  C3  UNL     1     -33.417  16.346  -4.092  1.00 20.00     0.160 A 
HETATM    4  C4  UNL     1     -34.991  16.297  -2.308  1.00 20.00     0.022 A 
HETATM    5  C5  UNL     1     -33.883  15.457  -2.967  1.00 20.00     0.064 A 
HETATM    6  C6  UNL     1     -33.929  18.625  -5.202  1.00 20.00     0.052 C 
HETATM    7  C7  UNL     1     -36.115  18.570  -2.836  1.00 20.00     0.044 C 
HETATM    8  C8  UNL     1     -34.654  16.603  -0.848  1.00 20.00     0.015 C 
HETATM    9  C9  UNL     1     -34.393  14.132  -3.511  1.00 20.00     0.019 C 
HETATM   10  O10 UNL     1     -32.517  16.068  -4.871  1.00 20.00    -0.292 OA
ENDROOT
TORSDOF 0
ENDMDL
MODEL 5
REMARK VINA RESULT:      -4.2      1.536      2.940
REMARK  0 active torsions:
REMARK  status: ('A' for Active; 'I' for Inactive)
ROOT
HETATM    1  C1  UNL     1     -34.883  15.694  -2.966  1.00 20.00    -0.013 A 
HETATM    2  C2  UNL     1     -34.622  14.626  -3.733  1.00 20.00    -0.070 A 
HETATM    3  C3  UNL     1     -36.217  16.173  -3.377  1.00 20.00     0.160 A 
HETATM    4  C4  UNL     1     -35.706  14.283  -4.730  1.00 20.00     0.022 A 
HETATM    5  C5  UNL     1     -36.814  15.319  -4.466  1.00 20.00     0.064 A 
HETATM    6  C6  UNL     1     -34.109  16.359  -1.891  1.00 20.00     0.052 C 
HETATM    7  C7  UNL     1     -33.406  13.761  -3.661  1.00 20.00     0.044 C 
HETATM    8  C8  UNL     1     -35.214  14.361  -6.176  1.00 20.00     0.015 C 
HETATM    9  C9  UNL     1     -38.113  14.684  -3.994  1.00 20.00     0.019 C 
HETATM   10  O10 UNL     1     -36.765  17.144  -2.876  1.00 20.00    -0.292 OA
ENDROOT
TORSDOF 0
ENDMDL
MODEL 6
REMARK VINA RESULT:      -4.2      2.104      3.127
REMARK  0 active torsions:
REMARK  status: ('A' for Active; 'I' for Inactive)
ROOT
HETATM    1  C1  UNL     1     -33.854  14.617  -4.318  1.00 20.00    -0.013 A 
HETATM    2  C2  UNL     1     -34.184  15.887  -4.594  1.00 20.00    -0.070 A 
HETATM    3  C3  UNL     1     -34.765  13.777  -5.119  1.00 20.00     0.160 A 
HETATM    4  C4  UNL     1     -35.331  16.044  -5.567  1.00 20.00     0.022 A 
HETATM    5  C5  UNL     1     -35.708  14.603  -5.955  1.00 20.00     0.064 A 
HETATM    6  C6  UNL     1     -32.818  14.029  -3.436  1.00 20.00     0.052 C 
HETATM    7  C7  UNL     1     -33.514  17.111  -4.062  1.00 20.00     0.044 C 
HETATM    8  C8  UNL     1     -36.523  16.777  -4.950  1.00 20.00     0.015 C 
HETATM    9  C9  UNL     1     -35.500  14.317  -7.434  1.00 20.00     0.019 C 
HETATM   10  O10 UNL     1     -34.738  12.554  -5.104  1.00 20.00    -0.292 OA
ENDROOT
TORSDOF 0
ENDMDL
MODEL 7
REMARK VINA RESULT:      -4.2      4.081      6.085
REMARK  0 active torsions:
REMARK  status: ('A' for Active; 'I' for Inactive)
ROOT
HETATM    1  C1  UNL     1     -33.440  18.710   1.077  1.00 20.00    -0.013 A 
HETATM    2  C2  UNL     1     -34.588  18.161   0.656  1.00 20.00    -0.070 A 
HETATM    3  C3  UNL     1     -32.553  18.750  -0.102  1.00 20.00     0.160 A 
HETATM    4  C4  UNL     1     -34.602  17.763  -0.803  1.00 20.00     0.022 A 
HETATM    5  C5  UNL     1     -33.223  18.197  -1.333  1.00 20.00     0.064 A 
HETATM    6  C6  UNL     1     -33.010  19.224   2.399  1.00 20.00     0.052 C 
HETATM    7  C7  UNL     1     -35.820  17.948   1.475  1.00 20.00     0.044 C 
HETATM    8  C8  UNL     1     -34.818  16.262  -0.996  1.00 20.00     0.015 C 
HETATM    9  C9  UNL     1     -33.317  19.262  -2.414  1.00 20.00     0.019 C 
HETATM   10  O10 UNL     1     -31.414  19.194  -0.070  1.00 20.00    -0.292 OA
ENDROOT
TORSDOF 0
ENDMDL
MODEL 8
REMARK VINA RESULT:      -4.2      1.610      2.983
REMARK  0 active torsions:
REMARK  status: ('A' for Active; 'I' for Inactive)
ROOT
HETATM    1  C1  UNL     1     -35.124  14.542  -3.826  1.00 20.00    -0.013 A 
HETATM    2  C2  UNL     1     -36.291  15.163  -3.606  1.00 20.00    -0.070 A 
HETATM    3  C3  UNL     1     -34.086  15.403  -3.228  1.00 20.00     0.160 A 
HETATM    4  C4  UNL     1     -36.178  16.481  -2.872  1.00 20.00     0.022 A 
HETATM    5  C5  UNL     1     -34.673  16.631  -2.581  1.00 20.00     0.064 A 
HETATM    6  C6  UNL     1     -34.789  13.263  -4.497  1.00 20.00     0.052 C 
HETATM    7  C7  UNL     1     -37.646  14.660  -3.984  1.00 20.00     0.044 C 
HETATM    8  C8  UNL     1     -36.697  17.656  -3.701  1.00 20.00     0.015 C 
HETATM    9  C9  UNL     1     -34.361  16.653  -1.093  1.00 20.00     0.019 C 
HETATM   10  O10 UNL     1     -32.893  15.132  -3.250  1.00 20.00    -0.292 OA
ENDROOT
TORSDOF 0
ENDMDL
MODEL 9
REMARK VINA RESULT:      -4.2     11.884     12.724
REMARK  0 active torsions:
REMARK  status: ('A' for Active; 'I' for Inactive)
ROOT
HETATM    1  C1  UNL     1     -33.014   6.519   4.125  1.00 20.00    -0.013 A 
HETATM    2  C2  UNL     1     -33.826   5.741   3.395  1.00 20.00    -0.070 A 
HETATM    3  C3  UNL     1     -33.567   6.512   5.493  1.00 20.00     0.160 A 
HETATM    4  C4  UNL     1     -34.992   5.153   4.157  1.00 20.00     0.022 A 
HETATM    5  C5  UNL     1     -34.799   5.651   5.601  1.00 20.00     0.064 A 
HETATM    6  C6  UNL     1     -31.787   7.275   3.780  1.00 20.00     0.052 C 
HETATM    7  C7  UNL     1     -33.658   5.396   1.951  1.00 20.00     0.044 C 
HETATM    8  C8  UNL     1     -36.341   5.605   3.596  1.00 20.00     0.015 C 
HETATM    9  C9  UNL     1     -34.573   4.516   6.589  1.00 20.00     0.019 C 
HETATM   10  O10 UNL     1     -33.065   7.128   6.423  1.00 20.00    -0.292 OA
ENDROOT
TORSDOF 0
ENDMDL
