MODEL 1
REMARK VINA RESULT:      -5.3      0.000      0.000
REMARK  2 active torsions:
REMARK  status: ('A' for Active; 'I' for Inactive)
REMARK    1  A    between atoms: C1_1  and  C3_3 
REMARK    2  A    between atoms: C2_2  and  C5_5 
ROOT
HETATM    1  C1  UNL     1     -32.781   6.496   3.923  1.00 20.00     0.003 C 
HETATM    2  C2  UNL     1     -34.004   6.038   4.222  1.00 20.00     0.049 C 
ENDROOT
BRANCH   1   3
HETATM    3  C3  UNL     1     -32.422   6.947   2.595  1.00 20.00    -0.004 C 
HETATM    4  C4  UNL     1     -32.169   8.230   2.299  1.00 20.00    -0.031 C 
HETATM    5  C6  UNL     1     -31.799   8.707   0.933  1.00 20.00     0.036 C 
ENDBRANCH   1   3
BRANCH   2   6
HETATM    6  C5  UNL     1     -34.398   5.570   5.580  1.00 20.00     0.145 C 
HETATM    7  C7  UNL     1     -34.948   4.179   5.764  1.00 20.00     0.096 C 
HETATM    8  O8  UNL     1     -34.266   6.333   6.536  1.00 20.00    -0.294 OA
ENDBRANCH   2   6
TORSDOF 2
ENDMDL
MODEL 2
REMARK VINA RESULT:      -4.6      2.560      5.125
REMARK  2 active torsions:
REMARK  status: ('A' for Active; 'I' for Inactive)
REMARK    1  A    between atoms: C1_1  and  C3_3 
REMARK    2  A    between atoms: C2_2  and  C5_5 
ROOT
HETATM    1  C1  UNL     1     -33.336   6.866   2.987  1.00 20.00     0.003 C 
HETATM    2  C2  UNL     1     -32.197   7.540   2.778  1.00 20.00     0.049 C 
ENDROOT
BRANCH   1   3
HETATM    3  C3  UNL     1     -33.479   5.886   4.042  1.00 20.00    -0.004 C 
HETATM    4  C4  UNL     1     -34.665   5.403   4.439  1.00 20.00    -0.031 C 
HETATM    5  C6  UNL     1     -34.826   4.394   5.528  1.00 20.00     0.036 C 
ENDBRANCH   1   3
BRANCH   2   6
HETATM    6  C5  UNL     1     -32.024   8.553   1.701  1.00 20.00     0.145 C 
HETATM    7  C7  UNL     1     -32.678   9.905   1.830  1.00 20.00     0.096 C 
HETATM    8  O8  UNL     1     -31.345   8.266   0.715  1.00 20.00    -0.294 OA
ENDBRANCH   2   6
TORSDOF 2
ENDMDL
MODEL 3
REMARK VINA RESULT:      -4.4     11.283     11.913
REMARK  2 active torsions:
REMARK  status: ('A' for Active; 'I' for Inactive)
REMARK    1  A    between atoms: C1_1  and  C3_3 
REMARK    2  A    between atoms: C2_2  and  C5_5 
ROOT
HETATM    1  C1  UNL     1     -33.860  15.672  -3.364  1.00 20.00     0.003 C 
HETATM    2  C2  UNL     1     -34.652  14.596  -3.466  1.00 20.00     0.049 C 
ENDROOT
BRANCH   1   3
HETATM    3  C3  UNL     1     -33.778  16.467  -2.158  1.00 20.00    -0.004 C 
HETATM    4  C4  UNL     1     -34.731  16.469  -1.214  1.00 20.00    -0.031 C 
HETATM    5  C6  UNL     1     -34.658  17.286   0.034  1.00 20.00     0.036 C 
ENDBRANCH   1   3
BRANCH   2   6
HETATM    6  C5  UNL     1     -34.753  13.760  -4.694  1.00 20.00     0.145 C 
HETATM    7  C7  UNL     1     -34.641  14.406  -6.052  1.00 20.00     0.096 C 
HETATM    8  O8  UNL     1     -34.928  12.547  -4.579  1.00 20.00    -0.294 OA
ENDBRANCH   2   6
TORSDOF 2
ENDMDL
MODEL 4
REMARK VINA RESULT:      -4.3      2.154      5.026
REMARK  2 active torsions:
REMARK  status: ('A' for Active; 'I' for Inactive)
REMARK    1  A    between atoms: C1_1  and  C3_3 
REMARK    2  A    between atoms: C2_2  and  C5_5 
ROOT
HETATM    1  C1  UNL     1     -33.463   6.896   3.144  1.00 20.00     0.003 C 
HETATM    2  C2  UNL     1     -32.304   7.475   2.802  1.00 20.00     0.049 C 
ENDROOT
BRANCH   1   3
HETATM    3  C3  UNL     1     -33.540   5.817   4.105  1.00 20.00    -0.004 C 
HETATM    4  C4  UNL     1     -34.694   5.391   4.639  1.00 20.00    -0.031 C 
HETATM    5  C6  UNL     1     -34.786   4.280   5.632  1.00 20.00     0.036 C 
ENDBRANCH   1   3
BRANCH   2   6
HETATM    6  C5  UNL     1     -32.197   8.587   1.816  1.00 20.00     0.145 C 
HETATM    7  C7  UNL     1     -31.517   8.353   0.492  1.00 20.00     0.096 C 
HETATM    8  O8  UNL     1     -32.671   9.686   2.103  1.00 20.00    -0.294 OA
ENDBRANCH   2   6
TORSDOF 2
ENDMDL
MODEL 5
REMARK VINA RESULT:      -4.0     11.545     12.291
REMARK  2 active torsions:
REMARK  status: ('A' for Active; 'I' for Inactive)
REMARK    1  A    between atoms: C1_1  and  C3_3 
REMARK    2  A    between atoms: C2_2  and  C5_5 
ROOT
HETATM    1  C1  UNL     1     -34.608  16.144  -1.730  1.00 20.00     0.003 C 
HETATM    2  C2  UNL     1     -33.530  16.334  -2.503  1.00 20.00     0.049 C 
ENDROOT
BRANCH   1   3
HETATM    3  C3  UNL     1     -34.810  16.856  -0.486  1.00 20.00    -0.004 C 
HETATM    4  C4  UNL     1     -33.986  17.821  -0.051  1.00 20.00    -0.031 C 
HETATM    5  C6  UNL     1     -34.184  18.562   1.230  1.00 20.00     0.036 C 
ENDBRANCH   1   3
BRANCH   2   6
HETATM    6  C5  UNL     1     -33.299  15.615  -3.786  1.00 20.00     0.145 C 
HETATM    7  C7  UNL     1     -33.649  14.153  -3.901  1.00 20.00     0.096 C 
HETATM    8  O8  UNL     1     -32.824  16.232  -4.739  1.00 20.00    -0.294 OA
ENDBRANCH   2   6
TORSDOF 2
ENDMDL
MODEL 6
REMARK VINA RESULT:      -3.9     10.901     11.615
REMARK  2 active torsions:
REMARK  status: ('A' for Active; 'I' for Inactive)
REMARK    1  A    between atoms: C1_1  and  C3_3 
REMARK    2  A    between atoms: C2_2  and  C5_5 
ROOT
HETATM    1  C1  UNL     1     -34.024  16.176  -2.372  1.00 20.00     0.003 C 
HETATM    2  C2  UNL     1     -34.844  16.467  -1.353  1.00 20.00     0.049 C 
ENDROOT
BRANCH   1   3
HETATM    3  C3  UNL     1     -34.434  15.357  -3.492  1.00 20.00    -0.004 C 
HETATM    4  C4  UNL     1     -34.187  14.041  -3.569  1.00 20.00    -0.031 C 
HETATM    5  C6  UNL     1     -34.604  13.187  -4.721  1.00 20.00     0.036 C 
ENDBRANCH   1   3
BRANCH   2   6
HETATM    6  C5  UNL     1     -34.447  17.307  -0.189  1.00 20.00     0.145 C 
HETATM    7  C7  UNL     1     -33.245  18.210  -0.292  1.00 20.00     0.096 C 
HETATM    8  O8  UNL     1     -35.113  17.249   0.844  1.00 20.00    -0.294 OA
ENDBRANCH   2   6
TORSDOF 2
ENDMDL
MODEL 7
REMARK VINA RESULT:      -3.9     11.085     11.965
REMARK  2 active torsions:
REMARK  status: ('A' for Active; 'I' for Inactive)
REMARK    1  A    between atoms: C1_1  and  C3_3 
REMARK    2  A    between atoms: C2_2  and  C5_5 
ROOT
HETATM    1  C1  UNL     1     -34.704  16.601  -1.068  1.00 20.00     0.003 C 
HETATM    2  C2  UNL     1     -34.148  16.129  -2.192  1.00 20.00     0.049 C 
ENDROOT
BRANCH   1   3
HETATM    3  C3  UNL     1     -34.083  17.631  -0.264  1.00 20.00    -0.004 C 
HETATM    4  C4  UNL     1     -32.909  18.199  -0.579  1.00 20.00    -0.031 C 
HETATM    5  C6  UNL     1     -32.258  19.262   0.243  1.00 20.00     0.036 C 
ENDBRANCH   1   3
BRANCH   2   6
HETATM    6  C5  UNL     1     -34.768  15.071  -3.037  1.00 20.00     0.145 C 
HETATM    7  C7  UNL     1     -33.896  14.043  -3.712  1.00 20.00     0.096 C 
HETATM    8  O8  UNL     1     -35.991  15.053  -3.170  1.00 20.00    -0.294 OA
ENDBRANCH   2   6
TORSDOF 2
ENDMDL
MODEL 8
REMARK VINA RESULT:      -3.8     10.622     11.281
REMARK  2 active torsions:
REMARK  status: ('A' for Active; 'I' for Inactive)
REMARK    1  A    between atoms: C1_1  and  C3_3 
REMARK    2  A    between atoms: C2_2  and  C5_5 
ROOT
HETATM    1  C1  UNL     1     -42.163   3.874  -2.586  1.00 20.00     0.003 C 
HETATM    2  C2  UNL     1     -41.275   4.317  -1.686  1.00 20.00     0.049 C 
ENDROOT
BRANCH   1   3
HETATM    3  C3  UNL     1     -42.299   2.472  -2.921  1.00 20.00    -0.004 C 
HETATM    4  C4  UNL     1     -41.455   1.827  -3.739  1.00 20.00    -0.031 C 
HETATM    5  C6  UNL     1     -41.586   0.382  -4.092  1.00 20.00     0.036 C 
ENDBRANCH   1   3
BRANCH   2   6
HETATM    6  C5  UNL     1     -41.116   5.753  -1.324  1.00 20.00     0.145 C 
HETATM    7  C7  UNL     1     -40.763   6.135   0.091  1.00 20.00     0.096 C 
HETATM    8  O8  UNL     1     -41.276   6.609  -2.194  1.00 20.00    -0.294 OA
ENDBRANCH   2   6
TORSDOF 2
ENDMDL
MODEL 9
REMARK VINA RESULT:      -3.7     11.613     12.244
REMARK  2 active torsions:
REMARK  status: ('A' for Active; 'I' for Inactive)
REMARK    1  A    between atoms: C1_1  and  C3_3 
REMARK    2  A    between atoms: C2_2  and  C5_5 
ROOT
HETATM    1  C1  UNL     1     -34.454  16.675  -1.059  1.00 20.00     0.003 C 
HETATM    2  C2  UNL     1     -33.543  17.630  -1.287  1.00 20.00     0.049 C 
ENDROOT
BRANCH   1   3
HETATM    3  C3  UNL     1     -34.961  15.816  -2.107  1.00 20.00    -0.004 C 
HETATM    4  C4  UNL     1     -34.166  15.119  -2.933  1.00 20.00    -0.031 C 
HETATM    5  C6  UNL     1     -34.677  14.230  -4.019  1.00 20.00     0.036 C 
ENDBRANCH   1   3
BRANCH   2   6
HETATM    6  C5  UNL     1     -33.005  18.527  -0.226  1.00 20.00     0.145 C 
HETATM    7  C7  UNL     1     -33.628  18.522   1.147  1.00 20.00     0.096 C 
HETATM    8  O8  UNL     1     -32.054  19.261  -0.491  1.00 20.00    -0.294 OA
ENDBRANCH   2   6
TORSDOF 2
ENDMDL
