MODEL 1
REMARK VINA RESULT:      -4.3      0.000      0.000
REMARK  4 active torsions:
REMARK  status: ('A' for Active; 'I' for Inactive)
REMARK    1  A    between atoms: C2_2  and  C5_5 
REMARK    2  A    between atoms: C2_2  and  C6_6 
REMARK    3  A    between atoms: C5_5  and  O7_7 
REMARK    4  A    between atoms: C6_6  and  S8_8 
ROOT
HETATM    1  C1  UNL     1     -34.225   5.979   6.190  1.00 20.00    -0.025 C 
HETATM    2  C2  UNL     1     -34.476   5.745   4.885  1.00 20.00    -0.051 C 
HETATM    3  C3  UNL     1     -33.557   7.172   6.794  1.00 20.00     0.036 C 
ENDROOT
BRANCH   2   4
HETATM    4  C5  UNL     1     -35.185   4.476   4.476  1.00 20.00     0.198 C 
BRANCH   4   5
HETATM    5  O7  UNL     1     -35.294   3.608   5.596  1.00 20.00    -0.397 OA
HETATM    6  H20 UNL     1     -36.111   3.851   6.060  1.00 20.00     0.209 HD
ENDBRANCH   4   5
ENDBRANCH   2   4
BRANCH   2   7
HETATM    7  C6  UNL     1     -34.067   6.670   3.766  1.00 20.00     0.109 C 
BRANCH   7   8
HETATM    8  S8  UNL     1     -32.357   6.348   3.254  1.00 20.00    -0.169 SA
HETATM    9  C4  UNL     1     -32.057   7.886   2.354  1.00 20.00     0.090 C 
ENDBRANCH   7   8
ENDBRANCH   2   7
TORSDOF 4
ENDMDL
MODEL 2
REMARK VINA RESULT:      -3.6     12.216     12.715
REMARK  4 active torsions:
REMARK  status: ('A' for Active; 'I' for Inactive)
REMARK    1  A    between atoms: C2_2  and  C5_5 
REMARK    2  A    between atoms: C2_2  and  C6_6 
REMARK    3  A    between atoms: C5_5  and  O7_7 
REMARK    4  A    between atoms: C6_6  and  S8_8 
ROOT
HETATM    1  C1  UNL     1     -35.029  15.604  -2.222  1.00 20.00    -0.025 C 
HETATM    2  C2  UNL     1     -34.665  15.062  -3.402  1.00 20.00    -0.051 C 
HETATM    3  C3  UNL     1     -34.290  16.623  -1.414  1.00 20.00     0.036 C 
ENDROOT
BRANCH   2   4
HETATM    4  C5  UNL     1     -35.568  14.055  -4.072  1.00 20.00     0.198 C 
BRANCH   4   5
HETATM    5  O7  UNL     1     -34.981  12.762  -3.993  1.00 20.00    -0.397 OA
HETATM    6  H20 UNL     1     -35.060  12.475  -3.069  1.00 20.00     0.209 HD
ENDBRANCH   4   5
ENDBRANCH   2   4
BRANCH   2   7
HETATM    7  C6  UNL     1     -33.373  15.376  -4.113  1.00 20.00     0.109 C 
BRANCH   7   8
HETATM    8  S8  UNL     1     -33.680  16.353  -5.610  1.00 20.00    -0.169 SA
HETATM    9  C4  UNL     1     -33.583  18.001  -4.873  1.00 20.00     0.090 C 
ENDBRANCH   7   8
ENDBRANCH   2   7
TORSDOF 4
ENDMDL
MODEL 3
REMARK VINA RESULT:      -3.6     12.561     12.788
REMARK  4 active torsions:
REMARK  status: ('A' for Active; 'I' for Inactive)
REMARK    1  A    between atoms: C2_2  and  C5_5 
REMARK    2  A    between atoms: C2_2  and  C6_6 
REMARK    3  A    between atoms: C5_5  and  O7_7 
REMARK    4  A    between atoms: C6_6  and  S8_8 
ROOT
HETATM    1  C1  UNL     1     -33.875  16.414  -1.945  1.00 20.00    -0.025 C 
HETATM    2  C2  UNL     1     -33.988  15.553  -2.977  1.00 20.00    -0.051 C 
HETATM    3  C3  UNL     1     -34.966  16.953  -1.078  1.00 20.00     0.036 C 
ENDROOT
BRANCH   2   4
HETATM    4  C5  UNL     1     -32.752  15.111  -3.722  1.00 20.00     0.198 C 
BRANCH   4   5
HETATM    5  O7  UNL     1     -32.525  15.978  -4.826  1.00 20.00    -0.397 OA
HETATM    6  H20 UNL     1     -33.398  16.262  -5.143  1.00 20.00     0.209 HD
ENDBRANCH   4   5
ENDBRANCH   2   4
BRANCH   2   7
HETATM    7  C6  UNL     1     -35.300  14.999  -3.476  1.00 20.00     0.109 C 
BRANCH   7   8
HETATM    8  S8  UNL     1     -35.042  13.458  -4.397  1.00 20.00    -0.169 SA
HETATM    9  C4  UNL     1     -35.276  14.107  -6.068  1.00 20.00     0.090 C 
ENDBRANCH   7   8
ENDBRANCH   2   7
TORSDOF 4
ENDMDL
MODEL 4
REMARK VINA RESULT:      -3.5     11.851     13.271
REMARK  4 active torsions:
REMARK  status: ('A' for Active; 'I' for Inactive)
REMARK    1  A    between atoms: C2_2  and  C5_5 
REMARK    2  A    between atoms: C2_2  and  C6_6 
REMARK    3  A    between atoms: C5_5  and  O7_7 
REMARK    4  A    between atoms: C6_6  and  S8_8 
ROOT
HETATM    1  C1  UNL     1     -34.609  14.474  -6.008  1.00 20.00    -0.025 C 
HETATM    2  C2  UNL     1     -34.109  14.670  -4.770  1.00 20.00    -0.051 C 
HETATM    3  C3  UNL     1     -34.386  15.309  -7.228  1.00 20.00     0.036 C 
ENDROOT
BRANCH   2   4
HETATM    4  C5  UNL     1     -34.440  13.694  -3.667  1.00 20.00     0.198 C 
BRANCH   4   5
HETATM    5  O7  UNL     1     -35.172  12.600  -4.202  1.00 20.00    -0.397 OA
HETATM    6  H20 UNL     1     -34.815  11.796  -3.790  1.00 20.00     0.209 HD
ENDBRANCH   4   5
ENDBRANCH   2   4
BRANCH   2   7
HETATM    7  C6  UNL     1     -33.239  15.840  -4.386  1.00 20.00     0.109 C 
BRANCH   7   8
HETATM    8  S8  UNL     1     -34.234  17.178  -3.669  1.00 20.00    -0.169 SA
HETATM    9  C4  UNL     1     -33.846  16.891  -1.927  1.00 20.00     0.090 C 
ENDBRANCH   7   8
ENDBRANCH   2   7
TORSDOF 4
ENDMDL
MODEL 5
REMARK VINA RESULT:      -3.5     12.242     12.675
REMARK  4 active torsions:
REMARK  status: ('A' for Active; 'I' for Inactive)
REMARK    1  A    between atoms: C2_2  and  C5_5 
REMARK    2  A    between atoms: C2_2  and  C6_6 
REMARK    3  A    between atoms: C5_5  and  O7_7 
REMARK    4  A    between atoms: C6_6  and  S8_8 
ROOT
HETATM    1  C1  UNL     1     -34.128  15.478  -2.624  1.00 20.00    -0.025 C 
HETATM    2  C2  UNL     1     -34.981  14.812  -3.429  1.00 20.00    -0.051 C 
HETATM    3  C3  UNL     1     -34.458  16.511  -1.595  1.00 20.00     0.036 C 
ENDROOT
BRANCH   2   4
HETATM    4  C5  UNL     1     -34.447  13.783  -4.397  1.00 20.00     0.198 C 
BRANCH   4   5
HETATM    5  O7  UNL     1     -35.138  12.554  -4.216  1.00 20.00    -0.397 OA
HETATM    6  H20 UNL     1     -34.717  12.104  -3.467  1.00 20.00     0.209 HD
ENDBRANCH   4   5
ENDBRANCH   2   4
BRANCH   2   7
HETATM    7  C6  UNL     1     -36.471  15.041  -3.456  1.00 20.00     0.109 C 
BRANCH   7   8
HETATM    8  S8  UNL     1     -37.015  15.559  -5.108  1.00 20.00    -0.169 SA
HETATM    9  C4  UNL     1     -36.279  17.210  -5.122  1.00 20.00     0.090 C 
ENDBRANCH   7   8
ENDBRANCH   2   7
TORSDOF 4
ENDMDL
MODEL 6
REMARK VINA RESULT:      -3.5      1.768      2.579
REMARK  4 active torsions:
REMARK  status: ('A' for Active; 'I' for Inactive)
REMARK    1  A    between atoms: C2_2  and  C5_5 
REMARK    2  A    between atoms: C2_2  and  C6_6 
REMARK    3  A    between atoms: C5_5  and  O7_7 
REMARK    4  A    between atoms: C6_6  and  S8_8 
ROOT
HETATM    1  C1  UNL     1     -34.455   5.130   6.135  1.00 20.00    -0.025 C 
HETATM    2  C2  UNL     1     -33.904   6.202   5.530  1.00 20.00    -0.051 C 
HETATM    3  C3  UNL     1     -35.186   3.993   5.497  1.00 20.00     0.036 C 
ENDROOT
BRANCH   2   4
HETATM    4  C5  UNL     1     -33.185   7.241   6.357  1.00 20.00     0.198 C 
BRANCH   4   5
HETATM    5  O7  UNL     1     -34.054   7.727   7.372  1.00 20.00    -0.397 OA
HETATM    6  H20 UNL     1     -33.490   8.047   8.094  1.00 20.00     0.209 HD
ENDBRANCH   4   5
ENDBRANCH   2   4
BRANCH   2   7
HETATM    7  C6  UNL     1     -33.975   6.465   4.046  1.00 20.00     0.109 C 
BRANCH   7   8
HETATM    8  S8  UNL     1     -32.353   6.227   3.270  1.00 20.00    -0.169 SA
HETATM    9  C4  UNL     1     -32.195   7.849   2.488  1.00 20.00     0.090 C 
ENDBRANCH   7   8
ENDBRANCH   2   7
TORSDOF 4
ENDMDL
MODEL 7
REMARK VINA RESULT:      -3.4     12.088     12.981
REMARK  4 active torsions:
REMARK  status: ('A' for Active; 'I' for Inactive)
REMARK    1  A    between atoms: C2_2  and  C5_5 
REMARK    2  A    between atoms: C2_2  and  C6_6 
REMARK    3  A    between atoms: C5_5  and  O7_7 
REMARK    4  A    between atoms: C6_6  and  S8_8 
ROOT
HETATM    1  C1  UNL     1     -33.718  15.548  -2.910  1.00 20.00    -0.025 C 
HETATM    2  C2  UNL     1     -34.258  14.888  -3.954  1.00 20.00    -0.051 C 
HETATM    3  C3  UNL     1     -33.922  16.979  -2.526  1.00 20.00     0.036 C 
ENDROOT
BRANCH   2   4
HETATM    4  C5  UNL     1     -33.939  13.426  -4.161  1.00 20.00     0.198 C 
BRANCH   4   5
HETATM    5  O7  UNL     1     -35.145  12.674  -4.181  1.00 20.00    -0.397 OA
HETATM    6  H20 UNL     1     -35.340  12.432  -3.261  1.00 20.00     0.209 HD
ENDBRANCH   4   5
ENDBRANCH   2   4
BRANCH   2   7
HETATM    7  C6  UNL     1     -35.163  15.523  -4.980  1.00 20.00     0.109 C 
BRANCH   7   8
HETATM    8  S8  UNL     1     -34.348  15.603  -6.599  1.00 20.00    -0.169 SA
HETATM    9  C4  UNL     1     -35.432  14.467  -7.496  1.00 20.00     0.090 C 
ENDBRANCH   7   8
ENDBRANCH   2   7
TORSDOF 4
ENDMDL
MODEL 8
REMARK VINA RESULT:      -3.3     12.745     13.119
REMARK  4 active torsions:
REMARK  status: ('A' for Active; 'I' for Inactive)
REMARK    1  A    between atoms: C2_2  and  C5_5 
REMARK    2  A    between atoms: C2_2  and  C6_6 
REMARK    3  A    between atoms: C5_5  and  O7_7 
REMARK    4  A    between atoms: C6_6  and  S8_8 
ROOT
HETATM    1  C1  UNL     1     -33.953  16.255  -2.046  1.00 20.00    -0.025 C 
HETATM    2  C2  UNL     1     -34.327  15.419  -3.037  1.00 20.00    -0.051 C 
HETATM    3  C3  UNL     1     -34.829  16.944  -1.050  1.00 20.00     0.036 C 
ENDROOT
BRANCH   2   4
HETATM    4  C5  UNL     1     -33.278  14.806  -3.934  1.00 20.00     0.198 C 
BRANCH   4   5
HETATM    5  O7  UNL     1     -32.564  15.835  -4.606  1.00 20.00    -0.397 OA
HETATM    6  H20 UNL     1     -31.978  16.244  -3.949  1.00 20.00     0.209 HD
ENDBRANCH   4   5
ENDBRANCH   2   4
BRANCH   2   7
HETATM    7  C6  UNL     1     -35.759  15.059  -3.344  1.00 20.00     0.109 C 
BRANCH   7   8
HETATM    8  S8  UNL     1     -36.145  15.375  -5.088  1.00 20.00    -0.169 SA
HETATM    9  C4  UNL     1     -36.008  17.177  -5.066  1.00 20.00     0.090 C 
ENDBRANCH   7   8
ENDBRANCH   2   7
TORSDOF 4
ENDMDL
MODEL 9
REMARK VINA RESULT:      -3.2     12.086     13.063
REMARK  4 active torsions:
REMARK  status: ('A' for Active; 'I' for Inactive)
REMARK    1  A    between atoms: C2_2  and  C5_5 
REMARK    2  A    between atoms: C2_2  and  C6_6 
REMARK    3  A    between atoms: C5_5  and  O7_7 
REMARK    4  A    between atoms: C6_6  and  S8_8 
ROOT
HETATM    1  C1  UNL     1     -34.674  14.283  -5.790  1.00 20.00    -0.025 C 
HETATM    2  C2  UNL     1     -34.583  14.303  -4.444  1.00 20.00    -0.051 C 
HETATM    3  C3  UNL     1     -35.793  14.796  -6.639  1.00 20.00     0.036 C 
ENDROOT
BRANCH   2   4
HETATM    4  C5  UNL     1     -33.351  13.748  -3.770  1.00 20.00     0.198 C 
BRANCH   4   5
HETATM    5  O7  UNL     1     -32.311  14.717  -3.805  1.00 20.00    -0.397 OA
HETATM    6  H20 UNL     1     -31.998  14.825  -2.893  1.00 20.00     0.209 HD
ENDBRANCH   4   5
ENDBRANCH   2   4
BRANCH   2   7
HETATM    7  C6  UNL     1     -35.662  14.829  -3.531  1.00 20.00     0.109 C 
BRANCH   7   8
HETATM    8  S8  UNL     1     -35.381  16.577  -3.139  1.00 20.00    -0.169 SA
HETATM    9  C4  UNL     1     -34.685  16.368  -1.484  1.00 20.00     0.090 C 
ENDBRANCH   7   8
ENDBRANCH   2   7
TORSDOF 4
ENDMDL
