MODEL 1
REMARK VINA RESULT:      -4.9      0.000      0.000
REMARK  1 active torsions:
REMARK  status: ('A' for Active; 'I' for Inactive)
REMARK    1  A    between atoms: C5_5  and  O10_10 
ROOT
HETATM    1  C1  UNL     1     -35.415  14.434  -5.700  1.00 20.00     0.007 C 
HETATM    2  C2  UNL     1     -34.693  15.544  -5.931  1.00 20.00    -0.084 C 
HETATM    3  C3  UNL     1     -34.070  16.340  -4.810  1.00 20.00     0.042 C 
HETATM    4  C4  UNL     1     -35.272  14.823  -3.191  1.00 20.00     0.045 C 
HETATM    5  C5  UNL     1     -35.709  13.894  -4.331  1.00 20.00     0.142 C 
HETATM    6  C6  UNL     1     -33.948  15.572  -3.471  1.00 20.00    -0.042 C 
HETATM    7  C7  UNL     1     -34.467  16.068  -7.319  1.00 20.00     0.043 C 
HETATM    8  C8  UNL     1     -33.689  16.577  -2.333  1.00 20.00     0.015 C 
HETATM    9  C9  UNL     1     -32.753  14.597  -3.520  1.00 20.00     0.015 C 
ENDROOT
BRANCH   5  10
HETATM   10  O10 UNL     1     -35.072  12.628  -4.177  1.00 20.00    -0.392 OA
HETATM   11  H26 UNL     1     -34.371  12.590  -4.846  1.00 20.00     0.210 HD
ENDBRANCH   5  10
TORSDOF 1
ENDMDL
MODEL 2
REMARK VINA RESULT:      -4.7      1.466      3.387
REMARK  1 active torsions:
REMARK  status: ('A' for Active; 'I' for Inactive)
REMARK    1  A    between atoms: C5_5  and  O10_10 
ROOT
HETATM    1  C1  UNL     1     -34.242  14.442  -3.311  1.00 20.00     0.007 C 
HETATM    2  C2  UNL     1     -34.710  15.655  -2.966  1.00 20.00    -0.084 C 
HETATM    3  C3  UNL     1     -35.738  16.381  -3.799  1.00 20.00     0.042 C 
HETATM    4  C4  UNL     1     -35.518  14.537  -5.509  1.00 20.00     0.045 C 
HETATM    5  C5  UNL     1     -34.652  13.707  -4.554  1.00 20.00     0.142 C 
HETATM    6  C6  UNL     1     -36.514  15.477  -4.789  1.00 20.00    -0.042 C 
HETATM    7  C7  UNL     1     -34.231  16.368  -1.736  1.00 20.00     0.043 C 
HETATM    8  C8  UNL     1     -37.219  16.360  -5.836  1.00 20.00     0.015 C 
HETATM    9  C9  UNL     1     -37.600  14.674  -4.042  1.00 20.00     0.015 C 
ENDROOT
BRANCH   5  10
HETATM   10  O10 UNL     1     -35.356  12.522  -4.188  1.00 20.00    -0.392 OA
HETATM   11  H26 UNL     1     -36.054  12.796  -3.573  1.00 20.00     0.210 HD
ENDBRANCH   5  10
TORSDOF 1
ENDMDL
MODEL 3
REMARK VINA RESULT:      -4.7      1.887      3.804
REMARK  1 active torsions:
REMARK  status: ('A' for Active; 'I' for Inactive)
REMARK    1  A    between atoms: C5_5  and  O10_10 
ROOT
HETATM    1  C1  UNL     1     -33.502  16.764  -2.909  1.00 20.00     0.007 C 
HETATM    2  C2  UNL     1     -34.545  16.393  -2.145  1.00 20.00    -0.084 C 
HETATM    3  C3  UNL     1     -35.727  15.646  -2.715  1.00 20.00     0.042 C 
HETATM    4  C4  UNL     1     -34.706  15.964  -5.002  1.00 20.00     0.045 C 
HETATM    5  C5  UNL     1     -33.414  16.517  -4.387  1.00 20.00     0.142 C 
HETATM    6  C6  UNL     1     -35.458  14.972  -4.083  1.00 20.00    -0.042 C 
HETATM    7  C7  UNL     1     -34.605  16.708  -0.680  1.00 20.00     0.043 C 
HETATM    8  C8  UNL     1     -36.803  14.601  -4.737  1.00 20.00     0.015 C 
HETATM    9  C9  UNL     1     -34.654  13.670  -3.889  1.00 20.00     0.015 C 
ENDROOT
BRANCH   5  10
HETATM   10  O10 UNL     1     -32.343  15.612  -4.649  1.00 20.00    -0.392 OA
HETATM   11  H26 UNL     1     -31.889  15.945  -5.437  1.00 20.00     0.210 HD
ENDBRANCH   5  10
TORSDOF 1
ENDMDL
MODEL 4
REMARK VINA RESULT:      -4.6     11.290     12.841
REMARK  1 active torsions:
REMARK  status: ('A' for Active; 'I' for Inactive)
REMARK    1  A    between atoms: C5_5  and  O10_10 
ROOT
HETATM    1  C1  UNL     1     -41.410   6.921  -1.140  1.00 20.00     0.007 C 
HETATM    2  C2  UNL     1     -42.173   6.795  -2.240  1.00 20.00    -0.084 C 
HETATM    3  C3  UNL     1     -42.431   5.455  -2.885  1.00 20.00     0.042 C 
HETATM    4  C4  UNL     1     -40.791   4.456  -1.247  1.00 20.00     0.045 C 
HETATM    5  C5  UNL     1     -40.715   5.774  -0.466  1.00 20.00     0.142 C 
HETATM    6  C6  UNL     1     -42.141   4.239  -1.972  1.00 20.00    -0.042 C 
HETATM    7  C7  UNL     1     -42.809   7.982  -2.903  1.00 20.00     0.043 C 
HETATM    8  C8  UNL     1     -42.049   2.967  -2.836  1.00 20.00     0.015 C 
HETATM    9  C9  UNL     1     -43.291   4.041  -0.962  1.00 20.00     0.015 C 
ENDROOT
BRANCH   5  10
HETATM   10  O10 UNL     1     -41.271   5.584   0.833  1.00 20.00    -0.392 OA
HETATM   11  H26 UNL     1     -41.891   4.842   0.761  1.00 20.00     0.210 HD
ENDBRANCH   5  10
TORSDOF 1
ENDMDL
MODEL 5
REMARK VINA RESULT:      -4.3      2.152      2.757
REMARK  1 active torsions:
REMARK  status: ('A' for Active; 'I' for Inactive)
REMARK    1  A    between atoms: C5_5  and  O10_10 
ROOT
HETATM    1  C1  UNL     1     -35.375  14.340  -3.882  1.00 20.00     0.007 C 
HETATM    2  C2  UNL     1     -34.063  14.448  -3.608  1.00 20.00    -0.084 C 
HETATM    3  C3  UNL     1     -33.443  15.752  -3.169  1.00 20.00     0.042 C 
HETATM    4  C4  UNL     1     -35.676  16.849  -3.598  1.00 20.00     0.045 C 
HETATM    5  C5  UNL     1     -36.342  15.486  -3.821  1.00 20.00     0.142 C 
HETATM    6  C6  UNL     1     -34.458  16.799  -2.645  1.00 20.00    -0.042 C 
HETATM    7  C7  UNL     1     -33.130  13.280  -3.730  1.00 20.00     0.043 C 
HETATM    8  C8  UNL     1     -33.786  18.184  -2.613  1.00 20.00     0.015 C 
HETATM    9  C9  UNL     1     -34.890  16.451  -1.205  1.00 20.00     0.015 C 
ENDROOT
BRANCH   5  10
HETATM   10  O10 UNL     1     -37.288  15.248  -2.781  1.00 20.00    -0.392 OA
HETATM   11  H26 UNL     1     -37.775  14.447  -3.030  1.00 20.00     0.210 HD
ENDBRANCH   5  10
TORSDOF 1
ENDMDL
MODEL 6
REMARK VINA RESULT:      -4.3      2.046      3.859
REMARK  1 active torsions:
REMARK  status: ('A' for Active; 'I' for Inactive)
REMARK    1  A    between atoms: C5_5  and  O10_10 
ROOT
HETATM    1  C1  UNL     1     -34.294  17.458  -2.984  1.00 20.00     0.007 C 
HETATM    2  C2  UNL     1     -34.615  16.547  -2.048  1.00 20.00    -0.084 C 
HETATM    3  C3  UNL     1     -34.977  15.127  -2.407  1.00 20.00     0.042 C 
HETATM    4  C4  UNL     1     -34.878  15.813  -4.834  1.00 20.00     0.045 C 
HETATM    5  C5  UNL     1     -34.294  17.182  -4.459  1.00 20.00     0.142 C 
HETATM    6  C6  UNL     1     -34.533  14.692  -3.826  1.00 20.00    -0.042 C 
HETATM    7  C7  UNL     1     -34.644  16.889  -0.588  1.00 20.00     0.043 C 
HETATM    8  C8  UNL     1     -35.288  13.409  -4.222  1.00 20.00     0.015 C 
HETATM    9  C9  UNL     1     -33.023  14.373  -3.839  1.00 20.00     0.015 C 
ENDROOT
BRANCH   5  10
HETATM   10  O10 UNL     1     -32.961  17.277  -4.956  1.00 20.00    -0.392 OA
HETATM   11  H26 UNL     1     -32.467  17.813  -4.317  1.00 20.00     0.210 HD
ENDBRANCH   5  10
TORSDOF 1
ENDMDL
MODEL 7
REMARK VINA RESULT:      -4.2     11.666     13.438
REMARK  1 active torsions:
REMARK  status: ('A' for Active; 'I' for Inactive)
REMARK    1  A    between atoms: C5_5  and  O10_10 
ROOT
HETATM    1  C1  UNL     1     -42.591   6.621  -0.418  1.00 20.00     0.007 C 
HETATM    2  C2  UNL     1     -42.955   5.458   0.149  1.00 20.00    -0.084 C 
HETATM    3  C3  UNL     1     -42.932   4.155  -0.612  1.00 20.00     0.042 C 
HETATM    4  C4  UNL     1     -42.358   5.483  -2.681  1.00 20.00     0.045 C 
HETATM    5  C5  UNL     1     -42.165   6.758  -1.851  1.00 20.00     0.142 C 
HETATM    6  C6  UNL     1     -42.068   4.180  -1.898  1.00 20.00    -0.042 C 
HETATM    7  C7  UNL     1     -43.417   5.383   1.575  1.00 20.00     0.043 C 
HETATM    8  C8  UNL     1     -42.435   2.971  -2.779  1.00 20.00     0.015 C 
HETATM    9  C9  UNL     1     -40.572   4.065  -1.539  1.00 20.00     0.015 C 
ENDROOT
BRANCH   5  10
HETATM   10  O10 UNL     1     -40.794   7.148  -1.900  1.00 20.00    -0.392 OA
HETATM   11  H26 UNL     1     -40.408   6.903  -1.045  1.00 20.00     0.210 HD
ENDBRANCH   5  10
TORSDOF 1
ENDMDL
MODEL 8
REMARK VINA RESULT:      -4.2      1.342      2.707
REMARK  1 active torsions:
REMARK  status: ('A' for Active; 'I' for Inactive)
REMARK    1  A    between atoms: C5_5  and  O10_10 
ROOT
HETATM    1  C1  UNL     1     -35.406  13.914  -3.729  1.00 20.00     0.007 C 
HETATM    2  C2  UNL     1     -36.218  14.876  -4.203  1.00 20.00    -0.084 C 
HETATM    3  C3  UNL     1     -35.679  16.133  -4.840  1.00 20.00     0.042 C 
HETATM    4  C4  UNL     1     -33.366  15.363  -4.184  1.00 20.00     0.045 C 
HETATM    5  C5  UNL     1     -33.907  13.996  -3.747  1.00 20.00     0.142 C 
HETATM    6  C6  UNL     1     -34.202  16.037  -5.298  1.00 20.00    -0.042 C 
HETATM    7  C7  UNL     1     -37.711  14.765  -4.118  1.00 20.00     0.043 C 
HETATM    8  C8  UNL     1     -33.656  17.455  -5.549  1.00 20.00     0.015 C 
HETATM    9  C9  UNL     1     -34.103  15.252  -6.623  1.00 20.00     0.015 C 
ENDROOT
BRANCH   5  10
HETATM   10  O10 UNL     1     -33.391  12.986  -4.612  1.00 20.00    -0.392 OA
HETATM   11  H26 UNL     1     -32.968  13.448  -5.352  1.00 20.00     0.210 HD
ENDBRANCH   5  10
TORSDOF 1
ENDMDL
MODEL 9
REMARK VINA RESULT:      -4.2      1.553      1.797
REMARK  1 active torsions:
REMARK  status: ('A' for Active; 'I' for Inactive)
REMARK    1  A    between atoms: C5_5  and  O10_10 
ROOT
HETATM    1  C1  UNL     1     -36.849  15.101  -5.797  1.00 20.00     0.007 C 
HETATM    2  C2  UNL     1     -35.661  15.022  -6.422  1.00 20.00    -0.084 C 
HETATM    3  C3  UNL     1     -34.355  15.113  -5.671  1.00 20.00     0.042 C 
HETATM    4  C4  UNL     1     -35.693  15.639  -3.596  1.00 20.00     0.045 C 
HETATM    5  C5  UNL     1     -37.007  15.321  -4.320  1.00 20.00     0.142 C 
HETATM    6  C6  UNL     1     -34.474  14.862  -4.147  1.00 20.00    -0.042 C 
HETATM    7  C7  UNL     1     -35.559  14.848  -7.908  1.00 20.00     0.043 C 
HETATM    8  C8  UNL     1     -33.197  15.367  -3.449  1.00 20.00     0.015 C 
HETATM    9  C9  UNL     1     -34.600  13.351  -3.863  1.00 20.00     0.015 C 
ENDROOT
BRANCH   5  10
HETATM   10  O10 UNL     1     -37.601  14.165  -3.733  1.00 20.00    -0.392 OA
HETATM   11  H26 UNL     1     -38.388  13.962  -4.261  1.00 20.00     0.210 HD
ENDBRANCH   5  10
TORSDOF 1
ENDMDL
