MODEL 1
REMARK VINA RESULT:      -4.1      0.000      0.000
REMARK  0 active torsions:
REMARK  status: ('A' for Active; 'I' for Inactive)
ROOT
HETATM    1  C1  UNL     1     -35.251   5.002   4.243  1.00 20.00     0.050 C 
HETATM    2  C2  UNL     1     -34.781   4.068   5.345  1.00 20.00     0.171 C 
HETATM    3  C3  UNL     1     -34.434   6.253   4.494  1.00 20.00     0.128 C 
HETATM    4  C4  UNL     1     -34.418   6.265   6.018  1.00 20.00     0.235 C 
HETATM    5  O5  UNL     1     -34.340   4.894   6.437  1.00 20.00    -0.369 OA
HETATM    6 CL6  UNL     1     -32.809   6.058   3.765  1.00 20.00    -0.121 Cl
HETATM    7 CL7  UNL     1     -33.134   7.226   6.761  1.00 20.00    -0.094 Cl
ENDROOT
TORSDOF 0
ENDMDL
MODEL 2
REMARK VINA RESULT:      -3.7      1.567      2.478
REMARK  0 active torsions:
REMARK  status: ('A' for Active; 'I' for Inactive)
ROOT
HETATM    1  C1  UNL     1     -35.025   4.508   5.234  1.00 20.00     0.050 C 
HETATM    2  C2  UNL     1     -35.704   5.252   4.098  1.00 20.00     0.171 C 
HETATM    3  C3  UNL     1     -33.732   5.276   5.411  1.00 20.00     0.128 C 
HETATM    4  C4  UNL     1     -33.409   5.604   3.958  1.00 20.00     0.235 C 
HETATM    5  O5  UNL     1     -34.665   5.854   3.308  1.00 20.00    -0.369 OA
HETATM    6 CL6  UNL     1     -34.036   6.726   6.418  1.00 20.00    -0.121 Cl
HETATM    7 CL7  UNL     1     -32.290   6.949   3.708  1.00 20.00    -0.094 Cl
ENDROOT
TORSDOF 0
ENDMDL
MODEL 3
REMARK VINA RESULT:      -3.3     12.592     13.297
REMARK  0 active torsions:
REMARK  status: ('A' for Active; 'I' for Inactive)
ROOT
HETATM    1  C1  UNL     1     -33.912  16.312  -2.357  1.00 20.00     0.050 C 
HETATM    2  C2  UNL     1     -35.402  16.212  -2.637  1.00 20.00     0.171 C 
HETATM    3  C3  UNL     1     -33.313  15.404  -3.411  1.00 20.00     0.128 C 
HETATM    4  C4  UNL     1     -34.359  14.295  -3.441  1.00 20.00     0.235 C 
HETATM    5  O5  UNL     1     -35.632  14.929  -3.243  1.00 20.00    -0.369 OA
HETATM    6 CL6  UNL     1     -33.178  16.298  -4.958  1.00 20.00    -0.121 Cl
HETATM    7 CL7  UNL     1     -34.371  13.295  -4.897  1.00 20.00    -0.094 Cl
ENDROOT
TORSDOF 0
ENDMDL
MODEL 4
REMARK VINA RESULT:      -3.3     12.578     13.220
REMARK  0 active torsions:
REMARK  status: ('A' for Active; 'I' for Inactive)
ROOT
HETATM    1  C1  UNL     1     -35.020  14.375  -5.655  1.00 20.00     0.050 C 
HETATM    2  C2  UNL     1     -34.415  13.277  -4.798  1.00 20.00     0.171 C 
HETATM    3  C3  UNL     1     -34.857  15.605  -4.787  1.00 20.00     0.128 C 
HETATM    4  C4  UNL     1     -35.125  15.004  -3.412  1.00 20.00     0.235 C 
HETATM    5  O5  UNL     1     -34.562  13.683  -3.427  1.00 20.00    -0.369 OA
HETATM    6 CL6  UNL     1     -33.196  16.247  -4.973  1.00 20.00    -0.121 Cl
HETATM    7 CL7  UNL     1     -34.515  15.934  -2.039  1.00 20.00    -0.094 Cl
ENDROOT
TORSDOF 0
ENDMDL
MODEL 5
REMARK VINA RESULT:      -3.3     13.079     13.813
REMARK  0 active torsions:
REMARK  status: ('A' for Active; 'I' for Inactive)
ROOT
HETATM    1  C1  UNL     1     -33.451  13.834  -3.821  1.00 20.00     0.050 C 
HETATM    2  C2  UNL     1     -34.441  13.971  -4.965  1.00 20.00     0.171 C 
HETATM    3  C3  UNL     1     -33.223  15.272  -3.403  1.00 20.00     0.128 C 
HETATM    4  C4  UNL     1     -33.249  15.958  -4.764  1.00 20.00     0.235 C 
HETATM    5  O5  UNL     1     -34.231  15.268  -5.550  1.00 20.00    -0.369 OA
HETATM    6 CL6  UNL     1     -34.549  15.792  -2.317  1.00 20.00    -0.121 Cl
HETATM    7 CL7  UNL     1     -33.569  17.696  -4.737  1.00 20.00    -0.094 Cl
ENDROOT
TORSDOF 0
ENDMDL
MODEL 6
REMARK VINA RESULT:      -3.2      9.673     10.258
REMARK  0 active torsions:
REMARK  status: ('A' for Active; 'I' for Inactive)
ROOT
HETATM    1  C1  UNL     1     -40.722   4.411  -1.138  1.00 20.00     0.050 C 
HETATM    2  C2  UNL     1     -41.764   4.355  -2.242  1.00 20.00     0.171 C 
HETATM    3  C3  UNL     1     -41.059   5.704  -0.426  1.00 20.00     0.128 C 
HETATM    4  C4  UNL     1     -41.456   6.573  -1.614  1.00 20.00     0.235 C 
HETATM    5  O5  UNL     1     -42.134   5.711  -2.541  1.00 20.00    -0.369 OA
HETATM    6 CL6  UNL     1     -42.400   5.416   0.726  1.00 20.00    -0.121 Cl
HETATM    7 CL7  UNL     1     -42.442   7.988  -1.231  1.00 20.00    -0.094 Cl
ENDROOT
TORSDOF 0
ENDMDL
MODEL 7
REMARK VINA RESULT:      -3.2      2.207      2.619
REMARK  0 active torsions:
REMARK  status: ('A' for Active; 'I' for Inactive)
ROOT
HETATM    1  C1  UNL     1     -33.587   5.691   2.879  1.00 20.00     0.050 C 
HETATM    2  C2  UNL     1     -33.167   6.880   3.727  1.00 20.00     0.171 C 
HETATM    3  C3  UNL     1     -34.638   5.022   3.740  1.00 20.00     0.128 C 
HETATM    4  C4  UNL     1     -34.031   5.233   5.123  1.00 20.00     0.235 C 
HETATM    5  O5  UNL     1     -33.401   6.522   5.099  1.00 20.00    -0.369 OA
HETATM    6 CL6  UNL     1     -36.208   5.855   3.516  1.00 20.00    -0.121 Cl
HETATM    7 CL7  UNL     1     -35.157   5.105   6.479  1.00 20.00    -0.094 Cl
ENDROOT
TORSDOF 0
ENDMDL
MODEL 8
REMARK VINA RESULT:      -3.2      2.125      2.952
REMARK  0 active torsions:
REMARK  status: ('A' for Active; 'I' for Inactive)
ROOT
HETATM    1  C1  UNL     1     -34.766   5.840   6.458  1.00 20.00     0.050 C 
HETATM    2  C2  UNL     1     -33.404   6.414   6.111  1.00 20.00     0.171 C 
HETATM    3  C3  UNL     1     -35.120   5.044   5.220  1.00 20.00     0.128 C 
HETATM    4  C4  UNL     1     -34.548   5.955   4.139  1.00 20.00     0.235 C 
HETATM    5  O5  UNL     1     -33.345   6.523   4.679  1.00 20.00    -0.369 OA
HETATM    6 CL6  UNL     1     -34.322   3.442   5.296  1.00 20.00    -0.121 Cl
HETATM    7 CL7  UNL     1     -34.238   5.187   2.578  1.00 20.00    -0.094 Cl
ENDROOT
TORSDOF 0
ENDMDL
MODEL 9
REMARK VINA RESULT:      -3.2      9.977     10.568
REMARK  0 active torsions:
REMARK  status: ('A' for Active; 'I' for Inactive)
ROOT
HETATM    1  C1  UNL     1     -42.909   7.321  -0.782  1.00 20.00     0.050 C 
HETATM    2  C2  UNL     1     -41.426   7.591  -0.967  1.00 20.00     0.171 C 
HETATM    3  C3  UNL     1     -42.989   5.812  -0.879  1.00 20.00     0.128 C 
HETATM    4  C4  UNL     1     -41.947   5.554  -1.962  1.00 20.00     0.235 C 
HETATM    5  O5  UNL     1     -40.896   6.510  -1.752  1.00 20.00    -0.369 OA
HETATM    6 CL6  UNL     1     -42.564   5.091   0.705  1.00 20.00    -0.121 Cl
HETATM    7 CL7  UNL     1     -41.302   3.911  -2.026  1.00 20.00    -0.094 Cl
ENDROOT
TORSDOF 0
ENDMDL
