MODEL 1
REMARK VINA RESULT:      -4.6      0.000      0.000
REMARK  3 active torsions:
REMARK  status: ('A' for Active; 'I' for Inactive)
REMARK    1  A    between atoms: C1_1  and  C2_2 
REMARK    2  A    between atoms: C4_4  and  C6_6 
REMARK    3  A    between atoms: C6_6  and  O7_7 
ROOT
HETATM    1  C2  UNL     1     -33.192   6.171   3.950  1.00 20.00    -0.002 C 
HETATM    2  C4  UNL     1     -34.388   5.567   3.900  1.00 20.00    -0.001 C 
ENDROOT
BRANCH   1   3
HETATM    3  C1  UNL     1     -32.508   6.668   2.778  1.00 20.00    -0.005 C 
HETATM    4  C3  UNL     1     -32.430   7.971   2.471  1.00 20.00    -0.031 C 
HETATM    5  C5  UNL     1     -31.726   8.497   1.263  1.00 20.00     0.036 C 
ENDBRANCH   1   3
BRANCH   2   6
HETATM    6  C6  UNL     1     -35.105   5.054   5.108  1.00 20.00     0.191 C 
BRANCH   6   7
HETATM    7  O7  UNL     1     -35.324   3.655   4.979  1.00 20.00    -0.397 OA
HETATM    8  H17 UNL     1     -36.230   3.484   5.280  1.00 20.00     0.209 HD
ENDBRANCH   6   7
ENDBRANCH   2   6
TORSDOF 3
ENDMDL
MODEL 2
REMARK VINA RESULT:      -4.3      2.790      4.806
REMARK  3 active torsions:
REMARK  status: ('A' for Active; 'I' for Inactive)
REMARK    1  A    between atoms: C1_1  and  C2_2 
REMARK    2  A    between atoms: C4_4  and  C6_6 
REMARK    3  A    between atoms: C6_6  and  O7_7 
ROOT
HETATM    1  C2  UNL     1     -33.329   6.629   3.220  1.00 20.00    -0.002 C 
HETATM    2  C4  UNL     1     -32.220   7.362   3.048  1.00 20.00    -0.001 C 
ENDROOT
BRANCH   1   3
HETATM    3  C1  UNL     1     -33.613   5.900   4.436  1.00 20.00    -0.005 C 
HETATM    4  C3  UNL     1     -34.745   5.206   4.627  1.00 20.00    -0.031 C 
HETATM    5  C5  UNL     1     -35.050   4.448   5.877  1.00 20.00     0.036 C 
ENDBRANCH   1   3
BRANCH   2   6
HETATM    6  C6  UNL     1     -31.919   8.123   1.795  1.00 20.00     0.191 C 
BRANCH   6   7
HETATM    7  O7  UNL     1     -32.508   9.416   1.866  1.00 20.00    -0.397 OA
HETATM    8  H17 UNL     1     -32.822   9.629   0.974  1.00 20.00     0.209 HD
ENDBRANCH   6   7
ENDBRANCH   2   6
TORSDOF 3
ENDMDL
MODEL 3
REMARK VINA RESULT:      -4.1     10.888     11.397
REMARK  3 active torsions:
REMARK  status: ('A' for Active; 'I' for Inactive)
REMARK    1  A    between atoms: C1_1  and  C2_2 
REMARK    2  A    between atoms: C4_4  and  C6_6 
REMARK    3  A    between atoms: C6_6  and  O7_7 
ROOT
HETATM    1  C2  UNL     1     -33.701  15.792  -3.129  1.00 20.00    -0.002 C 
HETATM    2  C4  UNL     1     -34.365  14.630  -3.211  1.00 20.00    -0.001 C 
ENDROOT
BRANCH   1   3
HETATM    3  C1  UNL     1     -33.804  16.682  -1.995  1.00 20.00    -0.005 C 
HETATM    4  C3  UNL     1     -34.673  16.493  -0.991  1.00 20.00    -0.031 C 
HETATM    5  C5  UNL     1     -34.789  17.404   0.186  1.00 20.00     0.036 C 
ENDBRANCH   1   3
BRANCH   2   6
HETATM    6  C6  UNL     1     -34.261  13.701  -4.379  1.00 20.00     0.191 C 
BRANCH   6   7
HETATM    7  O7  UNL     1     -35.124  12.587  -4.184  1.00 20.00    -0.397 OA
HETATM    8  H17 UNL     1     -35.891  12.724  -4.761  1.00 20.00     0.209 HD
ENDBRANCH   6   7
ENDBRANCH   2   6
TORSDOF 3
ENDMDL
MODEL 4
REMARK VINA RESULT:      -3.8     11.546     12.027
REMARK  3 active torsions:
REMARK  status: ('A' for Active; 'I' for Inactive)
REMARK    1  A    between atoms: C1_1  and  C2_2 
REMARK    2  A    between atoms: C4_4  and  C6_6 
REMARK    3  A    between atoms: C6_6  and  O7_7 
ROOT
HETATM    1  C2  UNL     1     -33.916  16.610  -1.959  1.00 20.00    -0.002 C 
HETATM    2  C4  UNL     1     -33.942  15.584  -2.821  1.00 20.00    -0.001 C 
ENDROOT
BRANCH   1   3
HETATM    3  C1  UNL     1     -34.742  16.667  -0.774  1.00 20.00    -0.005 C 
HETATM    4  C3  UNL     1     -34.526  17.530   0.230  1.00 20.00    -0.031 C 
HETATM    5  C5  UNL     1     -35.372  17.599   1.459  1.00 20.00     0.036 C 
ENDBRANCH   1   3
BRANCH   2   6
HETATM    6  C6  UNL     1     -33.088  15.515  -4.047  1.00 20.00     0.191 C 
BRANCH   6   7
HETATM    7  O7  UNL     1     -31.944  14.710  -3.791  1.00 20.00    -0.397 OA
HETATM    8  H17 UNL     1     -32.026  14.390  -2.879  1.00 20.00     0.209 HD
ENDBRANCH   6   7
ENDBRANCH   2   6
TORSDOF 3
ENDMDL
MODEL 5
REMARK VINA RESULT:      -3.5      9.836     10.759
REMARK  3 active torsions:
REMARK  status: ('A' for Active; 'I' for Inactive)
REMARK    1  A    between atoms: C1_1  and  C2_2 
REMARK    2  A    between atoms: C4_4  and  C6_6 
REMARK    3  A    between atoms: C6_6  and  O7_7 
ROOT
HETATM    1  C2  UNL     1     -41.874   4.358  -2.263  1.00 20.00    -0.002 C 
HETATM    2  C4  UNL     1     -41.104   4.636  -1.201  1.00 20.00    -0.001 C 
ENDROOT
BRANCH   1   3
HETATM    3  C1  UNL     1     -42.160   3.010  -2.700  1.00 20.00    -0.005 C 
HETATM    4  C3  UNL     1     -41.334   2.303  -3.486  1.00 20.00    -0.031 C 
HETATM    5  C5  UNL     1     -41.617   0.910  -3.943  1.00 20.00     0.036 C 
ENDBRANCH   1   3
BRANCH   2   6
HETATM    6  C6  UNL     1     -40.806   6.027  -0.739  1.00 20.00     0.191 C 
BRANCH   6   7
HETATM    7  O7  UNL     1     -40.816   6.914  -1.851  1.00 20.00    -0.397 OA
HETATM    8  H17 UNL     1     -41.145   7.766  -1.526  1.00 20.00     0.209 HD
ENDBRANCH   6   7
ENDBRANCH   2   6
TORSDOF 3
ENDMDL
MODEL 6
REMARK VINA RESULT:      -3.5     11.778     12.627
REMARK  3 active torsions:
REMARK  status: ('A' for Active; 'I' for Inactive)
REMARK    1  A    between atoms: C1_1  and  C2_2 
REMARK    2  A    between atoms: C4_4  and  C6_6 
REMARK    3  A    between atoms: C6_6  and  O7_7 
ROOT
HETATM    1  C2  UNL     1     -34.246  17.297  -0.610  1.00 20.00    -0.002 C 
HETATM    2  C4  UNL     1     -33.317  18.180  -1.004  1.00 20.00    -0.001 C 
ENDROOT
BRANCH   1   3
HETATM    3  C1  UNL     1     -34.756  16.251  -1.469  1.00 20.00    -0.005 C 
HETATM    4  C3  UNL     1     -34.077  15.770  -2.521  1.00 20.00    -0.031 C 
HETATM    5  C5  UNL     1     -34.592  14.690  -3.414  1.00 20.00     0.036 C 
ENDBRANCH   1   3
BRANCH   2   6
HETATM    6  C6  UNL     1     -32.781  19.263  -0.122  1.00 20.00     0.191 C 
BRANCH   6   7
HETATM    7  O7  UNL     1     -31.371  19.125   0.004  1.00 20.00    -0.397 OA
HETATM    8  H17 UNL     1     -31.081  19.795   0.643  1.00 20.00     0.209 HD
ENDBRANCH   6   7
ENDBRANCH   2   6
TORSDOF 3
ENDMDL
MODEL 7
REMARK VINA RESULT:      -3.5     11.143     11.612
REMARK  3 active torsions:
REMARK  status: ('A' for Active; 'I' for Inactive)
REMARK    1  A    between atoms: C1_1  and  C2_2 
REMARK    2  A    between atoms: C4_4  and  C6_6 
REMARK    3  A    between atoms: C6_6  and  O7_7 
ROOT
HETATM    1  C2  UNL     1     -33.771  16.290  -2.365  1.00 20.00    -0.002 C 
HETATM    2  C4  UNL     1     -34.723  16.299  -1.421  1.00 20.00    -0.001 C 
ENDROOT
BRANCH   1   3
HETATM    3  C1  UNL     1     -33.821  15.435  -3.530  1.00 20.00    -0.005 C 
HETATM    4  C3  UNL     1     -34.349  14.202  -3.512  1.00 20.00    -0.031 C 
HETATM    5  C5  UNL     1     -34.407  13.309  -4.707  1.00 20.00     0.036 C 
ENDBRANCH   1   3
BRANCH   2   6
HETATM    6  C6  UNL     1     -34.682  17.183  -0.215  1.00 20.00     0.191 C 
BRANCH   6   7
HETATM    7  O7  UNL     1     -35.996  17.624   0.102  1.00 20.00    -0.397 OA
HETATM    8  H17 UNL     1     -36.547  16.829   0.177  1.00 20.00     0.209 HD
ENDBRANCH   6   7
ENDBRANCH   2   6
TORSDOF 3
ENDMDL
MODEL 8
REMARK VINA RESULT:      -3.4     11.536     12.099
REMARK  3 active torsions:
REMARK  status: ('A' for Active; 'I' for Inactive)
REMARK    1  A    between atoms: C1_1  and  C2_2 
REMARK    2  A    between atoms: C4_4  and  C6_6 
REMARK    3  A    between atoms: C6_6  and  O7_7 
ROOT
HETATM    1  C2  UNL     1     -34.742  16.742  -0.858  1.00 20.00    -0.002 C 
HETATM    2  C4  UNL     1     -34.301  16.334  -2.057  1.00 20.00    -0.001 C 
ENDROOT
BRANCH   1   3
HETATM    3  C1  UNL     1     -34.021  17.683  -0.031  1.00 20.00    -0.005 C 
HETATM    4  C3  UNL     1     -32.890  18.288  -0.423  1.00 20.00    -0.031 C 
HETATM    5  C5  UNL     1     -32.137  19.263   0.422  1.00 20.00     0.036 C 
ENDBRANCH   1   3
BRANCH   2   6
HETATM    6  C6  UNL     1     -35.042  15.363  -2.921  1.00 20.00     0.191 C 
BRANCH   6   7
HETATM    7  O7  UNL     1     -36.443  15.532  -2.742  1.00 20.00    -0.397 OA
HETATM    8  H17 UNL     1     -36.803  15.811  -3.598  1.00 20.00     0.209 HD
ENDBRANCH   6   7
ENDBRANCH   2   6
TORSDOF 3
ENDMDL
MODEL 9
REMARK VINA RESULT:      -3.3     11.427     11.777
REMARK  3 active torsions:
REMARK  status: ('A' for Active; 'I' for Inactive)
REMARK    1  A    between atoms: C1_1  and  C2_2 
REMARK    2  A    between atoms: C4_4  and  C6_6 
REMARK    3  A    between atoms: C6_6  and  O7_7 
ROOT
HETATM    1  C2  UNL     1     -34.168  17.961   0.369  1.00 20.00    -0.002 C 
HETATM    2  C4  UNL     1     -35.217  17.645   1.142  1.00 20.00    -0.001 C 
ENDROOT
BRANCH   1   3
HETATM    3  C1  UNL     1     -33.919  17.345  -0.915  1.00 20.00    -0.005 C 
HETATM    4  C3  UNL     1     -34.645  16.323  -1.391  1.00 20.00    -0.031 C 
HETATM    5  C5  UNL     1     -34.398  15.679  -2.715  1.00 20.00     0.036 C 
ENDBRANCH   1   3
BRANCH   2   6
HETATM    6  C6  UNL     1     -35.485  18.280   2.469  1.00 20.00     0.191 C 
BRANCH   6   7
HETATM    7  O7  UNL     1     -35.482  17.286   3.486  1.00 20.00    -0.397 OA
HETATM    8  H17 UNL     1     -36.041  17.620   4.205  1.00 20.00     0.209 HD
ENDBRANCH   6   7
ENDBRANCH   2   6
TORSDOF 3
ENDMDL
