MODEL 1
REMARK VINA RESULT:      -4.5      0.000      0.000
REMARK  0 active torsions:
REMARK  status: ('A' for Active; 'I' for Inactive)
ROOT
HETATM    1  C1  UNL     1     -33.290  14.214  -3.793  1.00 20.00     0.000 C 
HETATM    2  C2  UNL     1     -33.505  15.525  -3.043  1.00 20.00     0.000 C 
HETATM    3  C3  UNL     1     -34.537  13.349  -3.975  1.00 20.00     0.004 C 
HETATM    4  C4  UNL     1     -34.594  16.435  -3.612  1.00 20.00     0.004 C 
HETATM    5  C5  UNL     1     -35.513  13.933  -5.001  1.00 20.00     0.049 C 
HETATM    6  C6  UNL     1     -36.000  15.893  -3.357  1.00 20.00     0.049 C 
HETATM    7  C7  UNL     1     -38.844  14.763  -4.015  1.00 20.00     0.180 C 
HETATM    8  C8  UNL     1     -38.929  15.148  -5.478  1.00 20.00     0.103 C 
HETATM    9  C9  UNL     1     -36.539  14.915  -4.416  1.00 20.00     0.108 C 
HETATM   10  O10 UNL     1     -37.580  14.127  -3.794  1.00 20.00    -0.369 OA
HETATM   11  S11 UNL     1     -37.303  15.845  -5.803  1.00 20.00    -0.129 SA
ENDROOT
TORSDOF 0
ENDMDL
MODEL 2
REMARK VINA RESULT:      -4.4      1.842      2.002
REMARK  0 active torsions:
REMARK  status: ('A' for Active; 'I' for Inactive)
ROOT
HETATM    1  C1  UNL     1     -33.180  14.010  -3.661  1.00 20.00     0.000 C 
HETATM    2  C2  UNL     1     -32.950  15.512  -3.804  1.00 20.00     0.000 C 
HETATM    3  C3  UNL     1     -34.603  13.533  -3.954  1.00 20.00     0.004 C 
HETATM    4  C4  UNL     1     -33.347  16.110  -5.154  1.00 20.00     0.004 C 
HETATM    5  C5  UNL     1     -34.943  13.580  -5.446  1.00 20.00     0.049 C 
HETATM    6  C6  UNL     1     -34.862  16.181  -5.338  1.00 20.00     0.049 C 
HETATM    7  C7  UNL     1     -37.670  15.586  -6.586  1.00 20.00     0.180 C 
HETATM    8  C8  UNL     1     -37.231  15.009  -7.917  1.00 20.00     0.103 C 
HETATM    9  C9  UNL     1     -35.521  14.921  -5.925  1.00 20.00     0.108 C 
HETATM   10  O10 UNL     1     -36.918  14.943  -5.551  1.00 20.00    -0.369 OA
HETATM   11  S11 UNL     1     -35.440  14.962  -7.759  1.00 20.00    -0.129 SA
ENDROOT
TORSDOF 0
ENDMDL
MODEL 3
REMARK VINA RESULT:      -4.3      2.617      3.977
REMARK  0 active torsions:
REMARK  status: ('A' for Active; 'I' for Inactive)
ROOT
HETATM    1  C1  UNL     1     -33.826  13.345  -3.772  1.00 20.00     0.000 C 
HETATM    2  C2  UNL     1     -34.760  13.326  -4.979  1.00 20.00     0.000 C 
HETATM    3  C3  UNL     1     -32.898  14.557  -3.679  1.00 20.00     0.004 C 
HETATM    4  C4  UNL     1     -35.635  14.567  -5.151  1.00 20.00     0.004 C 
HETATM    5  C5  UNL     1     -33.642  15.839  -3.295  1.00 20.00     0.049 C 
HETATM    6  C6  UNL     1     -34.837  15.787  -5.609  1.00 20.00     0.049 C 
HETATM    7  C7  UNL     1     -33.586  18.654  -5.494  1.00 20.00     0.180 C 
HETATM    8  C8  UNL     1     -34.425  19.244  -4.378  1.00 20.00     0.103 C 
HETATM    9  C9  UNL     1     -34.205  16.629  -4.487  1.00 20.00     0.108 C 
HETATM   10  O10 UNL     1     -33.108  17.374  -5.064  1.00 20.00    -0.369 OA
HETATM   11  S11 UNL     1     -35.424  17.845  -3.848  1.00 20.00    -0.129 SA
ENDROOT
TORSDOF 0
ENDMDL
MODEL 4
REMARK VINA RESULT:      -4.3      2.074      2.980
REMARK  0 active torsions:
REMARK  status: ('A' for Active; 'I' for Inactive)
ROOT
HETATM    1  C1  UNL     1     -34.565  13.286  -4.562  1.00 20.00     0.000 C 
HETATM    2  C2  UNL     1     -33.336  13.635  -3.728  1.00 20.00     0.000 C 
HETATM    3  C3  UNL     1     -35.846  14.033  -4.190  1.00 20.00     0.004 C 
HETATM    4  C4  UNL     1     -32.982  15.121  -3.673  1.00 20.00     0.004 C 
HETATM    5  C5  UNL     1     -35.812  15.505  -4.610  1.00 20.00     0.049 C 
HETATM    6  C6  UNL     1     -33.964  15.926  -2.823  1.00 20.00     0.049 C 
HETATM    7  C7  UNL     1     -36.144  18.066  -2.142  1.00 20.00     0.180 C 
HETATM    8  C8  UNL     1     -36.024  18.941  -3.374  1.00 20.00     0.103 C 
HETATM    9  C9  UNL     1     -35.208  16.451  -3.561  1.00 20.00     0.108 C 
HETATM   10  O10 UNL     1     -36.231  16.702  -2.570  1.00 20.00    -0.369 OA
HETATM   11  S11 UNL     1     -34.827  18.051  -4.379  1.00 20.00    -0.129 SA
ENDROOT
TORSDOF 0
ENDMDL
MODEL 5
REMARK VINA RESULT:      -4.3     11.202     12.450
REMARK  0 active torsions:
REMARK  status: ('A' for Active; 'I' for Inactive)
ROOT
HETATM    1  C1  UNL     1     -41.939   7.651  -1.482  1.00 20.00     0.000 C 
HETATM    2  C2  UNL     1     -40.795   7.042  -0.676  1.00 20.00     0.000 C 
HETATM    3  C3  UNL     1     -42.450   6.799  -2.644  1.00 20.00     0.004 C 
HETATM    4  C4  UNL     1     -41.060   5.644  -0.116  1.00 20.00     0.004 C 
HETATM    5  C5  UNL     1     -43.251   5.582  -2.173  1.00 20.00     0.049 C 
HETATM    6  C6  UNL     1     -41.056   4.569  -1.202  1.00 20.00     0.049 C 
HETATM    7  C7  UNL     1     -42.162   2.293  -3.045  1.00 20.00     0.180 C 
HETATM    8  C8  UNL     1     -43.409   1.929  -2.263  1.00 20.00     0.103 C 
HETATM    9  C9  UNL     1     -42.403   4.329  -1.906  1.00 20.00     0.108 C 
HETATM   10  O10 UNL     1     -42.125   3.717  -3.187  1.00 20.00    -0.369 OA
HETATM   11  S11 UNL     1     -43.418   3.143  -0.937  1.00 20.00    -0.129 SA
ENDROOT
TORSDOF 0
ENDMDL
MODEL 6
REMARK VINA RESULT:      -4.2      2.005      2.768
REMARK  0 active torsions:
REMARK  status: ('A' for Active; 'I' for Inactive)
ROOT
HETATM    1  C1  UNL     1     -32.930  15.344  -3.666  1.00 20.00     0.000 C 
HETATM    2  C2  UNL     1     -33.239  13.850  -3.693  1.00 20.00     0.000 C 
HETATM    3  C3  UNL     1     -33.345  16.123  -4.914  1.00 20.00     0.004 C 
HETATM    4  C4  UNL     1     -34.697  13.486  -3.977  1.00 20.00     0.004 C 
HETATM    5  C5  UNL     1     -34.862  16.301  -5.020  1.00 20.00     0.049 C 
HETATM    6  C6  UNL     1     -35.089  13.739  -5.432  1.00 20.00     0.049 C 
HETATM    7  C7  UNL     1     -36.610  15.010  -7.854  1.00 20.00     0.180 C 
HETATM    8  C8  UNL     1     -37.783  15.623  -7.114  1.00 20.00     0.103 C 
HETATM    9  C9  UNL     1     -35.586  15.160  -5.750  1.00 20.00     0.108 C 
HETATM   10  O10 UNL     1     -35.408  15.378  -7.169  1.00 20.00    -0.369 OA
HETATM   11  S11 UNL     1     -37.383  15.295  -5.392  1.00 20.00    -0.129 SA
ENDROOT
TORSDOF 0
ENDMDL
MODEL 7
REMARK VINA RESULT:      -4.2      2.715      3.797
REMARK  0 active torsions:
REMARK  status: ('A' for Active; 'I' for Inactive)
ROOT
HETATM    1  C1  UNL     1     -33.795  17.727  -0.362  1.00 20.00     0.000 C 
HETATM    2  C2  UNL     1     -33.867  19.087  -1.051  1.00 20.00     0.000 C 
HETATM    3  C3  UNL     1     -34.621  16.617  -1.014  1.00 20.00     0.004 C 
HETATM    4  C4  UNL     1     -33.513  19.088  -2.538  1.00 20.00     0.004 C 
HETATM    5  C5  UNL     1     -34.016  16.132  -2.334  1.00 20.00     0.049 C 
HETATM    6  C6  UNL     1     -34.597  18.437  -3.397  1.00 20.00     0.049 C 
HETATM    7  C7  UNL     1     -35.908  16.376  -5.353  1.00 20.00     0.180 C 
HETATM    8  C8  UNL     1     -34.654  15.735  -5.914  1.00 20.00     0.103 C 
HETATM    9  C9  UNL     1     -34.481  16.913  -3.572  1.00 20.00     0.108 C 
HETATM   10  O10 UNL     1     -35.791  16.413  -3.927  1.00 20.00    -0.369 OA
HETATM   11  S11 UNL     1     -33.346  16.521  -4.962  1.00 20.00    -0.129 SA
ENDROOT
TORSDOF 0
ENDMDL
MODEL 8
REMARK VINA RESULT:      -4.1      2.505      3.658
REMARK  0 active torsions:
REMARK  status: ('A' for Active; 'I' for Inactive)
ROOT
HETATM    1  C1  UNL     1     -34.926  13.863  -5.787  1.00 20.00     0.000 C 
HETATM    2  C2  UNL     1     -34.295  15.075  -6.466  1.00 20.00     0.000 C 
HETATM    3  C3  UNL     1     -34.707  13.767  -4.277  1.00 20.00     0.004 C 
HETATM    4  C4  UNL     1     -34.681  16.431  -5.877  1.00 20.00     0.004 C 
HETATM    5  C5  UNL     1     -35.526  14.801  -3.497  1.00 20.00     0.049 C 
HETATM    6  C6  UNL     1     -34.038  16.682  -4.513  1.00 20.00     0.049 C 
HETATM    7  C7  UNL     1     -33.864  17.193  -1.430  1.00 20.00     0.180 C 
HETATM    8  C8  UNL     1     -35.297  17.613  -1.169  1.00 20.00     0.103 C 
HETATM    9  C9  UNL     1     -34.822  16.152  -3.300  1.00 20.00     0.108 C 
HETATM   10  O10 UNL     1     -33.885  15.992  -2.209  1.00 20.00    -0.369 OA
HETATM   11  S11 UNL     1     -36.077  17.385  -2.774  1.00 20.00    -0.129 SA
ENDROOT
TORSDOF 0
ENDMDL
MODEL 9
REMARK VINA RESULT:      -4.1      2.358      3.736
REMARK  0 active torsions:
REMARK  status: ('A' for Active; 'I' for Inactive)
ROOT
HETATM    1  C1  UNL     1     -33.811  19.000  -1.749  1.00 20.00     0.000 C 
HETATM    2  C2  UNL     1     -33.663  17.826  -0.786  1.00 20.00     0.000 C 
HETATM    3  C3  UNL     1     -33.669  18.656  -3.232  1.00 20.00     0.004 C 
HETATM    4  C4  UNL     1     -34.587  16.638  -1.055  1.00 20.00     0.004 C 
HETATM    5  C5  UNL     1     -34.875  17.884  -3.774  1.00 20.00     0.049 C 
HETATM    6  C6  UNL     1     -34.182  15.851  -2.300  1.00 20.00     0.049 C 
HETATM    7  C7  UNL     1     -34.420  14.629  -5.172  1.00 20.00     0.180 C 
HETATM    8  C8  UNL     1     -35.916  14.764  -5.374  1.00 20.00     0.103 C 
HETATM    9  C9  UNL     1     -34.771  16.358  -3.628  1.00 20.00     0.108 C 
HETATM   10  O10 UNL     1     -33.919  15.882  -4.695  1.00 20.00    -0.369 OA
HETATM   11  S11 UNL     1     -36.440  15.639  -3.893  1.00 20.00    -0.129 SA
ENDROOT
TORSDOF 0
ENDMDL
