MODEL 1
REMARK VINA RESULT:      -5.2      0.000      0.000
REMARK  0 active torsions:
REMARK  status: ('A' for Active; 'I' for Inactive)
ROOT
HETATM    1  C1  UNL     1     -33.531   6.276   4.348  1.00 20.00    -0.011 C 
HETATM    2  C2  UNL     1     -34.481   5.281   3.767  1.00 20.00     0.155 C 
HETATM    3  C3  UNL     1     -32.527   6.713   3.579  1.00 20.00    -0.078 C 
HETATM    4  C4  UNL     1     -33.750   6.700   5.768  1.00 20.00     0.042 C 
HETATM    5  C5  UNL     1     -35.013   4.216   4.703  1.00 20.00     0.083 C 
HETATM    6  C6  UNL     1     -34.110   5.518   6.665  1.00 20.00     0.005 C 
HETATM    7  C7  UNL     1     -35.303   4.754   6.100  1.00 20.00     0.008 C 
HETATM    8  C8  UNL     1     -31.523   7.713   4.076  1.00 20.00     0.043 C 
HETATM    9  C9  UNL     1     -32.337   6.234   2.169  1.00 20.00     0.043 C 
HETATM   10  O10 UNL     1     -34.760   5.279   2.571  1.00 20.00    -0.293 OA
ENDROOT
TORSDOF 0
ENDMDL
MODEL 2
REMARK VINA RESULT:      -4.5     12.181     13.407
REMARK  0 active torsions:
REMARK  status: ('A' for Active; 'I' for Inactive)
ROOT
HETATM    1  C1  UNL     1     -34.321  16.736  -2.560  1.00 20.00    -0.011 C 
HETATM    2  C2  UNL     1     -33.703  17.231  -3.826  1.00 20.00     0.155 C 
HETATM    3  C3  UNL     1     -34.138  17.454  -1.445  1.00 20.00    -0.078 C 
HETATM    4  C4  UNL     1     -35.085  15.448  -2.616  1.00 20.00     0.042 C 
HETATM    5  C5  UNL     1     -33.170  16.185  -4.782  1.00 20.00     0.083 C 
HETATM    6  C6  UNL     1     -34.369  14.400  -3.466  1.00 20.00     0.005 C 
HETATM    7  C7  UNL     1     -34.059  14.949  -4.854  1.00 20.00     0.008 C 
HETATM    8  C8  UNL     1     -34.720  17.035  -0.126  1.00 20.00     0.043 C 
HETATM    9  C9  UNL     1     -33.340  18.725  -1.439  1.00 20.00     0.043 C 
HETATM   10  O10 UNL     1     -33.563  18.432  -4.048  1.00 20.00    -0.293 OA
ENDROOT
TORSDOF 0
ENDMDL
MODEL 3
REMARK VINA RESULT:      -4.5     11.597     12.763
REMARK  0 active torsions:
REMARK  status: ('A' for Active; 'I' for Inactive)
ROOT
HETATM    1  C1  UNL     1     -35.746  15.689  -3.137  1.00 20.00    -0.011 C 
HETATM    2  C2  UNL     1     -36.214  14.440  -3.808  1.00 20.00     0.155 C 
HETATM    3  C3  UNL     1     -36.582  16.733  -3.090  1.00 20.00    -0.078 C 
HETATM    4  C4  UNL     1     -34.354  15.701  -2.581  1.00 20.00     0.042 C 
HETATM    5  C5  UNL     1     -35.181  13.655  -4.589  1.00 20.00     0.083 C 
HETATM    6  C6  UNL     1     -33.358  15.039  -3.531  1.00 20.00     0.005 C 
HETATM    7  C7  UNL     1     -33.820  13.634  -3.905  1.00 20.00     0.008 C 
HETATM    8  C8  UNL     1     -36.200  18.029  -2.437  1.00 20.00     0.043 C 
HETATM    9  C9  UNL     1     -37.959  16.677  -3.687  1.00 20.00     0.043 C 
HETATM   10  O10 UNL     1     -37.396  14.105  -3.792  1.00 20.00    -0.293 OA
ENDROOT
TORSDOF 0
ENDMDL
MODEL 4
REMARK VINA RESULT:      -4.4     12.183     13.491
REMARK  0 active torsions:
REMARK  status: ('A' for Active; 'I' for Inactive)
ROOT
HETATM    1  C1  UNL     1     -34.031  15.555  -4.138  1.00 20.00    -0.011 C 
HETATM    2  C2  UNL     1     -33.604  16.962  -4.397  1.00 20.00     0.155 C 
HETATM    3  C3  UNL     1     -34.373  14.796  -5.187  1.00 20.00    -0.078 C 
HETATM    4  C4  UNL     1     -34.075  15.092  -2.714  1.00 20.00     0.042 C 
HETATM    5  C5  UNL     1     -34.015  18.000  -3.374  1.00 20.00     0.083 C 
HETATM    6  C6  UNL     1     -34.672  16.152  -1.791  1.00 20.00     0.005 C 
HETATM    7  C7  UNL     1     -33.937  17.478  -1.944  1.00 20.00     0.008 C 
HETATM    8  C8  UNL     1     -34.815  13.371  -5.026  1.00 20.00     0.043 C 
HETATM    9  C9  UNL     1     -34.337  15.319  -6.593  1.00 20.00     0.043 C 
HETATM   10  O10 UNL     1     -33.014  17.278  -5.427  1.00 20.00    -0.293 OA
ENDROOT
TORSDOF 0
ENDMDL
MODEL 5
REMARK VINA RESULT:      -4.4     12.022     13.650
REMARK  0 active torsions:
REMARK  status: ('A' for Active; 'I' for Inactive)
ROOT
HETATM    1  C1  UNL     1     -33.966  16.160  -4.176  1.00 20.00    -0.011 C 
HETATM    2  C2  UNL     1     -34.362  14.724  -4.271  1.00 20.00     0.155 C 
HETATM    3  C3  UNL     1     -34.099  16.775  -2.994  1.00 20.00    -0.078 C 
HETATM    4  C4  UNL     1     -33.468  16.829  -5.421  1.00 20.00     0.042 C 
HETATM    5  C5  UNL     1     -35.006  14.277  -5.567  1.00 20.00     0.083 C 
HETATM    6  C6  UNL     1     -34.300  16.445  -6.643  1.00 20.00     0.005 C 
HETATM    7  C7  UNL     1     -34.375  14.930  -6.791  1.00 20.00     0.008 C 
HETATM    8  C8  UNL     1     -33.726  18.216  -2.802  1.00 20.00     0.043 C 
HETATM    9  C9  UNL     1     -34.629  16.065  -1.783  1.00 20.00     0.043 C 
HETATM   10  O10 UNL     1     -34.244  13.958  -3.318  1.00 20.00    -0.293 OA
ENDROOT
TORSDOF 0
ENDMDL
MODEL 6
REMARK VINA RESULT:      -4.3     12.273     13.864
REMARK  0 active torsions:
REMARK  status: ('A' for Active; 'I' for Inactive)
ROOT
HETATM    1  C1  UNL     1     -34.497  15.217  -5.840  1.00 20.00    -0.011 C 
HETATM    2  C2  UNL     1     -33.656  15.777  -4.741  1.00 20.00     0.155 C 
HETATM    3  C3  UNL     1     -34.956  16.058  -6.776  1.00 20.00    -0.078 C 
HETATM    4  C4  UNL     1     -34.795  13.750  -5.809  1.00 20.00     0.042 C 
HETATM    5  C5  UNL     1     -33.830  15.165  -3.367  1.00 20.00     0.083 C 
HETATM    6  C6  UNL     1     -35.132  13.268  -4.399  1.00 20.00     0.005 C 
HETATM    7  C7  UNL     1     -34.029  13.655  -3.419  1.00 20.00     0.008 C 
HETATM    8  C8  UNL     1     -35.808  15.587  -7.918  1.00 20.00     0.043 C 
HETATM    9  C9  UNL     1     -34.649  17.527  -6.744  1.00 20.00     0.043 C 
HETATM   10  O10 UNL     1     -32.914  16.740  -4.923  1.00 20.00    -0.293 OA
ENDROOT
TORSDOF 0
ENDMDL
MODEL 7
REMARK VINA RESULT:      -4.3     12.638     13.239
REMARK  0 active torsions:
REMARK  status: ('A' for Active; 'I' for Inactive)
ROOT
HETATM    1  C1  UNL     1     -33.236  18.550   1.667  1.00 20.00    -0.011 C 
HETATM    2  C2  UNL     1     -32.518  18.622   0.360  1.00 20.00     0.155 C 
HETATM    3  C3  UNL     1     -32.509  18.595   2.790  1.00 20.00    -0.078 C 
HETATM    4  C4  UNL     1     -34.727  18.404   1.636  1.00 20.00     0.042 C 
HETATM    5  C5  UNL     1     -33.080  17.791  -0.775  1.00 20.00     0.083 C 
HETATM    6  C6  UNL     1     -35.177  17.407   0.570  1.00 20.00     0.005 C 
HETATM    7  C7  UNL     1     -34.603  17.777  -0.793  1.00 20.00     0.008 C 
HETATM    8  C8  UNL     1     -33.141  18.529   4.150  1.00 20.00     0.043 C 
HETATM    9  C9  UNL     1     -31.012  18.714   2.765  1.00 20.00     0.043 C 
HETATM   10  O10 UNL     1     -31.478  19.263   0.230  1.00 20.00    -0.293 OA
ENDROOT
TORSDOF 0
ENDMDL
MODEL 8
REMARK VINA RESULT:      -4.2     12.268     13.501
REMARK  0 active torsions:
REMARK  status: ('A' for Active; 'I' for Inactive)
ROOT
HETATM    1  C1  UNL     1     -34.721  16.080  -3.561  1.00 20.00    -0.011 C 
HETATM    2  C2  UNL     1     -34.509  16.574  -4.955  1.00 20.00     0.155 C 
HETATM    3  C3  UNL     1     -34.385  16.887  -2.548  1.00 20.00    -0.078 C 
HETATM    4  C4  UNL     1     -35.273  14.698  -3.389  1.00 20.00     0.042 C 
HETATM    5  C5  UNL     1     -34.072  15.551  -5.983  1.00 20.00     0.083 C 
HETATM    6  C6  UNL     1     -34.634  13.706  -4.358  1.00 20.00     0.005 C 
HETATM    7  C7  UNL     1     -34.755  14.202  -5.796  1.00 20.00     0.008 C 
HETATM    8  C8  UNL     1     -34.561  16.479  -1.114  1.00 20.00     0.043 C 
HETATM    9  C9  UNL     1     -33.809  18.255  -2.777  1.00 20.00     0.043 C 
HETATM   10  O10 UNL     1     -34.610  17.765  -5.239  1.00 20.00    -0.293 OA
ENDROOT
TORSDOF 0
ENDMDL
MODEL 9
REMARK VINA RESULT:      -4.2     12.320     13.901
REMARK  0 active torsions:
REMARK  status: ('A' for Active; 'I' for Inactive)
ROOT
HETATM    1  C1  UNL     1     -33.967  16.086  -5.241  1.00 20.00    -0.011 C 
HETATM    2  C2  UNL     1     -33.858  15.381  -3.929  1.00 20.00     0.155 C 
HETATM    3  C3  UNL     1     -33.902  17.423  -5.247  1.00 20.00    -0.078 C 
HETATM    4  C4  UNL     1     -34.170  15.248  -6.466  1.00 20.00     0.042 C 
HETATM    5  C5  UNL     1     -34.702  14.137  -3.749  1.00 20.00     0.083 C 
HETATM    6  C6  UNL     1     -35.177  14.125  -6.225  1.00 20.00     0.005 C 
HETATM    7  C7  UNL     1     -34.775  13.290  -5.014  1.00 20.00     0.008 C 
HETATM    8  C8  UNL     1     -34.002  18.218  -6.515  1.00 20.00     0.043 C 
HETATM    9  C9  UNL     1     -33.724  18.217  -3.984  1.00 20.00     0.043 C 
HETATM   10  O10 UNL     1     -33.176  15.830  -3.011  1.00 20.00    -0.293 OA
ENDROOT
TORSDOF 0
ENDMDL
