MODEL 1
REMARK VINA RESULT:      -4.4      0.000      0.000
REMARK  3 active torsions:
REMARK  status: ('A' for Active; 'I' for Inactive)
REMARK    1  A    between atoms: C1_1  and  C5_5 
REMARK    2  A    between atoms: C2_2  and  C6_6 
REMARK    3  A    between atoms: C6_6  and  C7_7 
ROOT
HETATM    1  C1  UNL     1     -33.819   6.272   3.064  1.00 20.00     0.150 A 
HETATM    2  C2  UNL     1     -34.843   5.563   3.916  1.00 20.00     0.151 A 
HETATM    3  O8  UNL     1     -34.456   5.063   2.629  1.00 20.00    -0.376 OA
ENDROOT
BRANCH   2   4
HETATM    4  C6  UNL     1     -34.476   4.665   5.086  1.00 20.00     0.034 C 
BRANCH   4   5
HETATM    5  C7  UNL     1     -34.749   5.349   6.423  1.00 20.00    -0.002 C 
HETATM    6  C4  UNL     1     -33.960   6.642   6.559  1.00 20.00     0.005 C 
ENDBRANCH   4   5
ENDBRANCH   2   4
BRANCH   1   7
HETATM    7  C5  UNL     1     -32.353   6.158   3.288  1.00 20.00     0.030 C 
HETATM    8  C3  UNL     1     -31.654   7.494   3.323  1.00 20.00     0.007 C 
ENDBRANCH   1   7
TORSDOF 3
ENDMDL
MODEL 2
REMARK VINA RESULT:      -4.3      0.941      3.445
REMARK  3 active torsions:
REMARK  status: ('A' for Active; 'I' for Inactive)
REMARK    1  A    between atoms: C1_1  and  C5_5 
REMARK    2  A    between atoms: C2_2  and  C6_6 
REMARK    3  A    between atoms: C6_6  and  C7_7 
ROOT
HETATM    1  C1  UNL     1     -34.918   5.193   4.082  1.00 20.00     0.150 A 
HETATM    2  C2  UNL     1     -33.975   5.725   3.031  1.00 20.00     0.151 A 
HETATM    3  O8  UNL     1     -34.741   6.600   3.870  1.00 20.00    -0.376 OA
ENDROOT
BRANCH   2   4
HETATM    4  C6  UNL     1     -32.470   5.809   3.229  1.00 20.00     0.034 C 
BRANCH   4   5
HETATM    5  C7  UNL     1     -32.011   7.252   3.426  1.00 20.00    -0.002 C 
HETATM    6  C4  UNL     1     -32.049   8.032   2.121  1.00 20.00     0.005 C 
ENDBRANCH   4   5
ENDBRANCH   2   4
BRANCH   1   7
HETATM    7  C5  UNL     1     -34.465   4.701   5.410  1.00 20.00     0.030 C 
HETATM    8  C3  UNL     1     -34.460   5.774   6.470  1.00 20.00     0.007 C 
ENDBRANCH   1   7
TORSDOF 3
ENDMDL
MODEL 3
REMARK VINA RESULT:      -4.3      1.987      2.878
REMARK  3 active torsions:
REMARK  status: ('A' for Active; 'I' for Inactive)
REMARK    1  A    between atoms: C1_1  and  C5_5 
REMARK    2  A    between atoms: C2_2  and  C6_6 
REMARK    3  A    between atoms: C6_6  and  C7_7 
ROOT
HETATM    1  C1  UNL     1     -31.931   7.507   2.450  1.00 20.00     0.150 A 
HETATM    2  C2  UNL     1     -32.545   6.432   3.313  1.00 20.00     0.151 A 
HETATM    3  O8  UNL     1     -31.546   7.327   3.820  1.00 20.00    -0.376 OA
ENDROOT
BRANCH   2   4
HETATM    4  C6  UNL     1     -33.911   6.567   3.965  1.00 20.00     0.034 C 
BRANCH   4   5
HETATM    5  C7  UNL     1     -34.791   5.352   3.678  1.00 20.00    -0.002 C 
HETATM    6  C4  UNL     1     -35.128   4.595   4.952  1.00 20.00     0.005 C 
ENDBRANCH   4   5
ENDBRANCH   2   4
BRANCH   1   7
HETATM    7  C5  UNL     1     -32.604   8.800   2.157  1.00 20.00     0.030 C 
HETATM    8  C3  UNL     1     -32.240   9.365   0.806  1.00 20.00     0.007 C 
ENDBRANCH   1   7
TORSDOF 3
ENDMDL
MODEL 4
REMARK VINA RESULT:      -4.1      1.450      4.037
REMARK  3 active torsions:
REMARK  status: ('A' for Active; 'I' for Inactive)
REMARK    1  A    between atoms: C1_1  and  C5_5 
REMARK    2  A    between atoms: C2_2  and  C6_6 
REMARK    3  A    between atoms: C6_6  and  C7_7 
ROOT
HETATM    1  C1  UNL     1     -33.360   5.606   4.107  1.00 20.00     0.150 A 
HETATM    2  C2  UNL     1     -32.395   6.201   3.111  1.00 20.00     0.151 A 
HETATM    3  O8  UNL     1     -33.766   5.948   2.775  1.00 20.00    -0.376 OA
ENDROOT
BRANCH   2   4
HETATM    4  C6  UNL     1     -31.999   7.668   3.111  1.00 20.00     0.034 C 
BRANCH   4   5
HETATM    5  C7  UNL     1     -31.951   8.235   1.694  1.00 20.00    -0.002 C 
HETATM    6  C4  UNL     1     -32.524   9.642   1.637  1.00 20.00     0.005 C 
ENDBRANCH   4   5
ENDBRANCH   2   4
BRANCH   1   7
HETATM    7  C5  UNL     1     -34.015   6.398   5.181  1.00 20.00     0.030 C 
HETATM    8  C3  UNL     1     -34.526   5.548   6.318  1.00 20.00     0.007 C 
ENDBRANCH   1   7
TORSDOF 3
ENDMDL
MODEL 5
REMARK VINA RESULT:      -3.9      1.597      3.829
REMARK  3 active torsions:
REMARK  status: ('A' for Active; 'I' for Inactive)
REMARK    1  A    between atoms: C1_1  and  C5_5 
REMARK    2  A    between atoms: C2_2  and  C6_6 
REMARK    3  A    between atoms: C6_6  and  C7_7 
ROOT
HETATM    1  C1  UNL     1     -35.025   5.841   4.537  1.00 20.00     0.150 A 
HETATM    2  C2  UNL     1     -33.955   6.714   3.928  1.00 20.00     0.151 A 
HETATM    3  O8  UNL     1     -34.047   6.510   5.344  1.00 20.00    -0.376 OA
ENDROOT
BRANCH   2   4
HETATM    4  C6  UNL     1     -32.695   6.161   3.285  1.00 20.00     0.034 C 
BRANCH   4   5
HETATM    5  C7  UNL     1     -31.641   7.249   3.091  1.00 20.00    -0.002 C 
HETATM    6  C4  UNL     1     -32.060   8.247   2.023  1.00 20.00     0.005 C 
ENDBRANCH   4   5
ENDBRANCH   2   4
BRANCH   1   7
HETATM    7  C5  UNL     1     -34.946   4.356   4.565  1.00 20.00     0.030 C 
HETATM    8  C3  UNL     1     -34.780   3.797   5.956  1.00 20.00     0.007 C 
ENDBRANCH   1   7
TORSDOF 3
ENDMDL
MODEL 6
REMARK VINA RESULT:      -3.9      1.543      3.316
REMARK  3 active torsions:
REMARK  status: ('A' for Active; 'I' for Inactive)
REMARK    1  A    between atoms: C1_1  and  C5_5 
REMARK    2  A    between atoms: C2_2  and  C6_6 
REMARK    3  A    between atoms: C6_6  and  C7_7 
ROOT
HETATM    1  C1  UNL     1     -34.242   5.000   6.349  1.00 20.00     0.150 A 
HETATM    2  C2  UNL     1     -34.566   4.433   4.988  1.00 20.00     0.151 A 
HETATM    3  O8  UNL     1     -35.441   4.251   6.109  1.00 20.00    -0.376 OA
ENDROOT
BRANCH   2   4
HETATM    4  C6  UNL     1     -35.144   5.266   3.856  1.00 20.00     0.034 C 
BRANCH   4   5
HETATM    5  C7  UNL     1     -34.142   5.432   2.715  1.00 20.00    -0.002 C 
HETATM    6  C4  UNL     1     -32.954   6.282   3.137  1.00 20.00     0.005 C 
ENDBRANCH   4   5
ENDBRANCH   2   4
BRANCH   1   7
HETATM    7  C5  UNL     1     -34.459   6.426   6.710  1.00 20.00     0.030 C 
HETATM    8  C3  UNL     1     -33.193   7.245   6.674  1.00 20.00     0.007 C 
ENDBRANCH   1   7
TORSDOF 3
ENDMDL
MODEL 7
REMARK VINA RESULT:      -3.8     11.393     12.989
REMARK  3 active torsions:
REMARK  status: ('A' for Active; 'I' for Inactive)
REMARK    1  A    between atoms: C1_1  and  C5_5 
REMARK    2  A    between atoms: C2_2  and  C6_6 
REMARK    3  A    between atoms: C6_6  and  C7_7 
ROOT
HETATM    1  C1  UNL     1     -34.294  13.840  -3.676  1.00 20.00     0.150 A 
HETATM    2  C2  UNL     1     -34.368  13.462  -5.136  1.00 20.00     0.151 A 
HETATM    3  O8  UNL     1     -35.093  12.740  -4.132  1.00 20.00    -0.376 OA
ENDROOT
BRANCH   2   4
HETATM    4  C6  UNL     1     -35.235  14.198  -6.144  1.00 20.00     0.034 C 
BRANCH   4   5
HETATM    5  C7  UNL     1     -34.396  15.076  -7.069  1.00 20.00    -0.002 C 
HETATM    6  C4  UNL     1     -34.123  16.438  -6.450  1.00 20.00     0.005 C 
ENDBRANCH   4   5
ENDBRANCH   2   4
BRANCH   1   7
HETATM    7  C5  UNL     1     -35.064  14.967  -3.087  1.00 20.00     0.030 C 
HETATM    8  C3  UNL     1     -34.188  16.004  -2.430  1.00 20.00     0.007 C 
ENDBRANCH   1   7
TORSDOF 3
ENDMDL
MODEL 8
REMARK VINA RESULT:      -3.7     11.660     12.305
REMARK  3 active torsions:
REMARK  status: ('A' for Active; 'I' for Inactive)
REMARK    1  A    between atoms: C1_1  and  C5_5 
REMARK    2  A    between atoms: C2_2  and  C6_6 
REMARK    3  A    between atoms: C6_6  and  C7_7 
ROOT
HETATM    1  C1  UNL     1     -33.066  15.196  -3.728  1.00 20.00     0.150 A 
HETATM    2  C2  UNL     1     -33.686  16.277  -2.877  1.00 20.00     0.151 A 
HETATM    3  O8  UNL     1     -34.054  16.094  -4.251  1.00 20.00    -0.376 OA
ENDROOT
BRANCH   2   4
HETATM    4  C6  UNL     1     -34.800  16.013  -1.878  1.00 20.00     0.034 C 
BRANCH   4   5
HETATM    5  C7  UNL     1     -34.619  16.839  -0.607  1.00 20.00    -0.002 C 
HETATM    6  C4  UNL     1     -33.476  17.833  -0.746  1.00 20.00     0.005 C 
ENDBRANCH   4   5
ENDBRANCH   2   4
BRANCH   1   7
HETATM    7  C5  UNL     1     -33.487  13.771  -3.670  1.00 20.00     0.030 C 
HETATM    8  C3  UNL     1     -34.411  13.379  -4.796  1.00 20.00     0.007 C 
ENDBRANCH   1   7
TORSDOF 3
ENDMDL
MODEL 9
REMARK VINA RESULT:      -3.7     11.437     12.411
REMARK  3 active torsions:
REMARK  status: ('A' for Active; 'I' for Inactive)
REMARK    1  A    between atoms: C1_1  and  C5_5 
REMARK    2  A    between atoms: C2_2  and  C6_6 
REMARK    3  A    between atoms: C6_6  and  C7_7 
ROOT
HETATM    1  C1  UNL     1     -34.825  13.644  -4.966  1.00 20.00     0.150 A 
HETATM    2  C2  UNL     1     -34.554  14.006  -3.526  1.00 20.00     0.151 A 
HETATM    3  O8  UNL     1     -33.674  13.151  -4.267  1.00 20.00    -0.376 OA
ENDROOT
BRANCH   2   4
HETATM    4  C6  UNL     1     -33.946  15.333  -3.101  1.00 20.00     0.034 C 
BRANCH   4   5
HETATM    5  C7  UNL     1     -34.771  16.000  -2.003  1.00 20.00    -0.002 C 
HETATM    6  C4  UNL     1     -33.955  17.035  -1.245  1.00 20.00     0.005 C 
ENDBRANCH   4   5
ENDBRANCH   2   4
BRANCH   1   7
HETATM    7  C5  UNL     1     -34.521  14.551  -6.105  1.00 20.00     0.030 C 
HETATM    8  C3  UNL     1     -35.482  14.397  -7.258  1.00 20.00     0.007 C 
ENDBRANCH   1   7
TORSDOF 3
ENDMDL
