MODEL 1
REMARK VINA RESULT:      -5.5      0.000      0.000
REMARK  0 active torsions:
REMARK  status: ('A' for Active; 'I' for Inactive)
ROOT
HETATM    1  C1  UNL     1     -32.743   7.004   4.446  1.00 20.00     0.053 A 
HETATM    2  C2  UNL     1     -33.812   6.378   4.942  1.00 20.00    -0.072 A 
HETATM    3  C3  UNL     1     -32.753   6.714   3.006  1.00 20.00     0.150 A 
HETATM    4  C4  UNL     1     -34.219   6.293   6.377  1.00 20.00     0.034 C 
HETATM    5  C5  UNL     1     -33.899   5.823   2.616  1.00 20.00     0.092 A 
HETATM    6  C6  UNL     1     -34.411   4.828   6.781  1.00 20.00     0.004 C 
HETATM    7  C7  UNL     1     -35.308   4.064   5.800  1.00 20.00     0.001 C 
HETATM    8  C8  UNL     1     -34.794   4.171   4.359  1.00 20.00     0.009 C 
HETATM    9  C9  UNL     1     -34.645   5.635   3.937  1.00 20.00     0.022 A 
HETATM   10  O10 UNL     1     -31.912   7.149   2.233  1.00 20.00    -0.293 OA
ENDROOT
TORSDOF 0
ENDMDL
MODEL 2
REMARK VINA RESULT:      -4.8      2.178      4.120
REMARK  0 active torsions:
REMARK  status: ('A' for Active; 'I' for Inactive)
ROOT
HETATM    1  C1  UNL     1     -35.058   4.415   4.636  1.00 20.00     0.053 A 
HETATM    2  C2  UNL     1     -34.479   5.431   3.993  1.00 20.00    -0.072 A 
HETATM    3  C3  UNL     1     -35.032   4.787   6.057  1.00 20.00     0.150 A 
HETATM    4  C4  UNL     1     -34.186   5.520   2.531  1.00 20.00     0.034 C 
HETATM    5  C5  UNL     1     -34.360   6.113   6.284  1.00 20.00     0.092 A 
HETATM    6  C6  UNL     1     -32.704   5.838   2.312  1.00 20.00     0.004 C 
HETATM    7  C7  UNL     1     -32.233   7.035   3.147  1.00 20.00     0.001 C 
HETATM    8  C8  UNL     1     -32.537   6.841   4.638  1.00 20.00     0.009 C 
HETATM    9  C9  UNL     1     -34.026   6.569   4.864  1.00 20.00     0.022 A 
HETATM   10  O10 UNL     1     -35.499   4.081   6.939  1.00 20.00    -0.293 OA
ENDROOT
TORSDOF 0
ENDMDL
MODEL 3
REMARK VINA RESULT:      -4.6     11.652     12.667
REMARK  0 active torsions:
REMARK  status: ('A' for Active; 'I' for Inactive)
ROOT
HETATM    1  C1  UNL     1     -33.975  14.125  -3.421  1.00 20.00     0.053 A 
HETATM    2  C2  UNL     1     -34.347  15.390  -3.215  1.00 20.00    -0.072 A 
HETATM    3  C3  UNL     1     -34.894  13.609  -4.444  1.00 20.00     0.150 A 
HETATM    4  C4  UNL     1     -33.781  16.343  -2.214  1.00 20.00     0.034 C 
HETATM    5  C5  UNL     1     -35.911  14.634  -4.861  1.00 20.00     0.092 A 
HETATM    6  C6  UNL     1     -34.903  16.917  -1.344  1.00 20.00     0.004 C 
HETATM    7  C7  UNL     1     -36.069  17.462  -2.179  1.00 20.00     0.001 C 
HETATM    8  C8  UNL     1     -36.614  16.407  -3.149  1.00 20.00     0.009 C 
HETATM    9  C9  UNL     1     -35.502  15.864  -4.051  1.00 20.00     0.022 A 
HETATM   10  O10 UNL     1     -34.829  12.471  -4.884  1.00 20.00    -0.293 OA
ENDROOT
TORSDOF 0
ENDMDL
MODEL 4
REMARK VINA RESULT:      -4.5     11.640     12.992
REMARK  0 active torsions:
REMARK  status: ('A' for Active; 'I' for Inactive)
ROOT
HETATM    1  C1  UNL     1     -36.148  14.346  -4.211  1.00 20.00     0.053 A 
HETATM    2  C2  UNL     1     -35.837  15.377  -3.422  1.00 20.00    -0.072 A 
HETATM    3  C3  UNL     1     -34.946  13.502  -4.245  1.00 20.00     0.150 A 
HETATM    4  C4  UNL     1     -36.688  16.564  -3.115  1.00 20.00     0.034 C 
HETATM    5  C5  UNL     1     -33.821  14.087  -3.439  1.00 20.00     0.092 A 
HETATM    6  C6  UNL     1     -35.921  17.853  -3.425  1.00 20.00     0.004 C 
HETATM    7  C7  UNL     1     -34.525  17.868  -2.791  1.00 20.00     0.001 C 
HETATM    8  C8  UNL     1     -33.706  16.635  -3.191  1.00 20.00     0.009 C 
HETATM    9  C9  UNL     1     -34.451  15.344  -2.841  1.00 20.00     0.022 A 
HETATM   10  O10 UNL     1     -34.886  12.455  -4.872  1.00 20.00    -0.293 OA
ENDROOT
TORSDOF 0
ENDMDL
MODEL 5
REMARK VINA RESULT:      -4.5     11.610     13.342
REMARK  0 active torsions:
REMARK  status: ('A' for Active; 'I' for Inactive)
ROOT
HETATM    1  C1  UNL     1     -34.303  14.135  -3.333  1.00 20.00     0.053 A 
HETATM    2  C2  UNL     1     -34.007  15.430  -3.463  1.00 20.00    -0.072 A 
HETATM    3  C3  UNL     1     -34.533  13.647  -4.699  1.00 20.00     0.150 A 
HETATM    4  C4  UNL     1     -33.758  16.410  -2.364  1.00 20.00     0.034 C 
HETATM    5  C5  UNL     1     -34.393  14.740  -5.722  1.00 20.00     0.092 A 
HETATM    6  C6  UNL     1     -34.676  17.625  -2.529  1.00 20.00     0.004 C 
HETATM    7  C7  UNL     1     -34.627  18.206  -3.948  1.00 20.00     0.001 C 
HETATM    8  C8  UNL     1     -34.933  17.141  -5.008  1.00 20.00     0.009 C 
HETATM    9  C9  UNL     1     -33.987  15.945  -4.874  1.00 20.00     0.022 A 
HETATM   10  O10 UNL     1     -34.816  12.486  -4.953  1.00 20.00    -0.293 OA
ENDROOT
TORSDOF 0
ENDMDL
MODEL 6
REMARK VINA RESULT:      -4.4     12.086     13.608
REMARK  0 active torsions:
REMARK  status: ('A' for Active; 'I' for Inactive)
ROOT
HETATM    1  C1  UNL     1     -34.027  17.338  -4.778  1.00 20.00     0.053 A 
HETATM    2  C2  UNL     1     -33.901  16.030  -5.010  1.00 20.00    -0.072 A 
HETATM    3  C3  UNL     1     -33.820  17.501  -3.332  1.00 20.00     0.150 A 
HETATM    4  C4  UNL     1     -34.094  15.325  -6.312  1.00 20.00     0.034 C 
HETATM    5  C5  UNL     1     -33.581  16.186  -2.643  1.00 20.00     0.092 A 
HETATM    6  C6  UNL     1     -35.106  14.187  -6.148  1.00 20.00     0.004 C 
HETATM    7  C7  UNL     1     -34.776  13.281  -4.955  1.00 20.00     0.001 C 
HETATM    8  C8  UNL     1     -34.635  14.081  -3.655  1.00 20.00     0.009 C 
HETATM    9  C9  UNL     1     -33.591  15.191  -3.803  1.00 20.00     0.022 A 
HETATM   10  O10 UNL     1     -33.853  18.587  -2.773  1.00 20.00    -0.293 OA
ENDROOT
TORSDOF 0
ENDMDL
MODEL 7
REMARK VINA RESULT:      -4.3     12.223     14.138
REMARK  0 active torsions:
REMARK  status: ('A' for Active; 'I' for Inactive)
ROOT
HETATM    1  C1  UNL     1     -34.786  14.524  -6.001  1.00 20.00     0.053 A 
HETATM    2  C2  UNL     1     -34.822  15.786  -5.568  1.00 20.00    -0.072 A 
HETATM    3  C3  UNL     1     -34.766  13.695  -4.788  1.00 20.00     0.150 A 
HETATM    4  C4  UNL     1     -34.780  17.025  -6.401  1.00 20.00     0.034 C 
HETATM    5  C5  UNL     1     -34.762  14.525  -3.535  1.00 20.00     0.092 A 
HETATM    6  C6  UNL     1     -33.650  17.941  -5.921  1.00 20.00     0.004 C 
HETATM    7  C7  UNL     1     -33.692  18.173  -4.405  1.00 20.00     0.001 C 
HETATM    8  C8  UNL     1     -33.692  16.851  -3.628  1.00 20.00     0.009 C 
HETATM    9  C9  UNL     1     -34.848  15.952  -4.075  1.00 20.00     0.022 A 
HETATM   10  O10 UNL     1     -34.746  12.474  -4.817  1.00 20.00    -0.293 OA
ENDROOT
TORSDOF 0
ENDMDL
MODEL 8
REMARK VINA RESULT:      -4.3     12.135     13.780
REMARK  0 active torsions:
REMARK  status: ('A' for Active; 'I' for Inactive)
ROOT
HETATM    1  C1  UNL     1     -35.002  14.012  -5.610  1.00 20.00     0.053 A 
HETATM    2  C2  UNL     1     -34.297  14.740  -4.741  1.00 20.00    -0.072 A 
HETATM    3  C3  UNL     1     -34.913  14.734  -6.887  1.00 20.00     0.150 A 
HETATM    4  C4  UNL     1     -34.132  14.483  -3.279  1.00 20.00     0.034 C 
HETATM    5  C5  UNL     1     -34.119  16.004  -6.765  1.00 20.00     0.092 A 
HETATM    6  C6  UNL     1     -34.526  15.729  -2.480  1.00 20.00     0.004 C 
HETATM    7  C7  UNL     1     -33.842  16.998  -3.003  1.00 20.00     0.001 C 
HETATM    8  C8  UNL     1     -34.098  17.205  -4.502  1.00 20.00     0.009 C 
HETATM    9  C9  UNL     1     -33.662  15.978  -5.307  1.00 20.00     0.022 A 
HETATM   10  O10 UNL     1     -35.440  14.335  -7.915  1.00 20.00    -0.293 OA
ENDROOT
TORSDOF 0
ENDMDL
MODEL 9
REMARK VINA RESULT:      -4.3     10.013     11.031
REMARK  0 active torsions:
REMARK  status: ('A' for Active; 'I' for Inactive)
ROOT
HETATM    1  C1  UNL     1     -43.236   5.266  -3.294  1.00 20.00     0.053 A 
HETATM    2  C2  UNL     1     -42.743   5.603  -2.100  1.00 20.00    -0.072 A 
HETATM    3  C3  UNL     1     -43.058   3.812  -3.394  1.00 20.00     0.150 A 
HETATM    4  C4  UNL     1     -42.614   6.980  -1.536  1.00 20.00     0.034 C 
HETATM    5  C5  UNL     1     -42.381   3.239  -2.180  1.00 20.00     0.092 A 
HETATM    6  C6  UNL     1     -41.169   7.234  -1.097  1.00 20.00     0.004 C 
HETATM    7  C7  UNL     1     -40.623   6.109  -0.208  1.00 20.00     0.001 C 
HETATM    8  C8  UNL     1     -40.758   4.737  -0.881  1.00 20.00     0.009 C 
HETATM    9  C9  UNL     1     -42.210   4.463  -1.280  1.00 20.00     0.022 A 
HETATM   10  O10 UNL     1     -43.417   3.162  -4.365  1.00 20.00    -0.293 OA
ENDROOT
TORSDOF 0
ENDMDL
