MODEL 1
REMARK VINA RESULT:      -4.8      0.000      0.000
REMARK  3 active torsions:
REMARK  status: ('A' for Active; 'I' for Inactive)
REMARK    1  A    between atoms: C1_1  and  C3_3 
REMARK    2  A    between atoms: C3_3  and  C6_6 
REMARK    3  A    between atoms: C6_6  and  C7_7 
ROOT
HETATM    1  C3  UNL     1     -35.014   5.238   3.787  1.00 20.00     0.149 C 
HETATM    2  O8  UNL     1     -36.116   5.727   3.550  1.00 20.00    -0.293 OA
ENDROOT
BRANCH   1   3
HETATM    3  C1  UNL     1     -33.789   5.675   3.057  1.00 20.00     0.045 C 
HETATM    4  C2  UNL     1     -33.116   6.768   3.439  1.00 20.00    -0.027 C 
HETATM    5  C4  UNL     1     -31.883   7.255   2.749  1.00 20.00     0.036 C 
ENDBRANCH   1   3
BRANCH   1   6
HETATM    6  C6  UNL     1     -34.800   4.159   4.833  1.00 20.00     0.082 C 
BRANCH   6   7
HETATM    7  C7  UNL     1     -35.095   4.651   6.248  1.00 20.00     0.003 C 
HETATM    8  C5  UNL     1     -34.354   5.942   6.554  1.00 20.00     0.005 C 
ENDBRANCH   6   7
ENDBRANCH   1   6
TORSDOF 3
ENDMDL
MODEL 2
REMARK VINA RESULT:      -4.7      1.351      3.236
REMARK  3 active torsions:
REMARK  status: ('A' for Active; 'I' for Inactive)
REMARK    1  A    between atoms: C1_1  and  C3_3 
REMARK    2  A    between atoms: C3_3  and  C6_6 
REMARK    3  A    between atoms: C6_6  and  C7_7 
ROOT
HETATM    1  C3  UNL     1     -34.940   4.704   5.064  1.00 20.00     0.149 C 
HETATM    2  O8  UNL     1     -35.174   3.498   5.114  1.00 20.00    -0.293 OA
ENDROOT
BRANCH   1   3
HETATM    3  C1  UNL     1     -34.463   5.459   6.257  1.00 20.00     0.045 C 
HETATM    4  C2  UNL     1     -33.966   6.697   6.133  1.00 20.00    -0.027 C 
HETATM    5  C4  UNL     1     -33.474   7.504   7.290  1.00 20.00     0.036 C 
ENDBRANCH   1   3
BRANCH   1   6
HETATM    6  C6  UNL     1     -35.111   5.523   3.798  1.00 20.00     0.082 C 
BRANCH   6   7
HETATM    7  C7  UNL     1     -33.994   5.275   2.787  1.00 20.00     0.003 C 
HETATM    8  C5  UNL     1     -32.824   6.221   3.005  1.00 20.00     0.005 C 
ENDBRANCH   6   7
ENDBRANCH   1   6
TORSDOF 3
ENDMDL
MODEL 3
REMARK VINA RESULT:      -4.6      1.616      2.204
REMARK  3 active torsions:
REMARK  status: ('A' for Active; 'I' for Inactive)
REMARK    1  A    between atoms: C1_1  and  C3_3 
REMARK    2  A    between atoms: C3_3  and  C6_6 
REMARK    3  A    between atoms: C6_6  and  C7_7 
ROOT
HETATM    1  C3  UNL     1     -33.270   6.339   3.831  1.00 20.00     0.149 C 
HETATM    2  O8  UNL     1     -33.070   6.754   4.970  1.00 20.00    -0.293 OA
ENDROOT
BRANCH   1   3
HETATM    3  C1  UNL     1     -32.457   6.807   2.672  1.00 20.00     0.045 C 
HETATM    4  C2  UNL     1     -32.449   8.098   2.315  1.00 20.00    -0.027 C 
HETATM    5  C4  UNL     1     -31.655   8.628   1.166  1.00 20.00     0.036 C 
ENDBRANCH   1   3
BRANCH   1   6
HETATM    6  C6  UNL     1     -34.349   5.323   3.502  1.00 20.00     0.082 C 
BRANCH   6   7
HETATM    7  C7  UNL     1     -35.346   5.140   4.644  1.00 20.00     0.003 C 
HETATM    8  C5  UNL     1     -34.919   4.023   5.583  1.00 20.00     0.005 C 
ENDBRANCH   6   7
ENDBRANCH   1   6
TORSDOF 3
ENDMDL
MODEL 4
REMARK VINA RESULT:      -4.4      1.578      4.375
REMARK  3 active torsions:
REMARK  status: ('A' for Active; 'I' for Inactive)
REMARK    1  A    between atoms: C1_1  and  C3_3 
REMARK    2  A    between atoms: C3_3  and  C6_6 
REMARK    3  A    between atoms: C6_6  and  C7_7 
ROOT
HETATM    1  C3  UNL     1     -33.122   6.388   3.397  1.00 20.00     0.149 C 
HETATM    2  O8  UNL     1     -33.452   5.677   2.450  1.00 20.00    -0.293 OA
ENDROOT
BRANCH   1   3
HETATM    3  C1  UNL     1     -33.721   6.217   4.751  1.00 20.00     0.045 C 
HETATM    4  C2  UNL     1     -34.424   5.119   5.058  1.00 20.00    -0.027 C 
HETATM    5  C4  UNL     1     -35.046   4.890   6.397  1.00 20.00     0.036 C 
ENDBRANCH   1   3
BRANCH   1   6
HETATM    6  C6  UNL     1     -32.085   7.490   3.276  1.00 20.00     0.082 C 
BRANCH   6   7
HETATM    7  C7  UNL     1     -31.940   8.000   1.844  1.00 20.00     0.003 C 
HETATM    8  C5  UNL     1     -32.464   9.420   1.703  1.00 20.00     0.005 C 
ENDBRANCH   6   7
ENDBRANCH   1   6
TORSDOF 3
ENDMDL
MODEL 5
REMARK VINA RESULT:      -4.0     12.195     12.767
REMARK  3 active torsions:
REMARK  status: ('A' for Active; 'I' for Inactive)
REMARK    1  A    between atoms: C1_1  and  C3_3 
REMARK    2  A    between atoms: C3_3  and  C6_6 
REMARK    3  A    between atoms: C6_6  and  C7_7 
ROOT
HETATM    1  C3  UNL     1     -33.215  15.783  -3.832  1.00 20.00     0.149 C 
HETATM    2  O8  UNL     1     -32.833  16.275  -4.892  1.00 20.00    -0.293 OA
ENDROOT
BRANCH   1   3
HETATM    3  C1  UNL     1     -33.628  16.632  -2.678  1.00 20.00     0.045 C 
HETATM    4  C2  UNL     1     -34.410  16.140  -1.709  1.00 20.00    -0.027 C 
HETATM    5  C4  UNL     1     -34.856  16.940  -0.528  1.00 20.00     0.036 C 
ENDBRANCH   1   3
BRANCH   1   6
HETATM    6  C6  UNL     1     -33.303  14.285  -3.605  1.00 20.00     0.082 C 
BRANCH   6   7
HETATM    7  C7  UNL     1     -34.229  13.596  -4.605  1.00 20.00     0.003 C 
HETATM    8  C5  UNL     1     -35.691  13.843  -4.272  1.00 20.00     0.005 C 
ENDBRANCH   6   7
ENDBRANCH   1   6
TORSDOF 3
ENDMDL
MODEL 6
REMARK VINA RESULT:      -4.0     11.732     13.095
REMARK  3 active torsions:
REMARK  status: ('A' for Active; 'I' for Inactive)
REMARK    1  A    between atoms: C1_1  and  C3_3 
REMARK    2  A    between atoms: C3_3  and  C6_6 
REMARK    3  A    between atoms: C6_6  and  C7_7 
ROOT
HETATM    1  C3  UNL     1     -34.968  13.719  -4.468  1.00 20.00     0.149 C 
HETATM    2  O8  UNL     1     -34.952  12.491  -4.500  1.00 20.00    -0.293 OA
ENDROOT
BRANCH   1   3
HETATM    3  C1  UNL     1     -34.398  14.480  -3.319  1.00 20.00     0.045 C 
HETATM    4  C2  UNL     1     -35.066  15.506  -2.776  1.00 20.00    -0.027 C 
HETATM    5  C4  UNL     1     -34.548  16.305  -1.625  1.00 20.00     0.036 C 
ENDBRANCH   1   3
BRANCH   1   6
HETATM    6  C6  UNL     1     -35.562  14.564  -5.580  1.00 20.00     0.082 C 
BRANCH   6   7
HETATM    7  C7  UNL     1     -34.540  14.904  -6.663  1.00 20.00     0.003 C 
HETATM    8  C5  UNL     1     -34.247  16.395  -6.703  1.00 20.00     0.005 C 
ENDBRANCH   6   7
ENDBRANCH   1   6
TORSDOF 3
ENDMDL
MODEL 7
REMARK VINA RESULT:      -4.0      1.936      2.469
REMARK  3 active torsions:
REMARK  status: ('A' for Active; 'I' for Inactive)
REMARK    1  A    between atoms: C1_1  and  C3_3 
REMARK    2  A    between atoms: C3_3  and  C6_6 
REMARK    3  A    between atoms: C6_6  and  C7_7 
ROOT
HETATM    1  C3  UNL     1     -33.768   6.576   6.054  1.00 20.00     0.149 C 
HETATM    2  O8  UNL     1     -33.116   7.297   6.807  1.00 20.00    -0.293 OA
ENDROOT
BRANCH   1   3
HETATM    3  C1  UNL     1     -33.649   6.681   4.571  1.00 20.00     0.045 C 
HETATM    4  C2  UNL     1     -32.467   6.927   3.993  1.00 20.00    -0.027 C 
HETATM    5  C4  UNL     1     -32.284   7.042   2.515  1.00 20.00     0.036 C 
ENDBRANCH   1   3
BRANCH   1   6
HETATM    6  C6  UNL     1     -34.740   5.525   6.558  1.00 20.00     0.082 C 
BRANCH   6   7
HETATM    7  C7  UNL     1     -34.511   4.161   5.911  1.00 20.00     0.003 C 
HETATM    8  C5  UNL     1     -35.294   4.020   4.616  1.00 20.00     0.005 C 
ENDBRANCH   6   7
ENDBRANCH   1   6
TORSDOF 3
ENDMDL
MODEL 8
REMARK VINA RESULT:      -3.9     11.752     12.652
REMARK  3 active torsions:
REMARK  status: ('A' for Active; 'I' for Inactive)
REMARK    1  A    between atoms: C1_1  and  C3_3 
REMARK    2  A    between atoms: C3_3  and  C6_6 
REMARK    3  A    between atoms: C6_6  and  C7_7 
ROOT
HETATM    1  C3  UNL     1     -34.190  13.839  -4.039  1.00 20.00     0.149 C 
HETATM    2  O8  UNL     1     -33.203  13.186  -3.709  1.00 20.00    -0.293 OA
ENDROOT
BRANCH   1   3
HETATM    3  C1  UNL     1     -34.751  13.768  -5.419  1.00 20.00     0.045 C 
HETATM    4  C2  UNL     1     -34.514  14.741  -6.307  1.00 20.00    -0.027 C 
HETATM    5  C4  UNL     1     -35.046  14.726  -7.703  1.00 20.00     0.036 C 
ENDBRANCH   1   3
BRANCH   1   6
HETATM    6  C6  UNL     1     -34.923  14.764  -3.084  1.00 20.00     0.082 C 
BRANCH   6   7
HETATM    7  C7  UNL     1     -34.041  15.908  -2.589  1.00 20.00     0.003 C 
HETATM    8  C5  UNL     1     -34.569  16.495  -1.290  1.00 20.00     0.005 C 
ENDBRANCH   6   7
ENDBRANCH   1   6
TORSDOF 3
ENDMDL
MODEL 9
REMARK VINA RESULT:      -3.9     11.865     12.777
REMARK  3 active torsions:
REMARK  status: ('A' for Active; 'I' for Inactive)
REMARK    1  A    between atoms: C1_1  and  C3_3 
REMARK    2  A    between atoms: C3_3  and  C6_6 
REMARK    3  A    between atoms: C6_6  and  C7_7 
ROOT
HETATM    1  C3  UNL     1     -33.619  16.159  -3.255  1.00 20.00     0.149 C 
HETATM    2  O8  UNL     1     -33.501  17.155  -3.965  1.00 20.00    -0.293 OA
ENDROOT
BRANCH   1   3
HETATM    3  C1  UNL     1     -34.375  16.199  -1.970  1.00 20.00     0.045 C 
HETATM    4  C2  UNL     1     -34.131  17.149  -1.058  1.00 20.00    -0.027 C 
HETATM    5  C4  UNL     1     -34.855  17.242   0.245  1.00 20.00     0.036 C 
ENDBRANCH   1   3
BRANCH   1   6
HETATM    6  C6  UNL     1     -33.016  14.814  -3.615  1.00 20.00     0.082 C 
BRANCH   6   7
HETATM    7  C7  UNL     1     -34.058  13.698  -3.650  1.00 20.00     0.003 C 
HETATM    8  C5  UNL     1     -34.643  13.527  -5.042  1.00 20.00     0.005 C 
ENDBRANCH   6   7
ENDBRANCH   1   6
TORSDOF 3
ENDMDL
