MODEL 1
REMARK VINA RESULT:      -4.1      0.000      0.000
REMARK  2 active torsions:
REMARK  status: ('A' for Active; 'I' for Inactive)
REMARK    1  A    between atoms: C1_1  and  C3_3 
REMARK    2  A    between atoms: C3_3  and  C4_4 
ROOT
HETATM    1  C1  UNL     1     -34.143   5.745   3.776  1.00 20.00    -0.088 C 
HETATM    2  C2  UNL     1     -33.295   6.452   3.304  1.00 20.00     0.004 C 
HETATM    3 CL5  UNL     1     -32.059   7.486   2.612  1.00 20.00    -0.023 Cl
ENDROOT
BRANCH   1   4
HETATM    4  C3  UNL     1     -35.181   4.880   4.355  1.00 20.00     0.110 C 
BRANCH   4   5
HETATM    5  C4  UNL     1     -34.986   4.668   5.852  1.00 20.00     0.126 C 
HETATM    6 CL6  UNL     1     -34.307   6.118   6.636  1.00 20.00    -0.130 Cl
ENDBRANCH   4   5
ENDBRANCH   1   4
TORSDOF 2
ENDMDL
MODEL 2
REMARK VINA RESULT:      -3.7      1.462      4.392
REMARK  2 active torsions:
REMARK  status: ('A' for Active; 'I' for Inactive)
REMARK    1  A    between atoms: C1_1  and  C3_3 
REMARK    2  A    between atoms: C3_3  and  C4_4 
ROOT
HETATM    1  C1  UNL     1     -33.241   6.183   3.874  1.00 20.00    -0.088 C 
HETATM    2  C2  UNL     1     -33.867   5.889   4.855  1.00 20.00     0.004 C 
HETATM    3 CL5  UNL     1     -34.783   5.457   6.287  1.00 20.00    -0.023 Cl
ENDROOT
BRANCH   1   4
HETATM    4  C3  UNL     1     -32.472   6.543   2.674  1.00 20.00     0.110 C 
BRANCH   4   5
HETATM    5  C4  UNL     1     -32.052   8.008   2.677  1.00 20.00     0.126 C 
HETATM    6 CL6  UNL     1     -31.869   8.642   1.021  1.00 20.00    -0.130 Cl
ENDBRANCH   4   5
ENDBRANCH   1   4
TORSDOF 2
ENDMDL
MODEL 3
REMARK VINA RESULT:      -3.7      1.727      2.190
REMARK  2 active torsions:
REMARK  status: ('A' for Active; 'I' for Inactive)
REMARK    1  A    between atoms: C1_1  and  C3_3 
REMARK    2  A    between atoms: C3_3  and  C4_4 
ROOT
HETATM    1  C1  UNL     1     -32.714   6.973   3.140  1.00 20.00    -0.088 C 
HETATM    2  C2  UNL     1     -32.280   7.699   2.287  1.00 20.00     0.004 C 
HETATM    3 CL5  UNL     1     -31.643   8.759   1.043  1.00 20.00    -0.023 Cl
ENDROOT
BRANCH   1   4
HETATM    4  C3  UNL     1     -33.247   6.084   4.181  1.00 20.00     0.110 C 
BRANCH   4   5
HETATM    5  C4  UNL     1     -34.603   5.501   3.803  1.00 20.00     0.126 C 
HETATM    6 CL6  UNL     1     -35.162   4.307   5.003  1.00 20.00    -0.130 Cl
ENDBRANCH   4   5
ENDBRANCH   1   4
TORSDOF 2
ENDMDL
MODEL 4
REMARK VINA RESULT:      -3.7      1.648      1.753
REMARK  2 active torsions:
REMARK  status: ('A' for Active; 'I' for Inactive)
REMARK    1  A    between atoms: C1_1  and  C3_3 
REMARK    2  A    between atoms: C3_3  and  C4_4 
ROOT
HETATM    1  C1  UNL     1     -33.664   6.341   5.070  1.00 20.00    -0.088 C 
HETATM    2  C2  UNL     1     -33.089   6.665   4.066  1.00 20.00     0.004 C 
HETATM    3 CL5  UNL     1     -32.247   7.136   2.602  1.00 20.00    -0.023 Cl
ENDROOT
BRANCH   1   4
HETATM    4  C3  UNL     1     -34.370   5.944   6.297  1.00 20.00     0.110 C 
BRANCH   4   5
HETATM    5  C4  UNL     1     -34.915   4.523   6.213  1.00 20.00     0.126 C 
HETATM    6 CL6  UNL     1     -35.231   4.040   4.527  1.00 20.00    -0.130 Cl
ENDBRANCH   4   5
ENDBRANCH   1   4
TORSDOF 2
ENDMDL
MODEL 5
REMARK VINA RESULT:      -3.2      1.619      3.168
REMARK  2 active torsions:
REMARK  status: ('A' for Active; 'I' for Inactive)
REMARK    1  A    between atoms: C1_1  and  C3_3 
REMARK    2  A    between atoms: C3_3  and  C4_4 
ROOT
HETATM    1  C1  UNL     1     -34.422   5.812   5.565  1.00 20.00    -0.088 C 
HETATM    2  C2  UNL     1     -33.951   6.601   6.337  1.00 20.00     0.004 C 
HETATM    3 CL5  UNL     1     -33.264   7.757   7.463  1.00 20.00    -0.023 Cl
ENDROOT
BRANCH   1   4
HETATM    4  C3  UNL     1     -34.999   4.844   4.621  1.00 20.00     0.110 C 
BRANCH   4   5
HETATM    5  C4  UNL     1     -34.694   5.201   3.171  1.00 20.00     0.126 C 
HETATM    6 CL6  UNL     1     -33.113   6.011   3.013  1.00 20.00    -0.130 Cl
ENDBRANCH   4   5
ENDBRANCH   1   4
TORSDOF 2
ENDMDL
MODEL 6
REMARK VINA RESULT:      -3.1     11.753     12.331
REMARK  2 active torsions:
REMARK  status: ('A' for Active; 'I' for Inactive)
REMARK    1  A    between atoms: C1_1  and  C3_3 
REMARK    2  A    between atoms: C3_3  and  C4_4 
ROOT
HETATM    1  C1  UNL     1     -34.308  16.568  -1.435  1.00 20.00    -0.088 C 
HETATM    2  C2  UNL     1     -34.705  16.928  -0.360  1.00 20.00     0.004 C 
HETATM    3 CL5  UNL     1     -35.283  17.459   1.208  1.00 20.00    -0.023 Cl
ENDROOT
BRANCH   1   4
HETATM    4  C3  UNL     1     -33.825  16.125  -2.751  1.00 20.00     0.110 C 
BRANCH   4   5
HETATM    5  C4  UNL     1     -34.509  14.845  -3.215  1.00 20.00     0.126 C 
HETATM    6 CL6  UNL     1     -33.327  13.641  -3.790  1.00 20.00    -0.130 Cl
ENDBRANCH   4   5
ENDBRANCH   1   4
TORSDOF 2
ENDMDL
MODEL 7
REMARK VINA RESULT:      -3.0     11.599     12.256
REMARK  2 active torsions:
REMARK  status: ('A' for Active; 'I' for Inactive)
REMARK    1  A    between atoms: C1_1  and  C3_3 
REMARK    2  A    between atoms: C3_3  and  C4_4 
ROOT
HETATM    1  C1  UNL     1     -34.196  16.057  -2.326  1.00 20.00    -0.088 C 
HETATM    2  C2  UNL     1     -34.508  16.503  -1.255  1.00 20.00     0.004 C 
HETATM    3 CL5  UNL     1     -34.968  17.154   0.307  1.00 20.00    -0.023 Cl
ENDROOT
BRANCH   1   4
HETATM    4  C3  UNL     1     -33.813  15.510  -3.635  1.00 20.00     0.110 C 
BRANCH   4   5
HETATM    5  C4  UNL     1     -33.726  13.989  -3.621  1.00 20.00     0.126 C 
HETATM    6 CL6  UNL     1     -35.212  13.240  -4.262  1.00 20.00    -0.130 Cl
ENDBRANCH   4   5
ENDBRANCH   1   4
TORSDOF 2
ENDMDL
MODEL 8
REMARK VINA RESULT:      -3.0     12.181     12.873
REMARK  2 active torsions:
REMARK  status: ('A' for Active; 'I' for Inactive)
REMARK    1  A    between atoms: C1_1  and  C3_3 
REMARK    2  A    between atoms: C3_3  and  C4_4 
ROOT
HETATM    1  C1  UNL     1     -34.538  16.026  -1.843  1.00 20.00    -0.088 C 
HETATM    2  C2  UNL     1     -34.606  16.692  -0.846  1.00 20.00     0.004 C 
HETATM    3 CL5  UNL     1     -34.703  17.661   0.612  1.00 20.00    -0.023 Cl
ENDROOT
BRANCH   1   4
HETATM    4  C3  UNL     1     -34.454  15.214  -3.065  1.00 20.00     0.110 C 
BRANCH   4   5
HETATM    5  C4  UNL     1     -33.096  15.335  -3.746  1.00 20.00     0.126 C 
HETATM    6 CL6  UNL     1     -33.143  16.488  -5.104  1.00 20.00    -0.130 Cl
ENDBRANCH   4   5
ENDBRANCH   1   4
TORSDOF 2
ENDMDL
MODEL 9
REMARK VINA RESULT:      -2.9     11.837     12.175
REMARK  2 active torsions:
REMARK  status: ('A' for Active; 'I' for Inactive)
REMARK    1  A    between atoms: C1_1  and  C3_3 
REMARK    2  A    between atoms: C3_3  and  C4_4 
ROOT
HETATM    1  C1  UNL     1     -34.313  15.605  -2.604  1.00 20.00    -0.088 C 
HETATM    2  C2  UNL     1     -34.650  14.666  -3.273  1.00 20.00     0.004 C 
HETATM    3 CL5  UNL     1     -35.138  13.295  -4.251  1.00 20.00    -0.023 Cl
ENDROOT
BRANCH   1   4
HETATM    4  C3  UNL     1     -33.902  16.753  -1.783  1.00 20.00     0.110 C 
BRANCH   4   5
HETATM    5  C4  UNL     1     -34.696  16.848  -0.486  1.00 20.00     0.126 C 
HETATM    6 CL6  UNL     1     -34.021  18.083   0.608  1.00 20.00    -0.130 Cl
ENDBRANCH   4   5
ENDBRANCH   1   4
TORSDOF 2
ENDMDL
