MODEL 1
REMARK VINA RESULT:      -4.7      0.000      0.000
REMARK  0 active torsions:
REMARK  status: ('A' for Active; 'I' for Inactive)
ROOT
HETATM    1  C1  UNL     1     -36.445  15.167  -4.213  1.00 20.00    -0.007 C 
HETATM    2  C2  UNL     1     -35.889  16.425  -4.839  1.00 20.00     0.056 C 
HETATM    3  C3  UNL     1     -34.992  13.657  -5.399  1.00 20.00     0.011 C 
HETATM    4  C4  UNL     1     -34.339  14.889  -6.066  1.00 20.00     0.011 C 
HETATM    5  C5  UNL     1     -35.328  14.165  -3.983  1.00 20.00     0.034 C 
HETATM    6  C6  UNL     1     -34.399  15.974  -4.951  1.00 20.00    -0.032 C 
HETATM    7  C7  UNL     1     -34.164  15.136  -3.653  1.00 20.00    -0.032 C 
HETATM    8  C8  UNL     1     -33.456  17.135  -5.197  1.00 20.00     0.016 C 
HETATM    9  C9  UNL     1     -32.788  14.445  -3.560  1.00 20.00     0.016 C 
HETATM   10  C10 UNL     1     -34.355  15.899  -2.326  1.00 20.00     0.016 C 
HETATM   11  S11 UNL     1     -38.047  14.918  -3.852  1.00 20.00    -0.089 SA
ENDROOT
TORSDOF 0
ENDMDL
MODEL 2
REMARK VINA RESULT:      -4.6      2.032      3.347
REMARK  0 active torsions:
REMARK  status: ('A' for Active; 'I' for Inactive)
ROOT
HETATM    1  C1  UNL     1     -34.288  17.223  -4.727  1.00 20.00    -0.007 C 
HETATM    2  C2  UNL     1     -35.754  16.899  -4.553  1.00 20.00     0.056 C 
HETATM    3  C3  UNL     1     -33.579  16.185  -2.673  1.00 20.00     0.011 C 
HETATM    4  C4  UNL     1     -35.050  15.782  -2.427  1.00 20.00     0.011 C 
HETATM    5  C5  UNL     1     -33.440  16.077  -4.204  1.00 20.00     0.034 C 
HETATM    6  C6  UNL     1     -35.592  15.510  -3.861  1.00 20.00    -0.032 C 
HETATM    7  C7  UNL     1     -34.353  14.879  -4.575  1.00 20.00    -0.032 C 
HETATM    8  C8  UNL     1     -36.874  14.701  -3.871  1.00 20.00     0.016 C 
HETATM    9  C9  UNL     1     -33.877  13.533  -3.992  1.00 20.00     0.016 C 
HETATM   10  C10 UNL     1     -34.500  14.664  -6.095  1.00 20.00     0.016 C 
HETATM   11  S11 UNL     1     -33.700  18.634  -5.375  1.00 20.00    -0.089 SA
ENDROOT
TORSDOF 0
ENDMDL
MODEL 3
REMARK VINA RESULT:      -4.6      1.863      2.769
REMARK  0 active torsions:
REMARK  status: ('A' for Active; 'I' for Inactive)
ROOT
HETATM    1  C1  UNL     1     -34.164  16.617  -2.670  1.00 20.00    -0.007 C 
HETATM    2  C2  UNL     1     -33.775  17.010  -4.076  1.00 20.00     0.056 C 
HETATM    3  C3  UNL     1     -36.347  15.788  -3.259  1.00 20.00     0.011 C 
HETATM    4  C4  UNL     1     -36.024  16.127  -4.731  1.00 20.00     0.011 C 
HETATM    5  C5  UNL     1     -34.983  15.340  -2.697  1.00 20.00     0.034 C 
HETATM    6  C6  UNL     1     -34.495  15.852  -4.835  1.00 20.00    -0.032 C 
HETATM    7  C7  UNL     1     -34.310  14.617  -3.894  1.00 20.00    -0.032 C 
HETATM    8  C8  UNL     1     -34.011  15.702  -6.264  1.00 20.00     0.016 C 
HETATM    9  C9  UNL     1     -35.047  13.339  -4.341  1.00 20.00     0.016 C 
HETATM   10  C10 UNL     1     -32.850  14.202  -3.621  1.00 20.00     0.016 C 
HETATM   11  S11 UNL     1     -33.768  17.474  -1.303  1.00 20.00    -0.089 SA
ENDROOT
TORSDOF 0
ENDMDL
MODEL 4
REMARK VINA RESULT:      -4.5      1.318      2.531
REMARK  0 active torsions:
REMARK  status: ('A' for Active; 'I' for Inactive)
ROOT
HETATM    1  C1  UNL     1     -35.567  15.903  -5.436  1.00 20.00    -0.007 C 
HETATM    2  C2  UNL     1     -36.005  16.283  -4.040  1.00 20.00     0.056 C 
HETATM    3  C3  UNL     1     -33.398  16.938  -5.288  1.00 20.00     0.011 C 
HETATM    4  C4  UNL     1     -33.745  17.342  -3.837  1.00 20.00     0.011 C 
HETATM    5  C5  UNL     1     -34.087  15.567  -5.442  1.00 20.00     0.034 C 
HETATM    6  C6  UNL     1     -34.619  16.156  -3.334  1.00 20.00    -0.032 C 
HETATM    7  C7  UNL     1     -33.954  14.927  -4.035  1.00 20.00    -0.032 C 
HETATM    8  C8  UNL     1     -34.738  16.101  -1.824  1.00 20.00     0.016 C 
HETATM    9  C9  UNL     1     -32.496  14.645  -3.617  1.00 20.00     0.016 C 
HETATM   10  C10 UNL     1     -34.711  13.590  -3.892  1.00 20.00     0.016 C 
HETATM   11  S11 UNL     1     -36.562  15.878  -6.767  1.00 20.00    -0.089 SA
ENDROOT
TORSDOF 0
ENDMDL
MODEL 5
REMARK VINA RESULT:      -4.5      1.993      3.275
REMARK  0 active torsions:
REMARK  status: ('A' for Active; 'I' for Inactive)
ROOT
HETATM    1  C1  UNL     1     -34.090  16.522  -2.579  1.00 20.00    -0.007 C 
HETATM    2  C2  UNL     1     -35.324  15.654  -2.490  1.00 20.00     0.056 C 
HETATM    3  C3  UNL     1     -32.733  14.878  -3.700  1.00 20.00     0.011 C 
HETATM    4  C4  UNL     1     -33.954  13.932  -3.683  1.00 20.00     0.011 C 
HETATM    5  C5  UNL     1     -33.372  16.268  -3.893  1.00 20.00     0.034 C 
HETATM    6  C6  UNL     1     -35.161  14.902  -3.847  1.00 20.00    -0.032 C 
HETATM    7  C7  UNL     1     -34.591  15.990  -4.813  1.00 20.00    -0.032 C 
HETATM    8  C8  UNL     1     -36.435  14.202  -4.281  1.00 20.00     0.016 C 
HETATM    9  C9  UNL     1     -34.205  15.482  -6.216  1.00 20.00     0.016 C 
HETATM   10  C10 UNL     1     -35.491  17.223  -5.031  1.00 20.00     0.016 C 
HETATM   11  S11 UNL     1     -33.588  17.581  -1.401  1.00 20.00    -0.089 SA
ENDROOT
TORSDOF 0
ENDMDL
MODEL 6
REMARK VINA RESULT:      -4.5      0.801      2.783
REMARK  0 active torsions:
REMARK  status: ('A' for Active; 'I' for Inactive)
ROOT
HETATM    1  C1  UNL     1     -36.681  15.166  -4.542  1.00 20.00    -0.007 C 
HETATM    2  C2  UNL     1     -35.909  13.959  -4.063  1.00 20.00     0.056 C 
HETATM    3  C3  UNL     1     -35.492  16.757  -3.181  1.00 20.00     0.011 C 
HETATM    4  C4  UNL     1     -34.628  15.588  -2.657  1.00 20.00     0.011 C 
HETATM    5  C5  UNL     1     -35.756  16.365  -4.648  1.00 20.00     0.034 C 
HETATM    6  C6  UNL     1     -34.517  14.644  -3.891  1.00 20.00    -0.032 C 
HETATM    7  C7  UNL     1     -34.447  15.654  -5.082  1.00 20.00    -0.032 C 
HETATM    8  C8  UNL     1     -33.385  13.642  -3.776  1.00 20.00     0.016 C 
HETATM    9  C9  UNL     1     -33.212  16.577  -5.086  1.00 20.00     0.016 C 
HETATM   10  C10 UNL     1     -34.524  15.027  -6.490  1.00 20.00     0.016 C 
HETATM   11  S11 UNL     1     -38.308  15.177  -4.881  1.00 20.00    -0.089 SA
ENDROOT
TORSDOF 0
ENDMDL
MODEL 7
REMARK VINA RESULT:      -4.4      2.031      3.009
REMARK  0 active torsions:
REMARK  status: ('A' for Active; 'I' for Inactive)
ROOT
HETATM    1  C1  UNL     1     -34.045  17.162  -4.831  1.00 20.00    -0.007 C 
HETATM    2  C2  UNL     1     -33.075  16.044  -4.524  1.00 20.00     0.056 C 
HETATM    3  C3  UNL     1     -35.465  15.847  -6.265  1.00 20.00     0.011 C 
HETATM    4  C4  UNL     1     -34.545  14.637  -5.982  1.00 20.00     0.011 C 
HETATM    5  C5  UNL     1     -35.456  16.610  -4.926  1.00 20.00     0.034 C 
HETATM    6  C6  UNL     1     -34.096  14.865  -4.509  1.00 20.00    -0.032 C 
HETATM    7  C7  UNL     1     -35.375  15.486  -3.860  1.00 20.00    -0.032 C 
HETATM    8  C8  UNL     1     -33.535  13.617  -3.856  1.00 20.00     0.016 C 
HETATM    9  C9  UNL     1     -36.611  14.564  -3.836  1.00 20.00     0.016 C 
HETATM   10  C10 UNL     1     -35.201  16.013  -2.421  1.00 20.00     0.016 C 
HETATM   11  S11 UNL     1     -33.620  18.752  -5.052  1.00 20.00    -0.089 SA
ENDROOT
TORSDOF 0
ENDMDL
MODEL 8
REMARK VINA RESULT:      -4.4      1.480      2.936
REMARK  0 active torsions:
REMARK  status: ('A' for Active; 'I' for Inactive)
ROOT
HETATM    1  C1  UNL     1     -35.386  16.804  -3.083  1.00 20.00    -0.007 C 
HETATM    2  C2  UNL     1     -34.430  15.767  -2.540  1.00 20.00     0.056 C 
HETATM    3  C3  UNL     1     -34.159  17.207  -5.115  1.00 20.00     0.011 C 
HETATM    4  C4  UNL     1     -33.144  16.135  -4.656  1.00 20.00     0.011 C 
HETATM    5  C5  UNL     1     -35.502  16.663  -4.590  1.00 20.00     0.034 C 
HETATM    6  C6  UNL     1     -34.031  15.105  -3.895  1.00 20.00    -0.032 C 
HETATM    7  C7  UNL     1     -35.356  15.124  -4.725  1.00 20.00    -0.032 C 
HETATM    8  C8  UNL     1     -33.358  13.759  -3.711  1.00 20.00     0.016 C 
HETATM    9  C9  UNL     1     -35.222  14.640  -6.183  1.00 20.00     0.016 C 
HETATM   10  C10 UNL     1     -36.534  14.337  -4.115  1.00 20.00     0.016 C 
HETATM   11  S11 UNL     1     -36.174  17.941  -2.163  1.00 20.00    -0.089 SA
ENDROOT
TORSDOF 0
ENDMDL
MODEL 9
REMARK VINA RESULT:      -4.4      1.502      2.473
REMARK  0 active torsions:
REMARK  status: ('A' for Active; 'I' for Inactive)
ROOT
HETATM    1  C1  UNL     1     -35.408  16.199  -5.444  1.00 20.00    -0.007 C 
HETATM    2  C2  UNL     1     -34.066  15.508  -5.528  1.00 20.00     0.056 C 
HETATM    3  C3  UNL     1     -36.324  14.721  -3.778  1.00 20.00     0.011 C 
HETATM    4  C4  UNL     1     -34.973  13.971  -3.772  1.00 20.00     0.011 C 
HETATM    5  C5  UNL     1     -35.907  16.187  -4.011  1.00 20.00     0.034 C 
HETATM    6  C6  UNL     1     -33.934  15.103  -4.027  1.00 20.00    -0.032 C 
HETATM    7  C7  UNL     1     -34.557  16.312  -3.257  1.00 20.00    -0.032 C 
HETATM    8  C8  UNL     1     -32.519  14.709  -3.652  1.00 20.00     0.016 C 
HETATM    9  C9  UNL     1     -34.679  16.123  -1.731  1.00 20.00     0.016 C 
HETATM   10  C10 UNL     1     -33.855  17.669  -3.470  1.00 20.00     0.016 C 
HETATM   11  S11 UNL     1     -36.218  16.854  -6.738  1.00 20.00    -0.089 SA
ENDROOT
TORSDOF 0
ENDMDL
