MODEL 1
REMARK VINA RESULT:      -4.3      0.000      0.000
REMARK  1 active torsions:
REMARK  status: ('A' for Active; 'I' for Inactive)
REMARK    1  A    between atoms: C4_4  and  C7_7 
ROOT
HETATM    1  C1  UNL     1     -35.155  13.206  -4.526  1.00 20.00     0.135 A 
HETATM    2  C2  UNL     1     -36.041  14.167  -4.091  1.00 20.00     0.136 A 
HETATM    3  C3  UNL     1     -33.444  14.317  -3.495  1.00 20.00     0.143 A 
HETATM    4  C4  UNL     1     -34.329  15.279  -3.062  1.00 20.00     0.055 A 
HETATM    5  N8  UNL     1     -33.841  13.264  -4.235  1.00 20.00    -0.270 NA
HETATM    6  N9  UNL     1     -35.644  15.221  -3.352  1.00 20.00    -0.262 NA
ENDROOT
BRANCH   4   7
HETATM    7  C7  UNL     1     -33.845  16.453  -2.230  1.00 20.00     0.031 C 
HETATM    8  C5  UNL     1     -34.627  16.577  -0.920  1.00 20.00     0.016 C 
HETATM    9  C6  UNL     1     -33.897  17.763  -3.023  1.00 20.00     0.016 C 
ENDBRANCH   4   7
TORSDOF 1
ENDMDL
MODEL 2
REMARK VINA RESULT:      -4.1      0.913      1.598
REMARK  1 active torsions:
REMARK  status: ('A' for Active; 'I' for Inactive)
REMARK    1  A    between atoms: C4_4  and  C7_7 
ROOT
HETATM    1  C1  UNL     1     -35.260  13.429  -4.508  1.00 20.00     0.135 A 
HETATM    2  C2  UNL     1     -33.912  13.588  -4.272  1.00 20.00     0.136 A 
HETATM    3  C3  UNL     1     -35.702  15.270  -3.227  1.00 20.00     0.143 A 
HETATM    4  C4  UNL     1     -34.354  15.428  -2.989  1.00 20.00     0.055 A 
HETATM    5  N8  UNL     1     -36.178  14.268  -3.990  1.00 20.00    -0.270 NA
HETATM    6  N9  UNL     1     -33.435  14.590  -3.508  1.00 20.00    -0.262 NA
ENDROOT
BRANCH   4   7
HETATM    7  C7  UNL     1     -33.854  16.569  -2.122  1.00 20.00     0.031 C 
HETATM    8  C5  UNL     1     -34.623  16.652  -0.801  1.00 20.00     0.016 C 
HETATM    9  C6  UNL     1     -33.905  17.906  -2.868  1.00 20.00     0.016 C 
ENDBRANCH   4   7
TORSDOF 1
ENDMDL
MODEL 3
REMARK VINA RESULT:      -3.8     11.689     12.352
REMARK  1 active torsions:
REMARK  status: ('A' for Active; 'I' for Inactive)
REMARK    1  A    between atoms: C4_4  and  C7_7 
ROOT
HETATM    1  C1  UNL     1     -35.177   4.905   6.143  1.00 20.00     0.135 A 
HETATM    2  C2  UNL     1     -35.229   4.524   4.820  1.00 20.00     0.136 A 
HETATM    3  C3  UNL     1     -33.644   6.518   5.618  1.00 20.00     0.143 A 
HETATM    4  C4  UNL     1     -33.695   6.137   4.295  1.00 20.00     0.055 A 
HETATM    5  N8  UNL     1     -34.384   5.909   6.565  1.00 20.00    -0.270 NA
HETATM    6  N9  UNL     1     -34.489   5.133   3.873  1.00 20.00    -0.262 NA
ENDROOT
BRANCH   4   7
HETATM    7  C7  UNL     1     -32.847   6.846   3.256  1.00 20.00     0.031 C 
HETATM    8  C5  UNL     1     -32.370   5.884   2.165  1.00 20.00     0.016 C 
HETATM    9  C6  UNL     1     -31.662   7.573   3.899  1.00 20.00     0.016 C 
ENDBRANCH   4   7
TORSDOF 1
ENDMDL
MODEL 4
REMARK VINA RESULT:      -3.8     11.687     12.358
REMARK  1 active torsions:
REMARK  status: ('A' for Active; 'I' for Inactive)
REMARK    1  A    between atoms: C4_4  and  C7_7 
ROOT
HETATM    1  C1  UNL     1     -35.188   4.821   6.078  1.00 20.00     0.135 A 
HETATM    2  C2  UNL     1     -34.352   5.844   6.468  1.00 20.00     0.136 A 
HETATM    3  C3  UNL     1     -34.530   5.111   3.908  1.00 20.00     0.143 A 
HETATM    4  C4  UNL     1     -33.695   6.134   4.297  1.00 20.00     0.055 A 
HETATM    5  N8  UNL     1     -35.291   4.436   4.790  1.00 20.00    -0.270 NA
HETATM    6  N9  UNL     1     -33.591   6.519   5.584  1.00 20.00    -0.262 NA
ENDROOT
BRANCH   4   7
HETATM    7  C7  UNL     1     -32.852   6.873   3.273  1.00 20.00     0.031 C 
HETATM    8  C5  UNL     1     -32.409   5.948   2.136  1.00 20.00     0.016 C 
HETATM    9  C6  UNL     1     -31.645   7.554   3.924  1.00 20.00     0.016 C 
ENDBRANCH   4   7
TORSDOF 1
ENDMDL
MODEL 5
REMARK VINA RESULT:      -3.8     11.481     12.633
REMARK  1 active torsions:
REMARK  status: ('A' for Active; 'I' for Inactive)
REMARK    1  A    between atoms: C4_4  and  C7_7 
ROOT
HETATM    1  C1  UNL     1     -42.815   3.320  -3.455  1.00 20.00     0.135 A 
HETATM    2  C2  UNL     1     -41.725   3.142  -2.631  1.00 20.00     0.136 A 
HETATM    3  C3  UNL     1     -42.886   5.533  -2.885  1.00 20.00     0.143 A 
HETATM    4  C4  UNL     1     -41.797   5.355  -2.061  1.00 20.00     0.055 A 
HETATM    5  N8  UNL     1     -43.414   4.518  -3.596  1.00 20.00    -0.270 NA
HETATM    6  N9  UNL     1     -41.197   4.157  -1.919  1.00 20.00    -0.262 NA
ENDROOT
BRANCH   4   7
HETATM    7  C7  UNL     1     -41.229   6.523  -1.273  1.00 20.00     0.031 C 
HETATM    8  C5  UNL     1     -40.785   6.094   0.127  1.00 20.00     0.016 C 
HETATM    9  C6  UNL     1     -42.221   7.686  -1.200  1.00 20.00     0.016 C 
ENDBRANCH   4   7
TORSDOF 1
ENDMDL
MODEL 6
REMARK VINA RESULT:      -3.6      2.003      3.522
REMARK  1 active torsions:
REMARK  status: ('A' for Active; 'I' for Inactive)
REMARK    1  A    between atoms: C4_4  and  C7_7 
ROOT
HETATM    1  C1  UNL     1     -38.289  16.229  -3.415  1.00 20.00     0.135 A 
HETATM    2  C2  UNL     1     -38.272  14.901  -3.781  1.00 20.00     0.136 A 
HETATM    3  C3  UNL     1     -36.015  16.197  -3.187  1.00 20.00     0.143 A 
HETATM    4  C4  UNL     1     -35.997  14.868  -3.553  1.00 20.00     0.055 A 
HETATM    5  N8  UNL     1     -37.161  16.900  -3.112  1.00 20.00    -0.270 NA
HETATM    6  N9  UNL     1     -37.125  14.197  -3.857  1.00 20.00    -0.262 NA
ENDROOT
BRANCH   4   7
HETATM    7  C7  UNL     1     -34.685  14.108  -3.626  1.00 20.00     0.031 C 
HETATM    8  C5  UNL     1     -33.482  15.052  -3.567  1.00 20.00     0.016 C 
HETATM    9  C6  UNL     1     -34.620  13.218  -4.870  1.00 20.00     0.016 C 
ENDBRANCH   4   7
TORSDOF 1
ENDMDL
MODEL 7
REMARK VINA RESULT:      -3.6      1.496      1.625
REMARK  1 active torsions:
REMARK  status: ('A' for Active; 'I' for Inactive)
REMARK    1  A    between atoms: C4_4  and  C7_7 
ROOT
HETATM    1  C1  UNL     1     -34.495  14.829  -5.266  1.00 20.00     0.135 A 
HETATM    2  C2  UNL     1     -34.948  14.401  -4.038  1.00 20.00     0.136 A 
HETATM    3  C3  UNL     1     -33.511  16.638  -4.273  1.00 20.00     0.143 A 
HETATM    4  C4  UNL     1     -33.965  16.211  -3.045  1.00 20.00     0.055 A 
HETATM    5  N8  UNL     1     -33.768  15.955  -5.405  1.00 20.00    -0.270 NA
HETATM    6  N9  UNL     1     -34.691  15.085  -2.905  1.00 20.00    -0.262 NA
ENDROOT
BRANCH   4   7
HETATM    7  C7  UNL     1     -33.656  17.009  -1.790  1.00 20.00     0.031 C 
HETATM    8  C5  UNL     1     -34.643  16.691  -0.664  1.00 20.00     0.016 C 
HETATM    9  C6  UNL     1     -33.618  18.512  -2.075  1.00 20.00     0.016 C 
ENDBRANCH   4   7
TORSDOF 1
ENDMDL
MODEL 8
REMARK VINA RESULT:      -3.6      1.624      1.902
REMARK  1 active torsions:
REMARK  status: ('A' for Active; 'I' for Inactive)
REMARK    1  A    between atoms: C4_4  and  C7_7 
ROOT
HETATM    1  C1  UNL     1     -34.321  14.980  -5.209  1.00 20.00     0.135 A 
HETATM    2  C2  UNL     1     -33.629  16.171  -5.208  1.00 20.00     0.136 A 
HETATM    3  C3  UNL     1     -34.585  15.132  -2.943  1.00 20.00     0.143 A 
HETATM    4  C4  UNL     1     -33.892  16.322  -2.942  1.00 20.00     0.055 A 
HETATM    5  N8  UNL     1     -34.812  14.440  -4.076  1.00 20.00    -0.270 NA
HETATM    6  N9  UNL     1     -33.402  16.863  -4.074  1.00 20.00    -0.262 NA
ENDROOT
BRANCH   4   7
HETATM    7  C7  UNL     1     -33.655  17.074  -1.644  1.00 20.00     0.031 C 
HETATM    8  C5  UNL     1     -34.712  16.727  -0.592  1.00 20.00     0.016 C 
HETATM    9  C6  UNL     1     -33.589  18.586  -1.875  1.00 20.00     0.016 C 
ENDBRANCH   4   7
TORSDOF 1
ENDMDL
MODEL 9
REMARK VINA RESULT:      -3.6      2.040      3.046
REMARK  1 active torsions:
REMARK  status: ('A' for Active; 'I' for Inactive)
REMARK    1  A    between atoms: C4_4  and  C7_7 
ROOT
HETATM    1  C1  UNL     1     -38.099  15.503  -3.626  1.00 20.00     0.135 A 
HETATM    2  C2  UNL     1     -37.309  16.575  -3.275  1.00 20.00     0.136 A 
HETATM    3  C3  UNL     1     -36.232  14.207  -3.871  1.00 20.00     0.143 A 
HETATM    4  C4  UNL     1     -35.441  15.279  -3.521  1.00 20.00     0.055 A 
HETATM    5  N8  UNL     1     -37.575  14.299  -3.930  1.00 20.00    -0.270 NA
HETATM    6  N9  UNL     1     -35.966  16.482  -3.217  1.00 20.00    -0.262 NA
ENDROOT
BRANCH   4   7
HETATM    7  C7  UNL     1     -33.931  15.137  -3.467  1.00 20.00     0.031 C 
HETATM    8  C5  UNL     1     -33.236  16.158  -4.371  1.00 20.00     0.016 C 
HETATM    9  C6  UNL     1     -33.488  13.712  -3.811  1.00 20.00     0.016 C 
ENDBRANCH   4   7
TORSDOF 1
ENDMDL
