MODEL 1
REMARK VINA RESULT:      -4.1      0.000      0.000
REMARK  3 active torsions:
REMARK  status: ('A' for Active; 'I' for Inactive)
REMARK    1  A    between atoms: C6_6  and  C9_9 
REMARK    2  A    between atoms: C7_7  and  C8_8 
REMARK    3  A    between atoms: C7_7  and  C9_9 
ROOT
HETATM    1  C4  UNL     1     -31.399   7.729   4.080  1.00 20.00     0.015 C 
HETATM    2  C5  UNL     1     -31.915   5.562   2.975  1.00 20.00     0.015 C 
HETATM    3  C9  UNL     1     -32.425   7.006   3.187  1.00 20.00    -0.048 C 
ENDROOT
BRANCH   3   4
HETATM    4  C6  UNL     1     -32.473   7.747   1.822  1.00 20.00     0.004 C 
HETATM    5  C1  UNL     1     -32.313   9.261   1.876  1.00 20.00     0.006 C 
ENDBRANCH   3   4
BRANCH   3   6
HETATM    6  C7  UNL     1     -33.816   6.916   3.886  1.00 20.00     0.012 C 
BRANCH   6   7
HETATM    7  C8  UNL     1     -34.045   5.731   4.851  1.00 20.00    -0.022 C 
HETATM    8  C2  UNL     1     -34.177   6.244   6.290  1.00 20.00     0.009 C 
HETATM    9  C3  UNL     1     -35.310   4.940   4.499  1.00 20.00     0.009 C 
ENDBRANCH   6   7
ENDBRANCH   3   6
TORSDOF 3
ENDMDL
MODEL 2
REMARK VINA RESULT:      -4.0     10.512     11.663
REMARK  3 active torsions:
REMARK  status: ('A' for Active; 'I' for Inactive)
REMARK    1  A    between atoms: C6_6  and  C9_9 
REMARK    2  A    between atoms: C7_7  and  C8_8 
REMARK    3  A    between atoms: C7_7  and  C9_9 
ROOT
HETATM    1  C4  UNL     1     -32.921  14.108  -3.601  1.00 20.00     0.015 C 
HETATM    2  C5  UNL     1     -35.198  13.330  -4.229  1.00 20.00     0.015 C 
HETATM    3  C9  UNL     1     -34.309  14.585  -4.069  1.00 20.00    -0.048 C 
ENDROOT
BRANCH   3   4
HETATM    4  C6  UNL     1     -34.135  15.279  -5.449  1.00 20.00     0.004 C 
HETATM    5  C1  UNL     1     -34.835  14.612  -6.626  1.00 20.00     0.006 C 
ENDBRANCH   3   4
BRANCH   3   6
HETATM    6  C7  UNL     1     -34.980  15.503  -3.002  1.00 20.00     0.012 C 
BRANCH   6   7
HETATM    7  C8  UNL     1     -34.045  16.393  -2.150  1.00 20.00    -0.022 C 
HETATM    8  C2  UNL     1     -33.840  17.748  -2.838  1.00 20.00     0.009 C 
HETATM    9  C3  UNL     1     -34.610  16.640  -0.747  1.00 20.00     0.009 C 
ENDBRANCH   6   7
ENDBRANCH   3   6
TORSDOF 3
ENDMDL
MODEL 3
REMARK VINA RESULT:      -3.9     10.696     11.583
REMARK  3 active torsions:
REMARK  status: ('A' for Active; 'I' for Inactive)
REMARK    1  A    between atoms: C6_6  and  C9_9 
REMARK    2  A    between atoms: C7_7  and  C8_8 
REMARK    3  A    between atoms: C7_7  and  C9_9 
ROOT
HETATM    1  C4  UNL     1     -33.708  16.119  -4.993  1.00 20.00     0.015 C 
HETATM    2  C5  UNL     1     -32.455  14.538  -3.540  1.00 20.00     0.015 C 
HETATM    3  C9  UNL     1     -33.736  15.398  -3.632  1.00 20.00    -0.048 C 
ENDROOT
BRANCH   3   4
HETATM    4  C6  UNL     1     -34.986  14.473  -3.609  1.00 20.00     0.004 C 
HETATM    5  C1  UNL     1     -34.935  13.257  -4.526  1.00 20.00     0.006 C 
ENDBRANCH   3   4
BRANCH   3   6
HETATM    6  C7  UNL     1     -33.706  16.416  -2.453  1.00 20.00     0.012 C 
BRANCH   6   7
HETATM    7  C8  UNL     1     -35.027  16.642  -1.681  1.00 20.00    -0.022 C 
HETATM    8  C2  UNL     1     -34.727  16.997  -0.220  1.00 20.00     0.009 C 
HETATM    9  C3  UNL     1     -35.864  17.770  -2.294  1.00 20.00     0.009 C 
ENDBRANCH   6   7
ENDBRANCH   3   6
TORSDOF 3
ENDMDL
MODEL 4
REMARK VINA RESULT:      -3.8      1.084      4.241
REMARK  3 active torsions:
REMARK  status: ('A' for Active; 'I' for Inactive)
REMARK    1  A    between atoms: C6_6  and  C9_9 
REMARK    2  A    between atoms: C7_7  and  C8_8 
REMARK    3  A    between atoms: C7_7  and  C9_9 
ROOT
HETATM    1  C4  UNL     1     -35.879   5.829   3.586  1.00 20.00     0.015 C 
HETATM    2  C5  UNL     1     -33.741   4.837   2.795  1.00 20.00     0.015 C 
HETATM    3  C9  UNL     1     -34.354   5.840   3.799  1.00 20.00    -0.048 C 
ENDROOT
BRANCH   3   4
HETATM    4  C6  UNL     1     -34.072   5.360   5.251  1.00 20.00     0.004 C 
HETATM    5  C1  UNL     1     -34.948   4.222   5.761  1.00 20.00     0.006 C 
ENDBRANCH   3   4
BRANCH   3   6
HETATM    6  C7  UNL     1     -33.750   7.244   3.490  1.00 20.00     0.012 C 
BRANCH   6   7
HETATM    7  C8  UNL     1     -32.327   7.283   2.887  1.00 20.00    -0.022 C 
HETATM    8  C2  UNL     1     -32.234   8.393   1.833  1.00 20.00     0.009 C 
HETATM    9  C3  UNL     1     -31.258   7.535   3.956  1.00 20.00     0.009 C 
ENDBRANCH   6   7
ENDBRANCH   3   6
TORSDOF 3
ENDMDL
MODEL 5
REMARK VINA RESULT:      -3.8     10.533     12.717
REMARK  3 active torsions:
REMARK  status: ('A' for Active; 'I' for Inactive)
REMARK    1  A    between atoms: C6_6  and  C9_9 
REMARK    2  A    between atoms: C7_7  and  C8_8 
REMARK    3  A    between atoms: C7_7  and  C9_9 
ROOT
HETATM    1  C4  UNL     1     -34.741  13.618  -3.817  1.00 20.00     0.015 C 
HETATM    2  C5  UNL     1     -32.864  15.248  -3.774  1.00 20.00     0.015 C 
HETATM    3  C9  UNL     1     -34.403  15.116  -3.705  1.00 20.00    -0.048 C 
ENDROOT
BRANCH   3   4
HETATM    4  C6  UNL     1     -34.908  15.617  -2.323  1.00 20.00     0.004 C 
HETATM    5  C1  UNL     1     -34.070  16.703  -1.659  1.00 20.00     0.006 C 
ENDBRANCH   3   4
BRANCH   3   6
HETATM    6  C7  UNL     1     -34.998  15.919  -4.902  1.00 20.00     0.012 C 
BRANCH   6   7
HETATM    7  C8  UNL     1     -34.095  16.108  -6.143  1.00 20.00    -0.022 C 
HETATM    8  C2  UNL     1     -34.434  15.054  -7.204  1.00 20.00     0.009 C 
HETATM    9  C3  UNL     1     -34.260  17.498  -6.768  1.00 20.00     0.009 C 
ENDBRANCH   6   7
ENDBRANCH   3   6
TORSDOF 3
ENDMDL
MODEL 6
REMARK VINA RESULT:      -3.7     10.496     12.203
REMARK  3 active torsions:
REMARK  status: ('A' for Active; 'I' for Inactive)
REMARK    1  A    between atoms: C6_6  and  C9_9 
REMARK    2  A    between atoms: C7_7  and  C8_8 
REMARK    3  A    between atoms: C7_7  and  C9_9 
ROOT
HETATM    1  C4  UNL     1     -35.327  15.744  -4.467  1.00 20.00     0.015 C 
HETATM    2  C5  UNL     1     -33.414  17.065  -5.349  1.00 20.00     0.015 C 
HETATM    3  C9  UNL     1     -33.984  16.390  -4.079  1.00 20.00    -0.048 C 
ENDROOT
BRANCH   3   4
HETATM    4  C6  UNL     1     -33.025  15.257  -3.618  1.00 20.00     0.004 C 
HETATM    5  C1  UNL     1     -33.562  13.837  -3.739  1.00 20.00     0.006 C 
ENDBRANCH   3   4
BRANCH   3   6
HETATM    6  C7  UNL     1     -34.182  17.502  -3.004  1.00 20.00     0.012 C 
BRANCH   6   7
HETATM    7  C8  UNL     1     -33.666  17.203  -1.578  1.00 20.00    -0.022 C 
HETATM    8  C2  UNL     1     -33.113  18.484  -0.940  1.00 20.00     0.009 C 
HETATM    9  C3  UNL     1     -34.770  16.647  -0.672  1.00 20.00     0.009 C 
ENDBRANCH   6   7
ENDBRANCH   3   6
TORSDOF 3
ENDMDL
MODEL 7
REMARK VINA RESULT:      -3.7     10.887     12.871
REMARK  3 active torsions:
REMARK  status: ('A' for Active; 'I' for Inactive)
REMARK    1  A    between atoms: C6_6  and  C9_9 
REMARK    2  A    between atoms: C7_7  and  C8_8 
REMARK    3  A    between atoms: C7_7  and  C9_9 
ROOT
HETATM    1  C4  UNL     1     -32.875  15.113  -3.643  1.00 20.00     0.015 C 
HETATM    2  C5  UNL     1     -34.613  15.963  -2.082  1.00 20.00     0.015 C 
HETATM    3  C9  UNL     1     -34.372  15.455  -3.522  1.00 20.00    -0.048 C 
ENDROOT
BRANCH   3   4
HETATM    4  C6  UNL     1     -35.180  14.148  -3.754  1.00 20.00     0.004 C 
HETATM    5  C1  UNL     1     -34.617  13.191  -4.798  1.00 20.00     0.006 C 
ENDBRANCH   3   4
BRANCH   3   6
HETATM    6  C7  UNL     1     -34.770  16.604  -4.499  1.00 20.00     0.012 C 
BRANCH   6   7
HETATM    7  C8  UNL     1     -33.809  16.892  -5.676  1.00 20.00    -0.022 C 
HETATM    8  C2  UNL     1     -34.346  16.249  -6.961  1.00 20.00     0.009 C 
HETATM    9  C3  UNL     1     -33.636  18.395  -5.920  1.00 20.00     0.009 C 
ENDBRANCH   6   7
ENDBRANCH   3   6
TORSDOF 3
ENDMDL
MODEL 8
REMARK VINA RESULT:      -3.6      1.280      4.002
REMARK  3 active torsions:
REMARK  status: ('A' for Active; 'I' for Inactive)
REMARK    1  A    between atoms: C6_6  and  C9_9 
REMARK    2  A    between atoms: C7_7  and  C8_8 
REMARK    3  A    between atoms: C7_7  and  C9_9 
ROOT
HETATM    1  C4  UNL     1     -35.557   5.698   4.060  1.00 20.00     0.015 C 
HETATM    2  C5  UNL     1     -34.661   3.706   5.249  1.00 20.00     0.015 C 
HETATM    3  C9  UNL     1     -34.465   5.225   5.037  1.00 20.00    -0.048 C 
ENDROOT
BRANCH   3   4
HETATM    4  C6  UNL     1     -34.676   5.970   6.385  1.00 20.00     0.004 C 
HETATM    5  C1  UNL     1     -33.682   7.081   6.698  1.00 20.00     0.006 C 
ENDBRANCH   3   4
BRANCH   3   6
HETATM    6  C7  UNL     1     -33.041   5.436   4.437  1.00 20.00     0.012 C 
BRANCH   6   7
HETATM    7  C8  UNL     1     -32.931   6.326   3.178  1.00 20.00    -0.022 C 
HETATM    8  C2  UNL     1     -31.905   7.442   3.411  1.00 20.00     0.009 C 
HETATM    9  C3  UNL     1     -32.505   5.524   1.943  1.00 20.00     0.009 C 
ENDBRANCH   6   7
ENDBRANCH   3   6
TORSDOF 3
ENDMDL
MODEL 9
REMARK VINA RESULT:      -3.6     10.506     11.897
REMARK  3 active torsions:
REMARK  status: ('A' for Active; 'I' for Inactive)
REMARK    1  A    between atoms: C6_6  and  C9_9 
REMARK    2  A    between atoms: C7_7  and  C8_8 
REMARK    3  A    between atoms: C7_7  and  C9_9 
ROOT
HETATM    1  C4  UNL     1     -34.254  15.707  -5.216  1.00 20.00     0.015 C 
HETATM    2  C5  UNL     1     -33.671  13.710  -3.853  1.00 20.00     0.015 C 
HETATM    3  C9  UNL     1     -34.387  15.080  -3.815  1.00 20.00    -0.048 C 
ENDROOT
BRANCH   3   4
HETATM    4  C6  UNL     1     -35.900  14.869  -3.529  1.00 20.00     0.004 C 
HETATM    5  C1  UNL     1     -36.854  15.281  -4.643  1.00 20.00     0.006 C 
ENDBRANCH   3   4
BRANCH   3   6
HETATM    6  C7  UNL     1     -33.676  15.953  -2.737  1.00 20.00     0.012 C 
BRANCH   6   7
HETATM    7  C8  UNL     1     -34.513  17.067  -2.067  1.00 20.00    -0.022 C 
HETATM    8  C2  UNL     1     -34.634  16.799  -0.561  1.00 20.00     0.009 C 
HETATM    9  C3  UNL     1     -33.888  18.453  -2.265  1.00 20.00     0.009 C 
ENDBRANCH   6   7
ENDBRANCH   3   6
TORSDOF 3
ENDMDL
