MODEL 1
REMARK VINA RESULT:      -2.9      0.000      0.000
REMARK  0 active torsions:
REMARK  status: ('A' for Active; 'I' for Inactive)
ROOT
HETATM    1  C1  UNL     1     -34.967  16.600  -2.586  1.00 20.00     0.117 C 
HETATM    2  C2  UNL     1     -33.984  15.450  -4.977  1.00 20.00     0.117 C 
HETATM    3  C3  UNL     1     -34.621  16.499  -1.107  1.00 20.00     0.033 C 
HETATM    4  C4  UNL     1     -34.574  14.618  -6.107  1.00 20.00     0.033 C 
HETATM    5  S5  UNL     1     -34.753  14.957  -3.382  1.00 20.00    -0.137 SA
HETATM    6  S6  UNL     1     -33.924  17.845  -3.387  1.00 20.00    -0.081 SA
HETATM    7  S7  UNL     1     -34.245  17.212  -5.300  1.00 20.00    -0.081 SA
ENDROOT
TORSDOF 0
ENDMDL
MODEL 2
REMARK VINA RESULT:      -2.9      0.123      3.413
REMARK  0 active torsions:
REMARK  status: ('A' for Active; 'I' for Inactive)
ROOT
HETATM    1  C1  UNL     1     -34.058  15.361  -5.056  1.00 20.00     0.117 C 
HETATM    2  C2  UNL     1     -34.985  16.554  -2.664  1.00 20.00     0.117 C 
HETATM    3  C3  UNL     1     -34.679  14.528  -6.168  1.00 20.00     0.033 C 
HETATM    4  C4  UNL     1     -34.619  16.463  -1.188  1.00 20.00     0.033 C 
HETATM    5  S5  UNL     1     -34.814  14.899  -3.445  1.00 20.00    -0.137 SA
HETATM    6  S6  UNL     1     -34.289  17.124  -5.394  1.00 20.00    -0.081 SA
HETATM    7  S7  UNL     1     -33.930  17.769  -3.492  1.00 20.00    -0.081 SA
ENDROOT
TORSDOF 0
ENDMDL
MODEL 3
REMARK VINA RESULT:      -2.9      1.597      3.856
REMARK  0 active torsions:
REMARK  status: ('A' for Active; 'I' for Inactive)
ROOT
HETATM    1  C1  UNL     1     -34.855  15.930  -5.708  1.00 20.00     0.117 C 
HETATM    2  C2  UNL     1     -34.853  15.455  -2.919  1.00 20.00     0.117 C 
HETATM    3  C3  UNL     1     -34.217  15.273  -6.925  1.00 20.00     0.033 C 
HETATM    4  C4  UNL     1     -34.476  16.254  -1.679  1.00 20.00     0.033 C 
HETATM    5  S5  UNL     1     -33.692  15.854  -4.286  1.00 20.00    -0.137 SA
HETATM    6  S6  UNL     1     -36.419  15.111  -5.306  1.00 20.00    -0.081 SA
HETATM    7  S7  UNL     1     -36.561  15.819  -3.397  1.00 20.00    -0.081 SA
ENDROOT
TORSDOF 0
ENDMDL
MODEL 4
REMARK VINA RESULT:      -2.9      1.613      2.008
REMARK  0 active torsions:
REMARK  status: ('A' for Active; 'I' for Inactive)
ROOT
HETATM    1  C1  UNL     1     -34.898  15.448  -2.931  1.00 20.00     0.117 C 
HETATM    2  C2  UNL     1     -34.892  15.937  -5.717  1.00 20.00     0.117 C 
HETATM    3  C3  UNL     1     -34.541  16.246  -1.685  1.00 20.00     0.033 C 
HETATM    4  C4  UNL     1     -34.236  15.297  -6.934  1.00 20.00     0.033 C 
HETATM    5  S5  UNL     1     -33.736  15.874  -4.290  1.00 20.00    -0.137 SA
HETATM    6  S6  UNL     1     -36.609  15.783  -3.417  1.00 20.00    -0.081 SA
HETATM    7  S7  UNL     1     -36.443  15.088  -5.328  1.00 20.00    -0.081 SA
ENDROOT
TORSDOF 0
ENDMDL
MODEL 5
REMARK VINA RESULT:      -2.8      1.793      3.798
REMARK  0 active torsions:
REMARK  status: ('A' for Active; 'I' for Inactive)
ROOT
HETATM    1  C1  UNL     1     -34.274  17.752  -4.603  1.00 20.00     0.117 C 
HETATM    2  C2  UNL     1     -33.842  16.725  -2.002  1.00 20.00     0.117 C 
HETATM    3  C3  UNL     1     -33.568  18.749  -5.511  1.00 20.00     0.033 C 
HETATM    4  C4  UNL     1     -34.640  16.672  -0.706  1.00 20.00     0.033 C 
HETATM    5  S5  UNL     1     -34.162  18.320  -2.858  1.00 20.00    -0.137 SA
HETATM    6  S6  UNL     1     -33.541  16.107  -4.794  1.00 20.00    -0.081 SA
HETATM    7  S7  UNL     1     -34.285  15.325  -3.062  1.00 20.00    -0.081 SA
ENDROOT
TORSDOF 0
ENDMDL
MODEL 6
REMARK VINA RESULT:      -2.8      1.746      2.531
REMARK  0 active torsions:
REMARK  status: ('A' for Active; 'I' for Inactive)
ROOT
HETATM    1  C1  UNL     1     -33.849  16.686  -2.059  1.00 20.00     0.117 C 
HETATM    2  C2  UNL     1     -34.308  17.696  -4.662  1.00 20.00     0.117 C 
HETATM    3  C3  UNL     1     -34.605  16.696  -0.738  1.00 20.00     0.033 C 
HETATM    4  C4  UNL     1     -33.579  18.639  -5.609  1.00 20.00     0.033 C 
HETATM    5  S5  UNL     1     -34.110  18.283  -2.932  1.00 20.00    -0.137 SA
HETATM    6  S6  UNL     1     -34.398  15.296  -3.081  1.00 20.00    -0.081 SA
HETATM    7  S7  UNL     1     -33.670  16.012  -4.848  1.00 20.00    -0.081 SA
ENDROOT
TORSDOF 0
ENDMDL
MODEL 7
REMARK VINA RESULT:      -2.8      1.371      4.094
REMARK  0 active torsions:
REMARK  status: ('A' for Active; 'I' for Inactive)
ROOT
HETATM    1  C1  UNL     1     -34.846  15.235  -6.036  1.00 20.00     0.117 C 
HETATM    2  C2  UNL     1     -33.558  15.824  -3.587  1.00 20.00     0.117 C 
HETATM    3  C3  UNL     1     -34.405  15.046  -7.481  1.00 20.00     0.033 C 
HETATM    4  C4  UNL     1     -33.681  16.908  -2.525  1.00 20.00     0.033 C 
HETATM    5  S5  UNL     1     -33.836  16.555  -5.250  1.00 20.00    -0.137 SA
HETATM    6  S6  UNL     1     -34.690  13.677  -5.128  1.00 20.00    -0.081 SA
HETATM    7  S7  UNL     1     -34.745  14.497  -3.260  1.00 20.00    -0.081 SA
ENDROOT
TORSDOF 0
ENDMDL
MODEL 8
REMARK VINA RESULT:      -2.8      1.521      3.240
REMARK  0 active torsions:
REMARK  status: ('A' for Active; 'I' for Inactive)
ROOT
HETATM    1  C1  UNL     1     -34.120  14.548  -4.355  1.00 20.00     0.117 C 
HETATM    2  C2  UNL     1     -34.443  17.235  -3.531  1.00 20.00     0.117 C 
HETATM    3  C3  UNL     1     -35.005  13.310  -4.403  1.00 20.00     0.033 C 
HETATM    4  C4  UNL     1     -33.759  18.156  -2.529  1.00 20.00     0.033 C 
HETATM    5  S5  UNL     1     -34.514  15.529  -2.851  1.00 20.00    -0.137 SA
HETATM    6  S6  UNL     1     -34.354  15.540  -5.851  1.00 20.00    -0.081 SA
HETATM    7  S7  UNL     1     -33.554  17.264  -5.108  1.00 20.00    -0.081 SA
ENDROOT
TORSDOF 0
ENDMDL
MODEL 9
REMARK VINA RESULT:      -2.7      1.933      3.461
REMARK  0 active torsions:
REMARK  status: ('A' for Active; 'I' for Inactive)
ROOT
HETATM    1  C1  UNL     1     -34.694  14.180  -3.629  1.00 20.00     0.117 C 
HETATM    2  C2  UNL     1     -35.550  16.850  -3.252  1.00 20.00     0.117 C 
HETATM    3  C3  UNL     1     -34.693  13.190  -4.785  1.00 20.00     0.033 C 
HETATM    4  C4  UNL     1     -36.513  17.562  -2.312  1.00 20.00     0.033 C 
HETATM    5  S5  UNL     1     -36.224  15.197  -3.688  1.00 20.00    -0.137 SA
HETATM    6  S6  UNL     1     -33.220  15.229  -3.706  1.00 20.00    -0.081 SA
HETATM    7  S7  UNL     1     -33.922  16.698  -2.475  1.00 20.00    -0.081 SA
ENDROOT
TORSDOF 0
ENDMDL
