MODEL 1
REMARK VINA RESULT:      -5.0      0.000      0.000
REMARK  2 active torsions:
REMARK  status: ('A' for Active; 'I' for Inactive)
REMARK    1  A    between atoms: C1_1  and  C2_2 
REMARK    2  A    between atoms: C1_1  and  C3_3 
ROOT
HETATM    1  C1  UNL     1     -33.873   6.525   3.747  1.00 20.00     0.153 C 
ENDROOT
BRANCH   1   2
HETATM    2  C2  UNL     1     -33.908   5.602   4.965  1.00 20.00     0.186 C 
HETATM    3 CL7  UNL     1     -35.271   4.456   4.904  1.00 20.00    -0.108 Cl
HETATM    4 CL8  UNL     1     -34.039   6.574   6.458  1.00 20.00    -0.108 Cl
ENDBRANCH   1   2
BRANCH   1   5
HETATM    5  C3  UNL     1     -32.478   6.792   3.213  1.00 20.00     0.390 C 
HETATM    6  F4  UNL     1     -32.512   7.605   2.135  1.00 20.00    -0.171 F 
HETATM    7  F5  UNL     1     -31.675   7.356   4.138  1.00 20.00    -0.171 F 
HETATM    8  F6  UNL     1     -31.896   5.632   2.828  1.00 20.00    -0.171 F 
ENDBRANCH   1   5
TORSDOF 2
ENDMDL
MODEL 2
REMARK VINA RESULT:      -5.0      0.017      1.334
REMARK  2 active torsions:
REMARK  status: ('A' for Active; 'I' for Inactive)
REMARK    1  A    between atoms: C1_1  and  C2_2 
REMARK    2  A    between atoms: C1_1  and  C3_3 
ROOT
HETATM    1  C1  UNL     1     -33.879   6.526   3.751  1.00 20.00     0.153 C 
ENDROOT
BRANCH   1   2
HETATM    2  C2  UNL     1     -33.911   5.600   4.967  1.00 20.00     0.186 C 
HETATM    3 CL7  UNL     1     -35.271   4.451   4.905  1.00 20.00    -0.108 Cl
HETATM    4 CL8  UNL     1     -34.043   6.569   6.461  1.00 20.00    -0.108 Cl
ENDBRANCH   1   2
BRANCH   1   5
HETATM    5  C3  UNL     1     -32.488   6.774   3.198  1.00 20.00     0.390 C 
HETATM    6  F4  UNL     1     -31.896   5.620   2.822  1.00 20.00    -0.171 F 
HETATM    7  F5  UNL     1     -32.500   7.604   2.135  1.00 20.00    -0.171 F 
HETATM    8  F6  UNL     1     -31.705   7.343   4.144  1.00 20.00    -0.171 F 
ENDBRANCH   1   5
TORSDOF 2
ENDMDL
MODEL 3
REMARK VINA RESULT:      -4.8      3.265      3.961
REMARK  2 active torsions:
REMARK  status: ('A' for Active; 'I' for Inactive)
REMARK    1  A    between atoms: C1_1  and  C2_2 
REMARK    2  A    between atoms: C1_1  and  C3_3 
ROOT
HETATM    1  C1  UNL     1     -33.883   6.396   4.986  1.00 20.00     0.153 C 
ENDROOT
BRANCH   1   2
HETATM    2  C2  UNL     1     -33.066   5.937   3.778  1.00 20.00     0.186 C 
HETATM    3 CL7  UNL     1     -32.080   7.252   3.091  1.00 20.00    -0.108 Cl
HETATM    4 CL8  UNL     1     -34.159   5.313   2.511  1.00 20.00    -0.108 Cl
ENDBRANCH   1   2
BRANCH   1   5
HETATM    5  C3  UNL     1     -34.659   5.285   5.668  1.00 20.00     0.390 C 
HETATM    6  F4  UNL     1     -35.773   4.968   4.975  1.00 20.00    -0.171 F 
HETATM    7  F5  UNL     1     -33.924   4.163   5.815  1.00 20.00    -0.171 F 
HETATM    8  F6  UNL     1     -35.046   5.677   6.904  1.00 20.00    -0.171 F 
ENDBRANCH   1   5
TORSDOF 2
ENDMDL
MODEL 4
REMARK VINA RESULT:      -4.6      3.329      3.832
REMARK  2 active torsions:
REMARK  status: ('A' for Active; 'I' for Inactive)
REMARK    1  A    between atoms: C1_1  and  C2_2 
REMARK    2  A    between atoms: C1_1  and  C3_3 
ROOT
HETATM    1  C1  UNL     1     -33.836   5.677   5.146  1.00 20.00     0.153 C 
ENDROOT
BRANCH   1   2
HETATM    2  C2  UNL     1     -33.712   6.321   3.764  1.00 20.00     0.186 C 
HETATM    3 CL7  UNL     1     -34.041   5.165   2.449  1.00 20.00    -0.108 Cl
HETATM    4 CL8  UNL     1     -32.068   6.984   3.551  1.00 20.00    -0.108 Cl
ENDBRANCH   1   2
BRANCH   1   5
HETATM    5  C3  UNL     1     -35.061   4.798   5.312  1.00 20.00     0.390 C 
HETATM    6  F4  UNL     1     -36.037   5.148   4.447  1.00 20.00    -0.171 F 
HETATM    7  F5  UNL     1     -34.783   3.492   5.123  1.00 20.00    -0.171 F 
HETATM    8  F6  UNL     1     -35.561   4.926   6.563  1.00 20.00    -0.171 F 
ENDBRANCH   1   5
TORSDOF 2
ENDMDL
MODEL 5
REMARK VINA RESULT:      -4.5      2.428      3.180
REMARK  2 active torsions:
REMARK  status: ('A' for Active; 'I' for Inactive)
REMARK    1  A    between atoms: C1_1  and  C2_2 
REMARK    2  A    between atoms: C1_1  and  C3_3 
ROOT
HETATM    1  C1  UNL     1     -33.915   6.094   4.444  1.00 20.00     0.153 C 
ENDROOT
BRANCH   1   2
HETATM    2  C2  UNL     1     -34.364   6.190   5.902  1.00 20.00     0.186 C 
HETATM    3 CL7  UNL     1     -33.358   7.317   6.846  1.00 20.00    -0.108 Cl
HETATM    4 CL8  UNL     1     -34.292   4.577   6.665  1.00 20.00    -0.108 Cl
ENDBRANCH   1   2
BRANCH   1   5
HETATM    5  C3  UNL     1     -34.834   5.266   3.566  1.00 20.00     0.390 C 
HETATM    6  F4  UNL     1     -34.995   4.020   4.062  1.00 20.00    -0.171 F 
HETATM    7  F5  UNL     1     -36.055   5.824   3.433  1.00 20.00    -0.171 F 
HETATM    8  F6  UNL     1     -34.309   5.145   2.325  1.00 20.00    -0.171 F 
ENDBRANCH   1   5
TORSDOF 2
ENDMDL
MODEL 6
REMARK VINA RESULT:      -4.3      3.148      3.701
REMARK  2 active torsions:
REMARK  status: ('A' for Active; 'I' for Inactive)
REMARK    1  A    between atoms: C1_1  and  C2_2 
REMARK    2  A    between atoms: C1_1  and  C3_3 
ROOT
HETATM    1  C1  UNL     1     -34.975   5.424   4.324  1.00 20.00     0.153 C 
ENDROOT
BRANCH   1   2
HETATM    2  C2  UNL     1     -33.958   6.558   4.459  1.00 20.00     0.186 C 
HETATM    3 CL7  UNL     1     -32.424   6.190   3.631  1.00 20.00    -0.108 Cl
HETATM    4 CL8  UNL     1     -33.622   6.868   6.184  1.00 20.00    -0.108 Cl
ENDBRANCH   1   2
BRANCH   1   5
HETATM    5  C3  UNL     1     -34.853   4.352   5.390  1.00 20.00     0.390 C 
HETATM    6  F4  UNL     1     -33.584   4.252   5.841  1.00 20.00    -0.171 F 
HETATM    7  F5  UNL     1     -35.656   4.588   6.447  1.00 20.00    -0.171 F 
HETATM    8  F6  UNL     1     -35.200   3.147   4.881  1.00 20.00    -0.171 F 
ENDBRANCH   1   5
TORSDOF 2
ENDMDL
MODEL 7
REMARK VINA RESULT:      -4.2      1.588      2.194
REMARK  2 active torsions:
REMARK  status: ('A' for Active; 'I' for Inactive)
REMARK    1  A    between atoms: C1_1  and  C2_2 
REMARK    2  A    between atoms: C1_1  and  C3_3 
ROOT
HETATM    1  C1  UNL     1     -35.188   5.392   4.291  1.00 20.00     0.153 C 
ENDROOT
BRANCH   1   2
HETATM    2  C2  UNL     1     -34.978   5.263   5.800  1.00 20.00     0.186 C 
HETATM    3 CL7  UNL     1     -34.009   6.602   6.463  1.00 20.00    -0.108 Cl
HETATM    4 CL8  UNL     1     -34.157   3.721   6.167  1.00 20.00    -0.108 Cl
ENDBRANCH   1   2
BRANCH   1   5
HETATM    5  C3  UNL     1     -33.960   5.860   3.533  1.00 20.00     0.390 C 
HETATM    6  F4  UNL     1     -33.949   7.203   3.398  1.00 20.00    -0.171 F 
HETATM    7  F5  UNL     1     -32.813   5.489   4.138  1.00 20.00    -0.171 F 
HETATM    8  F6  UNL     1     -33.949   5.326   2.289  1.00 20.00    -0.171 F 
ENDBRANCH   1   5
TORSDOF 2
ENDMDL
MODEL 8
REMARK VINA RESULT:      -4.2      0.982      2.203
REMARK  2 active torsions:
REMARK  status: ('A' for Active; 'I' for Inactive)
REMARK    1  A    between atoms: C1_1  and  C2_2 
REMARK    2  A    between atoms: C1_1  and  C3_3 
ROOT
HETATM    1  C1  UNL     1     -32.845   6.056   3.502  1.00 20.00     0.153 C 
ENDROOT
BRANCH   1   2
HETATM    2  C2  UNL     1     -34.116   6.271   4.325  1.00 20.00     0.186 C 
HETATM    3 CL7  UNL     1     -33.763   6.589   6.042  1.00 20.00    -0.108 Cl
HETATM    4 CL8  UNL     1     -35.162   4.829   4.209  1.00 20.00    -0.108 Cl
ENDBRANCH   1   2
BRANCH   1   5
HETATM    5  C3  UNL     1     -32.206   7.339   3.003  1.00 20.00     0.390 C 
HETATM    6  F4  UNL     1     -31.293   7.806   3.881  1.00 20.00    -0.171 F 
HETATM    7  F5  UNL     1     -31.597   7.177   1.811  1.00 20.00    -0.171 F 
HETATM    8  F6  UNL     1     -33.148   8.298   2.847  1.00 20.00    -0.171 F 
ENDBRANCH   1   5
TORSDOF 2
ENDMDL
MODEL 9
REMARK VINA RESULT:      -3.8      3.101      3.608
REMARK  2 active torsions:
REMARK  status: ('A' for Active; 'I' for Inactive)
REMARK    1  A    between atoms: C1_1  and  C2_2 
REMARK    2  A    between atoms: C1_1  and  C3_3 
ROOT
HETATM    1  C1  UNL     1     -32.683   6.179   2.938  1.00 20.00     0.153 C 
ENDROOT
BRANCH   1   2
HETATM    2  C2  UNL     1     -32.289   7.656   2.971  1.00 20.00     0.186 C 
HETATM    3 CL7  UNL     1     -31.779   8.255   1.373  1.00 20.00    -0.108 Cl
HETATM    4 CL8  UNL     1     -30.954   7.900   4.131  1.00 20.00    -0.108 Cl
ENDBRANCH   1   2
BRANCH   1   5
HETATM    5  C3  UNL     1     -33.964   5.862   3.687  1.00 20.00     0.390 C 
HETATM    6  F4  UNL     1     -34.821   5.158   2.918  1.00 20.00    -0.171 F 
HETATM    7  F5  UNL     1     -33.736   5.158   4.814  1.00 20.00    -0.171 F 
HETATM    8  F6  UNL     1     -34.588   7.008   4.047  1.00 20.00    -0.171 F 
ENDBRANCH   1   5
TORSDOF 2
ENDMDL
