MODEL 1
REMARK VINA RESULT:      -4.9      0.000      0.000
REMARK  5 active torsions:
REMARK  status: ('A' for Active; 'I' for Inactive)
REMARK    1  A    between atoms: C3_3  and  C7_7 
REMARK    2  A    between atoms: C4_4  and  C8_8 
REMARK    3  A    between atoms: C7_7  and  C9_9 
REMARK    4  A    between atoms: C8_8  and  C10_10 
REMARK    5  A    between atoms: C9_9  and  C10_10 
ROOT
HETATM    1  C1  UNL     1     -33.927   6.518   6.681  1.00 20.00    -0.111 C 
HETATM    2  C3  UNL     1     -34.485   5.492   6.397  1.00 20.00    -0.107 C 
HETATM    3  C5  UNL     1     -33.247   7.766   7.022  1.00 20.00     0.112 C 
ENDROOT
BRANCH   2   4
HETATM    4  C7  UNL     1     -35.166   4.238   6.053  1.00 20.00     0.094 C 
BRANCH   4   5
HETATM    5  C9  UNL     1     -35.236   4.012   4.541  1.00 20.00     0.013 C 
BRANCH   5   6
HETATM    6  C10 UNL     1     -35.275   5.325   3.746  1.00 20.00     0.013 C 
BRANCH   6   7
HETATM    7  C8  UNL     1     -34.175   5.407   2.685  1.00 20.00     0.094 C 
BRANCH   7   8
HETATM    8  C4  UNL     1     -33.062   6.270   3.102  1.00 20.00    -0.107 C 
HETATM    9  C2  UNL     1     -32.152   6.976   3.443  1.00 20.00    -0.111 C 
HETATM   10  C6  UNL     1     -31.045   7.836   3.861  1.00 20.00     0.112 C 
ENDBRANCH   7   8
ENDBRANCH   6   7
ENDBRANCH   5   6
ENDBRANCH   4   5
ENDBRANCH   2   4
TORSDOF 5
ENDMDL
MODEL 2
REMARK VINA RESULT:      -4.9      0.061      3.417
REMARK  5 active torsions:
REMARK  status: ('A' for Active; 'I' for Inactive)
REMARK    1  A    between atoms: C3_3  and  C7_7 
REMARK    2  A    between atoms: C4_4  and  C8_8 
REMARK    3  A    between atoms: C7_7  and  C9_9 
REMARK    4  A    between atoms: C8_8  and  C10_10 
REMARK    5  A    between atoms: C9_9  and  C10_10 
ROOT
HETATM    1  C1  UNL     1     -32.157   7.017   3.397  1.00 20.00    -0.111 C 
HETATM    2  C3  UNL     1     -33.038   6.265   3.075  1.00 20.00    -0.107 C 
HETATM    3  C5  UNL     1     -31.089   7.933   3.790  1.00 20.00     0.112 C 
ENDROOT
BRANCH   2   4
HETATM    4  C7  UNL     1     -34.112   5.345   2.680  1.00 20.00     0.094 C 
BRANCH   4   5
HETATM    5  C9  UNL     1     -35.240   5.293   3.713  1.00 20.00     0.013 C 
BRANCH   5   6
HETATM    6  C10 UNL     1     -35.236   3.994   4.531  1.00 20.00     0.013 C 
BRANCH   6   7
HETATM    7  C8  UNL     1     -35.198   4.244   6.040  1.00 20.00     0.094 C 
BRANCH   7   8
HETATM    8  C4  UNL     1     -34.495   5.489   6.380  1.00 20.00    -0.107 C 
HETATM    9  C2  UNL     1     -33.921   6.506   6.659  1.00 20.00    -0.111 C 
HETATM   10  C6  UNL     1     -33.219   7.745   6.995  1.00 20.00     0.112 C 
ENDBRANCH   7   8
ENDBRANCH   6   7
ENDBRANCH   5   6
ENDBRANCH   4   5
ENDBRANCH   2   4
TORSDOF 5
ENDMDL
MODEL 3
REMARK VINA RESULT:      -4.6      1.415      1.799
REMARK  5 active torsions:
REMARK  status: ('A' for Active; 'I' for Inactive)
REMARK    1  A    between atoms: C3_3  and  C7_7 
REMARK    2  A    between atoms: C4_4  and  C8_8 
REMARK    3  A    between atoms: C7_7  and  C9_9 
REMARK    4  A    between atoms: C8_8  and  C10_10 
REMARK    5  A    between atoms: C9_9  and  C10_10 
ROOT
HETATM    1  C1  UNL     1     -33.930   6.709   6.480  1.00 20.00    -0.111 C 
HETATM    2  C3  UNL     1     -34.394   5.910   5.711  1.00 20.00    -0.107 C 
HETATM    3  C5  UNL     1     -33.365   7.683   7.412  1.00 20.00     0.112 C 
ENDROOT
BRANCH   2   4
HETATM    4  C7  UNL     1     -34.961   4.933   4.773  1.00 20.00     0.094 C 
BRANCH   4   5
HETATM    5  C9  UNL     1     -34.932   5.433   3.327  1.00 20.00     0.013 C 
BRANCH   5   6
HETATM    6  C10 UNL     1     -33.582   5.185   2.640  1.00 20.00     0.013 C 
BRANCH   6   7
HETATM    7  C8  UNL     1     -32.462   6.067   3.199  1.00 20.00     0.094 C 
BRANCH   7   8
HETATM    8  C4  UNL     1     -32.389   7.368   2.522  1.00 20.00    -0.107 C 
HETATM    9  C2  UNL     1     -32.328   8.432   1.968  1.00 20.00    -0.111 C 
HETATM   10  C6  UNL     1     -32.258   9.728   1.293  1.00 20.00     0.112 C 
ENDBRANCH   7   8
ENDBRANCH   6   7
ENDBRANCH   5   6
ENDBRANCH   4   5
ENDBRANCH   2   4
TORSDOF 5
ENDMDL
MODEL 4
REMARK VINA RESULT:      -4.6      1.462      4.060
REMARK  5 active torsions:
REMARK  status: ('A' for Active; 'I' for Inactive)
REMARK    1  A    between atoms: C3_3  and  C7_7 
REMARK    2  A    between atoms: C4_4  and  C8_8 
REMARK    3  A    between atoms: C7_7  and  C9_9 
REMARK    4  A    between atoms: C8_8  and  C10_10 
REMARK    5  A    between atoms: C9_9  and  C10_10 
ROOT
HETATM    1  C1  UNL     1     -32.309   8.474   1.888  1.00 20.00    -0.111 C 
HETATM    2  C3  UNL     1     -32.368   7.432   2.484  1.00 20.00    -0.107 C 
HETATM    3  C5  UNL     1     -32.241   9.740   1.161  1.00 20.00     0.112 C 
ENDROOT
BRANCH   2   4
HETATM    4  C7  UNL     1     -32.438   6.159   3.213  1.00 20.00     0.094 C 
BRANCH   4   5
HETATM    5  C9  UNL     1     -33.529   5.236   2.665  1.00 20.00     0.013 C 
BRANCH   5   6
HETATM    6  C10 UNL     1     -34.894   5.474   3.324  1.00 20.00     0.013 C 
BRANCH   6   7
HETATM    7  C8  UNL     1     -34.954   4.957   4.764  1.00 20.00     0.094 C 
BRANCH   7   8
HETATM    8  C4  UNL     1     -34.397   5.919   5.724  1.00 20.00    -0.107 C 
HETATM    9  C2  UNL     1     -33.942   6.706   6.509  1.00 20.00    -0.111 C 
HETATM   10  C6  UNL     1     -33.385   7.663   7.465  1.00 20.00     0.112 C 
ENDBRANCH   7   8
ENDBRANCH   6   7
ENDBRANCH   5   6
ENDBRANCH   4   5
ENDBRANCH   2   4
TORSDOF 5
ENDMDL
MODEL 5
REMARK VINA RESULT:      -4.1      1.843      4.893
REMARK  5 active torsions:
REMARK  status: ('A' for Active; 'I' for Inactive)
REMARK    1  A    between atoms: C3_3  and  C7_7 
REMARK    2  A    between atoms: C4_4  and  C8_8 
REMARK    3  A    between atoms: C7_7  and  C9_9 
REMARK    4  A    between atoms: C8_8  and  C10_10 
REMARK    5  A    between atoms: C9_9  and  C10_10 
ROOT
HETATM    1  C1  UNL     1     -32.198   8.784   1.154  1.00 20.00    -0.111 C 
HETATM    2  C3  UNL     1     -31.906   8.276   2.204  1.00 20.00    -0.107 C 
HETATM    3  C5  UNL     1     -32.554   9.399  -0.123  1.00 20.00     0.112 C 
ENDROOT
BRANCH   2   4
HETATM    4  C7  UNL     1     -31.549   7.657   3.487  1.00 20.00     0.094 C 
BRANCH   4   5
HETATM    5  C9  UNL     1     -32.530   6.554   3.891  1.00 20.00     0.013 C 
BRANCH   5   6
HETATM    6  C10 UNL     1     -33.135   5.825   2.683  1.00 20.00     0.013 C 
BRANCH   6   7
HETATM    7  C8  UNL     1     -34.591   5.413   2.909  1.00 20.00     0.094 C 
BRANCH   7   8
HETATM    8  C4  UNL     1     -34.856   5.048   4.308  1.00 20.00    -0.107 C 
HETATM    9  C2  UNL     1     -35.072   4.749   5.450  1.00 20.00    -0.111 C 
HETATM   10  C6  UNL     1     -35.333   4.388   6.843  1.00 20.00     0.112 C 
ENDBRANCH   7   8
ENDBRANCH   6   7
ENDBRANCH   5   6
ENDBRANCH   4   5
ENDBRANCH   2   4
TORSDOF 5
ENDMDL
MODEL 6
REMARK VINA RESULT:      -4.0      1.867      3.316
REMARK  5 active torsions:
REMARK  status: ('A' for Active; 'I' for Inactive)
REMARK    1  A    between atoms: C3_3  and  C7_7 
REMARK    2  A    between atoms: C4_4  and  C8_8 
REMARK    3  A    between atoms: C7_7  and  C9_9 
REMARK    4  A    between atoms: C8_8  and  C10_10 
REMARK    5  A    between atoms: C9_9  and  C10_10 
ROOT
HETATM    1  C1  UNL     1     -35.047   4.723   5.366  1.00 20.00    -0.111 C 
HETATM    2  C3  UNL     1     -34.803   5.030   4.230  1.00 20.00    -0.107 C 
HETATM    3  C5  UNL     1     -35.341   4.348   6.747  1.00 20.00     0.112 C 
ENDROOT
BRANCH   2   4
HETATM    4  C7  UNL     1     -34.506   5.406   2.842  1.00 20.00     0.094 C 
BRANCH   4   5
HETATM    5  C9  UNL     1     -33.045   5.823   2.654  1.00 20.00     0.013 C 
BRANCH   5   6
HETATM    6  C10 UNL     1     -32.492   6.605   3.853  1.00 20.00     0.013 C 
BRANCH   6   7
HETATM    7  C8  UNL     1     -31.527   7.718   3.439  1.00 20.00     0.094 C 
BRANCH   7   8
HETATM    8  C4  UNL     1     -31.888   8.316   2.147  1.00 20.00    -0.107 C 
HETATM    9  C2  UNL     1     -32.183   8.805   1.090  1.00 20.00    -0.111 C 
HETATM   10  C6  UNL     1     -32.540   9.398  -0.198  1.00 20.00     0.112 C 
ENDBRANCH   7   8
ENDBRANCH   6   7
ENDBRANCH   5   6
ENDBRANCH   4   5
ENDBRANCH   2   4
TORSDOF 5
ENDMDL
MODEL 7
REMARK VINA RESULT:      -4.0     11.607     12.887
REMARK  5 active torsions:
REMARK  status: ('A' for Active; 'I' for Inactive)
REMARK    1  A    between atoms: C3_3  and  C7_7 
REMARK    2  A    between atoms: C4_4  and  C8_8 
REMARK    3  A    between atoms: C7_7  and  C9_9 
REMARK    4  A    between atoms: C8_8  and  C10_10 
REMARK    5  A    between atoms: C9_9  and  C10_10 
ROOT
HETATM    1  C1  UNL     1     -34.779  17.065  -0.113  1.00 20.00    -0.111 C 
HETATM    2  C3  UNL     1     -34.390  16.666  -1.178  1.00 20.00    -0.107 C 
HETATM    3  C5  UNL     1     -35.254  17.548   1.182  1.00 20.00     0.112 C 
ENDROOT
BRANCH   2   4
HETATM    4  C7  UNL     1     -33.915  16.179  -2.480  1.00 20.00     0.094 C 
BRANCH   4   5
HETATM    5  C9  UNL     1     -34.839  15.114  -3.074  1.00 20.00     0.013 C 
BRANCH   5   6
HETATM    6  C10 UNL     1     -34.080  13.864  -3.543  1.00 20.00     0.013 C 
BRANCH   6   7
HETATM    7  C8  UNL     1     -34.694  13.235  -4.795  1.00 20.00     0.094 C 
BRANCH   7   8
HETATM    8  C4  UNL     1     -34.801  14.192  -5.905  1.00 20.00    -0.107 C 
HETATM    9  C2  UNL     1     -34.888  14.975  -6.811  1.00 20.00    -0.111 C 
HETATM   10  C6  UNL     1     -34.993  15.926  -7.917  1.00 20.00     0.112 C 
ENDBRANCH   7   8
ENDBRANCH   6   7
ENDBRANCH   5   6
ENDBRANCH   4   5
ENDBRANCH   2   4
TORSDOF 5
ENDMDL
MODEL 8
REMARK VINA RESULT:      -4.0     11.865     13.313
REMARK  5 active torsions:
REMARK  status: ('A' for Active; 'I' for Inactive)
REMARK    1  A    between atoms: C3_3  and  C7_7 
REMARK    2  A    between atoms: C4_4  and  C8_8 
REMARK    3  A    between atoms: C7_7  and  C9_9 
REMARK    4  A    between atoms: C8_8  and  C10_10 
REMARK    5  A    between atoms: C9_9  and  C10_10 
ROOT
HETATM    1  C1  UNL     1     -35.026  14.331  -6.557  1.00 20.00    -0.111 C 
HETATM    2  C3  UNL     1     -34.609  13.999  -5.480  1.00 20.00    -0.107 C 
HETATM    3  C5  UNL     1     -35.535  14.732  -7.867  1.00 20.00     0.112 C 
ENDROOT
BRANCH   2   4
HETATM    4  C7  UNL     1     -34.099  13.594  -4.164  1.00 20.00     0.094 C 
BRANCH   4   5
HETATM    5  C9  UNL     1     -33.008  14.537  -3.649  1.00 20.00     0.013 C 
BRANCH   5   6
HETATM    6  C10 UNL     1     -33.564  15.891  -3.186  1.00 20.00     0.013 C 
BRANCH   6   7
HETATM    7  C8  UNL     1     -34.794  15.749  -2.287  1.00 20.00     0.094 C 
BRANCH   7   8
HETATM    8  C4  UNL     1     -34.700  16.579  -1.078  1.00 20.00    -0.107 C 
HETATM    9  C2  UNL     1     -34.622  17.257  -0.090  1.00 20.00    -0.111 C 
HETATM   10  C6  UNL     1     -34.527  18.086   1.111  1.00 20.00     0.112 C 
ENDBRANCH   7   8
ENDBRANCH   6   7
ENDBRANCH   5   6
ENDBRANCH   4   5
ENDBRANCH   2   4
TORSDOF 5
ENDMDL
MODEL 9
REMARK VINA RESULT:      -3.9     11.514     12.693
REMARK  5 active torsions:
REMARK  status: ('A' for Active; 'I' for Inactive)
REMARK    1  A    between atoms: C3_3  and  C7_7 
REMARK    2  A    between atoms: C4_4  and  C8_8 
REMARK    3  A    between atoms: C7_7  and  C9_9 
REMARK    4  A    between atoms: C8_8  and  C10_10 
REMARK    5  A    between atoms: C9_9  and  C10_10 
ROOT
HETATM    1  C1  UNL     1     -34.335  16.741  -1.241  1.00 20.00    -0.111 C 
HETATM    2  C3  UNL     1     -33.906  16.420  -2.317  1.00 20.00    -0.107 C 
HETATM    3  C5  UNL     1     -34.857  17.128   0.069  1.00 20.00     0.112 C 
ENDROOT
BRANCH   2   4
HETATM    4  C7  UNL     1     -33.383  16.029  -3.632  1.00 20.00     0.094 C 
BRANCH   4   5
HETATM    5  C9  UNL     1     -32.950  14.561  -3.671  1.00 20.00     0.013 C 
BRANCH   5   6
HETATM    6  C10 UNL     1     -34.137  13.590  -3.597  1.00 20.00     0.013 C 
BRANCH   6   7
HETATM    7  C8  UNL     1     -35.132  13.784  -4.744  1.00 20.00     0.094 C 
BRANCH   7   8
HETATM    8  C4  UNL     1     -36.428  14.294  -4.276  1.00 20.00    -0.107 C 
HETATM    9  C2  UNL     1     -37.487  14.710  -3.892  1.00 20.00    -0.111 C 
HETATM   10  C6  UNL     1     -38.777  15.220  -3.429  1.00 20.00     0.112 C 
ENDBRANCH   7   8
ENDBRANCH   6   7
ENDBRANCH   5   6
ENDBRANCH   4   5
ENDBRANCH   2   4
TORSDOF 5
ENDMDL
