MODEL 1
REMARK VINA RESULT:      -3.8      0.000      0.000
REMARK  0 active torsions:
REMARK  status: ('A' for Active; 'I' for Inactive)
ROOT
HETATM    1  C1  UNL     1     -33.724  18.272  -2.473  1.00 20.00     0.002 C 
HETATM    2  C2  UNL     1     -33.708  17.390  -1.223  1.00 20.00     0.002 C 
HETATM    3  C3  UNL     1     -34.693  17.606  -3.453  1.00 20.00     0.032 C 
HETATM    4  C4  UNL     1     -34.663  16.229  -1.507  1.00 20.00     0.032 C 
HETATM    5  C5  UNL     1     -35.483  13.757  -4.110  1.00 20.00     0.086 C 
HETATM    6  C6  UNL     1     -34.177  14.107  -4.789  1.00 20.00     0.086 C 
HETATM    7  C7  UNL     1     -34.726  16.134  -3.034  1.00 20.00     0.056 C 
HETATM    8  S8  UNL     1     -36.253  15.311  -3.596  1.00 20.00    -0.147 SA
HETATM    9  S9  UNL     1     -33.269  15.224  -3.690  1.00 20.00    -0.147 SA
ENDROOT
TORSDOF 0
ENDMDL
MODEL 2
REMARK VINA RESULT:      -3.7      1.953      3.875
REMARK  0 active torsions:
REMARK  status: ('A' for Active; 'I' for Inactive)
ROOT
HETATM    1  C1  UNL     1     -34.415  13.423  -4.846  1.00 20.00     0.002 C 
HETATM    2  C2  UNL     1     -33.417  13.610  -3.701  1.00 20.00     0.002 C 
HETATM    3  C3  UNL     1     -34.545  14.788  -5.525  1.00 20.00     0.032 C 
HETATM    4  C4  UNL     1     -32.995  15.080  -3.738  1.00 20.00     0.032 C 
HETATM    5  C5  UNL     1     -34.412  18.468  -4.005  1.00 20.00     0.086 C 
HETATM    6  C6  UNL     1     -35.772  17.872  -3.716  1.00 20.00     0.086 C 
HETATM    7  C7  UNL     1     -34.141  15.802  -4.452  1.00 20.00     0.056 C 
HETATM    8  S8  UNL     1     -33.590  17.375  -5.190  1.00 20.00    -0.147 SA
HETATM    9  S9  UNL     1     -35.528  16.128  -3.291  1.00 20.00    -0.147 SA
ENDROOT
TORSDOF 0
ENDMDL
MODEL 3
REMARK VINA RESULT:      -3.7      1.719      3.779
REMARK  0 active torsions:
REMARK  status: ('A' for Active; 'I' for Inactive)
ROOT
HETATM    1  C1  UNL     1     -34.096  13.353  -4.460  1.00 20.00     0.002 C 
HETATM    2  C2  UNL     1     -35.583  13.673  -4.300  1.00 20.00     0.002 C 
HETATM    3  C3  UNL     1     -33.339  14.454  -3.714  1.00 20.00     0.032 C 
HETATM    4  C4  UNL     1     -35.657  14.956  -3.470  1.00 20.00     0.032 C 
HETATM    5  C5  UNL     1     -34.176  18.321  -3.247  1.00 20.00     0.086 C 
HETATM    6  C6  UNL     1     -33.606  18.111  -4.633  1.00 20.00     0.086 C 
HETATM    7  C7  UNL     1     -34.304  15.642  -3.682  1.00 20.00     0.056 C 
HETATM    8  S8  UNL     1     -33.909  16.790  -2.322  1.00 20.00    -0.147 SA
HETATM    9  S9  UNL     1     -34.282  16.558  -5.276  1.00 20.00    -0.147 SA
ENDROOT
TORSDOF 0
ENDMDL
MODEL 4
REMARK VINA RESULT:      -3.7      2.704      4.410
REMARK  0 active torsions:
REMARK  status: ('A' for Active; 'I' for Inactive)
ROOT
HETATM    1  C1  UNL     1     -36.850  15.065  -7.052  1.00 20.00     0.002 C 
HETATM    2  C2  UNL     1     -35.653  14.667  -7.918  1.00 20.00     0.002 C 
HETATM    3  C3  UNL     1     -36.269  15.718  -5.796  1.00 20.00     0.032 C 
HETATM    4  C4  UNL     1     -34.405  15.092  -7.143  1.00 20.00     0.032 C 
HETATM    5  C5  UNL     1     -32.927  14.941  -3.774  1.00 20.00     0.086 C 
HETATM    6  C6  UNL     1     -33.964  13.899  -3.416  1.00 20.00     0.086 C 
HETATM    7  C7  UNL     1     -34.851  15.155  -5.679  1.00 20.00     0.056 C 
HETATM    8  S8  UNL     1     -33.775  16.247  -4.693  1.00 20.00    -0.147 SA
HETATM    9  S9  UNL     1     -34.863  13.476  -4.930  1.00 20.00    -0.147 SA
ENDROOT
TORSDOF 0
ENDMDL
MODEL 5
REMARK VINA RESULT:      -3.7      2.462      3.591
REMARK  0 active torsions:
REMARK  status: ('A' for Active; 'I' for Inactive)
ROOT
HETATM    1  C1  UNL     1     -33.338  13.646  -3.684  1.00 20.00     0.002 C 
HETATM    2  C2  UNL     1     -33.023  15.142  -3.737  1.00 20.00     0.002 C 
HETATM    3  C3  UNL     1     -34.394  13.393  -4.763  1.00 20.00     0.032 C 
HETATM    4  C4  UNL     1     -33.907  15.725  -4.842  1.00 20.00     0.032 C 
HETATM    5  C5  UNL     1     -37.382  15.686  -6.060  1.00 20.00     0.086 C 
HETATM    6  C6  UNL     1     -37.787  15.059  -4.744  1.00 20.00     0.086 C 
HETATM    7  C7  UNL     1     -35.078  14.747  -4.969  1.00 20.00     0.056 C 
HETATM    8  S8  UNL     1     -35.871  14.855  -6.606  1.00 20.00    -0.147 SA
HETATM    9  S9  UNL     1     -36.334  15.061  -3.664  1.00 20.00    -0.147 SA
ENDROOT
TORSDOF 0
ENDMDL
MODEL 6
REMARK VINA RESULT:      -3.6      1.991      2.525
REMARK  0 active torsions:
REMARK  status: ('A' for Active; 'I' for Inactive)
ROOT
HETATM    1  C1  UNL     1     -35.152  16.287  -2.016  1.00 20.00     0.002 C 
HETATM    2  C2  UNL     1     -33.656  16.469  -2.283  1.00 20.00     0.002 C 
HETATM    3  C3  UNL     1     -35.660  15.317  -3.085  1.00 20.00     0.032 C 
HETATM    4  C4  UNL     1     -33.332  15.606  -3.503  1.00 20.00     0.032 C 
HETATM    5  C5  UNL     1     -34.568  14.835  -6.885  1.00 20.00     0.086 C 
HETATM    6  C6  UNL     1     -35.459  16.054  -6.787  1.00 20.00     0.086 C 
HETATM    7  C7  UNL     1     -34.665  15.447  -4.240  1.00 20.00     0.056 C 
HETATM    8  S8  UNL     1     -34.674  13.966  -5.303  1.00 20.00    -0.147 SA
HETATM    9  S9  UNL     1     -35.024  16.931  -5.264  1.00 20.00    -0.147 SA
ENDROOT
TORSDOF 0
ENDMDL
MODEL 7
REMARK VINA RESULT:      -3.6      1.266      2.254
REMARK  0 active torsions:
REMARK  status: ('A' for Active; 'I' for Inactive)
ROOT
HETATM    1  C1  UNL     1     -34.739  16.634  -1.292  1.00 20.00     0.002 C 
HETATM    2  C2  UNL     1     -35.849  17.426  -1.983  1.00 20.00     0.002 C 
HETATM    3  C3  UNL     1     -33.761  16.220  -2.393  1.00 20.00     0.032 C 
HETATM    4  C4  UNL     1     -35.495  17.450  -3.471  1.00 20.00     0.032 C 
HETATM    5  C5  UNL     1     -34.403  15.228  -6.198  1.00 20.00     0.086 C 
HETATM    6  C6  UNL     1     -34.766  14.050  -5.321  1.00 20.00     0.086 C 
HETATM    7  C7  UNL     1     -34.589  16.233  -3.680  1.00 20.00     0.056 C 
HETATM    8  S8  UNL     1     -33.534  16.423  -5.155  1.00 20.00    -0.147 SA
HETATM    9  S9  UNL     1     -35.588  14.698  -3.843  1.00 20.00    -0.147 SA
ENDROOT
TORSDOF 0
ENDMDL
MODEL 8
REMARK VINA RESULT:      -3.6      1.400      3.858
REMARK  0 active torsions:
REMARK  status: ('A' for Active; 'I' for Inactive)
ROOT
HETATM    1  C1  UNL     1     -34.670  14.293  -5.965  1.00 20.00     0.002 C 
HETATM    2  C2  UNL     1     -34.742  13.206  -4.891  1.00 20.00     0.002 C 
HETATM    3  C3  UNL     1     -34.241  15.574  -5.245  1.00 20.00     0.032 C 
HETATM    4  C4  UNL     1     -34.359  13.880  -3.573  1.00 20.00     0.032 C 
HETATM    5  C5  UNL     1     -35.066  16.894  -1.579  1.00 20.00     0.086 C 
HETATM    6  C6  UNL     1     -36.266  17.143  -2.466  1.00 20.00     0.086 C 
HETATM    7  C7  UNL     1     -34.659  15.366  -3.788  1.00 20.00     0.056 C 
HETATM    8  S8  UNL     1     -33.693  16.420  -2.657  1.00 20.00    -0.147 SA
HETATM    9  S9  UNL     1     -36.451  15.709  -3.556  1.00 20.00    -0.147 SA
ENDROOT
TORSDOF 0
ENDMDL
MODEL 9
REMARK VINA RESULT:      -3.6      1.941      3.756
REMARK  0 active torsions:
REMARK  status: ('A' for Active; 'I' for Inactive)
ROOT
HETATM    1  C1  UNL     1     -34.027  13.601  -3.696  1.00 20.00     0.002 C 
HETATM    2  C2  UNL     1     -34.759  13.489  -5.035  1.00 20.00     0.002 C 
HETATM    3  C3  UNL     1     -34.424  14.955  -3.105  1.00 20.00     0.032 C 
HETATM    4  C4  UNL     1     -35.560  14.783  -5.193  1.00 20.00     0.032 C 
HETATM    5  C5  UNL     1     -35.208  18.435  -4.878  1.00 20.00     0.086 C 
HETATM    6  C6  UNL     1     -33.708  18.240  -4.833  1.00 20.00     0.086 C 
HETATM    7  C7  UNL     1     -34.839  15.804  -4.308  1.00 20.00     0.056 C 
HETATM    8  S8  UNL     1     -35.944  17.168  -3.817  1.00 20.00    -0.147 SA
HETATM    9  S9  UNL     1     -33.371  16.493  -5.173  1.00 20.00    -0.147 SA
ENDROOT
TORSDOF 0
ENDMDL
