MODEL 1
REMARK VINA RESULT:      -4.4      0.000      0.000
REMARK  2 active torsions:
REMARK  status: ('A' for Active; 'I' for Inactive)
REMARK    1  A    between atoms: C1_1  and  C4_4 
REMARK    2  A    between atoms: C5_5  and  C8_8 
ROOT
HETATM    1  C2  UNL     1     -33.211  14.831  -3.458  1.00 20.00     0.020 C 
HETATM    2  C3  UNL     1     -34.292  16.250  -4.661  1.00 20.00     0.020 C 
HETATM    3  C4  UNL     1     -34.031  14.730  -4.764  1.00 20.00     0.087 C 
HETATM    4  C5  UNL     1     -33.869  16.202  -3.175  1.00 20.00    -0.010 C 
ENDROOT
BRANCH   3   5
HETATM    5  C1  UNL     1     -35.244  13.867  -4.690  1.00 20.00     0.177 C 
HETATM    6  O9  UNL     1     -35.037  12.677  -4.323  1.00 20.00    -0.648 OA
HETATM    7  O10 UNL     1     -36.323  14.442  -5.007  1.00 20.00    -0.648 OA
ENDBRANCH   3   5
BRANCH   4   8
HETATM    8  C8  UNL     1     -34.997  16.205  -2.156  1.00 20.00    -0.019 C 
HETATM    9  C6  UNL     1     -34.503  16.687  -0.789  1.00 20.00     0.010 C 
HETATM   10  C7  UNL     1     -36.164  17.076  -2.631  1.00 20.00     0.010 C 
ENDBRANCH   4   8
TORSDOF 2
ENDMDL
MODEL 2
REMARK VINA RESULT:      -4.3      1.216      2.328
REMARK  2 active torsions:
REMARK  status: ('A' for Active; 'I' for Inactive)
REMARK    1  A    between atoms: C1_1  and  C4_4 
REMARK    2  A    between atoms: C5_5  and  C8_8 
ROOT
HETATM    1  C2  UNL     1     -34.798  15.475  -2.698  1.00 20.00     0.020 C 
HETATM    2  C3  UNL     1     -33.112  14.833  -3.870  1.00 20.00     0.020 C 
HETATM    3  C4  UNL     1     -34.323  14.108  -3.240  1.00 20.00     0.087 C 
HETATM    4  C5  UNL     1     -33.855  16.179  -3.701  1.00 20.00    -0.010 C 
ENDROOT
BRANCH   3   5
HETATM    5  C1  UNL     1     -35.246  13.450  -4.208  1.00 20.00     0.177 C 
HETATM    6  O9  UNL     1     -34.711  12.597  -4.968  1.00 20.00    -0.648 OA
HETATM    7  O10 UNL     1     -36.447  13.835  -4.139  1.00 20.00    -0.648 OA
ENDBRANCH   3   5
BRANCH   4   8
HETATM    8  C8  UNL     1     -34.510  16.744  -4.952  1.00 20.00    -0.019 C 
HETATM    9  C6  UNL     1     -35.856  17.396  -4.621  1.00 20.00     0.010 C 
HETATM   10  C7  UNL     1     -33.591  17.755  -5.643  1.00 20.00     0.010 C 
ENDBRANCH   4   8
TORSDOF 2
ENDMDL
MODEL 3
REMARK VINA RESULT:      -4.3      1.103      1.526
REMARK  2 active torsions:
REMARK  status: ('A' for Active; 'I' for Inactive)
REMARK    1  A    between atoms: C1_1  and  C4_4 
REMARK    2  A    between atoms: C5_5  and  C8_8 
ROOT
HETATM    1  C2  UNL     1     -33.369  15.856  -4.442  1.00 20.00     0.020 C 
HETATM    2  C3  UNL     1     -35.349  15.465  -5.184  1.00 20.00     0.020 C 
HETATM    3  C4  UNL     1     -34.045  14.640  -5.114  1.00 20.00     0.087 C 
HETATM    4  C5  UNL     1     -34.768  16.438  -4.133  1.00 20.00    -0.010 C 
ENDROOT
BRANCH   3   5
HETATM    5  C1  UNL     1     -34.113  13.407  -4.279  1.00 20.00     0.177 C 
HETATM    6  O9  UNL     1     -35.198  12.765  -4.354  1.00 20.00    -0.648 OA
HETATM    7  O10 UNL     1     -33.074  13.166  -3.603  1.00 20.00    -0.648 OA
ENDBRANCH   3   5
BRANCH   4   8
HETATM    8  C8  UNL     1     -35.266  16.261  -2.708  1.00 20.00    -0.019 C 
HETATM    9  C6  UNL     1     -34.155  16.556  -1.696  1.00 20.00     0.010 C 
HETATM   10  C7  UNL     1     -36.478  17.156  -2.435  1.00 20.00     0.010 C 
ENDBRANCH   4   8
TORSDOF 2
ENDMDL
MODEL 4
REMARK VINA RESULT:      -4.2      1.613      3.074
REMARK  2 active torsions:
REMARK  status: ('A' for Active; 'I' for Inactive)
REMARK    1  A    between atoms: C1_1  and  C4_4 
REMARK    2  A    between atoms: C5_5  and  C8_8 
ROOT
HETATM    1  C2  UNL     1     -35.946  15.212  -4.458  1.00 20.00     0.020 C 
HETATM    2  C3  UNL     1     -34.417  15.688  -3.023  1.00 20.00     0.020 C 
HETATM    3  C4  UNL     1     -35.113  14.379  -3.459  1.00 20.00     0.087 C 
HETATM    4  C5  UNL     1     -34.929  16.367  -4.313  1.00 20.00    -0.010 C 
ENDROOT
BRANCH   3   5
HETATM    5  C1  UNL     1     -34.220  13.354  -4.072  1.00 20.00     0.177 C 
HETATM    6  O9  UNL     1     -33.024  13.372  -3.669  1.00 20.00    -0.648 OA
HETATM    7  O10 UNL     1     -34.780  12.602  -4.918  1.00 20.00    -0.648 OA
ENDBRANCH   3   5
BRANCH   4   8
HETATM    8  C8  UNL     1     -33.918  16.514  -5.440  1.00 20.00    -0.019 C 
HETATM    9  C6  UNL     1     -34.489  15.994  -6.762  1.00 20.00     0.010 C 
HETATM   10  C7  UNL     1     -33.477  17.972  -5.594  1.00 20.00     0.010 C 
ENDBRANCH   4   8
TORSDOF 2
ENDMDL
MODEL 5
REMARK VINA RESULT:      -4.2      2.223      3.833
REMARK  2 active torsions:
REMARK  status: ('A' for Active; 'I' for Inactive)
REMARK    1  A    between atoms: C1_1  and  C4_4 
REMARK    2  A    between atoms: C5_5  and  C8_8 
ROOT
HETATM    1  C2  UNL     1     -35.553  13.660  -4.477  1.00 20.00     0.020 C 
HETATM    2  C3  UNL     1     -35.115  15.735  -4.115  1.00 20.00     0.020 C 
HETATM    3  C4  UNL     1     -34.627  14.408  -3.492  1.00 20.00     0.087 C 
HETATM    4  C5  UNL     1     -35.647  14.944  -5.333  1.00 20.00    -0.010 C 
ENDROOT
BRANCH   3   5
HETATM    5  C1  UNL     1     -33.171  14.127  -3.647  1.00 20.00     0.177 C 
HETATM    6  O9  UNL     1     -32.861  12.905  -3.703  1.00 20.00    -0.648 OA
HETATM    7  O10 UNL     1     -32.437  15.153  -3.702  1.00 20.00    -0.648 OA
ENDBRANCH   3   5
BRANCH   4   8
HETATM    8  C8  UNL     1     -34.783  14.979  -6.584  1.00 20.00    -0.019 C 
HETATM    9  C6  UNL     1     -35.538  14.413  -7.790  1.00 20.00     0.010 C 
HETATM   10  C7  UNL     1     -34.307  16.404  -6.882  1.00 20.00     0.010 C 
ENDBRANCH   4   8
TORSDOF 2
ENDMDL
MODEL 6
REMARK VINA RESULT:      -4.0     11.726     12.523
REMARK  2 active torsions:
REMARK  status: ('A' for Active; 'I' for Inactive)
REMARK    1  A    between atoms: C1_1  and  C4_4 
REMARK    2  A    between atoms: C5_5  and  C8_8 
ROOT
HETATM    1  C2  UNL     1     -34.549   7.096   3.761  1.00 20.00     0.020 C 
HETATM    2  C3  UNL     1     -34.241   5.183   2.827  1.00 20.00     0.020 C 
HETATM    3  C4  UNL     1     -33.523   6.549   2.744  1.00 20.00     0.087 C 
HETATM    4  C5  UNL     1     -34.923   5.643   4.136  1.00 20.00    -0.010 C 
ENDROOT
BRANCH   3   5
HETATM    5  C1  UNL     1     -32.105   6.554   3.204  1.00 20.00     0.177 C 
HETATM    6  O9  UNL     1     -31.628   7.693   3.467  1.00 20.00    -0.648 OA
HETATM    7  O10 UNL     1     -31.565   5.414   3.268  1.00 20.00    -0.648 OA
ENDBRANCH   3   5
BRANCH   4   8
HETATM    8  C8  UNL     1     -34.322   5.110   5.428  1.00 20.00    -0.019 C 
HETATM    9  C6  UNL     1     -34.197   6.220   6.475  1.00 20.00     0.010 C 
HETATM   10  C7  UNL     1     -35.156   3.953   5.984  1.00 20.00     0.010 C 
ENDBRANCH   4   8
TORSDOF 2
ENDMDL
MODEL 7
REMARK VINA RESULT:      -4.0      1.304      2.185
REMARK  2 active torsions:
REMARK  status: ('A' for Active; 'I' for Inactive)
REMARK    1  A    between atoms: C1_1  and  C4_4 
REMARK    2  A    between atoms: C5_5  and  C8_8 
ROOT
HETATM    1  C2  UNL     1     -35.903  16.214  -4.823  1.00 20.00     0.020 C 
HETATM    2  C3  UNL     1     -36.760  14.798  -3.449  1.00 20.00     0.020 C 
HETATM    3  C4  UNL     1     -36.274  14.717  -4.914  1.00 20.00     0.087 C 
HETATM    4  C5  UNL     1     -35.972  16.117  -3.282  1.00 20.00    -0.010 C 
ENDROOT
BRANCH   3   5
HETATM    5  C1  UNL     1     -35.132  13.790  -5.157  1.00 20.00     0.177 C 
HETATM    6  O9  UNL     1     -35.135  12.737  -4.462  1.00 20.00    -0.648 OA
HETATM    7  O10 UNL     1     -34.308  14.184  -6.030  1.00 20.00    -0.648 OA
ENDBRANCH   3   5
BRANCH   4   8
HETATM    8  C8  UNL     1     -34.639  16.014  -2.558  1.00 20.00    -0.019 C 
HETATM    9  C6  UNL     1     -33.553  16.812  -3.287  1.00 20.00     0.010 C 
HETATM   10  C7  UNL     1     -34.762  16.495  -1.110  1.00 20.00     0.010 C 
ENDBRANCH   4   8
TORSDOF 2
ENDMDL
MODEL 8
REMARK VINA RESULT:      -4.0     12.294     13.214
REMARK  2 active torsions:
REMARK  status: ('A' for Active; 'I' for Inactive)
REMARK    1  A    between atoms: C1_1  and  C4_4 
REMARK    2  A    between atoms: C5_5  and  C8_8 
ROOT
HETATM    1  C2  UNL     1     -35.351   5.892   4.149  1.00 20.00     0.020 C 
HETATM    2  C3  UNL     1     -34.124   6.509   5.805  1.00 20.00     0.020 C 
HETATM    3  C4  UNL     1     -35.125   5.354   5.579  1.00 20.00     0.087 C 
HETATM    4  C5  UNL     1     -34.048   6.715   4.275  1.00 20.00    -0.010 C 
ENDROOT
BRANCH   3   5
HETATM    5  C1  UNL     1     -34.546   3.982   5.660  1.00 20.00     0.177 C 
HETATM    6  O9  UNL     1     -33.686   3.813   6.568  1.00 20.00    -0.648 OA
HETATM    7  O10 UNL     1     -34.994   3.167   4.805  1.00 20.00    -0.648 OA
ENDBRANCH   3   5
BRANCH   4   8
HETATM    8  C8  UNL     1     -32.824   6.140   3.581  1.00 20.00    -0.019 C 
HETATM    9  C6  UNL     1     -33.218   5.372   2.315  1.00 20.00     0.010 C 
HETATM   10  C7  UNL     1     -31.819   7.242   3.235  1.00 20.00     0.010 C 
ENDBRANCH   4   8
TORSDOF 2
ENDMDL
MODEL 9
REMARK VINA RESULT:      -4.0     11.749     12.690
REMARK  2 active torsions:
REMARK  status: ('A' for Active; 'I' for Inactive)
REMARK    1  A    between atoms: C1_1  and  C4_4 
REMARK    2  A    between atoms: C5_5  and  C8_8 
ROOT
HETATM    1  C2  UNL     1     -40.905   6.143  -0.020  1.00 20.00     0.020 C 
HETATM    2  C3  UNL     1     -41.285   4.660  -1.531  1.00 20.00     0.020 C 
HETATM    3  C4  UNL     1     -41.405   4.681   0.009  1.00 20.00     0.087 C 
HETATM    4  C5  UNL     1     -41.236   6.205  -1.529  1.00 20.00    -0.010 C 
ENDROOT
BRANCH   3   5
HETATM    5  C1  UNL     1     -42.783   4.489   0.545  1.00 20.00     0.177 C 
HETATM    6  O9  UNL     1     -43.417   3.511   0.061  1.00 20.00    -0.648 OA
HETATM    7  O10 UNL     1     -43.137   5.335   1.413  1.00 20.00    -0.648 OA
ENDBRANCH   3   5
BRANCH   4   8
HETATM    8  C8  UNL     1     -42.526   6.916  -1.903  1.00 20.00    -0.019 C 
HETATM    9  C6  UNL     1     -42.856   8.022  -0.896  1.00 20.00     0.010 C 
HETATM   10  C7  UNL     1     -42.442   7.499  -3.316  1.00 20.00     0.010 C 
ENDBRANCH   4   8
TORSDOF 2
ENDMDL
