MODEL 1
REMARK VINA RESULT:      -5.1      0.000      0.000
REMARK  3 active torsions:
REMARK  status: ('A' for Active; 'I' for Inactive)
REMARK    1  A    between atoms: C5_5  and  C8_8 
REMARK    2  A    between atoms: C6_6  and  O10_10 
REMARK    3  A    between atoms: C8_8  and  C9_9 
ROOT
HETATM    1  C1  UNL     1     -33.518   6.022   2.812  1.00 20.00     0.007 C 
HETATM    2  C2  UNL     1     -33.341   6.849   5.196  1.00 20.00     0.007 C 
HETATM    3  C3  UNL     1     -34.269   4.786   3.301  1.00 20.00     0.032 C 
HETATM    4  C4  UNL     1     -34.092   5.611   5.678  1.00 20.00     0.032 C 
HETATM    5  C5  UNL     1     -32.578   6.576   3.892  1.00 20.00    -0.014 C 
HETATM    6  C6  UNL     1     -35.023   5.062   4.600  1.00 20.00     0.118 C 
ENDROOT
BRANCH   5   7
HETATM    7  C8  UNL     1     -31.880   7.842   3.400  1.00 20.00     0.004 C 
BRANCH   7   8
HETATM    8  C9  UNL     1     -32.082   8.037   1.902  1.00 20.00    -0.004 C 
HETATM    9  C7  UNL     1     -32.416   9.484   1.575  1.00 20.00     0.005 C 
ENDBRANCH   7   8
ENDBRANCH   5   7
BRANCH   6  10
HETATM   10  O10 UNL     1     -35.609   3.856   5.078  1.00 20.00    -0.396 OA
HETATM   11  H28 UNL     1     -35.480   3.190   4.385  1.00 20.00     0.210 HD
ENDBRANCH   6  10
TORSDOF 3
ENDMDL
MODEL 2
REMARK VINA RESULT:      -5.1      0.882      1.792
REMARK  3 active torsions:
REMARK  status: ('A' for Active; 'I' for Inactive)
REMARK    1  A    between atoms: C5_5  and  C8_8 
REMARK    2  A    between atoms: C6_6  and  O10_10 
REMARK    3  A    between atoms: C8_8  and  C9_9 
ROOT
HETATM    1  C1  UNL     1     -32.930   6.674   5.026  1.00 20.00     0.007 C 
HETATM    2  C2  UNL     1     -33.948   5.386   3.102  1.00 20.00     0.007 C 
HETATM    3  C3  UNL     1     -34.032   6.159   5.949  1.00 20.00     0.032 C 
HETATM    4  C4  UNL     1     -35.047   4.875   4.030  1.00 20.00     0.032 C 
HETATM    5  C5  UNL     1     -33.402   6.743   3.567  1.00 20.00    -0.014 C 
HETATM    6  C6  UNL     1     -34.575   4.810   5.480  1.00 20.00     0.118 C 
ENDROOT
BRANCH   5   7
HETATM    7  C8  UNL     1     -32.268   7.208   2.656  1.00 20.00     0.004 C 
BRANCH   7   8
HETATM    8  C9  UNL     1     -32.421   8.680   2.291  1.00 20.00    -0.004 C 
HETATM    9  C7  UNL     1     -32.040   8.930   0.841  1.00 20.00     0.005 C 
ENDBRANCH   7   8
ENDBRANCH   5   7
BRANCH   6  10
HETATM   10  O10 UNL     1     -35.675   4.427   6.299  1.00 20.00    -0.396 OA
HETATM   11  H28 UNL     1     -36.440   4.940   5.996  1.00 20.00     0.210 HD
ENDBRANCH   6  10
TORSDOF 3
ENDMDL
MODEL 3
REMARK VINA RESULT:      -4.7     10.844     11.642
REMARK  3 active torsions:
REMARK  status: ('A' for Active; 'I' for Inactive)
REMARK    1  A    between atoms: C5_5  and  C8_8 
REMARK    2  A    between atoms: C6_6  and  O10_10 
REMARK    3  A    between atoms: C8_8  and  C9_9 
ROOT
HETATM    1  C1  UNL     1     -32.994  15.369  -3.372  1.00 20.00     0.007 C 
HETATM    2  C2  UNL     1     -35.465  15.909  -3.381  1.00 20.00     0.007 C 
HETATM    3  C3  UNL     1     -33.311  13.930  -3.773  1.00 20.00     0.032 C 
HETATM    4  C4  UNL     1     -35.775  14.469  -3.782  1.00 20.00     0.032 C 
HETATM    5  C5  UNL     1     -34.152  16.006  -2.591  1.00 20.00    -0.014 C 
HETATM    6  C6  UNL     1     -34.620  13.839  -4.555  1.00 20.00     0.118 C 
ENDROOT
BRANCH   5   7
HETATM    7  C8  UNL     1     -33.835  17.460  -2.249  1.00 20.00     0.004 C 
BRANCH   7   8
HETATM    8  C9  UNL     1     -33.635  17.643  -0.749  1.00 20.00    -0.004 C 
HETATM    9  C7  UNL     1     -34.842  17.151   0.032  1.00 20.00     0.005 C 
ENDBRANCH   7   8
ENDBRANCH   5   7
BRANCH   6  10
HETATM   10  O10 UNL     1     -34.933  12.473  -4.805  1.00 20.00    -0.396 OA
HETATM   11  H28 UNL     1     -35.751  12.466  -5.327  1.00 20.00     0.210 HD
ENDBRANCH   6  10
TORSDOF 3
ENDMDL
MODEL 4
REMARK VINA RESULT:      -4.5     10.805     11.708
REMARK  3 active torsions:
REMARK  status: ('A' for Active; 'I' for Inactive)
REMARK    1  A    between atoms: C5_5  and  C8_8 
REMARK    2  A    between atoms: C6_6  and  O10_10 
REMARK    3  A    between atoms: C8_8  and  C9_9 
ROOT
HETATM    1  C1  UNL     1     -35.990  15.619  -3.002  1.00 20.00     0.007 C 
HETATM    2  C2  UNL     1     -33.462  15.602  -3.090  1.00 20.00     0.007 C 
HETATM    3  C3  UNL     1     -36.027  14.439  -3.969  1.00 20.00     0.032 C 
HETATM    4  C4  UNL     1     -33.507  14.423  -4.057  1.00 20.00     0.032 C 
HETATM    5  C5  UNL     1     -34.725  16.468  -3.195  1.00 20.00    -0.014 C 
HETATM    6  C6  UNL     1     -34.767  13.583  -3.863  1.00 20.00     0.118 C 
ENDROOT
BRANCH   5   7
HETATM    7  C8  UNL     1     -34.683  17.609  -2.181  1.00 20.00     0.004 C 
BRANCH   7   8
HETATM    8  C9  UNL     1     -34.034  17.164  -0.876  1.00 20.00    -0.004 C 
HETATM    9  C7  UNL     1     -34.978  17.351   0.301  1.00 20.00     0.005 C 
ENDBRANCH   7   8
ENDBRANCH   5   7
BRANCH   6  10
HETATM   10  O10 UNL     1     -34.793  12.567  -4.860  1.00 20.00    -0.396 OA
HETATM   11  H28 UNL     1     -35.351  12.899  -5.580  1.00 20.00     0.210 HD
ENDBRANCH   6  10
TORSDOF 3
ENDMDL
MODEL 5
REMARK VINA RESULT:      -4.5     11.729     12.665
REMARK  3 active torsions:
REMARK  status: ('A' for Active; 'I' for Inactive)
REMARK    1  A    between atoms: C5_5  and  C8_8 
REMARK    2  A    between atoms: C6_6  and  O10_10 
REMARK    3  A    between atoms: C8_8  and  C9_9 
ROOT
HETATM    1  C1  UNL     1     -33.763  17.051  -3.644  1.00 20.00     0.007 C 
HETATM    2  C2  UNL     1     -35.061  14.897  -3.380  1.00 20.00     0.007 C 
HETATM    3  C3  UNL     1     -33.281  16.589  -5.017  1.00 20.00     0.032 C 
HETATM    4  C4  UNL     1     -34.575  14.440  -4.753  1.00 20.00     0.032 C 
HETATM    5  C5  UNL     1     -34.066  15.863  -2.721  1.00 20.00    -0.014 C 
HETATM    6  C6  UNL     1     -34.272  15.625  -5.666  1.00 20.00     0.118 C 
ENDROOT
BRANCH   5   7
HETATM    7  C8  UNL     1     -34.598  16.348  -1.375  1.00 20.00     0.004 C 
BRANCH   7   8
HETATM    8  C9  UNL     1     -33.772  17.515  -0.843  1.00 20.00    -0.004 C 
HETATM    9  C7  UNL     1     -34.273  17.969   0.519  1.00 20.00     0.005 C 
ENDBRANCH   7   8
ENDBRANCH   5   7
BRANCH   6  10
HETATM   10  O10 UNL     1     -33.729  15.131  -6.886  1.00 20.00    -0.396 OA
HETATM   11  H28 UNL     1     -34.119  14.255  -7.029  1.00 20.00     0.210 HD
ENDBRANCH   6  10
TORSDOF 3
ENDMDL
MODEL 6
REMARK VINA RESULT:      -4.2      9.674     11.122
REMARK  3 active torsions:
REMARK  status: ('A' for Active; 'I' for Inactive)
REMARK    1  A    between atoms: C5_5  and  C8_8 
REMARK    2  A    between atoms: C6_6  and  O10_10 
REMARK    3  A    between atoms: C8_8  and  C9_9 
ROOT
HETATM    1  C1  UNL     1     -42.861   5.437  -2.920  1.00 20.00     0.007 C 
HETATM    2  C2  UNL     1     -41.080   4.340  -1.498  1.00 20.00     0.007 C 
HETATM    3  C3  UNL     1     -42.618   6.759  -2.198  1.00 20.00     0.032 C 
HETATM    4  C4  UNL     1     -40.843   5.666  -0.779  1.00 20.00     0.032 C 
HETATM    5  C5  UNL     1     -42.516   4.234  -2.030  1.00 20.00    -0.014 C 
HETATM    6  C6  UNL     1     -41.190   6.858  -1.667  1.00 20.00     0.118 C 
ENDROOT
BRANCH   5   7
HETATM    7  C8  UNL     1     -42.714   2.926  -2.792  1.00 20.00     0.004 C 
BRANCH   7   8
HETATM    8  C9  UNL     1     -41.389   2.393  -3.328  1.00 20.00    -0.004 C 
HETATM    9  C7  UNL     1     -41.561   1.019  -3.955  1.00 20.00     0.005 C 
ENDBRANCH   7   8
ENDBRANCH   5   7
BRANCH   6  10
HETATM   10  O10 UNL     1     -41.044   8.050  -0.903  1.00 20.00    -0.396 OA
HETATM   11  H28 UNL     1     -41.034   7.783   0.029  1.00 20.00     0.210 HD
ENDBRANCH   6  10
TORSDOF 3
ENDMDL
MODEL 7
REMARK VINA RESULT:      -4.2     11.621     12.615
REMARK  3 active torsions:
REMARK  status: ('A' for Active; 'I' for Inactive)
REMARK    1  A    between atoms: C5_5  and  C8_8 
REMARK    2  A    between atoms: C6_6  and  O10_10 
REMARK    3  A    between atoms: C8_8  and  C9_9 
ROOT
HETATM    1  C1  UNL     1     -34.945  14.633  -3.605  1.00 20.00     0.007 C 
HETATM    2  C2  UNL     1     -33.473  16.268  -4.852  1.00 20.00     0.007 C 
HETATM    3  C3  UNL     1     -35.600  14.225  -4.922  1.00 20.00     0.032 C 
HETATM    4  C4  UNL     1     -34.133  15.857  -6.165  1.00 20.00     0.032 C 
HETATM    5  C5  UNL     1     -34.418  16.074  -3.658  1.00 20.00    -0.014 C 
HETATM    6  C6  UNL     1     -34.657  14.424  -6.107  1.00 20.00     0.118 C 
ENDROOT
BRANCH   5   7
HETATM    7  C8  UNL     1     -33.719  16.440  -2.351  1.00 20.00     0.004 C 
BRANCH   7   8
HETATM    8  C9  UNL     1     -34.695  16.424  -1.180  1.00 20.00    -0.004 C 
HETATM    9  C7  UNL     1     -34.341  17.489  -0.154  1.00 20.00     0.005 C 
ENDBRANCH   7   8
ENDBRANCH   5   7
BRANCH   6  10
HETATM   10  O10 UNL     1     -35.347  14.144  -7.320  1.00 20.00    -0.396 OA
HETATM   11  H28 UNL     1     -36.154  14.681  -7.312  1.00 20.00     0.210 HD
ENDBRANCH   6  10
TORSDOF 3
ENDMDL
MODEL 8
REMARK VINA RESULT:      -4.0     11.004     12.825
REMARK  3 active torsions:
REMARK  status: ('A' for Active; 'I' for Inactive)
REMARK    1  A    between atoms: C5_5  and  C8_8 
REMARK    2  A    between atoms: C6_6  and  O10_10 
REMARK    3  A    between atoms: C8_8  and  C9_9 
ROOT
HETATM    1  C1  UNL     1     -34.786  15.778  -6.035  1.00 20.00     0.007 C 
HETATM    2  C2  UNL     1     -33.614  15.919  -3.797  1.00 20.00     0.007 C 
HETATM    3  C3  UNL     1     -34.985  14.278  -5.831  1.00 20.00     0.032 C 
HETATM    4  C4  UNL     1     -33.816  14.419  -3.601  1.00 20.00     0.032 C 
HETATM    5  C5  UNL     1     -33.547  16.291  -5.286  1.00 20.00    -0.014 C 
HETATM    6  C6  UNL     1     -35.047  13.914  -4.349  1.00 20.00     0.118 C 
ENDROOT
BRANCH   5   7
HETATM    7  C8  UNL     1     -33.400  17.800  -5.458  1.00 20.00     0.004 C 
BRANCH   7   8
HETATM    8  C9  UNL     1     -33.856  18.547  -4.209  1.00 20.00    -0.004 C 
HETATM    9  C7  UNL     1     -35.197  19.227  -4.433  1.00 20.00     0.005 C 
ENDBRANCH   7   8
ENDBRANCH   5   7
BRANCH   6  10
HETATM   10  O10 UNL     1     -35.115  12.499  -4.207  1.00 20.00    -0.396 OA
HETATM   11  H28 UNL     1     -34.856  12.299  -3.295  1.00 20.00     0.210 HD
ENDBRANCH   6  10
TORSDOF 3
ENDMDL
MODEL 9
REMARK VINA RESULT:      -3.9     10.137     10.817
REMARK  3 active torsions:
REMARK  status: ('A' for Active; 'I' for Inactive)
REMARK    1  A    between atoms: C5_5  and  C8_8 
REMARK    2  A    between atoms: C6_6  and  O10_10 
REMARK    3  A    between atoms: C8_8  and  C9_9 
ROOT
HETATM    1  C1  UNL     1     -42.919   5.904  -3.040  1.00 20.00     0.007 C 
HETATM    2  C2  UNL     1     -41.752   7.466  -1.428  1.00 20.00     0.007 C 
HETATM    3  C3  UNL     1     -42.116   4.733  -2.481  1.00 20.00     0.032 C 
HETATM    4  C4  UNL     1     -40.951   6.290  -0.874  1.00 20.00     0.032 C 
HETATM    5  C5  UNL     1     -42.163   7.232  -2.889  1.00 20.00    -0.014 C 
HETATM    6  C6  UNL     1     -41.706   4.972  -1.029  1.00 20.00     0.118 C 
ENDROOT
BRANCH   5   7
HETATM    7  C8  UNL     1     -43.008   8.395  -3.404  1.00 20.00     0.004 C 
BRANCH   7   8
HETATM    8  C9  UNL     1     -42.992   8.457  -4.927  1.00 20.00    -0.004 C 
HETATM    9  C7  UNL     1     -41.749   9.168  -5.437  1.00 20.00     0.005 C 
ENDBRANCH   7   8
ENDBRANCH   5   7
BRANCH   6  10
HETATM   10  O10 UNL     1     -40.864   3.912  -0.589  1.00 20.00    -0.396 OA
HETATM   11  H28 UNL     1     -40.071   3.936  -1.148  1.00 20.00     0.210 HD
ENDBRANCH   6  10
TORSDOF 3
ENDMDL
