MODEL 1
REMARK VINA RESULT:      -4.3      0.000      0.000
REMARK  1 active torsions:
REMARK  status: ('A' for Active; 'I' for Inactive)
REMARK    1  A    between atoms: C1_1  and  C3_3 
ROOT
HETATM    1  C2  UNL     1     -33.210  15.826  -4.408  1.00 20.00     0.067 A 
HETATM    2  C3  UNL     1     -34.340  14.940  -3.921  1.00 20.00     0.083 A 
HETATM    3  C4  UNL     1     -34.457  15.703  -5.241  1.00 20.00     0.132 A 
HETATM    4  C5  UNL     1     -35.108  15.412  -2.710  1.00 20.00     0.030 C 
HETATM    5 CL8  UNL     1     -34.315  14.843  -6.780  1.00 20.00    -0.100 Cl
HETATM    6 CL9  UNL     1     -35.508  17.115  -5.363  1.00 20.00    -0.100 Cl
ENDROOT
BRANCH   2   7
HETATM    7  C1  UNL     1     -34.110  13.501  -4.003  1.00 20.00     0.184 C 
HETATM    8  O6  UNL     1     -35.128  12.806  -4.274  1.00 20.00    -0.647 OA
HETATM    9  O7  UNL     1     -32.917  13.143  -3.789  1.00 20.00    -0.647 OA
ENDBRANCH   2   7
TORSDOF 1
ENDMDL
MODEL 2
REMARK VINA RESULT:      -4.3      1.896      2.793
REMARK  1 active torsions:
REMARK  status: ('A' for Active; 'I' for Inactive)
REMARK    1  A    between atoms: C1_1  and  C3_3 
ROOT
HETATM    1  C2  UNL     1     -35.881  16.208  -4.841  1.00 20.00     0.067 A 
HETATM    2  C3  UNL     1     -35.252  14.856  -5.115  1.00 20.00     0.083 A 
HETATM    3  C4  UNL     1     -34.495  15.927  -4.329  1.00 20.00     0.132 A 
HETATM    4  C5  UNL     1     -34.864  14.556  -6.543  1.00 20.00     0.030 C 
HETATM    5 CL8  UNL     1     -34.300  15.772  -2.578  1.00 20.00    -0.100 Cl
HETATM    6 CL9  UNL     1     -33.150  16.793  -5.074  1.00 20.00    -0.100 Cl
ENDROOT
BRANCH   2   7
HETATM    7  C1  UNL     1     -35.791  13.731  -4.356  1.00 20.00     0.184 C 
HETATM    8  O6  UNL     1     -35.045  12.715  -4.294  1.00 20.00    -0.647 OA
HETATM    9  O7  UNL     1     -36.938  13.926  -3.863  1.00 20.00    -0.647 OA
ENDBRANCH   2   7
TORSDOF 1
ENDMDL
MODEL 3
REMARK VINA RESULT:      -4.3      2.026      2.571
REMARK  1 active torsions:
REMARK  status: ('A' for Active; 'I' for Inactive)
REMARK    1  A    between atoms: C1_1  and  C3_3 
ROOT
HETATM    1  C2  UNL     1     -34.446  16.142  -4.446  1.00 20.00     0.067 A 
HETATM    2  C3  UNL     1     -34.155  14.695  -4.100  1.00 20.00     0.083 A 
HETATM    3  C4  UNL     1     -35.123  15.521  -3.254  1.00 20.00     0.132 A 
HETATM    4  C5  UNL     1     -32.775  14.380  -3.573  1.00 20.00     0.030 C 
HETATM    5 CL8  UNL     1     -36.866  15.244  -3.371  1.00 20.00    -0.100 Cl
HETATM    6 CL9  UNL     1     -34.646  16.084  -1.651  1.00 20.00    -0.100 Cl
ENDROOT
BRANCH   2   7
HETATM    7  C1  UNL     1     -34.737  13.692  -4.988  1.00 20.00     0.184 C 
HETATM    8  O6  UNL     1     -34.956  12.567  -4.460  1.00 20.00    -0.647 OA
HETATM    9  O7  UNL     1     -34.942  14.087  -6.171  1.00 20.00    -0.647 OA
ENDBRANCH   2   7
TORSDOF 1
ENDMDL
MODEL 4
REMARK VINA RESULT:      -4.0      2.260      3.109
REMARK  1 active torsions:
REMARK  status: ('A' for Active; 'I' for Inactive)
REMARK    1  A    between atoms: C1_1  and  C3_3 
ROOT
HETATM    1  C2  UNL     1     -34.482  13.633  -3.650  1.00 20.00     0.067 A 
HETATM    2  C3  UNL     1     -34.224  14.809  -4.572  1.00 20.00     0.083 A 
HETATM    3  C4  UNL     1     -35.282  14.895  -3.472  1.00 20.00     0.132 A 
HETATM    4  C5  UNL     1     -34.649  14.657  -6.013  1.00 20.00     0.030 C 
HETATM    5 CL8  UNL     1     -34.973  15.846  -2.013  1.00 20.00    -0.100 Cl
HETATM    6 CL9  UNL     1     -36.998  14.845  -3.882  1.00 20.00    -0.100 Cl
ENDROOT
BRANCH   2   7
HETATM    7  C1  UNL     1     -32.977  15.537  -4.354  1.00 20.00     0.184 C 
HETATM    8  O6  UNL     1     -32.909  16.668  -4.910  1.00 20.00    -0.647 OA
HETATM    9  O7  UNL     1     -32.131  14.933  -3.636  1.00 20.00    -0.647 OA
ENDBRANCH   2   7
TORSDOF 1
ENDMDL
MODEL 5
REMARK VINA RESULT:      -3.9      1.814      2.763
REMARK  1 active torsions:
REMARK  status: ('A' for Active; 'I' for Inactive)
REMARK    1  A    between atoms: C1_1  and  C3_3 
ROOT
HETATM    1  C2  UNL     1     -35.997  14.833  -3.693  1.00 20.00     0.067 A 
HETATM    2  C3  UNL     1     -34.602  15.076  -4.236  1.00 20.00     0.083 A 
HETATM    3  C4  UNL     1     -35.241  16.057  -3.253  1.00 20.00     0.132 A 
HETATM    4  C5  UNL     1     -34.489  15.443  -5.697  1.00 20.00     0.030 C 
HETATM    5 CL8  UNL     1     -34.700  16.107  -1.570  1.00 20.00    -0.100 Cl
HETATM    6 CL9  UNL     1     -35.820  17.628  -3.811  1.00 20.00    -0.100 Cl
ENDROOT
BRANCH   2   7
HETATM    7  C1  UNL     1     -33.550  14.207  -3.719  1.00 20.00     0.184 C 
HETATM    8  O6  UNL     1     -32.403  14.730  -3.650  1.00 20.00    -0.647 OA
HETATM    9  O7  UNL     1     -33.930  13.042  -3.411  1.00 20.00    -0.647 OA
ENDBRANCH   2   7
TORSDOF 1
ENDMDL
MODEL 6
REMARK VINA RESULT:      -3.9      2.120      2.718
REMARK  1 active torsions:
REMARK  status: ('A' for Active; 'I' for Inactive)
REMARK    1  A    between atoms: C1_1  and  C3_3 
ROOT
HETATM    1  C2  UNL     1     -34.652  13.944  -3.722  1.00 20.00     0.067 A 
HETATM    2  C3  UNL     1     -35.384  15.212  -3.327  1.00 20.00     0.083 A 
HETATM    3  C4  UNL     1     -34.486  15.179  -4.565  1.00 20.00     0.132 A 
HETATM    4  C5  UNL     1     -34.914  15.914  -2.076  1.00 20.00     0.030 C 
HETATM    5 CL8  UNL     1     -35.202  15.153  -6.182  1.00 20.00    -0.100 Cl
HETATM    6 CL9  UNL     1     -32.915  15.984  -4.546  1.00 20.00    -0.100 Cl
ENDROOT
BRANCH   2   7
HETATM    7  C1  UNL     1     -36.826  15.218  -3.552  1.00 20.00     0.184 C 
HETATM    8  O6  UNL     1     -37.350  14.082  -3.724  1.00 20.00    -0.647 OA
HETATM    9  O7  UNL     1     -37.358  16.364  -3.547  1.00 20.00    -0.647 OA
ENDBRANCH   2   7
TORSDOF 1
ENDMDL
MODEL 7
REMARK VINA RESULT:      -3.8      1.370      1.437
REMARK  1 active torsions:
REMARK  status: ('A' for Active; 'I' for Inactive)
REMARK    1  A    between atoms: C1_1  and  C3_3 
ROOT
HETATM    1  C2  UNL     1     -34.936  16.175  -4.798  1.00 20.00     0.067 A 
HETATM    2  C3  UNL     1     -35.498  14.780  -4.600  1.00 20.00     0.083 A 
HETATM    3  C4  UNL     1     -35.492  15.432  -5.983  1.00 20.00     0.132 A 
HETATM    4  C5  UNL     1     -36.791  14.664  -3.829  1.00 20.00     0.030 C 
HETATM    5 CL8  UNL     1     -34.338  14.899  -7.212  1.00 20.00    -0.100 Cl
HETATM    6 CL9  UNL     1     -36.995  16.023  -6.694  1.00 20.00    -0.100 Cl
ENDROOT
BRANCH   2   7
HETATM    7  C1  UNL     1     -34.520  13.722  -4.360  1.00 20.00     0.184 C 
HETATM    8  O6  UNL     1     -34.913  12.554  -4.632  1.00 20.00    -0.647 OA
HETATM    9  O7  UNL     1     -33.409  14.120  -3.908  1.00 20.00    -0.647 OA
ENDBRANCH   2   7
TORSDOF 1
ENDMDL
MODEL 8
REMARK VINA RESULT:      -3.7      1.709      2.545
REMARK  1 active torsions:
REMARK  status: ('A' for Active; 'I' for Inactive)
REMARK    1  A    between atoms: C1_1  and  C3_3 
ROOT
HETATM    1  C2  UNL     1     -35.581  15.505  -4.879  1.00 20.00     0.067 A 
HETATM    2  C3  UNL     1     -34.347  14.667  -4.608  1.00 20.00     0.083 A 
HETATM    3  C4  UNL     1     -34.402  15.612  -5.808  1.00 20.00     0.132 A 
HETATM    4  C5  UNL     1     -34.470  13.176  -4.818  1.00 20.00     0.030 C 
HETATM    5 CL8  UNL     1     -33.494  17.130  -5.786  1.00 20.00    -0.100 Cl
HETATM    6 CL9  UNL     1     -34.579  14.967  -7.441  1.00 20.00    -0.100 Cl
ENDROOT
BRANCH   2   7
HETATM    7  C1  UNL     1     -33.526  15.079  -3.473  1.00 20.00     0.184 C 
HETATM    8  O6  UNL     1     -32.318  14.717  -3.521  1.00 20.00    -0.647 OA
HETATM    9  O7  UNL     1     -34.138  15.745  -2.591  1.00 20.00    -0.647 OA
ENDBRANCH   2   7
TORSDOF 1
ENDMDL
MODEL 9
REMARK VINA RESULT:      -3.7      1.955      2.365
REMARK  1 active torsions:
REMARK  status: ('A' for Active; 'I' for Inactive)
REMARK    1  A    between atoms: C1_1  and  C3_3 
ROOT
HETATM    1  C2  UNL     1     -35.432  16.636  -4.598  1.00 20.00     0.067 A 
HETATM    2  C3  UNL     1     -34.538  15.796  -3.707  1.00 20.00     0.083 A 
HETATM    3  C4  UNL     1     -35.598  15.141  -4.593  1.00 20.00     0.132 A 
HETATM    4  C5  UNL     1     -34.761  15.899  -2.217  1.00 20.00     0.030 C 
HETATM    5 CL8  UNL     1     -35.120  14.272  -6.057  1.00 20.00    -0.100 Cl
HETATM    6 CL9  UNL     1     -37.069  14.479  -3.878  1.00 20.00    -0.100 Cl
ENDROOT
BRANCH   2   7
HETATM    7  C1  UNL     1     -33.146  15.667  -4.130  1.00 20.00     0.184 C 
HETATM    8  O6  UNL     1     -32.765  16.508  -4.992  1.00 20.00    -0.647 OA
HETATM    9  O7  UNL     1     -32.509  14.727  -3.577  1.00 20.00    -0.647 OA
ENDBRANCH   2   7
TORSDOF 1
ENDMDL
