MODEL 1
REMARK VINA RESULT:      -4.6      0.000      0.000
REMARK  4 active torsions:
REMARK  status: ('A' for Active; 'I' for Inactive)
REMARK    1  A    between atoms: C5_5  and  O8_8 
REMARK    2  A    between atoms: C6_6  and  O9_9 
REMARK    3  A    between atoms: C7_7  and  O8_8 
REMARK    4  A    between atoms: C7_7  and  O9_9 
ROOT
HETATM    1  C1  UNL     1     -32.067   8.748   1.467  1.00 20.00     0.014 C 
HETATM    2  C2  UNL     1     -32.140   7.908   2.323  1.00 20.00    -0.091 C 
HETATM    3  C5  UNL     1     -32.229   6.886   3.367  1.00 20.00     0.263 C 
ENDROOT
BRANCH   3   4
HETATM    4  O8  UNL     1     -33.128   5.856   2.980  1.00 20.00    -0.350 OA
BRANCH   4   5
HETATM    5  C7  UNL     1     -34.105   5.563   3.981  1.00 20.00     0.256 C 
HETATM    6  C4  UNL     1     -35.498   5.778   3.402  1.00 20.00     0.070 C 
BRANCH   5   7
HETATM    7  O9  UNL     1     -33.981   6.449   5.101  1.00 20.00    -0.362 OA
BRANCH   7   8
HETATM    8  C6  UNL     1     -34.374   5.834   6.321  1.00 20.00     0.166 C 
HETATM    9  C3  UNL     1     -34.519   4.344   6.097  1.00 20.00     0.033 C 
ENDBRANCH   7   8
ENDBRANCH   5   7
ENDBRANCH   4   5
ENDBRANCH   3   4
TORSDOF 4
ENDMDL
MODEL 2
REMARK VINA RESULT:      -4.4      1.138      1.238
REMARK  4 active torsions:
REMARK  status: ('A' for Active; 'I' for Inactive)
REMARK    1  A    between atoms: C5_5  and  O8_8 
REMARK    2  A    between atoms: C6_6  and  O9_9 
REMARK    3  A    between atoms: C7_7  and  O8_8 
REMARK    4  A    between atoms: C7_7  and  O9_9 
ROOT
HETATM    1  C1  UNL     1     -32.254   9.521   0.750  1.00 20.00     0.014 C 
HETATM    2  C2  UNL     1     -32.098   8.651   1.564  1.00 20.00    -0.091 C 
HETATM    3  C5  UNL     1     -31.908   7.592   2.555  1.00 20.00     0.263 C 
ENDROOT
BRANCH   3   4
HETATM    4  O8  UNL     1     -33.065   7.455   3.367  1.00 20.00    -0.350 OA
BRANCH   4   5
HETATM    5  C7  UNL     1     -33.298   6.108   3.784  1.00 20.00     0.256 C 
HETATM    6  C4  UNL     1     -34.051   5.365   2.686  1.00 20.00     0.070 C 
BRANCH   5   7
HETATM    7  O9  UNL     1     -34.124   6.063   4.954  1.00 20.00    -0.362 OA
BRANCH   7   8
HETATM    8  C6  UNL     1     -35.124   5.056   4.870  1.00 20.00     0.166 C 
HETATM    9  C3  UNL     1     -35.070   4.202   6.118  1.00 20.00     0.033 C 
ENDBRANCH   7   8
ENDBRANCH   5   7
ENDBRANCH   4   5
ENDBRANCH   3   4
TORSDOF 4
ENDMDL
MODEL 3
REMARK VINA RESULT:      -4.4      1.209      4.760
REMARK  4 active torsions:
REMARK  status: ('A' for Active; 'I' for Inactive)
REMARK    1  A    between atoms: C5_5  and  O8_8 
REMARK    2  A    between atoms: C6_6  and  O9_9 
REMARK    3  A    between atoms: C7_7  and  O8_8 
REMARK    4  A    between atoms: C7_7  and  O9_9 
ROOT
HETATM    1  C1  UNL     1     -35.051   4.404   6.163  1.00 20.00     0.014 C 
HETATM    2  C2  UNL     1     -34.952   4.934   5.090  1.00 20.00    -0.091 C 
HETATM    3  C5  UNL     1     -34.832   5.580   3.782  1.00 20.00     0.263 C 
ENDROOT
BRANCH   3   4
HETATM    4  O8  UNL     1     -33.999   6.728   3.868  1.00 20.00    -0.350 OA
BRANCH   4   5
HETATM    5  C7  UNL     1     -32.987   6.759   2.859  1.00 20.00     0.256 C 
HETATM    6  C4  UNL     1     -31.973   5.655   3.130  1.00 20.00     0.070 C 
BRANCH   5   7
HETATM    7  O9  UNL     1     -32.267   7.998   2.888  1.00 20.00    -0.362 OA
BRANCH   7   8
HETATM    8  C6  UNL     1     -31.804   8.382   1.599  1.00 20.00     0.166 C 
HETATM    9  C3  UNL     1     -32.466   9.684   1.205  1.00 20.00     0.033 C 
ENDBRANCH   7   8
ENDBRANCH   5   7
ENDBRANCH   4   5
ENDBRANCH   3   4
TORSDOF 4
ENDMDL
MODEL 4
REMARK VINA RESULT:      -4.2      0.997      3.801
REMARK  4 active torsions:
REMARK  status: ('A' for Active; 'I' for Inactive)
REMARK    1  A    between atoms: C5_5  and  O8_8 
REMARK    2  A    between atoms: C6_6  and  O9_9 
REMARK    3  A    between atoms: C7_7  and  O8_8 
REMARK    4  A    between atoms: C7_7  and  O9_9 
ROOT
HETATM    1  C1  UNL     1     -33.629   7.185   6.760  1.00 20.00     0.014 C 
HETATM    2  C2  UNL     1     -34.164   6.152   6.463  1.00 20.00    -0.091 C 
HETATM    3  C5  UNL     1     -34.817   4.894   6.102  1.00 20.00     0.263 C 
ENDROOT
BRANCH   3   4
HETATM    4  O8  UNL     1     -34.585   4.587   4.734  1.00 20.00    -0.350 OA
BRANCH   4   5
HETATM    5  C7  UNL     1     -34.584   5.744   3.895  1.00 20.00     0.256 C 
HETATM    6  C4  UNL     1     -35.945   5.877   3.221  1.00 20.00     0.070 C 
BRANCH   5   7
HETATM    7  O9  UNL     1     -33.614   5.622   2.847  1.00 20.00    -0.362 OA
BRANCH   7   8
HETATM    8  C6  UNL     1     -32.352   6.164   3.215  1.00 20.00     0.166 C 
HETATM    9  C3  UNL     1     -32.224   7.555   2.634  1.00 20.00     0.033 C 
ENDBRANCH   7   8
ENDBRANCH   5   7
ENDBRANCH   4   5
ENDBRANCH   3   4
TORSDOF 4
ENDMDL
MODEL 5
REMARK VINA RESULT:      -4.2      1.180      1.390
REMARK  4 active torsions:
REMARK  status: ('A' for Active; 'I' for Inactive)
REMARK    1  A    between atoms: C5_5  and  O8_8 
REMARK    2  A    between atoms: C6_6  and  O9_9 
REMARK    3  A    between atoms: C7_7  and  O8_8 
REMARK    4  A    between atoms: C7_7  and  O9_9 
ROOT
HETATM    1  C1  UNL     1     -32.146   8.951   1.088  1.00 20.00     0.014 C 
HETATM    2  C2  UNL     1     -31.964   8.194   2.002  1.00 20.00    -0.091 C 
HETATM    3  C5  UNL     1     -31.742   7.273   3.117  1.00 20.00     0.263 C 
ENDROOT
BRANCH   3   4
HETATM    4  O8  UNL     1     -32.605   6.149   3.015  1.00 20.00    -0.350 OA
BRANCH   4   5
HETATM    5  C7  UNL     1     -33.853   6.342   3.685  1.00 20.00     0.256 C 
HETATM    6  C4  UNL     1     -33.591   6.790   5.117  1.00 20.00     0.070 C 
BRANCH   5   7
HETATM    7  O9  UNL     1     -34.592   5.116   3.764  1.00 20.00    -0.362 OA
BRANCH   7   8
HETATM    8  C6  UNL     1     -35.298   4.991   4.992  1.00 20.00     0.166 C 
HETATM    9  C3  UNL     1     -34.791   3.771   5.729  1.00 20.00     0.033 C 
ENDBRANCH   7   8
ENDBRANCH   5   7
ENDBRANCH   4   5
ENDBRANCH   3   4
TORSDOF 4
ENDMDL
MODEL 6
REMARK VINA RESULT:      -4.2      1.087      4.862
REMARK  4 active torsions:
REMARK  status: ('A' for Active; 'I' for Inactive)
REMARK    1  A    between atoms: C5_5  and  O8_8 
REMARK    2  A    between atoms: C6_6  and  O9_9 
REMARK    3  A    between atoms: C7_7  and  O8_8 
REMARK    4  A    between atoms: C7_7  and  O9_9 
ROOT
HETATM    1  C1  UNL     1     -35.183   4.244   5.922  1.00 20.00     0.014 C 
HETATM    2  C2  UNL     1     -34.761   4.951   5.048  1.00 20.00    -0.091 C 
HETATM    3  C5  UNL     1     -34.248   5.811   3.982  1.00 20.00     0.263 C 
ENDROOT
BRANCH   3   4
HETATM    4  O8  UNL     1     -33.138   6.569   4.443  1.00 20.00    -0.350 OA
BRANCH   4   5
HETATM    5  C7  UNL     1     -32.196   6.865   3.410  1.00 20.00     0.256 C 
HETATM    6  C4  UNL     1     -31.068   7.712   3.987  1.00 20.00     0.070 C 
BRANCH   5   7
HETATM    7  O9  UNL     1     -32.800   7.637   2.365  1.00 20.00    -0.362 OA
BRANCH   7   8
HETATM    8  C6  UNL     1     -31.839   8.355   1.601  1.00 20.00     0.166 C 
HETATM    9  C3  UNL     1     -32.417   9.700   1.221  1.00 20.00     0.033 C 
ENDBRANCH   7   8
ENDBRANCH   5   7
ENDBRANCH   4   5
ENDBRANCH   3   4
TORSDOF 4
ENDMDL
MODEL 7
REMARK VINA RESULT:      -3.9     11.018     12.194
REMARK  4 active torsions:
REMARK  status: ('A' for Active; 'I' for Inactive)
REMARK    1  A    between atoms: C5_5  and  O8_8 
REMARK    2  A    between atoms: C6_6  and  O9_9 
REMARK    3  A    between atoms: C7_7  and  O8_8 
REMARK    4  A    between atoms: C7_7  and  O9_9 
ROOT
HETATM    1  C1  UNL     1     -34.776  16.872  -0.428  1.00 20.00     0.014 C 
HETATM    2  C2  UNL     1     -34.421  16.416  -1.481  1.00 20.00    -0.091 C 
HETATM    3  C5  UNL     1     -33.987  15.860  -2.764  1.00 20.00     0.263 C 
ENDROOT
BRANCH   3   4
HETATM    4  O8  UNL     1     -35.059  15.175  -3.397  1.00 20.00    -0.350 OA
BRANCH   4   5
HETATM    5  C7  UNL     1     -34.719  13.841  -3.781  1.00 20.00     0.256 C 
HETATM    6  C4  UNL     1     -33.205  13.674  -3.733  1.00 20.00     0.070 C 
BRANCH   5   7
HETATM    7  O9  UNL     1     -35.122  13.572  -5.130  1.00 20.00    -0.362 OA
BRANCH   7   8
HETATM    8  C6  UNL     1     -35.472  14.757  -5.834  1.00 20.00     0.166 C 
HETATM    9  C3  UNL     1     -34.555  14.911  -7.027  1.00 20.00     0.033 C 
ENDBRANCH   7   8
ENDBRANCH   5   7
ENDBRANCH   4   5
ENDBRANCH   3   4
TORSDOF 4
ENDMDL
MODEL 8
REMARK VINA RESULT:      -3.9     10.994     11.744
REMARK  4 active torsions:
REMARK  status: ('A' for Active; 'I' for Inactive)
REMARK    1  A    between atoms: C5_5  and  O8_8 
REMARK    2  A    between atoms: C6_6  and  O9_9 
REMARK    3  A    between atoms: C7_7  and  O8_8 
REMARK    4  A    between atoms: C7_7  and  O9_9 
ROOT
HETATM    1  C1  UNL     1     -34.107  16.542  -1.865  1.00 20.00     0.014 C 
HETATM    2  C2  UNL     1     -33.809  15.716  -2.686  1.00 20.00    -0.091 C 
HETATM    3  C5  UNL     1     -33.446  14.711  -3.685  1.00 20.00     0.263 C 
ENDROOT
BRANCH   3   4
HETATM    4  O8  UNL     1     -34.143  13.497  -3.447  1.00 20.00    -0.350 OA
BRANCH   4   5
HETATM    5  C7  UNL     1     -35.184  13.255  -4.396  1.00 20.00     0.256 C 
HETATM    6  C4  UNL     1     -34.902  14.050  -5.665  1.00 20.00     0.070 C 
BRANCH   5   7
HETATM    7  O9  UNL     1     -36.451  13.705  -3.899  1.00 20.00    -0.362 OA
BRANCH   7   8
HETATM    8  C6  UNL     1     -36.929  14.847  -4.600  1.00 20.00     0.166 C 
HETATM    9  C3  UNL     1     -37.505  15.830  -3.604  1.00 20.00     0.033 C 
ENDBRANCH   7   8
ENDBRANCH   5   7
ENDBRANCH   4   5
ENDBRANCH   3   4
TORSDOF 4
ENDMDL
MODEL 9
REMARK VINA RESULT:      -3.8     11.472     12.549
REMARK  4 active torsions:
REMARK  status: ('A' for Active; 'I' for Inactive)
REMARK    1  A    between atoms: C5_5  and  O8_8 
REMARK    2  A    between atoms: C6_6  and  O9_9 
REMARK    3  A    between atoms: C7_7  and  O8_8 
REMARK    4  A    between atoms: C7_7  and  O9_9 
ROOT
HETATM    1  C1  UNL     1     -34.467  17.375  -0.090  1.00 20.00     0.014 C 
HETATM    2  C2  UNL     1     -34.536  16.695  -1.078  1.00 20.00    -0.091 C 
HETATM    3  C5  UNL     1     -34.621  15.866  -2.281  1.00 20.00     0.263 C 
ENDROOT
BRANCH   3   4
HETATM    4  O8  UNL     1     -33.376  15.853  -2.966  1.00 20.00    -0.350 OA
BRANCH   4   5
HETATM    5  C7  UNL     1     -33.509  16.081  -4.371  1.00 20.00     0.256 C 
HETATM    6  C4  UNL     1     -33.537  17.581  -4.636  1.00 20.00     0.070 C 
BRANCH   5   7
HETATM    7  O9  UNL     1     -34.744  15.550  -4.866  1.00 20.00    -0.362 OA
BRANCH   7   8
HETATM    8  C6  UNL     1     -34.548  14.405  -5.687  1.00 20.00     0.166 C 
HETATM    9  C3  UNL     1     -34.747  13.160  -4.851  1.00 20.00     0.033 C 
ENDBRANCH   7   8
ENDBRANCH   5   7
ENDBRANCH   4   5
ENDBRANCH   3   4
TORSDOF 4
ENDMDL
