MODEL 1
REMARK VINA RESULT:      -3.3      0.000      0.000
REMARK  3 active torsions:
REMARK  status: ('A' for Active; 'I' for Inactive)
REMARK    1  A    between atoms: C3_3  and  C4_4 
REMARK    2  A    between atoms: C3_3  and  N5_5 
REMARK    3  A    between atoms: C4_4  and  O6_6 
ROOT
HETATM    1  C1  UNL     1     -32.333   7.137   2.792  1.00 20.00     0.157 C 
HETATM    2  N5  UNL     1     -32.519   6.174   3.437  1.00 20.00    -0.273 NA
HETATM    3  S7  UNL     1     -32.055   8.430   1.904  1.00 20.00    -0.055 SA
ENDROOT
BRANCH   2   4
HETATM    4  C3  UNL     1     -33.702   6.230   4.301  1.00 20.00     0.176 C 
BRANCH   4   5
HETATM    5  C4  UNL     1     -34.804   5.382   3.691  1.00 20.00     0.189 C 
BRANCH   5   6
HETATM    6  O6  UNL     1     -35.224   4.406   4.634  1.00 20.00    -0.394 OA
HETATM    7  C2  UNL     1     -34.909   4.796   5.964  1.00 20.00     0.201 C 
ENDBRANCH   5   6
ENDBRANCH   4   5
ENDBRANCH   2   4
TORSDOF 3
ENDMDL
MODEL 2
REMARK VINA RESULT:      -3.2      1.501      1.718
REMARK  3 active torsions:
REMARK  status: ('A' for Active; 'I' for Inactive)
REMARK    1  A    between atoms: C3_3  and  C4_4 
REMARK    2  A    between atoms: C3_3  and  N5_5 
REMARK    3  A    between atoms: C4_4  and  O6_6 
ROOT
HETATM    1  C1  UNL     1     -33.283   6.045   3.062  1.00 20.00     0.157 C 
HETATM    2  N5  UNL     1     -34.174   5.298   2.900  1.00 20.00    -0.273 NA
HETATM    3  S7  UNL     1     -32.061   7.048   3.256  1.00 20.00    -0.055 SA
ENDROOT
BRANCH   2   4
HETATM    4  C3  UNL     1     -35.237   5.378   3.906  1.00 20.00     0.176 C 
BRANCH   4   5
HETATM    5  C4  UNL     1     -34.995   4.323   4.970  1.00 20.00     0.189 C 
BRANCH   5   6
HETATM    6  O6  UNL     1     -35.183   4.899   6.255  1.00 20.00    -0.394 OA
HETATM    7  C2  UNL     1     -34.322   6.012   6.459  1.00 20.00     0.201 C 
ENDBRANCH   5   6
ENDBRANCH   4   5
ENDBRANCH   2   4
TORSDOF 3
ENDMDL
MODEL 3
REMARK VINA RESULT:      -3.0      3.294      4.494
REMARK  3 active torsions:
REMARK  status: ('A' for Active; 'I' for Inactive)
REMARK    1  A    between atoms: C3_3  and  C4_4 
REMARK    2  A    between atoms: C3_3  and  N5_5 
REMARK    3  A    between atoms: C4_4  and  O6_6 
ROOT
HETATM    1  C1  UNL     1     -34.263   5.639   4.749  1.00 20.00     0.157 C 
HETATM    2  N5  UNL     1     -33.838   6.499   4.072  1.00 20.00    -0.273 NA
HETATM    3  S7  UNL     1     -34.861   4.491   5.677  1.00 20.00    -0.055 SA
ENDROOT
BRANCH   2   4
HETATM    4  C3  UNL     1     -32.643   6.144   3.302  1.00 20.00     0.176 C 
BRANCH   4   5
HETATM    5  C4  UNL     1     -31.815   7.394   3.064  1.00 20.00     0.189 C 
BRANCH   5   6
HETATM    6  O6  UNL     1     -32.557   8.305   2.265  1.00 20.00    -0.394 OA
HETATM    7  C2  UNL     1     -31.828   8.701   1.111  1.00 20.00     0.201 C 
ENDBRANCH   5   6
ENDBRANCH   4   5
ENDBRANCH   2   4
TORSDOF 3
ENDMDL
MODEL 4
REMARK VINA RESULT:      -3.0      3.278      4.227
REMARK  3 active torsions:
REMARK  status: ('A' for Active; 'I' for Inactive)
REMARK    1  A    between atoms: C3_3  and  C4_4 
REMARK    2  A    between atoms: C3_3  and  N5_5 
REMARK    3  A    between atoms: C4_4  and  O6_6 
ROOT
HETATM    1  C1  UNL     1     -35.052   4.974   4.661  1.00 20.00     0.157 C 
HETATM    2  N5  UNL     1     -35.143   5.383   3.564  1.00 20.00    -0.273 NA
HETATM    3  S7  UNL     1     -34.960   4.418   6.150  1.00 20.00    -0.055 SA
ENDROOT
BRANCH   2   4
HETATM    4  C3  UNL     1     -33.865   5.647   2.897  1.00 20.00     0.176 C 
BRANCH   4   5
HETATM    5  C4  UNL     1     -33.014   6.534   3.786  1.00 20.00     0.189 C 
BRANCH   5   6
HETATM    6  O6  UNL     1     -31.847   6.930   3.079  1.00 20.00    -0.394 OA
HETATM    7  C2  UNL     1     -32.096   8.058   2.250  1.00 20.00     0.201 C 
ENDBRANCH   5   6
ENDBRANCH   4   5
ENDBRANCH   2   4
TORSDOF 3
ENDMDL
MODEL 5
REMARK VINA RESULT:      -2.9     11.523     12.013
REMARK  3 active torsions:
REMARK  status: ('A' for Active; 'I' for Inactive)
REMARK    1  A    between atoms: C3_3  and  C4_4 
REMARK    2  A    between atoms: C3_3  and  N5_5 
REMARK    3  A    between atoms: C4_4  and  O6_6 
ROOT
HETATM    1  C1  UNL     1     -34.908  13.630  -5.587  1.00 20.00     0.157 C 
HETATM    2  N5  UNL     1     -34.619  12.966  -4.663  1.00 20.00    -0.273 NA
HETATM    3  S7  UNL     1     -35.305  14.506  -6.857  1.00 20.00    -0.055 SA
ENDROOT
BRANCH   2   4
HETATM    4  C3  UNL     1     -34.270  13.713  -3.452  1.00 20.00     0.176 C 
BRANCH   4   5
HETATM    5  C4  UNL     1     -33.151  14.688  -3.773  1.00 20.00     0.189 C 
BRANCH   5   6
HETATM    6  O6  UNL     1     -33.438  15.947  -3.180  1.00 20.00    -0.394 OA
HETATM    7  C2  UNL     1     -34.587  15.880  -2.345  1.00 20.00     0.201 C 
ENDBRANCH   5   6
ENDBRANCH   4   5
ENDBRANCH   2   4
TORSDOF 3
ENDMDL
MODEL 6
REMARK VINA RESULT:      -2.9      2.756      3.520
REMARK  3 active torsions:
REMARK  status: ('A' for Active; 'I' for Inactive)
REMARK    1  A    between atoms: C3_3  and  C4_4 
REMARK    2  A    between atoms: C3_3  and  N5_5 
REMARK    3  A    between atoms: C4_4  and  O6_6 
ROOT
HETATM    1  C1  UNL     1     -34.477   5.787   6.354  1.00 20.00     0.157 C 
HETATM    2  N5  UNL     1     -35.120   4.828   6.141  1.00 20.00    -0.273 NA
HETATM    3  S7  UNL     1     -33.616   7.088   6.672  1.00 20.00    -0.055 SA
ENDROOT
BRANCH   2   4
HETATM    4  C3  UNL     1     -34.988   4.286   4.786  1.00 20.00     0.176 C 
BRANCH   4   5
HETATM    5  C4  UNL     1     -35.160   5.411   3.781  1.00 20.00     0.189 C 
BRANCH   5   6
HETATM    6  O6  UNL     1     -34.150   5.312   2.786  1.00 20.00    -0.394 OA
HETATM    7  C2  UNL     1     -33.037   6.144   3.087  1.00 20.00     0.201 C 
ENDBRANCH   5   6
ENDBRANCH   4   5
ENDBRANCH   2   4
TORSDOF 3
ENDMDL
MODEL 7
REMARK VINA RESULT:      -2.9     11.471     11.890
REMARK  3 active torsions:
REMARK  status: ('A' for Active; 'I' for Inactive)
REMARK    1  A    between atoms: C3_3  and  C4_4 
REMARK    2  A    between atoms: C3_3  and  N5_5 
REMARK    3  A    between atoms: C4_4  and  O6_6 
ROOT
HETATM    1  C1  UNL     1     -33.997  16.652  -2.595  1.00 20.00     0.157 C 
HETATM    2  N5  UNL     1     -33.581  16.641  -3.692  1.00 20.00    -0.273 NA
HETATM    3  S7  UNL     1     -34.551  16.697  -1.102  1.00 20.00    -0.055 SA
ENDROOT
BRANCH   2   4
HETATM    4  C3  UNL     1     -33.826  15.399  -4.431  1.00 20.00     0.176 C 
BRANCH   4   5
HETATM    5  C4  UNL     1     -33.153  14.248  -3.706  1.00 20.00     0.189 C 
BRANCH   5   6
HETATM    6  O6  UNL     1     -34.055  13.153  -3.620  1.00 20.00    -0.394 OA
HETATM    7  C2  UNL     1     -35.280  13.434  -4.284  1.00 20.00     0.201 C 
ENDBRANCH   5   6
ENDBRANCH   4   5
ENDBRANCH   2   4
TORSDOF 3
ENDMDL
MODEL 8
REMARK VINA RESULT:      -2.9     11.164     11.734
REMARK  3 active torsions:
REMARK  status: ('A' for Active; 'I' for Inactive)
REMARK    1  A    between atoms: C3_3  and  C4_4 
REMARK    2  A    between atoms: C3_3  and  N5_5 
REMARK    3  A    between atoms: C4_4  and  O6_6 
ROOT
HETATM    1  C1  UNL     1     -34.238  16.416  -1.858  1.00 20.00     0.157 C 
HETATM    2  N5  UNL     1     -33.924  15.926  -2.877  1.00 20.00    -0.273 NA
HETATM    3  S7  UNL     1     -34.638  17.098  -0.475  1.00 20.00    -0.055 SA
ENDROOT
BRANCH   2   4
HETATM    4  C3  UNL     1     -34.841  14.896  -3.374  1.00 20.00     0.176 C 
BRANCH   4   5
HETATM    5  C4  UNL     1     -34.076  13.598  -3.562  1.00 20.00     0.189 C 
BRANCH   5   6
HETATM    6  O6  UNL     1     -34.673  12.847  -4.609  1.00 20.00    -0.394 OA
HETATM    7  C2  UNL     1     -35.030  13.675  -5.708  1.00 20.00     0.201 C 
ENDBRANCH   5   6
ENDBRANCH   4   5
ENDBRANCH   2   4
TORSDOF 3
ENDMDL
MODEL 9
REMARK VINA RESULT:      -2.8     11.638     12.200
REMARK  3 active torsions:
REMARK  status: ('A' for Active; 'I' for Inactive)
REMARK    1  A    between atoms: C3_3  and  C4_4 
REMARK    2  A    between atoms: C3_3  and  N5_5 
REMARK    3  A    between atoms: C4_4  and  O6_6 
ROOT
HETATM    1  C1  UNL     1     -33.578  16.642  -4.034  1.00 20.00     0.157 C 
HETATM    2  N5  UNL     1     -33.532  15.961  -3.078  1.00 20.00    -0.273 NA
HETATM    3  S7  UNL     1     -33.620  17.585  -5.316  1.00 20.00    -0.055 SA
ENDROOT
BRANCH   2   4
HETATM    4  C3  UNL     1     -34.357  14.751  -3.143  1.00 20.00     0.176 C 
BRANCH   4   5
HETATM    5  C4  UNL     1     -33.577  13.655  -3.847  1.00 20.00     0.189 C 
BRANCH   5   6
HETATM    6  O6  UNL     1     -34.470  12.861  -4.616  1.00 20.00    -0.394 OA
HETATM    7  C2  UNL     1     -35.075  13.618  -5.656  1.00 20.00     0.201 C 
ENDBRANCH   5   6
ENDBRANCH   4   5
ENDBRANCH   2   4
TORSDOF 3
ENDMDL
