MODEL 1
REMARK VINA RESULT:      -3.6      0.000      0.000
REMARK  3 active torsions:
REMARK  status: ('A' for Active; 'I' for Inactive)
REMARK    1  A    between atoms: C7_7  and  C8_8 
REMARK    2  A    between atoms: C7_7  and  C9_9 
REMARK    3  A    between atoms: C9_9  and  S10_10 
ROOT
HETATM    1  C7  UNL     1     -34.637  16.274  -1.377  1.00 20.00     0.028 C 
ENDROOT
BRANCH   1   2
HETATM    2  C8  UNL     1     -34.577  17.659  -0.654  1.00 20.00    -0.050 C 
HETATM    3  C1  UNL     1     -35.438  18.743  -1.313  1.00 20.00     0.014 C 
HETATM    4  C2  UNL     1     -35.118  17.443   0.782  1.00 20.00     0.014 C 
HETATM    5  C3  UNL     1     -33.132  18.173  -0.513  1.00 20.00     0.014 C 
ENDBRANCH   1   2
BRANCH   1   6
HETATM    6  C9  UNL     1     -34.678  16.117  -2.926  1.00 20.00     0.001 C 
HETATM    7  C4  UNL     1     -34.276  14.668  -3.272  1.00 20.00     0.026 C 
HETATM    8  C5  UNL     1     -33.753  17.068  -3.687  1.00 20.00     0.026 C 
BRANCH   6   9
HETATM    9  S10 UNL     1     -36.385  16.333  -3.582  1.00 20.00    -0.164 SA
HETATM   10  C6  UNL     1     -36.722  14.598  -3.942  1.00 20.00     0.090 C 
ENDBRANCH   6   9
ENDBRANCH   1   6
TORSDOF 3
ENDMDL
MODEL 2
REMARK VINA RESULT:      -3.6      1.075      1.088
REMARK  3 active torsions:
REMARK  status: ('A' for Active; 'I' for Inactive)
REMARK    1  A    between atoms: C7_7  and  C8_8 
REMARK    2  A    between atoms: C7_7  and  C9_9 
REMARK    3  A    between atoms: C9_9  and  S10_10 
ROOT
HETATM    1  C7  UNL     1     -34.120  16.187  -1.876  1.00 20.00     0.028 C 
ENDROOT
BRANCH   1   2
HETATM    2  C8  UNL     1     -34.538  17.556  -1.246  1.00 20.00    -0.050 C 
HETATM    3  C1  UNL     1     -35.752  18.206  -1.920  1.00 20.00     0.014 C 
HETATM    4  C2  UNL     1     -34.919  17.276   0.230  1.00 20.00     0.014 C 
HETATM    5  C3  UNL     1     -33.370  18.560  -1.222  1.00 20.00     0.014 C 
ENDBRANCH   1   2
BRANCH   1   6
HETATM    6  C9  UNL     1     -34.035  15.941  -3.411  1.00 20.00     0.001 C 
HETATM    7  C4  UNL     1     -32.948  14.876  -3.667  1.00 20.00     0.026 C 
HETATM    8  C5  UNL     1     -33.697  17.182  -4.237  1.00 20.00     0.026 C 
BRANCH   6   9
HETATM    9  S10 UNL     1     -35.601  15.226  -4.068  1.00 20.00    -0.164 SA
HETATM   10  C6  UNL     1     -35.040  13.518  -4.210  1.00 20.00     0.090 C 
ENDBRANCH   6   9
ENDBRANCH   1   6
TORSDOF 3
ENDMDL
MODEL 3
REMARK VINA RESULT:      -3.6      1.678      2.372
REMARK  3 active torsions:
REMARK  status: ('A' for Active; 'I' for Inactive)
REMARK    1  A    between atoms: C7_7  and  C8_8 
REMARK    2  A    between atoms: C7_7  and  C9_9 
REMARK    3  A    between atoms: C9_9  and  S10_10 
ROOT
HETATM    1  C7  UNL     1     -35.333  15.497  -3.088  1.00 20.00     0.028 C 
ENDROOT
BRANCH   1   2
HETATM    2  C8  UNL     1     -35.016  16.830  -2.335  1.00 20.00    -0.050 C 
HETATM    3  C1  UNL     1     -33.973  17.708  -3.038  1.00 20.00     0.014 C 
HETATM    4  C2  UNL     1     -36.337  17.637  -2.270  1.00 20.00     0.014 C 
HETATM    5  C3  UNL     1     -34.574  16.580  -0.881  1.00 20.00     0.014 C 
ENDBRANCH   1   2
BRANCH   1   6
HETATM    6  C9  UNL     1     -34.332  14.801  -4.057  1.00 20.00     0.001 C 
HETATM    7  C4  UNL     1     -34.785  13.338  -4.245  1.00 20.00     0.026 C 
HETATM    8  C5  UNL     1     -32.880  14.797  -3.577  1.00 20.00     0.026 C 
BRANCH   6   9
HETATM    9  S10 UNL     1     -34.378  15.559  -5.735  1.00 20.00    -0.164 SA
HETATM   10  C6  UNL     1     -36.148  15.899  -5.793  1.00 20.00     0.090 C 
ENDBRANCH   6   9
ENDBRANCH   1   6
TORSDOF 3
ENDMDL
MODEL 4
REMARK VINA RESULT:      -3.5      2.630      5.156
REMARK  3 active torsions:
REMARK  status: ('A' for Active; 'I' for Inactive)
REMARK    1  A    between atoms: C7_7  and  C8_8 
REMARK    2  A    between atoms: C7_7  and  C9_9 
REMARK    3  A    between atoms: C9_9  and  S10_10 
ROOT
HETATM    1  C7  UNL     1     -34.074  15.887  -5.602  1.00 20.00     0.028 C 
ENDROOT
BRANCH   1   2
HETATM    2  C8  UNL     1     -35.086  15.925  -6.794  1.00 20.00    -0.050 C 
HETATM    3  C1  UNL     1     -36.556  15.977  -6.360  1.00 20.00     0.014 C 
HETATM    4  C2  UNL     1     -34.791  17.218  -7.595  1.00 20.00     0.014 C 
HETATM    5  C3  UNL     1     -34.881  14.744  -7.761  1.00 20.00     0.014 C 
ENDBRANCH   1   2
BRANCH   1   6
HETATM    6  C9  UNL     1     -34.215  14.921  -4.389  1.00 20.00     0.001 C 
HETATM    7  C4  UNL     1     -32.875  14.912  -3.624  1.00 20.00     0.026 C 
HETATM    8  C5  UNL     1     -34.566  13.480  -4.760  1.00 20.00     0.026 C 
BRANCH   6   9
HETATM    9  S10 UNL     1     -35.474  15.524  -3.187  1.00 20.00    -0.164 SA
HETATM   10  C6  UNL     1     -34.332  16.237  -1.987  1.00 20.00     0.090 C 
ENDBRANCH   6   9
ENDBRANCH   1   6
TORSDOF 3
ENDMDL
MODEL 5
REMARK VINA RESULT:      -3.5      1.581      2.891
REMARK  3 active torsions:
REMARK  status: ('A' for Active; 'I' for Inactive)
REMARK    1  A    between atoms: C7_7  and  C8_8 
REMARK    2  A    between atoms: C7_7  and  C9_9 
REMARK    3  A    between atoms: C9_9  and  S10_10 
ROOT
HETATM    1  C7  UNL     1     -35.871  15.815  -2.914  1.00 20.00     0.028 C 
ENDROOT
BRANCH   1   2
HETATM    2  C8  UNL     1     -34.468  16.474  -2.706  1.00 20.00    -0.050 C 
HETATM    3  C1  UNL     1     -34.323  17.851  -3.364  1.00 20.00     0.014 C 
HETATM    4  C2  UNL     1     -34.280  16.665  -1.179  1.00 20.00     0.014 C 
HETATM    5  C3  UNL     1     -33.325  15.559  -3.184  1.00 20.00     0.014 C 
ENDBRANCH   1   2
BRANCH   1   6
HETATM    6  C9  UNL     1     -36.227  14.929  -4.144  1.00 20.00     0.001 C 
HETATM    7  C4  UNL     1     -37.744  14.648  -4.109  1.00 20.00     0.026 C 
HETATM    8  C5  UNL     1     -35.491  13.590  -4.198  1.00 20.00     0.026 C 
BRANCH   6   9
HETATM    9  S10 UNL     1     -35.919  15.816  -5.728  1.00 20.00    -0.164 SA
HETATM   10  C6  UNL     1     -34.878  14.564  -6.502  1.00 20.00     0.090 C 
ENDBRANCH   6   9
ENDBRANCH   1   6
TORSDOF 3
ENDMDL
MODEL 6
REMARK VINA RESULT:      -3.5      1.566      4.362
REMARK  3 active torsions:
REMARK  status: ('A' for Active; 'I' for Inactive)
REMARK    1  A    between atoms: C7_7  and  C8_8 
REMARK    2  A    between atoms: C7_7  and  C9_9 
REMARK    3  A    between atoms: C9_9  and  S10_10 
ROOT
HETATM    1  C7  UNL     1     -34.443  15.585  -2.456  1.00 20.00     0.028 C 
ENDROOT
BRANCH   1   2
HETATM    2  C8  UNL     1     -34.773  14.978  -3.860  1.00 20.00    -0.050 C 
HETATM    3  C1  UNL     1     -34.516  15.938  -5.028  1.00 20.00     0.014 C 
HETATM    4  C2  UNL     1     -33.845  13.752  -4.051  1.00 20.00     0.014 C 
HETATM    5  C3  UNL     1     -36.220  14.458  -3.936  1.00 20.00     0.014 C 
ENDBRANCH   1   2
BRANCH   1   6
HETATM    6  C9  UNL     1     -34.923  16.993  -1.997  1.00 20.00     0.001 C 
HETATM    7  C4  UNL     1     -34.841  17.050  -0.457  1.00 20.00     0.026 C 
HETATM    8  C5  UNL     1     -36.351  17.347  -2.416  1.00 20.00     0.026 C 
BRANCH   6   9
HETATM    9  S10 UNL     1     -33.802  18.322  -2.607  1.00 20.00    -0.164 SA
HETATM   10  C6  UNL     1     -33.141  18.826  -1.008  1.00 20.00     0.090 C 
ENDBRANCH   6   9
ENDBRANCH   1   6
TORSDOF 3
ENDMDL
MODEL 7
REMARK VINA RESULT:      -3.4      1.663      4.218
REMARK  3 active torsions:
REMARK  status: ('A' for Active; 'I' for Inactive)
REMARK    1  A    between atoms: C7_7  and  C8_8 
REMARK    2  A    between atoms: C7_7  and  C9_9 
REMARK    3  A    between atoms: C9_9  and  S10_10 
ROOT
HETATM    1  C7  UNL     1     -34.237  16.213  -4.203  1.00 20.00     0.028 C 
ENDROOT
BRANCH   1   2
HETATM    2  C8  UNL     1     -34.598  14.711  -4.449  1.00 20.00    -0.050 C 
HETATM    3  C1  UNL     1     -35.993  14.317  -3.949  1.00 20.00     0.014 C 
HETATM    4  C2  UNL     1     -34.572  14.486  -5.982  1.00 20.00     0.014 C 
HETATM    5  C3  UNL     1     -33.551  13.760  -3.841  1.00 20.00     0.014 C 
ENDBRANCH   1   2
BRANCH   1   6
HETATM    6  C9  UNL     1     -34.688  17.007  -2.941  1.00 20.00     0.001 C 
HETATM    7  C4  UNL     1     -33.791  18.256  -2.814  1.00 20.00     0.026 C 
HETATM    8  C5  UNL     1     -34.607  16.221  -1.632  1.00 20.00     0.026 C 
BRANCH   6   9
HETATM    9  S10 UNL     1     -36.408  17.642  -3.122  1.00 20.00    -0.164 SA
HETATM   10  C6  UNL     1     -36.343  18.005  -4.887  1.00 20.00     0.090 C 
ENDBRANCH   6   9
ENDBRANCH   1   6
TORSDOF 3
ENDMDL
MODEL 8
REMARK VINA RESULT:      -3.4      2.916      4.481
REMARK  3 active torsions:
REMARK  status: ('A' for Active; 'I' for Inactive)
REMARK    1  A    between atoms: C7_7  and  C8_8 
REMARK    2  A    between atoms: C7_7  and  C9_9 
REMARK    3  A    between atoms: C9_9  and  S10_10 
ROOT
HETATM    1  C7  UNL     1     -33.937  15.569  -5.195  1.00 20.00     0.028 C 
ENDROOT
BRANCH   1   2
HETATM    2  C8  UNL     1     -34.253  14.647  -3.972  1.00 20.00    -0.050 C 
HETATM    3  C1  UNL     1     -35.277  13.545  -4.271  1.00 20.00     0.014 C 
HETATM    4  C2  UNL     1     -32.926  13.954  -3.574  1.00 20.00     0.014 C 
HETATM    5  C3  UNL     1     -34.718  15.456  -2.747  1.00 20.00     0.014 C 
ENDBRANCH   1   2
BRANCH   1   6
HETATM    6  C9  UNL     1     -35.002  15.983  -6.253  1.00 20.00     0.001 C 
HETATM    7  C4  UNL     1     -34.477  17.226  -7.001  1.00 20.00     0.026 C 
HETATM    8  C5  UNL     1     -36.378  16.316  -5.675  1.00 20.00     0.026 C 
BRANCH   6   9
HETATM    9  S10 UNL     1     -35.221  14.681  -7.538  1.00 20.00    -0.164 SA
HETATM   10  C6  UNL     1     -36.973  14.960  -7.862  1.00 20.00     0.090 C 
ENDBRANCH   6   9
ENDBRANCH   1   6
TORSDOF 3
ENDMDL
MODEL 9
REMARK VINA RESULT:      -3.4      1.739      4.354
REMARK  3 active torsions:
REMARK  status: ('A' for Active; 'I' for Inactive)
REMARK    1  A    between atoms: C7_7  and  C8_8 
REMARK    2  A    between atoms: C7_7  and  C9_9 
REMARK    3  A    between atoms: C9_9  and  S10_10 
ROOT
HETATM    1  C7  UNL     1     -35.384  15.551  -3.303  1.00 20.00     0.028 C 
ENDROOT
BRANCH   1   2
HETATM    2  C8  UNL     1     -34.316  14.819  -4.180  1.00 20.00    -0.050 C 
HETATM    3  C1  UNL     1     -32.895  14.877  -3.607  1.00 20.00     0.014 C 
HETATM    4  C2  UNL     1     -34.731  13.327  -4.245  1.00 20.00     0.014 C 
HETATM    5  C3  UNL     1     -34.303  15.342  -5.628  1.00 20.00     0.014 C 
ENDBRANCH   1   2
BRANCH   1   6
HETATM    6  C9  UNL     1     -35.136  16.932  -2.627  1.00 20.00     0.001 C 
HETATM    7  C4  UNL     1     -36.479  17.690  -2.578  1.00 20.00     0.026 C 
HETATM    8  C5  UNL     1     -34.111  17.815  -3.339  1.00 20.00     0.026 C 
BRANCH   6   9
HETATM    9  S10 UNL     1     -34.606  16.741  -0.873  1.00 20.00    -0.164 SA
HETATM   10  C6  UNL     1     -33.394  18.075  -0.845  1.00 20.00     0.090 C 
ENDBRANCH   6   9
ENDBRANCH   1   6
TORSDOF 3
ENDMDL
