MODEL 1
REMARK VINA RESULT:      -4.8      0.000      0.000
REMARK  2 active torsions:
REMARK  status: ('A' for Active; 'I' for Inactive)
REMARK    1  A    between atoms: C5_5  and  C7_7 
REMARK    2  A    between atoms: C6_6  and  O8_8 
ROOT
HETATM    1  C1  UNL     1     -34.144  16.232  -2.284  1.00 20.00     0.003 C 
HETATM    2  C2  UNL     1     -35.480  15.648  -2.738  1.00 20.00     0.014 C 
HETATM    3  C3  UNL     1     -33.668  17.337  -3.226  1.00 20.00     0.032 C 
HETATM    4  C4  UNL     1     -34.908  16.226  -5.139  1.00 20.00     0.045 C 
HETATM    5  C5  UNL     1     -35.455  15.146  -4.189  1.00 20.00     0.096 C 
HETATM    6  C6  UNL     1     -33.599  16.872  -4.678  1.00 20.00     0.118 C 
ENDROOT
BRANCH   5   7
HETATM    7  C7  UNL     1     -34.705  13.817  -4.314  1.00 20.00     0.391 C 
HETATM    8  F9  UNL     1     -35.557  12.793  -4.159  1.00 20.00    -0.171 F 
HETATM    9  F10 UNL     1     -34.132  13.726  -5.524  1.00 20.00    -0.171 F 
HETATM   10  F11 UNL     1     -33.752  13.736  -3.375  1.00 20.00    -0.171 F 
ENDBRANCH   5   7
BRANCH   6  11
HETATM   11  O8  UNL     1     -32.513  15.960  -4.820  1.00 20.00    -0.396 OA
HETATM   12  H22 UNL     1     -31.702  16.492  -4.819  1.00 20.00     0.210 HD
ENDBRANCH   6  11
TORSDOF 2
ENDMDL
MODEL 2
REMARK VINA RESULT:      -4.8      0.021      1.140
REMARK  2 active torsions:
REMARK  status: ('A' for Active; 'I' for Inactive)
REMARK    1  A    between atoms: C5_5  and  C7_7 
REMARK    2  A    between atoms: C6_6  and  O8_8 
ROOT
HETATM    1  C1  UNL     1     -34.124  16.252  -2.289  1.00 20.00     0.003 C 
HETATM    2  C2  UNL     1     -35.463  15.661  -2.726  1.00 20.00     0.014 C 
HETATM    3  C3  UNL     1     -33.663  17.355  -3.239  1.00 20.00     0.032 C 
HETATM    4  C4  UNL     1     -34.922  16.235  -5.135  1.00 20.00     0.045 C 
HETATM    5  C5  UNL     1     -35.453  15.156  -4.175  1.00 20.00     0.096 C 
HETATM    6  C6  UNL     1     -33.609  16.886  -4.691  1.00 20.00     0.118 C 
ENDROOT
BRANCH   5   7
HETATM    7  C7  UNL     1     -34.700  13.829  -4.305  1.00 20.00     0.391 C 
HETATM    8  F9  UNL     1     -33.747  13.747  -3.366  1.00 20.00    -0.171 F 
HETATM    9  F10 UNL     1     -35.551  12.802  -4.152  1.00 20.00    -0.171 F 
HETATM   10  F11 UNL     1     -34.127  13.742  -5.514  1.00 20.00    -0.171 F 
ENDBRANCH   5   7
BRANCH   6  11
HETATM   11  O8  UNL     1     -32.521  15.978  -4.842  1.00 20.00    -0.396 OA
HETATM   12  H22 UNL     1     -32.906  15.123  -5.090  1.00 20.00     0.210 HD
ENDBRANCH   6  11
TORSDOF 2
ENDMDL
MODEL 3
REMARK VINA RESULT:      -4.6      1.277      1.768
REMARK  2 active torsions:
REMARK  status: ('A' for Active; 'I' for Inactive)
REMARK    1  A    between atoms: C5_5  and  C7_7 
REMARK    2  A    between atoms: C6_6  and  O8_8 
ROOT
HETATM    1  C1  UNL     1     -34.649  14.739  -3.129  1.00 20.00     0.003 C 
HETATM    2  C2  UNL     1     -35.842  14.982  -4.051  1.00 20.00     0.014 C 
HETATM    3  C3  UNL     1     -33.837  16.015  -2.918  1.00 20.00     0.032 C 
HETATM    4  C4  UNL     1     -34.563  16.843  -5.203  1.00 20.00     0.045 C 
HETATM    5  C5  UNL     1     -35.443  15.597  -5.400  1.00 20.00     0.096 C 
HETATM    6  C6  UNL     1     -33.392  16.645  -4.236  1.00 20.00     0.118 C 
ENDROOT
BRANCH   5   7
HETATM    7  C7  UNL     1     -34.799  14.561  -6.325  1.00 20.00     0.391 C 
HETATM    8  F9  UNL     1     -35.733  13.996  -7.104  1.00 20.00    -0.171 F 
HETATM    9  F10 UNL     1     -33.881  15.151  -7.106  1.00 20.00    -0.171 F 
HETATM   10  F11 UNL     1     -34.202  13.604  -5.599  1.00 20.00    -0.171 F 
ENDBRANCH   5   7
BRANCH   6  11
HETATM   11  O8  UNL     1     -32.388  15.823  -4.826  1.00 20.00    -0.396 OA
HETATM   12  H22 UNL     1     -31.837  16.406  -5.371  1.00 20.00     0.210 HD
ENDBRANCH   6  11
TORSDOF 2
ENDMDL
MODEL 4
REMARK VINA RESULT:      -4.6      1.286      1.930
REMARK  2 active torsions:
REMARK  status: ('A' for Active; 'I' for Inactive)
REMARK    1  A    between atoms: C5_5  and  C7_7 
REMARK    2  A    between atoms: C6_6  and  O8_8 
ROOT
HETATM    1  C1  UNL     1     -34.682  14.721  -3.148  1.00 20.00     0.003 C 
HETATM    2  C2  UNL     1     -35.863  14.987  -4.079  1.00 20.00     0.014 C 
HETATM    3  C3  UNL     1     -33.858  15.986  -2.916  1.00 20.00     0.032 C 
HETATM    4  C4  UNL     1     -34.554  16.847  -5.198  1.00 20.00     0.045 C 
HETATM    5  C5  UNL     1     -35.446  15.612  -5.417  1.00 20.00     0.096 C 
HETATM    6  C6  UNL     1     -33.394  16.626  -4.223  1.00 20.00     0.118 C 
ENDROOT
BRANCH   5   7
HETATM    7  C7  UNL     1     -34.803  14.580  -6.348  1.00 20.00     0.391 C 
HETATM    8  F9  UNL     1     -34.214  13.615  -5.626  1.00 20.00    -0.171 F 
HETATM    9  F10 UNL     1     -35.740  14.025  -7.133  1.00 20.00    -0.171 F 
HETATM   10  F11 UNL     1     -33.880  15.169  -7.121  1.00 20.00    -0.171 F 
ENDBRANCH   5   7
BRANCH   6  11
HETATM   11  O8  UNL     1     -32.394  15.800  -4.812  1.00 20.00    -0.396 OA
HETATM   12  H22 UNL     1     -31.685  15.713  -4.156  1.00 20.00     0.210 HD
ENDBRANCH   6  11
TORSDOF 2
ENDMDL
MODEL 5
REMARK VINA RESULT:      -4.5      2.147      3.179
REMARK  2 active torsions:
REMARK  status: ('A' for Active; 'I' for Inactive)
REMARK    1  A    between atoms: C5_5  and  C7_7 
REMARK    2  A    between atoms: C6_6  and  O8_8 
ROOT
HETATM    1  C1  UNL     1     -34.792  13.686  -4.770  1.00 20.00     0.003 C 
HETATM    2  C2  UNL     1     -33.767  13.958  -3.671  1.00 20.00     0.014 C 
HETATM    3  C3  UNL     1     -34.480  14.484  -6.035  1.00 20.00     0.032 C 
HETATM    4  C4  UNL     1     -33.375  16.276  -4.621  1.00 20.00     0.045 C 
HETATM    5  C5  UNL     1     -33.618  15.451  -3.345  1.00 20.00     0.096 C 
HETATM    6  C6  UNL     1     -34.353  15.981  -5.762  1.00 20.00     0.118 C 
ENDROOT
BRANCH   5   7
HETATM    7  C7  UNL     1     -34.801  15.971  -2.523  1.00 20.00     0.391 C 
HETATM    8  F9  UNL     1     -34.522  15.890  -1.214  1.00 20.00    -0.171 F 
HETATM    9  F10 UNL     1     -35.049  17.251  -2.837  1.00 20.00    -0.171 F 
HETATM   10  F11 UNL     1     -35.895  15.240  -2.780  1.00 20.00    -0.171 F 
ENDBRANCH   5   7
BRANCH   6  11
HETATM   11  O8  UNL     1     -35.644  16.507  -5.466  1.00 20.00    -0.396 OA
HETATM   12  H22 UNL     1     -35.908  17.042  -6.230  1.00 20.00     0.210 HD
ENDBRANCH   6  11
TORSDOF 2
ENDMDL
MODEL 6
REMARK VINA RESULT:      -4.5      2.019      3.023
REMARK  2 active torsions:
REMARK  status: ('A' for Active; 'I' for Inactive)
REMARK    1  A    between atoms: C5_5  and  C7_7 
REMARK    2  A    between atoms: C6_6  and  O8_8 
ROOT
HETATM    1  C1  UNL     1     -36.288  15.917  -4.833  1.00 20.00     0.003 C 
HETATM    2  C2  UNL     1     -35.990  15.369  -3.439  1.00 20.00     0.014 C 
HETATM    3  C3  UNL     1     -36.184  14.825  -5.897  1.00 20.00     0.032 C 
HETATM    4  C4  UNL     1     -34.485  13.604  -4.463  1.00 20.00     0.045 C 
HETATM    5  C5  UNL     1     -34.633  14.657  -3.351  1.00 20.00     0.096 C 
HETATM    6  C6  UNL     1     -34.835  14.110  -5.865  1.00 20.00     0.118 C 
ENDROOT
BRANCH   5   7
HETATM    7  C7  UNL     1     -33.471  15.655  -3.327  1.00 20.00     0.391 C 
HETATM    8  F9  UNL     1     -33.328  16.164  -2.095  1.00 20.00    -0.171 F 
HETATM    9  F10 UNL     1     -32.332  15.041  -3.680  1.00 20.00    -0.171 F 
HETATM   10  F11 UNL     1     -33.709  16.657  -4.186  1.00 20.00    -0.171 F 
ENDBRANCH   5   7
BRANCH   6  11
HETATM   11  O8  UNL     1     -33.830  14.999  -6.343  1.00 20.00    -0.396 OA
HETATM   12  H22 UNL     1     -34.074  15.885  -6.035  1.00 20.00     0.210 HD
ENDBRANCH   6  11
TORSDOF 2
ENDMDL
MODEL 7
REMARK VINA RESULT:      -4.5      2.240      3.311
REMARK  2 active torsions:
REMARK  status: ('A' for Active; 'I' for Inactive)
REMARK    1  A    between atoms: C5_5  and  C7_7 
REMARK    2  A    between atoms: C6_6  and  O8_8 
ROOT
HETATM    1  C1  UNL     1     -36.103  14.856  -3.632  1.00 20.00     0.003 C 
HETATM    2  C2  UNL     1     -35.179  15.545  -2.630  1.00 20.00     0.014 C 
HETATM    3  C3  UNL     1     -35.517  13.530  -4.113  1.00 20.00     0.032 C 
HETATM    4  C4  UNL     1     -33.179  14.432  -3.720  1.00 20.00     0.045 C 
HETATM    5  C5  UNL     1     -33.755  15.747  -3.166  1.00 20.00     0.096 C 
HETATM    6  C6  UNL     1     -34.110  13.690  -4.684  1.00 20.00     0.118 C 
ENDROOT
BRANCH   5   7
HETATM    7  C7  UNL     1     -33.690  16.892  -4.180  1.00 20.00     0.391 C 
HETATM    8  F9  UNL     1     -34.872  17.026  -4.798  1.00 20.00    -0.171 F 
HETATM    9  F10 UNL     1     -33.395  18.042  -3.554  1.00 20.00    -0.171 F 
HETATM   10  F11 UNL     1     -32.745  16.641  -5.097  1.00 20.00    -0.171 F 
ENDBRANCH   5   7
BRANCH   6  11
HETATM   11  O8  UNL     1     -34.192  14.375  -5.930  1.00 20.00    -0.396 OA
HETATM   12  H22 UNL     1     -35.136  14.467  -6.134  1.00 20.00     0.210 HD
ENDBRANCH   6  11
TORSDOF 2
ENDMDL
MODEL 8
REMARK VINA RESULT:      -4.5      2.423      3.162
REMARK  2 active torsions:
REMARK  status: ('A' for Active; 'I' for Inactive)
REMARK    1  A    between atoms: C5_5  and  C7_7 
REMARK    2  A    between atoms: C6_6  and  O8_8 
ROOT
HETATM    1  C1  UNL     1     -33.822  15.083  -3.142  1.00 20.00     0.003 C 
HETATM    2  C2  UNL     1     -34.356  16.141  -4.106  1.00 20.00     0.014 C 
HETATM    3  C3  UNL     1     -33.345  13.838  -3.888  1.00 20.00     0.032 C 
HETATM    4  C4  UNL     1     -35.019  14.314  -5.733  1.00 20.00     0.045 C 
HETATM    5  C5  UNL     1     -35.460  15.610  -5.030  1.00 20.00     0.096 C 
HETATM    6  C6  UNL     1     -34.425  13.257  -4.799  1.00 20.00     0.118 C 
ENDROOT
BRANCH   5   7
HETATM    7  C7  UNL     1     -36.791  15.455  -4.289  1.00 20.00     0.391 C 
HETATM    8  F9  UNL     1     -36.571  15.068  -3.025  1.00 20.00    -0.171 F 
HETATM    9  F10 UNL     1     -37.449  16.624  -4.278  1.00 20.00    -0.171 F 
HETATM   10  F11 UNL     1     -37.552  14.534  -4.899  1.00 20.00    -0.171 F 
ENDBRANCH   5   7
BRANCH   6  11
HETATM   11  O8  UNL     1     -35.443  12.671  -3.992  1.00 20.00    -0.396 OA
HETATM   12  H22 UNL     1     -34.991  12.148  -3.312  1.00 20.00     0.210 HD
ENDBRANCH   6  11
TORSDOF 2
ENDMDL
MODEL 9
REMARK VINA RESULT:      -4.5      2.082      3.402
REMARK  2 active torsions:
REMARK  status: ('A' for Active; 'I' for Inactive)
REMARK    1  A    between atoms: C5_5  and  C7_7 
REMARK    2  A    between atoms: C6_6  and  O8_8 
ROOT
HETATM    1  C1  UNL     1     -34.087  15.201  -5.762  1.00 20.00     0.003 C 
HETATM    2  C2  UNL     1     -34.787  16.419  -5.161  1.00 20.00     0.014 C 
HETATM    3  C3  UNL     1     -34.956  13.949  -5.655  1.00 20.00     0.032 C 
HETATM    4  C4  UNL     1     -36.054  14.899  -3.576  1.00 20.00     0.045 C 
HETATM    5  C5  UNL     1     -35.239  16.198  -3.711  1.00 20.00     0.096 C 
HETATM    6  C6  UNL     1     -35.403  13.673  -4.222  1.00 20.00     0.118 C 
ENDROOT
BRANCH   5   7
HETATM    7  C7  UNL     1     -34.059  16.256  -2.736  1.00 20.00     0.391 C 
HETATM    8  F9  UNL     1     -33.012  15.588  -3.241  1.00 20.00    -0.171 F 
HETATM    9  F10 UNL     1     -33.700  17.532  -2.527  1.00 20.00    -0.171 F 
HETATM   10  F11 UNL     1     -34.403  15.704  -1.564  1.00 20.00    -0.171 F 
ENDBRANCH   5   7
BRANCH   6  11
HETATM   11  O8  UNL     1     -34.277  13.243  -3.461  1.00 20.00    -0.396 OA
HETATM   12  H22 UNL     1     -33.563  13.873  -3.643  1.00 20.00     0.210 HD
ENDBRANCH   6  11
TORSDOF 2
ENDMDL
