MODEL 1
REMARK VINA RESULT:      -4.4      0.000      0.000
REMARK  2 active torsions:
REMARK  status: ('A' for Active; 'I' for Inactive)
REMARK    1  A    between atoms: C6_6  and  C7_7 
REMARK    2  A    between atoms: C6_6  and  C8_8 
ROOT
HETATM    1  C1  UNL     1     -34.528  13.708  -4.319  1.00 20.00     0.068 C 
HETATM    2  C4  UNL     1     -32.489  14.816  -3.565  1.00 20.00     0.031 C 
HETATM    3  C5  UNL     1     -33.895  15.859  -5.347  1.00 20.00     0.031 C 
HETATM    4  C8  UNL     1     -33.938  15.039  -4.049  1.00 20.00     0.042 C 
HETATM    5  N9  UNL     1     -34.980  12.661  -4.531  1.00 20.00    -0.196 NA
ENDROOT
BRANCH   4   6
HETATM    6  C6  UNL     1     -34.717  15.773  -2.921  1.00 20.00     0.027 C 
BRANCH   6   7
HETATM    7  C7  UNL     1     -33.928  16.690  -1.956  1.00 20.00    -0.021 C 
HETATM    8  C2  UNL     1     -34.636  16.720  -0.596  1.00 20.00     0.009 C 
HETATM    9  C3  UNL     1     -33.758  18.122  -2.464  1.00 20.00     0.009 C 
ENDBRANCH   6   7
ENDBRANCH   4   6
TORSDOF 2
ENDMDL
MODEL 2
REMARK VINA RESULT:      -4.1     10.766     11.604
REMARK  2 active torsions:
REMARK  status: ('A' for Active; 'I' for Inactive)
REMARK    1  A    between atoms: C6_6  and  C7_7 
REMARK    2  A    between atoms: C6_6  and  C8_8 
ROOT
HETATM    1  C1  UNL     1     -32.273   8.041   2.128  1.00 20.00     0.068 C 
HETATM    2  C4  UNL     1     -31.830   5.747   2.829  1.00 20.00     0.031 C 
HETATM    3  C5  UNL     1     -31.305   7.648   4.362  1.00 20.00     0.031 C 
HETATM    4  C8  UNL     1     -32.295   7.141   3.304  1.00 20.00     0.042 C 
HETATM    5  N9  UNL     1     -32.249   8.740   1.202  1.00 20.00    -0.196 NA
ENDROOT
BRANCH   4   6
HETATM    6  C6  UNL     1     -33.737   7.003   3.870  1.00 20.00     0.027 C 
BRANCH   6   7
HETATM    7  C7  UNL     1     -34.055   5.803   4.793  1.00 20.00    -0.021 C 
HETATM    8  C2  UNL     1     -35.331   5.109   4.297  1.00 20.00     0.009 C 
HETATM    9  C3  UNL     1     -34.231   6.182   6.264  1.00 20.00     0.009 C 
ENDBRANCH   6   7
ENDBRANCH   4   6
TORSDOF 2
ENDMDL
MODEL 3
REMARK VINA RESULT:      -4.1      1.423      2.057
REMARK  2 active torsions:
REMARK  status: ('A' for Active; 'I' for Inactive)
REMARK    1  A    between atoms: C6_6  and  C7_7 
REMARK    2  A    between atoms: C6_6  and  C8_8 
ROOT
HETATM    1  C1  UNL     1     -36.369  14.443  -3.994  1.00 20.00     0.068 C 
HETATM    2  C4  UNL     1     -34.376  13.171  -4.597  1.00 20.00     0.031 C 
HETATM    3  C5  UNL     1     -34.791  15.411  -5.624  1.00 20.00     0.031 C 
HETATM    4  C8  UNL     1     -34.935  14.587  -4.336  1.00 20.00     0.042 C 
HETATM    5  N9  UNL     1     -37.492  14.320  -3.731  1.00 20.00    -0.196 NA
ENDROOT
BRANCH   4   6
HETATM    6  C6  UNL     1     -34.142  15.209  -3.152  1.00 20.00     0.027 C 
BRANCH   6   7
HETATM    7  C7  UNL     1     -34.681  16.508  -2.507  1.00 20.00    -0.021 C 
HETATM    8  C2  UNL     1     -33.841  17.698  -2.988  1.00 20.00     0.009 C 
HETATM    9  C3  UNL     1     -34.684  16.484  -0.977  1.00 20.00     0.009 C 
ENDBRANCH   6   7
ENDBRANCH   4   6
TORSDOF 2
ENDMDL
MODEL 4
REMARK VINA RESULT:      -4.0      1.343      1.973
REMARK  2 active torsions:
REMARK  status: ('A' for Active; 'I' for Inactive)
REMARK    1  A    between atoms: C6_6  and  C7_7 
REMARK    2  A    between atoms: C6_6  and  C8_8 
ROOT
HETATM    1  C1  UNL     1     -34.219  15.254  -5.361  1.00 20.00     0.068 C 
HETATM    2  C4  UNL     1     -35.216  13.362  -4.187  1.00 20.00     0.031 C 
HETATM    3  C5  UNL     1     -32.915  14.132  -3.594  1.00 20.00     0.031 C 
HETATM    4  C8  UNL     1     -34.309  14.602  -4.034  1.00 20.00     0.042 C 
HETATM    5  N9  UNL     1     -34.152  15.755  -6.405  1.00 20.00    -0.196 NA
ENDROOT
BRANCH   4   6
HETATM    6  C6  UNL     1     -34.961  15.554  -2.992  1.00 20.00     0.027 C 
BRANCH   6   7
HETATM    7  C7  UNL     1     -34.037  16.454  -2.137  1.00 20.00    -0.021 C 
HETATM    8  C2  UNL     1     -34.644  16.617  -0.738  1.00 20.00     0.009 C 
HETATM    9  C3  UNL     1     -33.793  17.838  -2.740  1.00 20.00     0.009 C 
ENDBRANCH   6   7
ENDBRANCH   4   6
TORSDOF 2
ENDMDL
MODEL 5
REMARK VINA RESULT:      -4.0      1.067      2.112
REMARK  2 active torsions:
REMARK  status: ('A' for Active; 'I' for Inactive)
REMARK    1  A    between atoms: C6_6  and  C7_7 
REMARK    2  A    between atoms: C6_6  and  C8_8 
ROOT
HETATM    1  C1  UNL     1     -35.045  13.687  -4.342  1.00 20.00     0.068 C 
HETATM    2  C4  UNL     1     -35.252  15.973  -5.170  1.00 20.00     0.031 C 
HETATM    3  C5  UNL     1     -36.839  15.119  -3.440  1.00 20.00     0.031 C 
HETATM    4  C8  UNL     1     -35.383  15.068  -3.926  1.00 20.00     0.042 C 
HETATM    5  N9  UNL     1     -34.781  12.608  -4.678  1.00 20.00    -0.196 NA
ENDROOT
BRANCH   4   6
HETATM    6  C6  UNL     1     -34.389  15.581  -2.846  1.00 20.00     0.027 C 
BRANCH   6   7
HETATM    7  C7  UNL     1     -34.744  16.873  -2.072  1.00 20.00    -0.021 C 
HETATM    8  C2  UNL     1     -33.790  17.996  -2.499  1.00 20.00     0.009 C 
HETATM    9  C3  UNL     1     -34.686  16.718  -0.552  1.00 20.00     0.009 C 
ENDBRANCH   6   7
ENDBRANCH   4   6
TORSDOF 2
ENDMDL
MODEL 6
REMARK VINA RESULT:      -3.9      1.474      3.573
REMARK  2 active torsions:
REMARK  status: ('A' for Active; 'I' for Inactive)
REMARK    1  A    between atoms: C6_6  and  C7_7 
REMARK    2  A    between atoms: C6_6  and  C8_8 
ROOT
HETATM    1  C1  UNL     1     -34.772  13.758  -4.147  1.00 20.00     0.068 C 
HETATM    2  C4  UNL     1     -35.162  15.616  -2.615  1.00 20.00     0.031 C 
HETATM    3  C5  UNL     1     -32.944  15.361  -3.734  1.00 20.00     0.031 C 
HETATM    4  C8  UNL     1     -34.458  15.187  -3.920  1.00 20.00     0.042 C 
HETATM    5  N9  UNL     1     -35.021  12.637  -4.313  1.00 20.00    -0.196 NA
ENDROOT
BRANCH   4   6
HETATM    6  C6  UNL     1     -35.009  16.066  -5.079  1.00 20.00     0.027 C 
BRANCH   6   7
HETATM    7  C7  UNL     1     -34.212  16.123  -6.404  1.00 20.00    -0.021 C 
HETATM    8  C2  UNL     1     -34.397  17.504  -7.046  1.00 20.00     0.009 C 
HETATM    9  C3  UNL     1     -34.610  15.045  -7.412  1.00 20.00     0.009 C 
ENDBRANCH   6   7
ENDBRANCH   4   6
TORSDOF 2
ENDMDL
MODEL 7
REMARK VINA RESULT:      -3.8      1.449      2.505
REMARK  2 active torsions:
REMARK  status: ('A' for Active; 'I' for Inactive)
REMARK    1  A    between atoms: C6_6  and  C7_7 
REMARK    2  A    between atoms: C6_6  and  C8_8 
ROOT
HETATM    1  C1  UNL     1     -34.826  13.744  -5.161  1.00 20.00     0.068 C 
HETATM    2  C4  UNL     1     -34.462  14.904  -7.277  1.00 20.00     0.031 C 
HETATM    3  C5  UNL     1     -36.281  15.650  -5.737  1.00 20.00     0.031 C 
HETATM    4  C8  UNL     1     -34.856  15.082  -5.795  1.00 20.00     0.042 C 
HETATM    5  N9  UNL     1     -34.803  12.691  -4.675  1.00 20.00    -0.196 NA
ENDROOT
BRANCH   4   6
HETATM    6  C6  UNL     1     -33.821  16.034  -5.131  1.00 20.00     0.027 C 
BRANCH   6   7
HETATM    7  C7  UNL     1     -34.261  16.855  -3.896  1.00 20.00    -0.021 C 
HETATM    8  C2  UNL     1     -33.738  18.291  -4.031  1.00 20.00     0.009 C 
HETATM    9  C3  UNL     1     -33.787  16.273  -2.564  1.00 20.00     0.009 C 
ENDBRANCH   6   7
ENDBRANCH   4   6
TORSDOF 2
ENDMDL
MODEL 8
REMARK VINA RESULT:      -3.7      1.916      3.775
REMARK  2 active torsions:
REMARK  status: ('A' for Active; 'I' for Inactive)
REMARK    1  A    between atoms: C6_6  and  C7_7 
REMARK    2  A    between atoms: C6_6  and  C8_8 
ROOT
HETATM    1  C1  UNL     1     -36.492  14.617  -3.744  1.00 20.00     0.068 C 
HETATM    2  C4  UNL     1     -34.846  15.763  -2.354  1.00 20.00     0.031 C 
HETATM    3  C5  UNL     1     -34.194  13.726  -3.644  1.00 20.00     0.031 C 
HETATM    4  C8  UNL     1     -35.061  14.993  -3.675  1.00 20.00     0.042 C 
HETATM    5  N9  UNL     1     -37.613  14.324  -3.787  1.00 20.00    -0.196 NA
ENDROOT
BRANCH   4   6
HETATM    6  C6  UNL     1     -34.678  15.935  -4.851  1.00 20.00     0.027 C 
BRANCH   6   7
HETATM    7  C7  UNL     1     -35.373  15.727  -6.218  1.00 20.00    -0.021 C 
HETATM    8  C2  UNL     1     -34.435  14.945  -7.148  1.00 20.00     0.009 C 
HETATM    9  C3  UNL     1     -35.788  17.028  -6.906  1.00 20.00     0.009 C 
ENDBRANCH   6   7
ENDBRANCH   4   6
TORSDOF 2
ENDMDL
MODEL 9
REMARK VINA RESULT:      -3.7      2.021      2.651
REMARK  2 active torsions:
REMARK  status: ('A' for Active; 'I' for Inactive)
REMARK    1  A    between atoms: C6_6  and  C7_7 
REMARK    2  A    between atoms: C6_6  and  C8_8 
ROOT
HETATM    1  C1  UNL     1     -37.238  14.571  -4.124  1.00 20.00     0.068 C 
HETATM    2  C4  UNL     1     -35.218  13.292  -4.611  1.00 20.00     0.031 C 
HETATM    3  C5  UNL     1     -36.154  14.855  -6.321  1.00 20.00     0.031 C 
HETATM    4  C8  UNL     1     -35.931  14.646  -4.816  1.00 20.00     0.042 C 
HETATM    5  N9  UNL     1     -38.262  14.500  -3.582  1.00 20.00    -0.196 NA
ENDROOT
BRANCH   4   6
HETATM    6  C6  UNL     1     -35.040  15.761  -4.197  1.00 20.00     0.027 C 
BRANCH   6   7
HETATM    7  C7  UNL     1     -34.061  15.376  -3.063  1.00 20.00    -0.021 C 
HETATM    8  C2  UNL     1     -34.159  16.414  -1.937  1.00 20.00     0.009 C 
HETATM    9  C3  UNL     1     -32.604  15.265  -3.514  1.00 20.00     0.009 C 
ENDBRANCH   6   7
ENDBRANCH   4   6
TORSDOF 2
ENDMDL
