MODEL 1
REMARK VINA RESULT:      -5.1      0.000      0.000
REMARK  3 active torsions:
REMARK  status: ('A' for Active; 'I' for Inactive)
REMARK    1  A    between atoms: C3_3  and  C4_4 
REMARK    2  A    between atoms: C5_5  and  C8_8 
REMARK    3  A    between atoms: C6_6  and  C8_8 
ROOT
HETATM    1  C4  UNL     1     -32.973   5.868   3.661  1.00 20.00    -0.004 C 
HETATM    2  C6  UNL     1     -34.234   6.165   4.011  1.00 20.00    -0.019 C 
ENDROOT
BRANCH   2   3
HETATM    3  C8  UNL     1     -34.986   5.451   5.109  1.00 20.00     0.026 C 
HETATM    4  C7  UNL     1     -34.904   3.937   4.902  1.00 20.00     0.018 C 
BRANCH   3   5
HETATM    5  C5  UNL     1     -34.428   5.821   6.461  1.00 20.00    -0.029 C 
HETATM    6  C2  UNL     1     -33.806   6.977   6.722  1.00 20.00     0.007 C 
ENDBRANCH   3   5
ENDBRANCH   2   3
BRANCH   1   7
HETATM    7  C3  UNL     1     -32.262   6.558   2.610  1.00 20.00    -0.011 C 
HETATM    8  C1  UNL     1     -32.188   7.891   2.525  1.00 20.00     0.011 C 
ENDBRANCH   1   7
TORSDOF 3
ENDMDL
MODEL 2
REMARK VINA RESULT:      -5.0      0.879      2.119
REMARK  3 active torsions:
REMARK  status: ('A' for Active; 'I' for Inactive)
REMARK    1  A    between atoms: C3_3  and  C4_4 
REMARK    2  A    between atoms: C5_5  and  C8_8 
REMARK    3  A    between atoms: C6_6  and  C8_8 
ROOT
HETATM    1  C4  UNL     1     -32.200   7.105   3.340  1.00 20.00    -0.004 C 
HETATM    2  C6  UNL     1     -33.401   6.652   3.730  1.00 20.00    -0.019 C 
ENDROOT
BRANCH   2   3
HETATM    3  C8  UNL     1     -33.634   5.918   5.030  1.00 20.00     0.026 C 
HETATM    4  C7  UNL     1     -33.728   6.916   6.186  1.00 20.00     0.018 C 
BRANCH   3   5
HETATM    5  C5  UNL     1     -34.894   5.092   4.954  1.00 20.00    -0.029 C 
HETATM    6  C2  UNL     1     -35.080   3.949   5.627  1.00 20.00     0.007 C 
ENDBRANCH   3   5
ENDBRANCH   2   3
BRANCH   1   7
HETATM    7  C3  UNL     1     -31.988   7.806   2.095  1.00 20.00    -0.011 C 
HETATM    8  C1  UNL     1     -32.337   9.083   1.903  1.00 20.00     0.011 C 
ENDBRANCH   1   7
TORSDOF 3
ENDMDL
MODEL 3
REMARK VINA RESULT:      -4.5      1.299      4.488
REMARK  3 active torsions:
REMARK  status: ('A' for Active; 'I' for Inactive)
REMARK    1  A    between atoms: C3_3  and  C4_4 
REMARK    2  A    between atoms: C5_5  and  C8_8 
REMARK    3  A    between atoms: C6_6  and  C8_8 
ROOT
HETATM    1  C4  UNL     1     -34.095   6.218   4.319  1.00 20.00    -0.004 C 
HETATM    2  C6  UNL     1     -33.216   6.417   3.325  1.00 20.00    -0.019 C 
ENDROOT
BRANCH   2   3
HETATM    3  C8  UNL     1     -32.412   7.685   3.163  1.00 20.00     0.026 C 
HETATM    4  C7  UNL     1     -31.147   7.618   4.020  1.00 20.00     0.018 C 
BRANCH   3   5
HETATM    5  C5  UNL     1     -32.047   7.901   1.715  1.00 20.00    -0.029 C 
HETATM    6  C2  UNL     1     -32.132   9.082   1.091  1.00 20.00     0.007 C 
ENDBRANCH   3   5
ENDBRANCH   2   3
BRANCH   1   7
HETATM    7  C3  UNL     1     -34.859   5.001   4.466  1.00 20.00    -0.011 C 
HETATM    8  C1  UNL     1     -34.921   4.305   5.606  1.00 20.00     0.011 C 
ENDBRANCH   1   7
TORSDOF 3
ENDMDL
MODEL 4
REMARK VINA RESULT:      -4.2      1.282      4.235
REMARK  3 active torsions:
REMARK  status: ('A' for Active; 'I' for Inactive)
REMARK    1  A    between atoms: C3_3  and  C4_4 
REMARK    2  A    between atoms: C5_5  and  C8_8 
REMARK    3  A    between atoms: C6_6  and  C8_8 
ROOT
HETATM    1  C4  UNL     1     -34.077   5.441   4.229  1.00 20.00    -0.004 C 
HETATM    2  C6  UNL     1     -33.338   6.561   4.237  1.00 20.00    -0.019 C 
ENDROOT
BRANCH   2   3
HETATM    3  C8  UNL     1     -32.201   6.817   3.275  1.00 20.00     0.026 C 
HETATM    4  C7  UNL     1     -32.175   5.735   2.194  1.00 20.00     0.018 C 
BRANCH   3   5
HETATM    5  C5  UNL     1     -32.339   8.179   2.642  1.00 20.00    -0.029 C 
HETATM    6  C2  UNL     1     -31.910   8.477   1.409  1.00 20.00     0.007 C 
ENDBRANCH   3   5
ENDBRANCH   2   3
BRANCH   1   7
HETATM    7  C3  UNL     1     -35.163   5.206   5.153  1.00 20.00    -0.011 C 
HETATM    8  C1  UNL     1     -35.112   4.293   6.128  1.00 20.00     0.011 C 
ENDBRANCH   1   7
TORSDOF 3
ENDMDL
MODEL 5
REMARK VINA RESULT:      -4.1     11.563     12.418
REMARK  3 active torsions:
REMARK  status: ('A' for Active; 'I' for Inactive)
REMARK    1  A    between atoms: C3_3  and  C4_4 
REMARK    2  A    between atoms: C5_5  and  C8_8 
REMARK    3  A    between atoms: C6_6  and  C8_8 
ROOT
HETATM    1  C4  UNL     1     -34.725  16.309  -1.349  1.00 20.00    -0.004 C 
HETATM    2  C6  UNL     1     -33.813  16.408  -2.327  1.00 20.00    -0.019 C 
ENDROOT
BRANCH   2   3
HETATM    3  C8  UNL     1     -33.818  15.540  -3.564  1.00 20.00     0.026 C 
HETATM    4  C7  UNL     1     -32.527  14.722  -3.637  1.00 20.00     0.018 C 
BRANCH   3   5
HETATM    5  C5  UNL     1     -35.015  14.622  -3.563  1.00 20.00    -0.029 C 
HETATM    6  C2  UNL     1     -35.034  13.420  -4.152  1.00 20.00     0.007 C 
ENDBRANCH   3   5
ENDBRANCH   2   3
BRANCH   1   7
HETATM    7  C3  UNL     1     -34.711  17.144  -0.170  1.00 20.00    -0.011 C 
HETATM    8  C1  UNL     1     -33.790  18.088   0.051  1.00 20.00     0.011 C 
ENDBRANCH   1   7
TORSDOF 3
ENDMDL
MODEL 6
REMARK VINA RESULT:      -4.0     11.486     12.899
REMARK  3 active torsions:
REMARK  status: ('A' for Active; 'I' for Inactive)
REMARK    1  A    between atoms: C3_3  and  C4_4 
REMARK    2  A    between atoms: C5_5  and  C8_8 
REMARK    3  A    between atoms: C6_6  and  C8_8 
ROOT
HETATM    1  C4  UNL     1     -34.690  15.891  -2.046  1.00 20.00    -0.004 C 
HETATM    2  C6  UNL     1     -33.680  15.788  -2.924  1.00 20.00    -0.019 C 
ENDROOT
BRANCH   2   3
HETATM    3  C8  UNL     1     -33.712  14.879  -4.130  1.00 20.00     0.026 C 
HETATM    4  C7  UNL     1     -34.589  13.658  -3.843  1.00 20.00     0.018 C 
BRANCH   3   5
HETATM    5  C5  UNL     1     -34.230  15.618  -5.338  1.00 20.00    -0.029 C 
HETATM    6  C2  UNL     1     -34.395  15.057  -6.543  1.00 20.00     0.007 C 
ENDBRANCH   3   5
ENDBRANCH   2   3
BRANCH   1   7
HETATM    7  C3  UNL     1     -34.650  16.765  -0.897  1.00 20.00    -0.011 C 
HETATM    8  C1  UNL     1     -33.684  17.667  -0.693  1.00 20.00     0.011 C 
ENDBRANCH   1   7
TORSDOF 3
ENDMDL
MODEL 7
REMARK VINA RESULT:      -3.8     11.942     13.104
REMARK  3 active torsions:
REMARK  status: ('A' for Active; 'I' for Inactive)
REMARK    1  A    between atoms: C3_3  and  C4_4 
REMARK    2  A    between atoms: C5_5  and  C8_8 
REMARK    3  A    between atoms: C6_6  and  C8_8 
ROOT
HETATM    1  C4  UNL     1     -34.624  16.269  -1.469  1.00 20.00    -0.004 C 
HETATM    2  C6  UNL     1     -33.618  16.350  -2.354  1.00 20.00    -0.019 C 
ENDROOT
BRANCH   2   3
HETATM    3  C8  UNL     1     -33.513  15.474  -3.580  1.00 20.00     0.026 C 
HETATM    4  C7  UNL     1     -34.768  14.610  -3.717  1.00 20.00     0.018 C 
BRANCH   3   5
HETATM    5  C5  UNL     1     -33.324  16.315  -4.818  1.00 20.00    -0.029 C 
HETATM    6  C2  UNL     1     -33.658  17.609  -4.900  1.00 20.00     0.007 C 
ENDBRANCH   3   5
ENDBRANCH   2   3
BRANCH   1   7
HETATM    7  C3  UNL     1     -34.716  17.112  -0.300  1.00 20.00    -0.011 C 
HETATM    8  C1  UNL     1     -33.836  18.079  -0.020  1.00 20.00     0.011 C 
ENDBRANCH   1   7
TORSDOF 3
ENDMDL
MODEL 8
REMARK VINA RESULT:      -3.8     11.576     12.405
REMARK  3 active torsions:
REMARK  status: ('A' for Active; 'I' for Inactive)
REMARK    1  A    between atoms: C3_3  and  C4_4 
REMARK    2  A    between atoms: C5_5  and  C8_8 
REMARK    3  A    between atoms: C6_6  and  C8_8 
ROOT
HETATM    1  C4  UNL     1     -35.465  15.236  -3.267  1.00 20.00    -0.004 C 
HETATM    2  C6  UNL     1     -34.221  15.489  -2.831  1.00 20.00    -0.019 C 
ENDROOT
BRANCH   2   3
HETATM    3  C8  UNL     1     -33.868  16.663  -1.948  1.00 20.00     0.026 C 
HETATM    4  C7  UNL     1     -34.061  17.972  -2.715  1.00 20.00     0.018 C 
BRANCH   3   5
HETATM    5  C5  UNL     1     -34.716  16.662  -0.701  1.00 20.00    -0.029 C 
HETATM    6  C2  UNL     1     -34.637  17.595   0.256  1.00 20.00     0.007 C 
ENDBRANCH   3   5
ENDBRANCH   2   3
BRANCH   1   7
HETATM    7  C3  UNL     1     -35.792  14.110  -4.110  1.00 20.00    -0.011 C 
HETATM    8  C1  UNL     1     -34.904  13.173  -4.461  1.00 20.00     0.011 C 
ENDBRANCH   1   7
TORSDOF 3
ENDMDL
MODEL 9
REMARK VINA RESULT:      -3.8     11.491     12.460
REMARK  3 active torsions:
REMARK  status: ('A' for Active; 'I' for Inactive)
REMARK    1  A    between atoms: C3_3  and  C4_4 
REMARK    2  A    between atoms: C5_5  and  C8_8 
REMARK    3  A    between atoms: C6_6  and  C8_8 
ROOT
HETATM    1  C4  UNL     1     -34.624  16.630  -1.152  1.00 20.00    -0.004 C 
HETATM    2  C6  UNL     1     -34.276  16.054  -2.313  1.00 20.00    -0.019 C 
ENDROOT
BRANCH   2   3
HETATM    3  C8  UNL     1     -35.120  15.018  -3.017  1.00 20.00     0.026 C 
HETATM    4  C7  UNL     1     -35.950  15.678  -4.119  1.00 20.00     0.018 C 
BRANCH   3   5
HETATM    5  C5  UNL     1     -34.250  13.933  -3.603  1.00 20.00    -0.029 C 
HETATM    6  C2  UNL     1     -34.547  13.260  -4.721  1.00 20.00     0.007 C 
ENDBRANCH   3   5
ENDBRANCH   2   3
BRANCH   1   7
HETATM    7  C3  UNL     1     -33.810  17.621  -0.487  1.00 20.00    -0.011 C 
HETATM    8  C1  UNL     1     -34.119  18.147   0.703  1.00 20.00     0.011 C 
ENDBRANCH   1   7
TORSDOF 3
ENDMDL
