MODEL 1
REMARK VINA RESULT:      -5.2      0.000      0.000
REMARK  5 active torsions:
REMARK  status: ('A' for Active; 'I' for Inactive)
REMARK    1  A    between atoms: C1_1  and  C9_9 
REMARK    2  A    between atoms: C6_6  and  C7_7 
REMARK    3  A    between atoms: C6_6  and  C8_8 
REMARK    4  A    between atoms: C7_7  and  C9_9 
REMARK    5  A    between atoms: C8_8  and  C10_10 
ROOT
HETATM    1  C7  UNL     1     -33.342   6.623   4.299  1.00 20.00     0.011 C 
ENDROOT
BRANCH   1   2
HETATM    2  C6  UNL     1     -32.207   6.515   3.273  1.00 20.00     0.001 C 
BRANCH   2   3
HETATM    3  C8  UNL     1     -31.652   7.901   2.921  1.00 20.00     0.004 C 
BRANCH   3   4
HETATM    4  C10 UNL     1     -32.381   8.573   1.743  1.00 20.00    -0.023 C 
HETATM    5  C4  UNL     1     -32.746  10.029   2.035  1.00 20.00     0.009 C 
HETATM    6  C5  UNL     1     -31.511   8.501   0.486  1.00 20.00     0.009 C 
ENDBRANCH   3   4
ENDBRANCH   2   3
ENDBRANCH   1   2
BRANCH   1   7
HETATM    7  C9  UNL     1     -34.586   5.782   3.969  1.00 20.00     0.051 C 
HETATM    8  C3  UNL     1     -34.497   5.131   2.589  1.00 20.00     0.018 C 
BRANCH   7   9
HETATM    9  C1  UNL     1     -34.874   4.745   5.057  1.00 20.00     0.126 C 
HETATM   10  C2  UNL     1     -34.731   5.195   6.489  1.00 20.00     0.091 C 
HETATM   11  O11 UNL     1     -35.226   3.595   4.795  1.00 20.00    -0.298 OA
ENDBRANCH   7   9
ENDBRANCH   1   7
TORSDOF 5
ENDMDL
MODEL 2
REMARK VINA RESULT:      -5.1      2.312      5.188
REMARK  5 active torsions:
REMARK  status: ('A' for Active; 'I' for Inactive)
REMARK    1  A    between atoms: C1_1  and  C9_9 
REMARK    2  A    between atoms: C6_6  and  C7_7 
REMARK    3  A    between atoms: C6_6  and  C8_8 
REMARK    4  A    between atoms: C7_7  and  C9_9 
REMARK    5  A    between atoms: C8_8  and  C10_10 
ROOT
HETATM    1  C7  UNL     1     -32.450   6.106   2.583  1.00 20.00     0.011 C 
ENDROOT
BRANCH   1   2
HETATM    2  C6  UNL     1     -33.841   5.503   2.814  1.00 20.00     0.001 C 
BRANCH   2   3
HETATM    3  C8  UNL     1     -34.524   6.147   4.026  1.00 20.00     0.004 C 
BRANCH   3   4
HETATM    4  C10 UNL     1     -34.094   5.534   5.371  1.00 20.00    -0.023 C 
HETATM    5  C4  UNL     1     -33.997   6.577   6.485  1.00 20.00     0.009 C 
HETATM    6  C5  UNL     1     -35.077   4.434   5.778  1.00 20.00     0.009 C 
ENDBRANCH   3   4
ENDBRANCH   2   3
ENDBRANCH   1   2
BRANCH   1   7
HETATM    7  C9  UNL     1     -32.313   7.580   3.000  1.00 20.00     0.051 C 
HETATM    8  C3  UNL     1     -31.216   7.787   4.044  1.00 20.00     0.018 C 
BRANCH   7   9
HETATM    9  C1  UNL     1     -32.112   8.495   1.791  1.00 20.00     0.126 C 
HETATM   10  C2  UNL     1     -32.712   9.876   1.868  1.00 20.00     0.091 C 
HETATM   11  O11 UNL     1     -31.477   8.144   0.797  1.00 20.00    -0.298 OA
ENDBRANCH   7   9
ENDBRANCH   1   7
TORSDOF 5
ENDMDL
MODEL 3
REMARK VINA RESULT:      -5.0      1.059      1.496
REMARK  5 active torsions:
REMARK  status: ('A' for Active; 'I' for Inactive)
REMARK    1  A    between atoms: C1_1  and  C9_9 
REMARK    2  A    between atoms: C6_6  and  C7_7 
REMARK    3  A    between atoms: C6_6  and  C8_8 
REMARK    4  A    between atoms: C7_7  and  C9_9 
REMARK    5  A    between atoms: C8_8  and  C10_10 
ROOT
HETATM    1  C7  UNL     1     -33.615   6.715   3.795  1.00 20.00     0.011 C 
ENDROOT
BRANCH   1   2
HETATM    2  C6  UNL     1     -32.225   6.577   3.160  1.00 20.00     0.001 C 
BRANCH   2   3
HETATM    3  C8  UNL     1     -31.648   7.952   2.799  1.00 20.00     0.004 C 
BRANCH   3   4
HETATM    4  C10 UNL     1     -32.387   8.641   1.637  1.00 20.00    -0.023 C 
HETATM    5  C4  UNL     1     -32.714  10.104   1.938  1.00 20.00     0.009 C 
HETATM    6  C5  UNL     1     -31.546   8.552   0.362  1.00 20.00     0.009 C 
ENDBRANCH   3   4
ENDBRANCH   2   3
ENDBRANCH   1   2
BRANCH   1   7
HETATM    7  C9  UNL     1     -33.819   5.890   5.076  1.00 20.00     0.051 C 
HETATM    8  C3  UNL     1     -33.877   6.767   6.327  1.00 20.00     0.018 C 
BRANCH   7   9
HETATM    9  C1  UNL     1     -35.045   4.981   4.975  1.00 20.00     0.126 C 
HETATM   10  C2  UNL     1     -35.203   3.922   6.038  1.00 20.00     0.091 C 
HETATM   11  O11 UNL     1     -35.886   5.104   4.085  1.00 20.00    -0.298 OA
ENDBRANCH   7   9
ENDBRANCH   1   7
TORSDOF 5
ENDMDL
MODEL 4
REMARK VINA RESULT:      -4.6      1.301      2.111
REMARK  5 active torsions:
REMARK  status: ('A' for Active; 'I' for Inactive)
REMARK    1  A    between atoms: C1_1  and  C9_9 
REMARK    2  A    between atoms: C6_6  and  C7_7 
REMARK    3  A    between atoms: C6_6  and  C8_8 
REMARK    4  A    between atoms: C7_7  and  C9_9 
REMARK    5  A    between atoms: C8_8  and  C10_10 
ROOT
HETATM    1  C7  UNL     1     -34.643   6.170   3.825  1.00 20.00     0.011 C 
ENDROOT
BRANCH   1   2
HETATM    2  C6  UNL     1     -33.761   5.433   2.809  1.00 20.00     0.001 C 
BRANCH   2   3
HETATM    3  C8  UNL     1     -32.326   5.975   2.833  1.00 20.00     0.004 C 
BRANCH   3   4
HETATM    4  C10 UNL     1     -32.247   7.488   3.110  1.00 20.00    -0.023 C 
HETATM    5  C4  UNL     1     -31.151   7.841   4.117  1.00 20.00     0.009 C 
HETATM    6  C5  UNL     1     -32.008   8.244   1.801  1.00 20.00     0.009 C 
ENDBRANCH   3   4
ENDBRANCH   2   3
ENDBRANCH   1   2
BRANCH   1   7
HETATM    7  C9  UNL     1     -35.099   5.314   5.018  1.00 20.00     0.051 C 
HETATM    8  C3  UNL     1     -35.195   3.830   4.664  1.00 20.00     0.018 C 
BRANCH   7   9
HETATM    9  C1  UNL     1     -34.216   5.538   6.247  1.00 20.00     0.126 C 
HETATM   10  C2  UNL     1     -33.825   6.960   6.562  1.00 20.00     0.091 C 
HETATM   11  O11 UNL     1     -33.845   4.613   6.970  1.00 20.00    -0.298 OA
ENDBRANCH   7   9
ENDBRANCH   1   7
TORSDOF 5
ENDMDL
MODEL 5
REMARK VINA RESULT:      -4.6     10.566     11.460
REMARK  5 active torsions:
REMARK  status: ('A' for Active; 'I' for Inactive)
REMARK    1  A    between atoms: C1_1  and  C9_9 
REMARK    2  A    between atoms: C6_6  and  C7_7 
REMARK    3  A    between atoms: C6_6  and  C8_8 
REMARK    4  A    between atoms: C7_7  and  C9_9 
REMARK    5  A    between atoms: C8_8  and  C10_10 
ROOT
HETATM    1  C7  UNL     1     -34.354  16.143  -3.660  1.00 20.00     0.011 C 
ENDROOT
BRANCH   1   2
HETATM    2  C6  UNL     1     -33.709  16.444  -2.302  1.00 20.00     0.001 C 
BRANCH   2   3
HETATM    3  C8  UNL     1     -34.761  16.463  -1.186  1.00 20.00     0.004 C 
BRANCH   3   4
HETATM    4  C10 UNL     1     -34.701  17.725  -0.307  1.00 20.00    -0.023 C 
HETATM    5  C4  UNL     1     -35.197  17.471   1.117  1.00 20.00     0.009 C 
HETATM    6  C5  UNL     1     -33.268  18.261  -0.267  1.00 20.00     0.009 C 
ENDBRANCH   3   4
ENDBRANCH   2   3
ENDBRANCH   1   2
BRANCH   1   7
HETATM    7  C9  UNL     1     -34.003  14.766  -4.246  1.00 20.00     0.051 C 
HETATM    8  C3  UNL     1     -32.785  14.140  -3.566  1.00 20.00     0.018 C 
BRANCH   7   9
HETATM    9  C1  UNL     1     -35.202  13.817  -4.224  1.00 20.00     0.126 C 
HETATM   10  C2  UNL     1     -36.559  14.431  -3.991  1.00 20.00     0.091 C 
HETATM   11  O11 UNL     1     -35.087  12.605  -4.406  1.00 20.00    -0.298 OA
ENDBRANCH   7   9
ENDBRANCH   1   7
TORSDOF 5
ENDMDL
MODEL 6
REMARK VINA RESULT:      -4.5     10.429     11.451
REMARK  5 active torsions:
REMARK  status: ('A' for Active; 'I' for Inactive)
REMARK    1  A    between atoms: C1_1  and  C9_9 
REMARK    2  A    between atoms: C6_6  and  C7_7 
REMARK    3  A    between atoms: C6_6  and  C8_8 
REMARK    4  A    between atoms: C7_7  and  C9_9 
REMARK    5  A    between atoms: C8_8  and  C10_10 
ROOT
HETATM    1  C7  UNL     1     -34.768  16.007  -2.991  1.00 20.00     0.011 C 
ENDROOT
BRANCH   1   2
HETATM    2  C6  UNL     1     -34.718  16.274  -1.481  1.00 20.00     0.001 C 
BRANCH   2   3
HETATM    3  C8  UNL     1     -33.714  17.387  -1.154  1.00 20.00     0.004 C 
BRANCH   3   4
HETATM    4  C10 UNL     1     -34.139  18.266   0.036  1.00 20.00    -0.023 C 
HETATM    5  C4  UNL     1     -35.115  17.553   0.972  1.00 20.00     0.009 C 
HETATM    6  C5  UNL     1     -32.902  18.710   0.821  1.00 20.00     0.009 C 
ENDBRANCH   3   4
ENDBRANCH   2   3
ENDBRANCH   1   2
BRANCH   1   7
HETATM    7  C9  UNL     1     -35.556  14.749  -3.393  1.00 20.00     0.051 C 
HETATM    8  C3  UNL     1     -36.665  15.057  -4.399  1.00 20.00     0.018 C 
BRANCH   7   9
HETATM    9  C1  UNL     1     -34.634  13.641  -3.902  1.00 20.00     0.126 C 
HETATM   10  C2  UNL     1     -33.154  13.822  -3.678  1.00 20.00     0.091 C 
HETATM   11  O11 UNL     1     -35.063  12.629  -4.457  1.00 20.00    -0.298 OA
ENDBRANCH   7   9
ENDBRANCH   1   7
TORSDOF 5
ENDMDL
MODEL 7
REMARK VINA RESULT:      -4.4     10.366     12.211
REMARK  5 active torsions:
REMARK  status: ('A' for Active; 'I' for Inactive)
REMARK    1  A    between atoms: C1_1  and  C9_9 
REMARK    2  A    between atoms: C6_6  and  C7_7 
REMARK    3  A    between atoms: C6_6  and  C8_8 
REMARK    4  A    between atoms: C7_7  and  C9_9 
REMARK    5  A    between atoms: C8_8  and  C10_10 
ROOT
HETATM    1  C7  UNL     1     -33.260  16.064  -5.105  1.00 20.00     0.011 C 
ENDROOT
BRANCH   1   2
HETATM    2  C6  UNL     1     -33.733  17.492  -4.806  1.00 20.00     0.001 C 
BRANCH   2   3
HETATM    3  C8  UNL     1     -34.606  17.529  -3.546  1.00 20.00     0.004 C 
BRANCH   3   4
HETATM    4  C10 UNL     1     -33.826  17.238  -2.251  1.00 20.00    -0.023 C 
HETATM    5  C4  UNL     1     -33.416  18.515  -1.516  1.00 20.00     0.009 C 
HETATM    6  C5  UNL     1     -34.668  16.357  -1.324  1.00 20.00     0.009 C 
ENDBRANCH   3   4
ENDBRANCH   2   3
ENDBRANCH   1   2
BRANCH   1   7
HETATM    7  C9  UNL     1     -34.392  15.047  -5.326  1.00 20.00     0.051 C 
HETATM    8  C3  UNL     1     -34.636  14.765  -6.808  1.00 20.00     0.018 C 
BRANCH   7   9
HETATM    9  C1  UNL     1     -34.153  13.754  -4.544  1.00 20.00     0.126 C 
HETATM   10  C2  UNL     1     -33.029  13.757  -3.538  1.00 20.00     0.091 C 
HETATM   11  O11 UNL     1     -34.848  12.750  -4.702  1.00 20.00    -0.298 OA
ENDBRANCH   7   9
ENDBRANCH   1   7
TORSDOF 5
ENDMDL
MODEL 8
REMARK VINA RESULT:      -4.4     11.203     12.171
REMARK  5 active torsions:
REMARK  status: ('A' for Active; 'I' for Inactive)
REMARK    1  A    between atoms: C1_1  and  C9_9 
REMARK    2  A    between atoms: C6_6  and  C7_7 
REMARK    3  A    between atoms: C6_6  and  C8_8 
REMARK    4  A    between atoms: C7_7  and  C9_9 
REMARK    5  A    between atoms: C8_8  and  C10_10 
ROOT
HETATM    1  C7  UNL     1     -33.629  17.659  -1.092  1.00 20.00     0.011 C 
ENDROOT
BRANCH   1   2
HETATM    2  C6  UNL     1     -34.582  16.457  -1.095  1.00 20.00     0.001 C 
BRANCH   2   3
HETATM    3  C8  UNL     1     -34.966  16.066  -2.528  1.00 20.00     0.004 C 
BRANCH   3   4
HETATM    4  C10 UNL     1     -34.281  14.777  -3.017  1.00 20.00    -0.023 C 
HETATM    5  C4  UNL     1     -35.152  13.985  -3.992  1.00 20.00     0.009 C 
HETATM    6  C5  UNL     1     -32.944  15.120  -3.680  1.00 20.00     0.009 C 
ENDBRANCH   3   4
ENDBRANCH   2   3
ENDBRANCH   1   2
BRANCH   1   7
HETATM    7  C9  UNL     1     -33.729  18.553   0.155  1.00 20.00     0.051 C 
HETATM    8  C3  UNL     1     -34.633  17.949   1.230  1.00 20.00     0.018 C 
BRANCH   7   9
HETATM    9  C1  UNL     1     -32.350  18.899   0.718  1.00 20.00     0.126 C 
HETATM   10  C2  UNL     1     -32.160  18.755   2.207  1.00 20.00     0.091 C 
HETATM   11  O11 UNL     1     -31.418  19.263   0.001  1.00 20.00    -0.298 OA
ENDBRANCH   7   9
ENDBRANCH   1   7
TORSDOF 5
ENDMDL
MODEL 9
REMARK VINA RESULT:      -4.4     11.093     11.806
REMARK  5 active torsions:
REMARK  status: ('A' for Active; 'I' for Inactive)
REMARK    1  A    between atoms: C1_1  and  C9_9 
REMARK    2  A    between atoms: C6_6  and  C7_7 
REMARK    3  A    between atoms: C6_6  and  C8_8 
REMARK    4  A    between atoms: C7_7  and  C9_9 
REMARK    5  A    between atoms: C8_8  and  C10_10 
ROOT
HETATM    1  C7  UNL     1     -34.728  15.978  -3.797  1.00 20.00     0.011 C 
ENDROOT
BRANCH   1   2
HETATM    2  C6  UNL     1     -33.834  16.218  -2.573  1.00 20.00     0.001 C 
BRANCH   2   3
HETATM    3  C8  UNL     1     -34.676  16.369  -1.300  1.00 20.00     0.004 C 
BRANCH   3   4
HETATM    4  C10 UNL     1     -34.120  17.415  -0.317  1.00 20.00    -0.023 C 
HETATM    5  C4  UNL     1     -33.823  18.754  -0.993  1.00 20.00     0.009 C 
HETATM    6  C5  UNL     1     -35.109  17.625   0.832  1.00 20.00     0.009 C 
ENDBRANCH   3   4
ENDBRANCH   2   3
ENDBRANCH   1   2
BRANCH   1   7
HETATM    7  C9  UNL     1     -35.471  14.633  -3.794  1.00 20.00     0.051 C 
HETATM    8  C3  UNL     1     -36.989  14.809  -3.795  1.00 20.00     0.018 C 
BRANCH   7   9
HETATM    9  C1  UNL     1     -35.014  13.730  -4.942  1.00 20.00     0.126 C 
HETATM   10  C2  UNL     1     -34.850  14.373  -6.297  1.00 20.00     0.091 C 
HETATM   11  O11 UNL     1     -34.770  12.535  -4.783  1.00 20.00    -0.298 OA
ENDBRANCH   7   9
ENDBRANCH   1   7
TORSDOF 5
ENDMDL
