MODEL 1
REMARK VINA RESULT:      -4.4      0.000      0.000
REMARK  1 active torsions:
REMARK  status: ('A' for Active; 'I' for Inactive)
REMARK    1  A    between atoms: C6_6  and  C8_8 
ROOT
HETATM    1  C1  UNL     1     -34.494   4.710   6.764  1.00 20.00     0.000 C 
HETATM    2  C2  UNL     1     -35.125   3.859   5.667  1.00 20.00     0.002 C 
HETATM    3  C3  UNL     1     -34.465   6.187   6.389  1.00 20.00     0.002 C 
HETATM    4  C4  UNL     1     -34.440   4.081   4.317  1.00 20.00     0.026 C 
HETATM    5  C5  UNL     1     -33.779   6.415   5.041  1.00 20.00     0.026 C 
HETATM    6  C6  UNL     1     -34.370   5.562   3.902  1.00 20.00     0.037 C 
HETATM    7 CL9  UNL     1     -36.032   6.153   3.516  1.00 20.00    -0.119 Cl
ENDROOT
BRANCH   6   8
HETATM    8  C8  UNL     1     -33.524   5.717   2.635  1.00 20.00     0.021 C 
HETATM    9  C7  UNL     1     -32.324   6.571   2.879  1.00 20.00     0.007 C 
ENDBRANCH   6   8
TORSDOF 1
ENDMDL
MODEL 2
REMARK VINA RESULT:      -4.3      1.631      2.327
REMARK  1 active torsions:
REMARK  status: ('A' for Active; 'I' for Inactive)
REMARK    1  A    between atoms: C6_6  and  C8_8 
ROOT
HETATM    1  C1  UNL     1     -35.136   4.758   5.945  1.00 20.00     0.000 C 
HETATM    2  C2  UNL     1     -33.888   5.545   6.330  1.00 20.00     0.002 C 
HETATM    3  C3  UNL     1     -35.095   4.306   4.490  1.00 20.00     0.002 C 
HETATM    4  C4  UNL     1     -33.651   6.724   5.383  1.00 20.00     0.026 C 
HETATM    5  C5  UNL     1     -34.861   5.481   3.539  1.00 20.00     0.026 C 
HETATM    6  C6  UNL     1     -33.619   6.319   3.898  1.00 20.00     0.037 C 
HETATM    7 CL9  UNL     1     -32.131   5.350   3.575  1.00 20.00    -0.119 Cl
ENDROOT
BRANCH   6   8
HETATM    8  C8  UNL     1     -33.553   7.568   3.012  1.00 20.00     0.021 C 
HETATM    9  C7  UNL     1     -32.179   7.781   2.470  1.00 20.00     0.007 C 
ENDBRANCH   6   8
TORSDOF 1
ENDMDL
MODEL 3
REMARK VINA RESULT:      -4.2     12.329     13.403
REMARK  1 active torsions:
REMARK  status: ('A' for Active; 'I' for Inactive)
REMARK    1  A    between atoms: C6_6  and  C8_8 
ROOT
HETATM    1  C1  UNL     1     -35.289  14.229  -5.916  1.00 20.00     0.000 C 
HETATM    2  C2  UNL     1     -35.142  13.536  -4.565  1.00 20.00     0.002 C 
HETATM    3  C3  UNL     1     -34.123  15.169  -6.201  1.00 20.00     0.002 C 
HETATM    4  C4  UNL     1     -34.947  14.545  -3.432  1.00 20.00     0.026 C 
HETATM    5  C5  UNL     1     -33.925  16.182  -5.072  1.00 20.00     0.026 C 
HETATM    6  C6  UNL     1     -33.790  15.530  -3.683  1.00 20.00     0.037 C 
HETATM    7 CL9  UNL     1     -32.220  14.642  -3.591  1.00 20.00    -0.119 Cl
ENDROOT
BRANCH   6   8
HETATM    8  C8  UNL     1     -33.769  16.608  -2.594  1.00 20.00     0.021 C 
HETATM    9  C7  UNL     1     -34.726  16.291  -1.493  1.00 20.00     0.007 C 
ENDBRANCH   6   8
TORSDOF 1
ENDMDL
MODEL 4
REMARK VINA RESULT:      -4.2     12.315     13.010
REMARK  1 active torsions:
REMARK  status: ('A' for Active; 'I' for Inactive)
REMARK    1  A    between atoms: C6_6  and  C8_8 
ROOT
HETATM    1  C1  UNL     1     -35.282  13.370  -4.154  1.00 20.00     0.000 C 
HETATM    2  C2  UNL     1     -33.853  13.819  -4.443  1.00 20.00     0.002 C 
HETATM    3  C3  UNL     1     -36.232  14.554  -4.019  1.00 20.00     0.002 C 
HETATM    4  C4  UNL     1     -33.355  14.821  -3.399  1.00 20.00     0.026 C 
HETATM    5  C5  UNL     1     -35.740  15.557  -2.974  1.00 20.00     0.026 C 
HETATM    6  C6  UNL     1     -34.293  16.028  -3.213  1.00 20.00     0.037 C 
HETATM    7 CL9  UNL     1     -34.238  17.060  -4.693  1.00 20.00    -0.119 Cl
ENDROOT
BRANCH   6   8
HETATM    8  C8  UNL     1     -33.819  16.889  -2.038  1.00 20.00     0.021 C 
HETATM    9  C7  UNL     1     -34.622  16.626  -0.808  1.00 20.00     0.007 C 
ENDBRANCH   6   8
TORSDOF 1
ENDMDL
MODEL 5
REMARK VINA RESULT:      -4.2     11.922     13.337
REMARK  1 active torsions:
REMARK  status: ('A' for Active; 'I' for Inactive)
REMARK    1  A    between atoms: C6_6  and  C8_8 
ROOT
HETATM    1  C1  UNL     1     -34.631  13.363  -4.484  1.00 20.00     0.000 C 
HETATM    2  C2  UNL     1     -35.821  14.243  -4.116  1.00 20.00     0.002 C 
HETATM    3  C3  UNL     1     -33.386  13.729  -3.684  1.00 20.00     0.002 C 
HETATM    4  C4  UNL     1     -35.486  15.729  -4.251  1.00 20.00     0.026 C 
HETATM    5  C5  UNL     1     -33.045  15.214  -3.817  1.00 20.00     0.026 C 
HETATM    6  C6  UNL     1     -34.224  16.145  -3.473  1.00 20.00     0.037 C 
HETATM    7 CL9  UNL     1     -34.558  16.054  -1.701  1.00 20.00    -0.119 Cl
ENDROOT
BRANCH   6   8
HETATM    8  C8  UNL     1     -33.859  17.598  -3.796  1.00 20.00     0.021 C 
HETATM    9  C7  UNL     1     -33.550  17.774  -5.245  1.00 20.00     0.007 C 
ENDBRANCH   6   8
TORSDOF 1
ENDMDL
MODEL 6
REMARK VINA RESULT:      -4.0     12.007     13.301
REMARK  1 active torsions:
REMARK  status: ('A' for Active; 'I' for Inactive)
REMARK    1  A    between atoms: C6_6  and  C8_8 
ROOT
HETATM    1  C1  UNL     1     -34.768  13.886  -5.889  1.00 20.00     0.000 C 
HETATM    2  C2  UNL     1     -35.129  15.366  -5.959  1.00 20.00     0.002 C 
HETATM    3  C3  UNL     1     -35.056  13.296  -4.514  1.00 20.00     0.002 C 
HETATM    4  C4  UNL     1     -34.442  16.166  -4.851  1.00 20.00     0.026 C 
HETATM    5  C5  UNL     1     -34.369  14.091  -3.402  1.00 20.00     0.026 C 
HETATM    6  C6  UNL     1     -34.689  15.597  -3.441  1.00 20.00     0.037 C 
HETATM    7 CL9  UNL     1     -36.418  15.851  -2.989  1.00 20.00    -0.119 Cl
ENDROOT
BRANCH   6   8
HETATM    8  C8  UNL     1     -33.833  16.344  -2.413  1.00 20.00     0.021 C 
HETATM    9  C7  UNL     1     -34.564  16.530  -1.125  1.00 20.00     0.007 C 
ENDBRANCH   6   8
TORSDOF 1
ENDMDL
MODEL 7
REMARK VINA RESULT:      -3.9      9.295     10.082
REMARK  1 active torsions:
REMARK  status: ('A' for Active; 'I' for Inactive)
REMARK    1  A    between atoms: C6_6  and  C8_8 
ROOT
HETATM    1  C1  UNL     1     -41.167   7.031  -0.886  1.00 20.00     0.000 C 
HETATM    2  C2  UNL     1     -40.496   5.759  -0.376  1.00 20.00     0.002 C 
HETATM    3  C3  UNL     1     -42.683   6.884  -0.954  1.00 20.00     0.002 C 
HETATM    4  C4  UNL     1     -40.904   4.537  -1.201  1.00 20.00     0.026 C 
HETATM    5  C5  UNL     1     -43.096   5.665  -1.780  1.00 20.00     0.026 C 
HETATM    6  C6  UNL     1     -42.429   4.356  -1.315  1.00 20.00     0.037 C 
HETATM    7 CL9  UNL     1     -43.096   3.888   0.296  1.00 20.00    -0.119 Cl
ENDROOT
BRANCH   6   8
HETATM    8  C8  UNL     1     -42.755   3.222  -2.292  1.00 20.00     0.021 C 
HETATM    9  C7  UNL     1     -41.542   2.783  -3.043  1.00 20.00     0.007 C 
ENDBRANCH   6   8
TORSDOF 1
ENDMDL
MODEL 8
REMARK VINA RESULT:      -3.9     11.907     13.439
REMARK  1 active torsions:
REMARK  status: ('A' for Active; 'I' for Inactive)
REMARK    1  A    between atoms: C6_6  and  C8_8 
ROOT
HETATM    1  C1  UNL     1     -32.764  14.928  -3.630  1.00 20.00     0.000 C 
HETATM    2  C2  UNL     1     -33.536  13.621  -3.781  1.00 20.00     0.002 C 
HETATM    3  C3  UNL     1     -33.691  16.138  -3.637  1.00 20.00     0.002 C 
HETATM    4  C4  UNL     1     -34.429  13.635  -5.023  1.00 20.00     0.026 C 
HETATM    5  C5  UNL     1     -34.585  16.158  -4.878  1.00 20.00     0.026 C 
HETATM    6  C6  UNL     1     -35.373  14.851  -5.085  1.00 20.00     0.037 C 
HETATM    7 CL9  UNL     1     -36.626  14.700  -3.794  1.00 20.00    -0.119 Cl
ENDROOT
BRANCH   6   8
HETATM    8  C8  UNL     1     -36.104  14.884  -6.431  1.00 20.00     0.021 C 
HETATM    9  C7  UNL     1     -35.166  14.650  -7.568  1.00 20.00     0.007 C 
ENDBRANCH   6   8
TORSDOF 1
ENDMDL
MODEL 9
REMARK VINA RESULT:      -3.9     12.751     13.554
REMARK  1 active torsions:
REMARK  status: ('A' for Active; 'I' for Inactive)
REMARK    1  A    between atoms: C6_6  and  C8_8 
ROOT
HETATM    1  C1  UNL     1     -35.081  16.171  -2.516  1.00 20.00     0.000 C 
HETATM    2  C2  UNL     1     -33.665  15.746  -2.891  1.00 20.00     0.002 C 
HETATM    3  C3  UNL     1     -36.133  15.329  -3.228  1.00 20.00     0.002 C 
HETATM    4  C4  UNL     1     -33.457  15.754  -4.406  1.00 20.00     0.026 C 
HETATM    5  C5  UNL     1     -35.931  15.335  -4.744  1.00 20.00     0.026 C 
HETATM    6  C6  UNL     1     -34.509  14.930  -5.173  1.00 20.00     0.037 C 
HETATM    7 CL9  UNL     1     -34.259  13.175  -4.828  1.00 20.00    -0.119 Cl
ENDROOT
BRANCH   6   8
HETATM    8  C8  UNL     1     -34.336  15.127  -6.682  1.00 20.00     0.021 C 
HETATM    9  C7  UNL     1     -35.433  14.467  -7.449  1.00 20.00     0.007 C 
ENDBRANCH   6   8
TORSDOF 1
ENDMDL
