MODEL 1
REMARK VINA RESULT:      -5.2      0.000      0.000
REMARK  0 active torsions:
REMARK  status: ('A' for Active; 'I' for Inactive)
ROOT
HETATM    1  C1  UNL     1     -33.672  13.913  -3.954  1.00 20.00     0.127 C 
HETATM    2  C2  UNL     1     -34.890  13.311  -4.614  1.00 20.00     0.078 C 
HETATM    3  C3  UNL     1     -33.512  15.414  -4.073  1.00 20.00     0.087 C 
HETATM    4  C4  UNL     1     -36.147  14.048  -4.180  1.00 20.00     0.008 C 
HETATM    5  C5  UNL     1     -33.877  18.304  -1.710  1.00 20.00     0.000 C 
HETATM    6  C6  UNL     1     -33.635  18.432  -3.209  1.00 20.00     0.001 C 
HETATM    7  C7  UNL     1     -33.954  16.846  -1.273  1.00 20.00     0.001 C 
HETATM    8  C8  UNL     1     -36.011  15.560  -4.361  1.00 20.00     0.010 C 
HETATM    9  C9  UNL     1     -34.681  17.662  -4.013  1.00 20.00     0.010 C 
HETATM   10  C10 UNL     1     -34.985  16.060  -2.085  1.00 20.00     0.010 C 
HETATM   11  C11 UNL     1     -34.786  16.165  -3.621  1.00 20.00    -0.034 C 
HETATM   12  O12 UNL     1     -32.809  13.210  -3.430  1.00 20.00    -0.298 OA
ENDROOT
TORSDOF 0
ENDMDL
MODEL 2
REMARK VINA RESULT:      -4.9      2.302      4.158
REMARK  0 active torsions:
REMARK  status: ('A' for Active; 'I' for Inactive)
ROOT
HETATM    1  C1  UNL     1     -33.487  16.172  -4.394  1.00 20.00     0.127 C 
HETATM    2  C2  UNL     1     -32.874  15.006  -3.655  1.00 20.00     0.078 C 
HETATM    3  C3  UNL     1     -34.073  15.872  -5.758  1.00 20.00     0.087 C 
HETATM    4  C4  UNL     1     -33.845  13.837  -3.608  1.00 20.00     0.008 C 
HETATM    5  C5  UNL     1     -37.550  15.613  -7.140  1.00 20.00     0.000 C 
HETATM    6  C6  UNL     1     -36.281  15.265  -7.908  1.00 20.00     0.001 C 
HETATM    7  C7  UNL     1     -37.241  16.088  -5.725  1.00 20.00     0.001 C 
HETATM    8  C8  UNL     1     -34.387  13.491  -4.995  1.00 20.00     0.010 C 
HETATM    9  C9  UNL     1     -35.430  14.247  -7.151  1.00 20.00     0.010 C 
HETATM   10  C10 UNL     1     -36.373  15.085  -4.964  1.00 20.00     0.010 C 
HETATM   11  C11 UNL     1     -35.069  14.691  -5.709  1.00 20.00    -0.034 C 
HETATM   12  O12 UNL     1     -33.430  17.318  -3.952  1.00 20.00    -0.298 OA
ENDROOT
TORSDOF 0
ENDMDL
MODEL 3
REMARK VINA RESULT:      -4.9      2.174      3.797
REMARK  0 active torsions:
REMARK  status: ('A' for Active; 'I' for Inactive)
ROOT
HETATM    1  C1  UNL     1     -34.663  13.598  -4.445  1.00 20.00     0.127 C 
HETATM    2  C2  UNL     1     -33.583  13.888  -3.430  1.00 20.00     0.078 C 
HETATM    3  C3  UNL     1     -35.567  14.755  -4.816  1.00 20.00     0.087 C 
HETATM    4  C4  UNL     1     -32.787  15.118  -3.838  1.00 20.00     0.008 C 
HETATM    5  C5  UNL     1     -35.952  16.940  -7.841  1.00 20.00     0.000 C 
HETATM    6  C6  UNL     1     -36.680  17.150  -6.519  1.00 20.00     0.001 C 
HETATM    7  C7  UNL     1     -35.037  15.722  -7.795  1.00 20.00     0.001 C 
HETATM    8  C8  UNL     1     -33.697  16.307  -4.150  1.00 20.00     0.010 C 
HETATM    9  C9  UNL     1     -35.702  17.230  -5.348  1.00 20.00     0.010 C 
HETATM   10  C10 UNL     1     -34.067  15.782  -6.615  1.00 20.00     0.010 C 
HETATM   11  C11 UNL     1     -34.759  16.002  -5.243  1.00 20.00    -0.034 C 
HETATM   12  O12 UNL     1     -34.856  12.463  -4.875  1.00 20.00    -0.298 OA
ENDROOT
TORSDOF 0
ENDMDL
MODEL 4
REMARK VINA RESULT:      -4.8      1.671      2.432
REMARK  0 active torsions:
REMARK  status: ('A' for Active; 'I' for Inactive)
ROOT
HETATM    1  C1  UNL     1     -35.538  14.264  -4.068  1.00 20.00     0.127 C 
HETATM    2  C2  UNL     1     -34.628  14.245  -5.272  1.00 20.00     0.078 C 
HETATM    3  C3  UNL     1     -34.982  14.900  -2.811  1.00 20.00     0.087 C 
HETATM    4  C4  UNL     1     -34.074  15.636  -5.541  1.00 20.00     0.008 C 
HETATM    5  C5  UNL     1     -35.614  18.106  -0.971  1.00 20.00     0.000 C 
HETATM    6  C6  UNL     1     -34.510  17.113  -0.632  1.00 20.00     0.001 C 
HETATM    7  C7  UNL     1     -36.447  17.641  -2.160  1.00 20.00     0.001 C 
HETATM    8  C8  UNL     1     -33.453  16.253  -4.288  1.00 20.00     0.010 C 
HETATM    9  C9  UNL     1     -33.632  16.816  -1.847  1.00 20.00     0.010 C 
HETATM   10  C10 UNL     1     -35.577  17.322  -3.376  1.00 20.00     0.010 C 
HETATM   11  C11 UNL     1     -34.429  16.318  -3.081  1.00 20.00    -0.034 C 
HETATM   12  O12 UNL     1     -36.636  13.709  -4.080  1.00 20.00    -0.298 OA
ENDROOT
TORSDOF 0
ENDMDL
MODEL 5
REMARK VINA RESULT:      -4.8      2.311      4.205
REMARK  0 active torsions:
REMARK  status: ('A' for Active; 'I' for Inactive)
ROOT
HETATM    1  C1  UNL     1     -36.380  17.488  -2.461  1.00 20.00     0.127 C 
HETATM    2  C2  UNL     1     -35.648  17.695  -1.156  1.00 20.00     0.078 C 
HETATM    3  C3  UNL     1     -35.522  17.324  -3.697  1.00 20.00     0.087 C 
HETATM    4  C4  UNL     1     -34.586  16.622  -0.968  1.00 20.00     0.008 C 
HETATM    5  C5  UNL     1     -34.629  14.445  -5.930  1.00 20.00     0.000 C 
HETATM    6  C6  UNL     1     -34.018  15.837  -6.021  1.00 20.00     0.001 C 
HETATM    7  C7  UNL     1     -35.662  14.353  -4.812  1.00 20.00     0.001 C 
HETATM    8  C8  UNL     1     -33.677  16.501  -2.191  1.00 20.00     0.010 C 
HETATM    9  C9  UNL     1     -33.432  16.280  -4.681  1.00 20.00     0.010 C 
HETATM   10  C10 UNL     1     -35.093  14.813  -3.470  1.00 20.00     0.010 C 
HETATM   11  C11 UNL     1     -34.450  16.226  -3.511  1.00 20.00    -0.034 C 
HETATM   12  O12 UNL     1     -37.607  17.544  -2.528  1.00 20.00    -0.298 OA
ENDROOT
TORSDOF 0
ENDMDL
MODEL 6
REMARK VINA RESULT:      -4.8      2.021      4.174
REMARK  0 active torsions:
REMARK  status: ('A' for Active; 'I' for Inactive)
ROOT
HETATM    1  C1  UNL     1     -34.390  14.381  -3.555  1.00 20.00     0.127 C 
HETATM    2  C2  UNL     1     -33.726  15.551  -2.869  1.00 20.00     0.078 C 
HETATM    3  C3  UNL     1     -35.675  14.676  -4.300  1.00 20.00     0.087 C 
HETATM    4  C4  UNL     1     -33.563  16.712  -3.838  1.00 20.00     0.008 C 
HETATM    5  C5  UNL     1     -36.638  14.905  -7.918  1.00 20.00     0.000 C 
HETATM    6  C6  UNL     1     -37.550  15.265  -6.751  1.00 20.00     0.001 C 
HETATM    7  C7  UNL     1     -35.270  14.433  -7.440  1.00 20.00     0.001 C 
HETATM    8  C8  UNL     1     -34.876  17.053  -4.542  1.00 20.00     0.010 C 
HETATM    9  C9  UNL     1     -36.896  16.290  -5.826  1.00 20.00     0.010 C 
HETATM   10  C10 UNL     1     -34.614  15.442  -6.497  1.00 20.00     0.010 C 
HETATM   11  C11 UNL     1     -35.507  15.848  -5.294  1.00 20.00    -0.034 C 
HETATM   12  O12 UNL     1     -33.960  13.235  -3.436  1.00 20.00    -0.298 OA
ENDROOT
TORSDOF 0
ENDMDL
MODEL 7
REMARK VINA RESULT:      -4.7      2.707      4.091
REMARK  0 active torsions:
REMARK  status: ('A' for Active; 'I' for Inactive)
ROOT
HETATM    1  C1  UNL     1     -37.073  16.168  -5.775  1.00 20.00     0.127 C 
HETATM    2  C2  UNL     1     -37.381  15.782  -7.202  1.00 20.00     0.078 C 
HETATM    3  C3  UNL     1     -36.288  15.163  -4.959  1.00 20.00     0.087 C 
HETATM    4  C4  UNL     1     -36.113  15.341  -7.918  1.00 20.00     0.008 C 
HETATM    5  C5  UNL     1     -32.771  14.980  -3.667  1.00 20.00     0.000 C 
HETATM    6  C6  UNL     1     -33.791  13.852  -3.575  1.00 20.00     0.001 C 
HETATM    7  C7  UNL     1     -33.352  16.211  -4.353  1.00 20.00     0.001 C 
HETATM    8  C8  UNL     1     -35.353  14.278  -7.124  1.00 20.00     0.010 C 
HETATM    9  C9  UNL     1     -34.369  13.507  -4.945  1.00 20.00     0.010 C 
HETATM   10  C10 UNL     1     -33.952  15.874  -5.718  1.00 20.00     0.010 C 
HETATM   11  C11 UNL     1     -34.993  14.723  -5.680  1.00 20.00    -0.034 C 
HETATM   12  O12 UNL     1     -37.517  17.200  -5.276  1.00 20.00    -0.298 OA
ENDROOT
TORSDOF 0
ENDMDL
MODEL 8
REMARK VINA RESULT:      -4.7      2.302      4.193
REMARK  0 active torsions:
REMARK  status: ('A' for Active; 'I' for Inactive)
ROOT
HETATM    1  C1  UNL     1     -33.713  17.577  -3.550  1.00 20.00     0.127 C 
HETATM    2  C2  UNL     1     -33.747  16.996  -2.157  1.00 20.00     0.078 C 
HETATM    3  C3  UNL     1     -33.629  16.586  -4.692  1.00 20.00     0.087 C 
HETATM    4  C4  UNL     1     -34.821  15.924  -2.055  1.00 20.00     0.008 C 
HETATM    5  C5  UNL     1     -36.021  15.363  -7.309  1.00 20.00     0.000 C 
HETATM    6  C6  UNL     1     -34.629  14.793  -7.070  1.00 20.00     0.001 C 
HETATM    7  C7  UNL     1     -36.336  16.505  -6.350  1.00 20.00     0.001 C 
HETATM    8  C8  UNL     1     -34.697  14.886  -3.170  1.00 20.00     0.010 C 
HETATM    9  C9  UNL     1     -34.440  14.369  -5.615  1.00 20.00     0.010 C 
HETATM   10  C10 UNL     1     -36.131  16.098  -4.891  1.00 20.00     0.010 C 
HETATM   11  C11 UNL     1     -34.728  15.503  -4.596  1.00 20.00    -0.034 C 
HETATM   12  O12 UNL     1     -33.662  18.791  -3.741  1.00 20.00    -0.298 OA
ENDROOT
TORSDOF 0
ENDMDL
MODEL 9
REMARK VINA RESULT:      -4.7      1.907      2.751
REMARK  0 active torsions:
REMARK  status: ('A' for Active; 'I' for Inactive)
ROOT
HETATM    1  C1  UNL     1     -35.200  14.286  -5.761  1.00 20.00     0.127 C 
HETATM    2  C2  UNL     1     -34.726  13.198  -4.828  1.00 20.00     0.078 C 
HETATM    3  C3  UNL     1     -35.644  15.582  -5.115  1.00 20.00     0.087 C 
HETATM    4  C4  UNL     1     -33.677  13.739  -3.869  1.00 20.00     0.008 C 
HETATM    5  C5  UNL     1     -34.208  19.038  -4.868  1.00 20.00     0.000 C 
HETATM    6  C6  UNL     1     -35.454  18.561  -4.133  1.00 20.00     0.001 C 
HETATM    7  C7  UNL     1     -33.603  17.936  -5.730  1.00 20.00     0.001 C 
HETATM    8  C8  UNL     1     -34.151  15.012  -3.167  1.00 20.00     0.010 C 
HETATM    9  C9  UNL     1     -35.172  17.302  -3.314  1.00 20.00     0.010 C 
HETATM   10  C10 UNL     1     -33.335  16.664  -4.925  1.00 20.00     0.010 C 
HETATM   11  C11 UNL     1     -34.573  16.140  -4.149  1.00 20.00    -0.034 C 
HETATM   12  O12 UNL     1     -35.307  14.097  -6.971  1.00 20.00    -0.298 OA
ENDROOT
TORSDOF 0
ENDMDL
