MODEL 1
REMARK VINA RESULT:      -4.8      0.000      0.000
REMARK  1 active torsions:
REMARK  status: ('A' for Active; 'I' for Inactive)
REMARK    1  A    between atoms: C1_1  and  C7_7 
ROOT
HETATM    1  C2  UNL     1     -33.683  17.612  -3.603  1.00 20.00     0.000 C 
HETATM    2  C3  UNL     1     -33.780  16.701  -2.386  1.00 20.00     0.001 C 
HETATM    3  C4  UNL     1     -33.339  16.826  -4.864  1.00 20.00     0.001 C 
HETATM    4  C5  UNL     1     -34.778  15.563  -2.607  1.00 20.00     0.018 C 
HETATM    5  C6  UNL     1     -34.333  15.689  -5.111  1.00 20.00     0.018 C 
HETATM    6  C7  UNL     1     -34.506  14.778  -3.893  1.00 20.00     0.032 C 
HETATM    7  C8  UNL     1     -33.255  13.920  -3.713  1.00 20.00     0.025 C 
ENDROOT
BRANCH   6   8
HETATM    8  C1  UNL     1     -35.595  13.733  -4.140  1.00 20.00     0.227 C 
HETATM    9  O9  UNL     1     -35.322  12.562  -4.386  1.00 20.00    -0.279 OA
HETATM   10 CL10 UNL     1     -37.190  14.412  -4.027  1.00 20.00    -0.043 Cl
ENDBRANCH   6   8
TORSDOF 1
ENDMDL
MODEL 2
REMARK VINA RESULT:      -4.5      1.177      1.177
REMARK  1 active torsions:
REMARK  status: ('A' for Active; 'I' for Inactive)
REMARK    1  A    between atoms: C1_1  and  C7_7 
ROOT
HETATM    1  C2  UNL     1     -34.272  17.611  -3.206  1.00 20.00     0.000 C 
HETATM    2  C3  UNL     1     -34.498  16.448  -2.247  1.00 20.00     0.001 C 
HETATM    3  C4  UNL     1     -33.365  17.212  -4.365  1.00 20.00     0.001 C 
HETATM    4  C5  UNL     1     -35.048  15.217  -2.970  1.00 20.00     0.018 C 
HETATM    5  C6  UNL     1     -33.903  15.989  -5.109  1.00 20.00     0.018 C 
HETATM    6  C7  UNL     1     -34.200  14.810  -4.177  1.00 20.00     0.032 C 
HETATM    7  C8  UNL     1     -32.886  14.195  -3.697  1.00 20.00     0.025 C 
ENDROOT
BRANCH   6   8
HETATM    8  C1  UNL     1     -34.849  13.656  -4.942  1.00 20.00     0.227 C 
HETATM    9  O9  UNL     1     -35.011  12.553  -4.430  1.00 20.00    -0.279 OA
HETATM   10 CL10 UNL     1     -35.300  14.113  -6.557  1.00 20.00    -0.043 Cl
ENDBRANCH   6   8
TORSDOF 1
ENDMDL
MODEL 3
REMARK VINA RESULT:      -4.5      1.570      2.309
REMARK  1 active torsions:
REMARK  status: ('A' for Active; 'I' for Inactive)
REMARK    1  A    between atoms: C1_1  and  C7_7 
ROOT
HETATM    1  C2  UNL     1     -34.776  16.275  -1.748  1.00 20.00     0.000 C 
HETATM    2  C3  UNL     1     -33.516  16.193  -2.601  1.00 20.00     0.001 C 
HETATM    3  C4  UNL     1     -36.032  16.338  -2.611  1.00 20.00     0.001 C 
HETATM    4  C5  UNL     1     -33.567  15.015  -3.576  1.00 20.00     0.018 C 
HETATM    5  C6  UNL     1     -36.109  15.161  -3.585  1.00 20.00     0.018 C 
HETATM    6  C7  UNL     1     -34.839  15.004  -4.427  1.00 20.00     0.032 C 
HETATM    7  C8  UNL     1     -34.771  16.124  -5.464  1.00 20.00     0.025 C 
ENDROOT
BRANCH   6   8
HETATM    8  C1  UNL     1     -34.909  13.748  -5.296  1.00 20.00     0.227 C 
HETATM    9  O9  UNL     1     -34.740  12.627  -4.825  1.00 20.00    -0.279 OA
HETATM   10 CL10 UNL     1     -35.247  14.120  -6.959  1.00 20.00    -0.043 Cl
ENDBRANCH   6   8
TORSDOF 1
ENDMDL
MODEL 4
REMARK VINA RESULT:      -4.4      2.734      3.821
REMARK  1 active torsions:
REMARK  status: ('A' for Active; 'I' for Inactive)
REMARK    1  A    between atoms: C1_1  and  C7_7 
ROOT
HETATM    1  C2  UNL     1     -34.599  13.359  -4.547  1.00 20.00     0.000 C 
HETATM    2  C3  UNL     1     -33.384  13.678  -3.684  1.00 20.00     0.001 C 
HETATM    3  C4  UNL     1     -35.791  14.236  -4.179  1.00 20.00     0.001 C 
HETATM    4  C5  UNL     1     -33.013  15.160  -3.752  1.00 20.00     0.018 C 
HETATM    5  C6  UNL     1     -35.445  15.724  -4.252  1.00 20.00     0.018 C 
HETATM    6  C7  UNL     1     -34.195  16.082  -3.443  1.00 20.00     0.032 C 
HETATM    7  C8  UNL     1     -34.516  16.021  -1.951  1.00 20.00     0.025 C 
ENDROOT
BRANCH   6   8
HETATM    8  C1  UNL     1     -33.814  17.550  -3.644  1.00 20.00     0.227 C 
HETATM    9  O9  UNL     1     -33.768  18.339  -2.704  1.00 20.00    -0.279 OA
HETATM   10 CL10 UNL     1     -33.475  17.916  -5.308  1.00 20.00    -0.043 Cl
ENDBRANCH   6   8
TORSDOF 1
ENDMDL
MODEL 5
REMARK VINA RESULT:      -4.4      1.889      2.974
REMARK  1 active torsions:
REMARK  status: ('A' for Active; 'I' for Inactive)
REMARK    1  A    between atoms: C1_1  and  C7_7 
ROOT
HETATM    1  C2  UNL     1     -33.260  13.838  -3.586  1.00 20.00     0.000 C 
HETATM    2  C3  UNL     1     -34.154  13.313  -4.703  1.00 20.00     0.001 C 
HETATM    3  C4  UNL     1     -33.535  15.310  -3.296  1.00 20.00     0.001 C 
HETATM    4  C5  UNL     1     -35.635  13.541  -4.399  1.00 20.00     0.018 C 
HETATM    5  C6  UNL     1     -35.010  15.559  -2.978  1.00 20.00     0.018 C 
HETATM    6  C7  UNL     1     -35.951  14.998  -4.047  1.00 20.00     0.032 C 
HETATM    7  C8  UNL     1     -35.866  15.858  -5.307  1.00 20.00     0.025 C 
ENDROOT
BRANCH   6   8
HETATM    8  C1  UNL     1     -37.413  15.159  -3.630  1.00 20.00     0.227 C 
HETATM    9  O9  UNL     1     -38.200  14.217  -3.658  1.00 20.00    -0.279 OA
HETATM   10 CL10 UNL     1     -37.777  16.784  -3.138  1.00 20.00    -0.043 Cl
ENDBRANCH   6   8
TORSDOF 1
ENDMDL
MODEL 6
REMARK VINA RESULT:      -4.4      2.452      3.640
REMARK  1 active torsions:
REMARK  status: ('A' for Active; 'I' for Inactive)
REMARK    1  A    between atoms: C1_1  and  C7_7 
ROOT
HETATM    1  C2  UNL     1     -35.299  14.057  -5.965  1.00 20.00     0.000 C 
HETATM    2  C3  UNL     1     -34.198  15.055  -6.305  1.00 20.00     0.001 C 
HETATM    3  C4  UNL     1     -35.113  13.476  -4.567  1.00 20.00     0.001 C 
HETATM    4  C5  UNL     1     -34.100  16.168  -5.260  1.00 20.00     0.018 C 
HETATM    5  C6  UNL     1     -35.024  14.573  -3.505  1.00 20.00     0.018 C 
HETATM    6  C7  UNL     1     -33.968  15.632  -3.833  1.00 20.00     0.032 C 
HETATM    7  C8  UNL     1     -32.573  15.042  -3.634  1.00 20.00     0.025 C 
ENDROOT
BRANCH   6   8
HETATM    8  C1  UNL     1     -33.998  16.771  -2.813  1.00 20.00     0.227 C 
HETATM    9  O9  UNL     1     -33.597  17.897  -3.091  1.00 20.00    -0.279 OA
HETATM   10 CL10 UNL     1     -34.650  16.263  -1.284  1.00 20.00    -0.043 Cl
ENDBRANCH   6   8
TORSDOF 1
ENDMDL
MODEL 7
REMARK VINA RESULT:      -4.3      1.729      2.310
REMARK  1 active torsions:
REMARK  status: ('A' for Active; 'I' for Inactive)
REMARK    1  A    between atoms: C1_1  and  C7_7 
ROOT
HETATM    1  C2  UNL     1     -32.755  15.118  -3.586  1.00 20.00     0.000 C 
HETATM    2  C3  UNL     1     -33.333  13.724  -3.800  1.00 20.00     0.001 C 
HETATM    3  C4  UNL     1     -33.285  16.106  -4.619  1.00 20.00     0.001 C 
HETATM    4  C5  UNL     1     -34.863  13.740  -3.805  1.00 20.00     0.018 C 
HETATM    5  C6  UNL     1     -34.813  16.147  -4.633  1.00 20.00     0.018 C 
HETATM    6  C7  UNL     1     -35.442  14.759  -4.789  1.00 20.00     0.032 C 
HETATM    7  C8  UNL     1     -35.238  14.263  -6.220  1.00 20.00     0.025 C 
ENDROOT
BRANCH   6   8
HETATM    8  C1  UNL     1     -36.965  14.831  -4.674  1.00 20.00     0.227 C 
HETATM    9  O9  UNL     1     -37.580  14.186  -3.830  1.00 20.00    -0.279 OA
HETATM   10 CL10 UNL     1     -37.660  15.903  -5.852  1.00 20.00    -0.043 Cl
ENDBRANCH   6   8
TORSDOF 1
ENDMDL
MODEL 8
REMARK VINA RESULT:      -4.3      2.046      2.550
REMARK  1 active torsions:
REMARK  status: ('A' for Active; 'I' for Inactive)
REMARK    1  A    between atoms: C1_1  and  C7_7 
ROOT
HETATM    1  C2  UNL     1     -34.989  17.937  -4.729  1.00 20.00     0.000 C 
HETATM    2  C3  UNL     1     -33.657  17.450  -5.288  1.00 20.00     0.001 C 
HETATM    3  C4  UNL     1     -36.122  16.975  -5.066  1.00 20.00     0.001 C 
HETATM    4  C5  UNL     1     -33.329  16.033  -4.814  1.00 20.00     0.018 C 
HETATM    5  C6  UNL     1     -35.819  15.553  -4.591  1.00 20.00     0.018 C 
HETATM    6  C7  UNL     1     -34.463  15.040  -5.082  1.00 20.00     0.032 C 
HETATM    7  C8  UNL     1     -34.540  14.742  -6.578  1.00 20.00     0.025 C 
ENDROOT
BRANCH   6   8
HETATM    8  C1  UNL     1     -34.146  13.669  -4.484  1.00 20.00     0.227 C 
HETATM    9  O9  UNL     1     -34.856  12.691  -4.699  1.00 20.00    -0.279 OA
HETATM   10 CL10 UNL     1     -32.709  13.697  -3.508  1.00 20.00    -0.043 Cl
ENDBRANCH   6   8
TORSDOF 1
ENDMDL
MODEL 9
REMARK VINA RESULT:      -4.3      1.658      1.943
REMARK  1 active torsions:
REMARK  status: ('A' for Active; 'I' for Inactive)
REMARK    1  A    between atoms: C1_1  and  C7_7 
ROOT
HETATM    1  C2  UNL     1     -33.185  16.372  -4.885  1.00 20.00     0.000 C 
HETATM    2  C3  UNL     1     -33.329  15.682  -3.534  1.00 20.00     0.001 C 
HETATM    3  C4  UNL     1     -34.057  15.709  -5.946  1.00 20.00     0.001 C 
HETATM    4  C5  UNL     1     -34.788  15.622  -3.080  1.00 20.00     0.018 C 
HETATM    5  C6  UNL     1     -35.524  15.649  -5.518  1.00 20.00     0.018 C 
HETATM    6  C7  UNL     1     -35.713  15.014  -4.137  1.00 20.00     0.032 C 
HETATM    7  C8  UNL     1     -35.466  13.509  -4.228  1.00 20.00     0.025 C 
ENDROOT
BRANCH   6   8
HETATM    8  C1  UNL     1     -37.175  15.086  -3.696  1.00 20.00     0.227 C 
HETATM    9  O9  UNL     1     -37.913  14.106  -3.743  1.00 20.00    -0.279 OA
HETATM   10 CL10 UNL     1     -37.615  16.675  -3.147  1.00 20.00    -0.043 Cl
ENDBRANCH   6   8
TORSDOF 1
ENDMDL
