MODEL 1
REMARK VINA RESULT:      -5.2      0.000      0.000
REMARK  0 active torsions:
REMARK  status: ('A' for Active; 'I' for Inactive)
ROOT
HETATM    1  C1  UNL     1     -34.367  16.864  -2.814  1.00 20.00    -0.077 C 
HETATM    2  C2  UNL     1     -34.084  15.847  -3.641  1.00 20.00    -0.077 C 
HETATM    3  C3  UNL     1     -34.810  16.649  -1.391  1.00 20.00     0.034 C 
HETATM    4  C4  UNL     1     -34.243  18.305  -3.234  1.00 20.00     0.034 C 
HETATM    5  C5  UNL     1     -33.641  16.061  -5.065  1.00 20.00     0.034 C 
HETATM    6  C6  UNL     1     -34.208  14.405  -3.221  1.00 20.00     0.034 C 
HETATM    7  C7  UNL     1     -33.921  17.432  -0.423  1.00 20.00     0.004 C 
HETATM    8  C8  UNL     1     -33.358  19.080  -2.257  1.00 20.00     0.004 C 
HETATM    9  C9  UNL     1     -34.529  15.278  -6.032  1.00 20.00     0.004 C 
HETATM   10  C10 UNL     1     -35.094  13.630  -4.198  1.00 20.00     0.004 C 
HETATM   11  C11 UNL     1     -33.822  18.908  -0.809  1.00 20.00     0.001 C 
HETATM   12  C12 UNL     1     -34.630  13.802  -5.645  1.00 20.00     0.001 C 
ENDROOT
TORSDOF 0
ENDMDL
MODEL 2
REMARK VINA RESULT:      -5.2      0.035      4.647
REMARK  0 active torsions:
REMARK  status: ('A' for Active; 'I' for Inactive)
ROOT
HETATM    1  C1  UNL     1     -34.115  15.830  -3.650  1.00 20.00    -0.077 C 
HETATM    2  C2  UNL     1     -34.391  16.849  -2.823  1.00 20.00    -0.077 C 
HETATM    3  C3  UNL     1     -34.247  14.389  -3.228  1.00 20.00     0.034 C 
HETATM    4  C4  UNL     1     -33.673  16.041  -5.074  1.00 20.00     0.034 C 
HETATM    5  C5  UNL     1     -34.259  18.290  -3.245  1.00 20.00     0.034 C 
HETATM    6  C6  UNL     1     -34.833  16.639  -1.399  1.00 20.00     0.034 C 
HETATM    7  C7  UNL     1     -35.139  13.619  -4.203  1.00 20.00     0.004 C 
HETATM    8  C8  UNL     1     -34.567  15.261  -6.040  1.00 20.00     0.004 C 
HETATM    9  C9  UNL     1     -33.368  19.060  -2.269  1.00 20.00     0.004 C 
HETATM   10  C10 UNL     1     -33.939  17.417  -0.432  1.00 20.00     0.004 C 
HETATM   11  C11 UNL     1     -34.675  13.786  -5.651  1.00 20.00     0.001 C 
HETATM   12  C12 UNL     1     -33.831  18.892  -0.821  1.00 20.00     0.001 C 
ENDROOT
TORSDOF 0
ENDMDL
MODEL 3
REMARK VINA RESULT:      -4.9      0.834      1.027
REMARK  0 active torsions:
REMARK  status: ('A' for Active; 'I' for Inactive)
ROOT
HETATM    1  C1  UNL     1     -34.519  16.872  -3.260  1.00 20.00    -0.077 C 
HETATM    2  C2  UNL     1     -34.161  16.115  -4.307  1.00 20.00    -0.077 C 
HETATM    3  C3  UNL     1     -35.225  16.304  -2.057  1.00 20.00     0.034 C 
HETATM    4  C4  UNL     1     -34.223  18.347  -3.191  1.00 20.00     0.034 C 
HETATM    5  C5  UNL     1     -33.454  16.682  -5.512  1.00 20.00     0.034 C 
HETATM    6  C6  UNL     1     -34.456  14.639  -4.377  1.00 20.00     0.034 C 
HETATM    7  C7  UNL     1     -34.475  16.658  -0.771  1.00 20.00     0.004 C 
HETATM    8  C8  UNL     1     -33.479  18.690  -1.899  1.00 20.00     0.004 C 
HETATM    9  C9  UNL     1     -34.204  16.328  -6.796  1.00 20.00     0.004 C 
HETATM   10  C10 UNL     1     -35.202  14.296  -5.668  1.00 20.00     0.004 C 
HETATM   11  C11 UNL     1     -34.207  18.160  -0.664  1.00 20.00     0.001 C 
HETATM   12  C12 UNL     1     -34.473  14.826  -6.903  1.00 20.00     0.001 C 
ENDROOT
TORSDOF 0
ENDMDL
MODEL 4
REMARK VINA RESULT:      -4.8      1.534      5.050
REMARK  0 active torsions:
REMARK  status: ('A' for Active; 'I' for Inactive)
ROOT
HETATM    1  C1  UNL     1     -35.388  15.464  -3.271  1.00 20.00    -0.077 C 
HETATM    2  C2  UNL     1     -35.222  16.569  -2.530  1.00 20.00    -0.077 C 
HETATM    3  C3  UNL     1     -36.462  15.350  -4.322  1.00 20.00     0.034 C 
HETATM    4  C4  UNL     1     -34.501  14.255  -3.131  1.00 20.00     0.034 C 
HETATM    5  C5  UNL     1     -34.148  16.683  -1.479  1.00 20.00     0.034 C 
HETATM    6  C6  UNL     1     -36.109  17.778  -2.670  1.00 20.00     0.034 C 
HETATM    7  C7  UNL     1     -35.861  14.947  -5.670  1.00 20.00     0.004 C 
HETATM    8  C8  UNL     1     -33.911  13.856  -4.485  1.00 20.00     0.004 C 
HETATM    9  C9  UNL     1     -34.749  17.087  -0.133  1.00 20.00     0.004 C 
HETATM   10  C10 UNL     1     -36.701  18.176  -1.317  1.00 20.00     0.004 C 
HETATM   11  C11 UNL     1     -34.994  13.693  -5.553  1.00 20.00     0.001 C 
HETATM   12  C12 UNL     1     -35.618  18.340  -0.249  1.00 20.00     0.001 C 
ENDROOT
TORSDOF 0
ENDMDL
MODEL 5
REMARK VINA RESULT:      -4.8      1.523      2.256
REMARK  0 active torsions:
REMARK  status: ('A' for Active; 'I' for Inactive)
ROOT
HETATM    1  C1  UNL     1     -35.226  16.594  -2.553  1.00 20.00    -0.077 C 
HETATM    2  C2  UNL     1     -35.416  15.506  -3.313  1.00 20.00    -0.077 C 
HETATM    3  C3  UNL     1     -36.089  17.824  -2.675  1.00 20.00     0.034 C 
HETATM    4  C4  UNL     1     -34.152  16.669  -1.501  1.00 20.00     0.034 C 
HETATM    5  C5  UNL     1     -34.553  14.276  -3.193  1.00 20.00     0.034 C 
HETATM    6  C6  UNL     1     -36.490  15.431  -4.367  1.00 20.00     0.034 C 
HETATM    7  C7  UNL     1     -36.674  18.212  -1.315  1.00 20.00     0.004 C 
HETATM    8  C8  UNL     1     -34.746  17.063  -0.147  1.00 20.00     0.004 C 
HETATM    9  C9  UNL     1     -33.969  13.888  -4.551  1.00 20.00     0.004 C 
HETATM   10  C10 UNL     1     -35.896  15.038  -5.720  1.00 20.00     0.004 C 
HETATM   11  C11 UNL     1     -35.589  18.336  -0.244  1.00 20.00     0.001 C 
HETATM   12  C12 UNL     1     -35.054  13.765  -5.623  1.00 20.00     0.001 C 
ENDROOT
TORSDOF 0
ENDMDL
MODEL 6
REMARK VINA RESULT:      -4.8      1.113      2.491
REMARK  0 active torsions:
REMARK  status: ('A' for Active; 'I' for Inactive)
ROOT
HETATM    1  C1  UNL     1     -34.273  16.547  -3.601  1.00 20.00    -0.077 C 
HETATM    2  C2  UNL     1     -34.890  16.090  -4.700  1.00 20.00    -0.077 C 
HETATM    3  C3  UNL     1     -33.672  17.927  -3.528  1.00 20.00     0.034 C 
HETATM    4  C4  UNL     1     -34.150  15.729  -2.343  1.00 20.00     0.034 C 
HETATM    5  C5  UNL     1     -35.491  14.709  -4.774  1.00 20.00     0.034 C 
HETATM    6  C6  UNL     1     -35.012  16.907  -5.959  1.00 20.00     0.034 C 
HETATM    7  C7  UNL     1     -34.214  18.690  -2.318  1.00 20.00     0.004 C 
HETATM    8  C8  UNL     1     -34.689  16.504  -1.138  1.00 20.00     0.004 C 
HETATM    9  C9  UNL     1     -34.949  13.947  -5.983  1.00 20.00     0.004 C 
HETATM   10  C10 UNL     1     -34.473  16.133  -7.163  1.00 20.00     0.004 C 
HETATM   11  C11 UNL     1     -34.055  17.891  -1.024  1.00 20.00     0.001 C 
HETATM   12  C12 UNL     1     -35.107  14.746  -7.278  1.00 20.00     0.001 C 
ENDROOT
TORSDOF 0
ENDMDL
MODEL 7
REMARK VINA RESULT:      -4.8      1.108      5.067
REMARK  0 active torsions:
REMARK  status: ('A' for Active; 'I' for Inactive)
ROOT
HETATM    1  C1  UNL     1     -34.891  16.098  -4.682  1.00 20.00    -0.077 C 
HETATM    2  C2  UNL     1     -34.274  16.565  -3.587  1.00 20.00    -0.077 C 
HETATM    3  C3  UNL     1     -35.017  16.908  -5.946  1.00 20.00     0.034 C 
HETATM    4  C4  UNL     1     -35.489  14.717  -4.746  1.00 20.00     0.034 C 
HETATM    5  C5  UNL     1     -34.149  15.754  -2.322  1.00 20.00     0.034 C 
HETATM    6  C6  UNL     1     -33.677  17.946  -3.522  1.00 20.00     0.034 C 
HETATM    7  C7  UNL     1     -34.476  16.128  -7.145  1.00 20.00     0.004 C 
HETATM    8  C8  UNL     1     -34.946  13.948  -5.953  1.00 20.00     0.004 C 
HETATM    9  C9  UNL     1     -34.688  16.535  -1.123  1.00 20.00     0.004 C 
HETATM   10  C10 UNL     1     -34.219  18.716  -2.317  1.00 20.00     0.004 C 
HETATM   11  C11 UNL     1     -35.108  14.739  -7.252  1.00 20.00     0.001 C 
HETATM   12  C12 UNL     1     -34.058  17.924  -1.018  1.00 20.00     0.001 C 
ENDROOT
TORSDOF 0
ENDMDL
MODEL 8
REMARK VINA RESULT:      -4.7      0.854      2.233
REMARK  0 active torsions:
REMARK  status: ('A' for Active; 'I' for Inactive)
ROOT
HETATM    1  C1  UNL     1     -34.413  16.837  -2.629  1.00 20.00    -0.077 C 
HETATM    2  C2  UNL     1     -34.925  16.122  -3.641  1.00 20.00    -0.077 C 
HETATM    3  C3  UNL     1     -33.731  18.164  -2.841  1.00 20.00     0.034 C 
HETATM    4  C4  UNL     1     -34.496  16.384  -1.196  1.00 20.00     0.034 C 
HETATM    5  C5  UNL     1     -35.606  14.794  -3.430  1.00 20.00     0.034 C 
HETATM    6  C6  UNL     1     -34.841  16.575  -5.075  1.00 20.00     0.034 C 
HETATM    7  C7  UNL     1     -34.360  19.243  -1.957  1.00 20.00     0.004 C 
HETATM    8  C8  UNL     1     -35.120  17.472  -0.319  1.00 20.00     0.004 C 
HETATM    9  C9  UNL     1     -34.978  13.717  -4.314  1.00 20.00     0.004 C 
HETATM   10  C10 UNL     1     -34.216  15.488  -5.952  1.00 20.00     0.004 C 
HETATM   11  C11 UNL     1     -34.411  18.816  -0.489  1.00 20.00     0.001 C 
HETATM   12  C12 UNL     1     -34.926  14.144  -5.782  1.00 20.00     0.001 C 
ENDROOT
TORSDOF 0
ENDMDL
MODEL 9
REMARK VINA RESULT:      -4.6      3.225      6.469
REMARK  0 active torsions:
REMARK  status: ('A' for Active; 'I' for Inactive)
ROOT
HETATM    1  C1  UNL     1     -33.906  18.118   0.440  1.00 20.00    -0.077 C 
HETATM    2  C2  UNL     1     -33.495  18.664   1.593  1.00 20.00    -0.077 C 
HETATM    3  C3  UNL     1     -35.279  17.518   0.274  1.00 20.00     0.034 C 
HETATM    4  C4  UNL     1     -33.039  18.079  -0.791  1.00 20.00     0.034 C 
HETATM    5  C5  UNL     1     -32.122  19.263   1.759  1.00 20.00     0.034 C 
HETATM    6  C6  UNL     1     -34.361  18.702   2.825  1.00 20.00     0.034 C 
HETATM    7  C7  UNL     1     -35.998  18.136  -0.927  1.00 20.00     0.004 C 
HETATM    8  C8  UNL     1     -33.770  18.693  -1.988  1.00 20.00     0.004 C 
HETATM    9  C9  UNL     1     -31.404  18.647   2.960  1.00 20.00     0.004 C 
HETATM   10  C10 UNL     1     -33.631  18.088   4.021  1.00 20.00     0.004 C 
HETATM   11  C11 UNL     1     -35.148  18.063  -2.197  1.00 20.00     0.001 C 
HETATM   12  C12 UNL     1     -32.253  18.718   4.230  1.00 20.00     0.001 C 
ENDROOT
TORSDOF 0
ENDMDL
