MODEL 1
REMARK VINA RESULT:      -4.3      0.000      0.000
REMARK  0 active torsions:
REMARK  status: ('A' for Active; 'I' for Inactive)
ROOT
HETATM    1  C1  UNL     1     -34.353  16.382  -2.194  1.00 20.00     0.132 C 
HETATM    2  C2  UNL     1     -34.534  15.868  -4.847  1.00 20.00     0.064 C 
HETATM    3  C3  UNL     1     -33.474  16.857  -4.384  1.00 20.00     0.128 C 
HETATM    4  C4  UNL     1     -34.643  14.708  -3.852  1.00 20.00     0.051 C 
HETATM    5  C5  UNL     1     -34.492  16.954  -0.819  1.00 20.00     0.099 C 
HETATM    6  C6  UNL     1     -33.471  18.116  -5.241  1.00 20.00     0.040 C 
HETATM    7  C7  UNL     1     -33.407  13.798  -3.875  1.00 20.00     0.040 C 
HETATM    8  C8  UNL     1     -35.886  13.870  -4.181  1.00 20.00     0.040 C 
HETATM    9  N9  UNL     1     -34.811  15.215  -2.486  1.00 20.00    -0.261 NA
HETATM   10  O10 UNL     1     -33.723  17.253  -3.022  1.00 20.00    -0.333 OA
ENDROOT
TORSDOF 0
ENDMDL
MODEL 2
REMARK VINA RESULT:      -4.1      1.937      2.977
REMARK  0 active torsions:
REMARK  status: ('A' for Active; 'I' for Inactive)
ROOT
HETATM    1  C1  UNL     1     -36.772  15.045  -3.907  1.00 20.00     0.132 C 
HETATM    2  C2  UNL     1     -34.136  15.596  -4.192  1.00 20.00     0.064 C 
HETATM    3  C3  UNL     1     -34.678  15.419  -2.781  1.00 20.00     0.128 C 
HETATM    4  C4  UNL     1     -34.796  14.589  -5.140  1.00 20.00     0.051 C 
HETATM    5  C5  UNL     1     -38.254  15.123  -3.719  1.00 20.00     0.099 C 
HETATM    6  C6  UNL     1     -34.191  16.524  -1.853  1.00 20.00     0.040 C 
HETATM    7  C7  UNL     1     -34.349  13.147  -4.866  1.00 20.00     0.040 C 
HETATM    8  C8  UNL     1     -34.450  14.952  -6.590  1.00 20.00     0.040 C 
HETATM    9  N9  UNL     1     -36.256  14.646  -5.016  1.00 20.00    -0.261 NA
HETATM   10  O10 UNL     1     -36.118  15.456  -2.792  1.00 20.00    -0.333 OA
ENDROOT
TORSDOF 0
ENDMDL
MODEL 3
REMARK VINA RESULT:      -4.1      1.217      2.904
REMARK  0 active torsions:
REMARK  status: ('A' for Active; 'I' for Inactive)
ROOT
HETATM    1  C1  UNL     1     -34.185  16.835  -4.708  1.00 20.00     0.132 C 
HETATM    2  C2  UNL     1     -34.685  14.906  -2.873  1.00 20.00     0.064 C 
HETATM    3  C3  UNL     1     -34.979  16.348  -2.488  1.00 20.00     0.128 C 
HETATM    4  C4  UNL     1     -35.068  14.663  -4.338  1.00 20.00     0.051 C 
HETATM    5  C5  UNL     1     -33.570  17.914  -5.540  1.00 20.00     0.099 C 
HETATM    6  C6  UNL     1     -34.436  16.679  -1.104  1.00 20.00     0.040 C 
HETATM    7  C7  UNL     1     -36.586  14.688  -4.558  1.00 20.00     0.040 C 
HETATM    8  C8  UNL     1     -34.521  13.302  -4.788  1.00 20.00     0.040 C 
HETATM    9  N9  UNL     1     -34.464  15.681  -5.203  1.00 20.00    -0.261 NA
HETATM   10  O10 UNL     1     -34.367  17.251  -3.428  1.00 20.00    -0.333 OA
ENDROOT
TORSDOF 0
ENDMDL
MODEL 4
REMARK VINA RESULT:      -4.0     12.424     13.446
REMARK  0 active torsions:
REMARK  status: ('A' for Active; 'I' for Inactive)
ROOT
HETATM    1  C1  UNL     1     -41.973   4.263  -2.353  1.00 20.00     0.132 C 
HETATM    2  C2  UNL     1     -41.835   6.895  -1.731  1.00 20.00     0.064 C 
HETATM    3  C3  UNL     1     -42.930   6.446  -2.688  1.00 20.00     0.128 C 
HETATM    4  C4  UNL     1     -41.644   5.853  -0.623  1.00 20.00     0.051 C 
HETATM    5  C5  UNL     1     -41.827   2.918  -2.991  1.00 20.00     0.099 C 
HETATM    6  C6  UNL     1     -43.016   7.357  -3.905  1.00 20.00     0.040 C 
HETATM    7  C7  UNL     1     -42.833   5.803   0.346  1.00 20.00     0.040 C 
HETATM    8  C8  UNL     1     -40.370   6.180   0.169  1.00 20.00     0.040 C 
HETATM    9  N9  UNL     1     -41.466   4.517  -1.198  1.00 20.00    -0.261 NA
HETATM   10  O10 UNL     1     -42.666   5.110  -3.155  1.00 20.00    -0.333 OA
ENDROOT
TORSDOF 0
ENDMDL
MODEL 5
REMARK VINA RESULT:      -4.0      1.557      3.378
REMARK  0 active torsions:
REMARK  status: ('A' for Active; 'I' for Inactive)
ROOT
HETATM    1  C1  UNL     1     -34.828  14.766  -4.058  1.00 20.00     0.132 C 
HETATM    2  C2  UNL     1     -35.101  17.348  -3.288  1.00 20.00     0.064 C 
HETATM    3  C3  UNL     1     -34.251  16.432  -2.419  1.00 20.00     0.128 C 
HETATM    4  C4  UNL     1     -34.873  17.029  -4.770  1.00 20.00     0.051 C 
HETATM    5  C5  UNL     1     -34.979  13.290  -4.251  1.00 20.00     0.099 C 
HETATM    6  C6  UNL     1     -34.593  16.586  -0.944  1.00 20.00     0.040 C 
HETATM    7  C7  UNL     1     -33.474  17.439  -5.249  1.00 20.00     0.040 C 
HETATM    8  C8  UNL     1     -35.924  17.762  -5.615  1.00 20.00     0.040 C 
HETATM    9  N9  UNL     1     -35.040  15.594  -5.019  1.00 20.00    -0.261 NA
HETATM   10  O10 UNL     1     -34.472  15.056  -2.781  1.00 20.00    -0.333 OA
ENDROOT
TORSDOF 0
ENDMDL
MODEL 6
REMARK VINA RESULT:      -4.0      1.492      3.154
REMARK  0 active torsions:
REMARK  status: ('A' for Active; 'I' for Inactive)
ROOT
HETATM    1  C1  UNL     1     -35.946  15.430  -3.462  1.00 20.00     0.132 C 
HETATM    2  C2  UNL     1     -33.837  16.992  -2.793  1.00 20.00     0.064 C 
HETATM    3  C3  UNL     1     -34.546  16.236  -1.678  1.00 20.00     0.128 C 
HETATM    4  C4  UNL     1     -33.752  16.120  -4.050  1.00 20.00     0.051 C 
HETATM    5  C5  UNL     1     -37.309  14.886  -3.751  1.00 20.00     0.099 C 
HETATM    6  C6  UNL     1     -34.820  17.135  -0.480  1.00 20.00     0.040 C 
HETATM    7  C7  UNL     1     -32.786  14.939  -3.879  1.00 20.00     0.040 C 
HETATM    8  C8  UNL     1     -33.287  16.978  -5.235  1.00 20.00     0.040 C 
HETATM    9  N9  UNL     1     -35.072  15.584  -4.395  1.00 20.00    -0.261 NA
HETATM   10  O10 UNL     1     -35.809  15.728  -2.145  1.00 20.00    -0.333 OA
ENDROOT
TORSDOF 0
ENDMDL
MODEL 7
REMARK VINA RESULT:      -4.0      2.123      3.390
REMARK  0 active torsions:
REMARK  status: ('A' for Active; 'I' for Inactive)
ROOT
HETATM    1  C1  UNL     1     -34.640  15.205  -6.519  1.00 20.00     0.132 C 
HETATM    2  C2  UNL     1     -33.406  16.132  -4.294  1.00 20.00     0.064 C 
HETATM    3  C3  UNL     1     -34.238  17.113  -5.107  1.00 20.00     0.128 C 
HETATM    4  C4  UNL     1     -34.095  14.764  -4.252  1.00 20.00     0.051 C 
HETATM    5  C5  UNL     1     -34.999  14.817  -7.917  1.00 20.00     0.099 C 
HETATM    6  C6  UNL     1     -33.496  18.423  -5.332  1.00 20.00     0.040 C 
HETATM    7  C7  UNL     1     -35.377  14.780  -3.409  1.00 20.00     0.040 C 
HETATM    8  C8  UNL     1     -33.128  13.725  -3.668  1.00 20.00     0.040 C 
HETATM    9  N9  UNL     1     -34.443  14.321  -5.605  1.00 20.00    -0.261 NA
HETATM   10  O10 UNL     1     -34.547  16.554  -6.397  1.00 20.00    -0.333 OA
ENDROOT
TORSDOF 0
ENDMDL
MODEL 8
REMARK VINA RESULT:      -3.9      1.593      2.706
REMARK  0 active torsions:
REMARK  status: ('A' for Active; 'I' for Inactive)
ROOT
HETATM    1  C1  UNL     1     -35.016  15.925  -2.376  1.00 20.00     0.132 C 
HETATM    2  C2  UNL     1     -36.214  14.375  -4.246  1.00 20.00     0.064 C 
HETATM    3  C3  UNL     1     -36.909  15.667  -3.841  1.00 20.00     0.128 C 
HETATM    4  C4  UNL     1     -34.698  14.591  -4.313  1.00 20.00     0.051 C 
HETATM    5  C5  UNL     1     -34.578  16.579  -1.105  1.00 20.00     0.099 C 
HETATM    6  C6  UNL     1     -38.392  15.445  -3.577  1.00 20.00     0.040 C 
HETATM    7  C7  UNL     1     -34.285  15.489  -5.486  1.00 20.00     0.040 C 
HETATM    8  C8  UNL     1     -33.997  13.233  -4.453  1.00 20.00     0.040 C 
HETATM    9  N9  UNL     1     -34.211  15.204  -3.074  1.00 20.00    -0.261 NA
HETATM   10  O10 UNL     1     -36.321  16.192  -2.636  1.00 20.00    -0.333 OA
ENDROOT
TORSDOF 0
ENDMDL
MODEL 9
REMARK VINA RESULT:      -3.9      1.971      3.240
REMARK  0 active torsions:
REMARK  status: ('A' for Active; 'I' for Inactive)
ROOT
HETATM    1  C1  UNL     1     -33.854  17.226  -5.549  1.00 20.00     0.132 C 
HETATM    2  C2  UNL     1     -34.945  14.856  -4.823  1.00 20.00     0.064 C 
HETATM    3  C3  UNL     1     -34.406  14.987  -6.240  1.00 20.00     0.128 C 
HETATM    4  C4  UNL     1     -34.026  15.589  -3.839  1.00 20.00     0.051 C 
HETATM    5  C5  UNL     1     -33.609  18.605  -6.073  1.00 20.00     0.099 C 
HETATM    6  C6  UNL     1     -35.389  14.439  -7.264  1.00 20.00     0.040 C 
HETATM    7  C7  UNL     1     -32.671  14.888  -3.670  1.00 20.00     0.040 C 
HETATM    8  C8  UNL     1     -34.715  15.681  -2.471  1.00 20.00     0.040 C 
HETATM    9  N9  UNL     1     -33.777  16.961  -4.292  1.00 20.00    -0.261 NA
HETATM   10  O10 UNL     1     -34.167  16.371  -6.556  1.00 20.00    -0.333 OA
ENDROOT
TORSDOF 0
ENDMDL
