MODEL 1
REMARK VINA RESULT:      -5.7      0.000      0.000
REMARK  0 active torsions:
REMARK  status: ('A' for Active; 'I' for Inactive)
ROOT
HETATM    1  C1  UNL     1     -34.294   6.487   5.920  1.00 20.00     0.288 C 
HETATM    2  C2  UNL     1     -34.843   5.051   6.083  1.00 20.00     0.288 C 
HETATM    3  C3  UNL     1     -33.959   6.122   4.455  1.00 20.00     0.343 C 
HETATM    4  C4  UNL     1     -35.045   5.022   4.550  1.00 20.00     0.343 C 
HETATM    5  F5  UNL     1     -33.240   6.809   6.702  1.00 20.00    -0.240 F 
HETATM    6  F6  UNL     1     -33.958   4.147   6.566  1.00 20.00    -0.240 F 
HETATM    7  F7  UNL     1     -32.700   5.672   4.246  1.00 20.00    -0.196 F 
HETATM    8  F8  UNL     1     -34.186   7.091   3.542  1.00 20.00    -0.196 F 
HETATM    9  F9  UNL     1     -34.748   3.853   3.942  1.00 20.00    -0.196 F 
HETATM   10  F10 UNL     1     -36.275   5.386   4.121  1.00 20.00    -0.196 F 
ENDROOT
TORSDOF 0
ENDMDL
MODEL 2
REMARK VINA RESULT:      -5.2      0.858      2.796
REMARK  0 active torsions:
REMARK  status: ('A' for Active; 'I' for Inactive)
ROOT
HETATM    1  C1  UNL     1     -34.405   4.661   5.514  1.00 20.00     0.288 C 
HETATM    2  C2  UNL     1     -33.763   6.042   5.774  1.00 20.00     0.288 C 
HETATM    3  C3  UNL     1     -34.810   5.185   4.117  1.00 20.00     0.343 C 
HETATM    4  C4  UNL     1     -33.657   6.211   4.239  1.00 20.00     0.343 C 
HETATM    5  F5  UNL     1     -35.425   4.320   6.333  1.00 20.00    -0.240 F 
HETATM    6  F6  UNL     1     -34.560   6.941   6.399  1.00 20.00    -0.240 F 
HETATM    7  F7  UNL     1     -36.051   5.719   4.038  1.00 20.00    -0.196 F 
HETATM    8  F8  UNL     1     -34.700   4.299   3.103  1.00 20.00    -0.196 F 
HETATM    9  F9  UNL     1     -33.922   7.448   3.767  1.00 20.00    -0.196 F 
HETATM   10  F10 UNL     1     -32.480   5.825   3.695  1.00 20.00    -0.196 F 
ENDROOT
TORSDOF 0
ENDMDL
MODEL 3
REMARK VINA RESULT:      -4.9      0.958      2.779
REMARK  0 active torsions:
REMARK  status: ('A' for Active; 'I' for Inactive)
ROOT
HETATM    1  C1  UNL     1     -33.642   5.982   4.345  1.00 20.00     0.288 C 
HETATM    2  C2  UNL     1     -34.798   4.957   4.328  1.00 20.00     0.288 C 
HETATM    3  C3  UNL     1     -33.956   6.213   5.841  1.00 20.00     0.343 C 
HETATM    4  C4  UNL     1     -34.603   4.806   5.855  1.00 20.00     0.343 C 
HETATM    5  F5  UNL     1     -33.793   7.056   3.539  1.00 20.00    -0.240 F 
HETATM    6  F6  UNL     1     -36.000   5.449   3.946  1.00 20.00    -0.240 F 
HETATM    7  F7  UNL     1     -34.799   7.238   6.102  1.00 20.00    -0.196 F 
HETATM    8  F8  UNL     1     -32.884   6.372   6.648  1.00 20.00    -0.196 F 
HETATM    9  F9  UNL     1     -35.735   4.690   6.582  1.00 20.00    -0.196 F 
HETATM   10  F10 UNL     1     -33.785   3.798   6.238  1.00 20.00    -0.196 F 
ENDROOT
TORSDOF 0
ENDMDL
MODEL 4
REMARK VINA RESULT:      -4.7      0.969      3.219
REMARK  0 active torsions:
REMARK  status: ('A' for Active; 'I' for Inactive)
ROOT
HETATM    1  C1  UNL     1     -34.984   5.445   4.455  1.00 20.00     0.288 C 
HETATM    2  C2  UNL     1     -33.800   6.432   4.567  1.00 20.00     0.288 C 
HETATM    3  C3  UNL     1     -34.633   4.965   5.882  1.00 20.00     0.343 C 
HETATM    4  C4  UNL     1     -33.947   6.335   6.104  1.00 20.00     0.343 C 
HETATM    5  F5  UNL     1     -34.886   4.514   3.480  1.00 20.00    -0.240 F 
HETATM    6  F6  UNL     1     -32.624   5.982   4.070  1.00 20.00    -0.240 F 
HETATM    7  F7  UNL     1     -33.812   3.892   5.944  1.00 20.00    -0.196 F 
HETATM    8  F8  UNL     1     -35.685   4.700   6.688  1.00 20.00    -0.196 F 
HETATM    9  F9  UNL     1     -32.791   6.304   6.801  1.00 20.00    -0.196 F 
HETATM   10  F10 UNL     1     -34.724   7.285   6.672  1.00 20.00    -0.196 F 
ENDROOT
TORSDOF 0
ENDMDL
MODEL 5
REMARK VINA RESULT:      -4.6      1.299      3.140
REMARK  0 active torsions:
REMARK  status: ('A' for Active; 'I' for Inactive)
ROOT
HETATM    1  C1  UNL     1     -35.108   5.992   3.896  1.00 20.00     0.288 C 
HETATM    2  C2  UNL     1     -34.164   5.739   2.698  1.00 20.00     0.288 C 
HETATM    3  C3  UNL     1     -33.869   5.873   4.813  1.00 20.00     0.343 C 
HETATM    4  C4  UNL     1     -33.004   6.251   3.585  1.00 20.00     0.343 C 
HETATM    5  F5  UNL     1     -36.075   5.069   4.090  1.00 20.00    -0.240 F 
HETATM    6  F6  UNL     1     -34.063   4.446   2.306  1.00 20.00    -0.240 F 
HETATM    7  F7  UNL     1     -33.642   4.638   5.319  1.00 20.00    -0.196 F 
HETATM    8  F8  UNL     1     -33.821   6.737   5.851  1.00 20.00    -0.196 F 
HETATM    9  F9  UNL     1     -31.836   5.584   3.464  1.00 20.00    -0.196 F 
HETATM   10  F10 UNL     1     -32.720   7.568   3.462  1.00 20.00    -0.196 F 
ENDROOT
TORSDOF 0
ENDMDL
MODEL 6
REMARK VINA RESULT:      -4.5      8.859      9.533
REMARK  0 active torsions:
REMARK  status: ('A' for Active; 'I' for Inactive)
ROOT
HETATM    1  C1  UNL     1     -42.804   5.930  -0.678  1.00 20.00     0.288 C 
HETATM    2  C2  UNL     1     -42.393   4.468  -0.391  1.00 20.00     0.288 C 
HETATM    3  C3  UNL     1     -41.364   6.165  -1.189  1.00 20.00     0.343 C 
HETATM    4  C4  UNL     1     -41.276   4.641  -1.448  1.00 20.00     0.343 C 
HETATM    5  F5  UNL     1     -43.174   6.660   0.398  1.00 20.00    -0.240 F 
HETATM    6  F6  UNL     1     -41.961   4.226   0.870  1.00 20.00    -0.240 F 
HETATM    7  F7  UNL     1     -40.496   6.645  -0.268  1.00 20.00    -0.196 F 
HETATM    8  F8  UNL     1     -41.250   6.952  -2.282  1.00 20.00    -0.196 F 
HETATM    9  F9  UNL     1     -40.092   4.064  -1.149  1.00 20.00    -0.196 F 
HETATM   10  F10 UNL     1     -41.599   4.249  -2.701  1.00 20.00    -0.196 F 
ENDROOT
TORSDOF 0
ENDMDL
MODEL 7
REMARK VINA RESULT:      -4.4     12.218     13.476
REMARK  0 active torsions:
REMARK  status: ('A' for Active; 'I' for Inactive)
ROOT
HETATM    1  C1  UNL     1     -33.853  16.075  -2.733  1.00 20.00     0.288 C 
HETATM    2  C2  UNL     1     -34.764  16.411  -3.935  1.00 20.00     0.288 C 
HETATM    3  C3  UNL     1     -33.323  14.877  -3.552  1.00 20.00     0.343 C 
HETATM    4  C4  UNL     1     -33.765  15.637  -4.827  1.00 20.00     0.343 C 
HETATM    5  F5  UNL     1     -34.488  15.766  -1.580  1.00 20.00    -0.240 F 
HETATM    6  F6  UNL     1     -36.012  15.887  -3.878  1.00 20.00    -0.240 F 
HETATM    7  F7  UNL     1     -33.957  13.702  -3.333  1.00 20.00    -0.196 F 
HETATM    8  F8  UNL     1     -31.998  14.633  -3.446  1.00 20.00    -0.196 F 
HETATM    9  F9  UNL     1     -34.314  14.878  -5.800  1.00 20.00    -0.196 F 
HETATM   10  F10 UNL     1     -32.806  16.391  -5.411  1.00 20.00    -0.196 F 
ENDROOT
TORSDOF 0
ENDMDL
MODEL 8
REMARK VINA RESULT:      -4.4     12.338     13.575
REMARK  0 active torsions:
REMARK  status: ('A' for Active; 'I' for Inactive)
ROOT
HETATM    1  C1  UNL     1     -33.206  16.025  -4.983  1.00 20.00     0.288 C 
HETATM    2  C2  UNL     1     -34.654  15.504  -5.125  1.00 20.00     0.288 C 
HETATM    3  C3  UNL     1     -33.106  15.196  -3.681  1.00 20.00     0.343 C 
HETATM    4  C4  UNL     1     -34.243  14.305  -4.238  1.00 20.00     0.343 C 
HETATM    5  F5  UNL     1     -33.071  17.362  -4.841  1.00 20.00    -0.240 F 
HETATM    6  F6  UNL     1     -35.610  16.308  -4.602  1.00 20.00    -0.240 F 
HETATM    7  F7  UNL     1     -33.403  15.868  -2.545  1.00 20.00    -0.196 F 
HETATM    8  F8  UNL     1     -31.924  14.574  -3.471  1.00 20.00    -0.196 F 
HETATM    9  F9  UNL     1     -35.164  13.900  -3.337  1.00 20.00    -0.196 F 
HETATM   10  F10 UNL     1     -33.837  13.202  -4.908  1.00 20.00    -0.196 F 
ENDROOT
TORSDOF 0
ENDMDL
MODEL 9
REMARK VINA RESULT:      -4.4     12.235     13.385
REMARK  0 active torsions:
REMARK  status: ('A' for Active; 'I' for Inactive)
ROOT
HETATM    1  C1  UNL     1     -35.373  15.522  -4.600  1.00 20.00     0.288 C 
HETATM    2  C2  UNL     1     -35.007  14.614  -3.404  1.00 20.00     0.288 C 
HETATM    3  C3  UNL     1     -33.996  15.168  -5.207  1.00 20.00     0.343 C 
HETATM    4  C4  UNL     1     -34.019  13.882  -4.344  1.00 20.00     0.343 C 
HETATM    5  F5  UNL     1     -35.572  16.827  -4.311  1.00 20.00    -0.240 F 
HETATM    6  F6  UNL     1     -34.438  15.248  -2.351  1.00 20.00    -0.240 F 
HETATM    7  F7  UNL     1     -32.999  16.037  -4.920  1.00 20.00    -0.196 F 
HETATM    8  F8  UNL     1     -33.975  14.975  -6.544  1.00 20.00    -0.196 F 
HETATM    9  F9  UNL     1     -32.839  13.527  -3.792  1.00 20.00    -0.196 F 
HETATM   10  F10 UNL     1     -34.512  12.783  -4.960  1.00 20.00    -0.196 F 
ENDROOT
TORSDOF 0
ENDMDL
