MODEL 1
REMARK VINA RESULT:      -4.7      0.000      0.000
REMARK  5 active torsions:
REMARK  status: ('A' for Active; 'I' for Inactive)
REMARK    1  A    between atoms: C1_1  and  C8_8 
REMARK    2  A    between atoms: C4_4  and  C6_6 
REMARK    3  A    between atoms: C5_5  and  C8_8 
REMARK    4  A    between atoms: C6_6  and  C7_7 
REMARK    5  A    between atoms: C7_7  and  C8_8 
ROOT
HETATM    1  C8  UNL     1     -34.003   6.355   4.465  1.00 20.00     0.072 C 
ENDROOT
BRANCH   1   2
HETATM    2  C1  UNL     1     -35.138   5.391   4.116  1.00 20.00     0.223 C 
HETATM    3  O9  UNL     1     -35.993   5.669   3.280  1.00 20.00    -0.279 OA
HETATM    4 CL10 UNL     1     -35.062   3.909   5.027  1.00 20.00    -0.043 Cl
ENDBRANCH   1   2
BRANCH   1   5
HETATM    5  C5  UNL     1     -33.528   6.099   5.906  1.00 20.00     0.009 C 
HETATM    6  C3  UNL     1     -33.612   7.340   6.785  1.00 20.00     0.006 C 
ENDBRANCH   1   5
BRANCH   1   7
HETATM    7  C7  UNL     1     -32.837   6.163   3.477  1.00 20.00     0.013 C 
BRANCH   7   8
HETATM    8  C6  UNL     1     -31.999   7.435   3.302  1.00 20.00     0.000 C 
BRANCH   8   9
HETATM    9  C4  UNL     1     -31.998   7.964   1.865  1.00 20.00    -0.005 C 
HETATM   10  C2  UNL     1     -32.438   9.416   1.753  1.00 20.00     0.005 C 
ENDBRANCH   8   9
ENDBRANCH   7   8
ENDBRANCH   1   7
TORSDOF 5
ENDMDL
MODEL 2
REMARK VINA RESULT:      -4.5     11.048     11.806
REMARK  5 active torsions:
REMARK  status: ('A' for Active; 'I' for Inactive)
REMARK    1  A    between atoms: C1_1  and  C8_8 
REMARK    2  A    between atoms: C4_4  and  C6_6 
REMARK    3  A    between atoms: C5_5  and  C8_8 
REMARK    4  A    between atoms: C6_6  and  C7_7 
REMARK    5  A    between atoms: C7_7  and  C8_8 
ROOT
HETATM    1  C8  UNL     1     -34.283  14.685  -3.090  1.00 20.00     0.072 C 
ENDROOT
BRANCH   1   2
HETATM    2  C1  UNL     1     -35.191  13.808  -3.953  1.00 20.00     0.223 C 
HETATM    3  O9  UNL     1     -34.797  12.757  -4.450  1.00 20.00    -0.279 OA
HETATM    4 CL10 UNL     1     -36.792  14.470  -4.131  1.00 20.00    -0.043 Cl
ENDBRANCH   1   2
BRANCH   1   5
HETATM    5  C5  UNL     1     -33.027  15.075  -3.887  1.00 20.00     0.009 C 
HETATM    6  C3  UNL     1     -33.254  16.275  -4.798  1.00 20.00     0.006 C 
ENDBRANCH   1   5
BRANCH   1   7
HETATM    7  C7  UNL     1     -35.048  15.948  -2.649  1.00 20.00     0.013 C 
BRANCH   7   8
HETATM    8  C6  UNL     1     -34.695  16.381  -1.221  1.00 20.00     0.000 C 
BRANCH   8   9
HETATM    9  C4  UNL     1     -33.666  17.513  -1.170  1.00 20.00    -0.005 C 
HETATM   10  C2  UNL     1     -33.621  18.234   0.169  1.00 20.00     0.005 C 
ENDBRANCH   8   9
ENDBRANCH   7   8
ENDBRANCH   1   7
TORSDOF 5
ENDMDL
MODEL 3
REMARK VINA RESULT:      -4.5      1.960      2.621
REMARK  5 active torsions:
REMARK  status: ('A' for Active; 'I' for Inactive)
REMARK    1  A    between atoms: C1_1  and  C8_8 
REMARK    2  A    between atoms: C4_4  and  C6_6 
REMARK    3  A    between atoms: C5_5  and  C8_8 
REMARK    4  A    between atoms: C6_6  and  C7_7 
REMARK    5  A    between atoms: C7_7  and  C8_8 
ROOT
HETATM    1  C8  UNL     1     -33.949   5.516   4.794  1.00 20.00     0.072 C 
ENDROOT
BRANCH   1   2
HETATM    2  C1  UNL     1     -34.313   5.872   6.236  1.00 20.00     0.223 C 
HETATM    3  O9  UNL     1     -35.147   5.235   6.872  1.00 20.00    -0.279 OA
HETATM    4 CL10 UNL     1     -33.424   7.247   6.831  1.00 20.00    -0.043 Cl
ENDBRANCH   1   2
BRANCH   1   5
HETATM    5  C5  UNL     1     -35.133   4.800   4.121  1.00 20.00     0.009 C 
HETATM    6  C3  UNL     1     -36.094   5.764   3.437  1.00 20.00     0.006 C 
ENDBRANCH   1   5
BRANCH   1   7
HETATM    7  C7  UNL     1     -33.589   6.797   4.017  1.00 20.00     0.013 C 
BRANCH   7   8
HETATM    8  C6  UNL     1     -32.412   6.590   3.055  1.00 20.00     0.000 C 
BRANCH   8   9
HETATM    9  C4  UNL     1     -31.660   7.885   2.735  1.00 20.00    -0.005 C 
HETATM   10  C2  UNL     1     -32.008   8.468   1.373  1.00 20.00     0.005 C 
ENDBRANCH   8   9
ENDBRANCH   7   8
ENDBRANCH   1   7
TORSDOF 5
ENDMDL
MODEL 4
REMARK VINA RESULT:      -4.4     10.802     12.081
REMARK  5 active torsions:
REMARK  status: ('A' for Active; 'I' for Inactive)
REMARK    1  A    between atoms: C1_1  and  C8_8 
REMARK    2  A    between atoms: C4_4  and  C6_6 
REMARK    3  A    between atoms: C5_5  and  C8_8 
REMARK    4  A    between atoms: C6_6  and  C7_7 
REMARK    5  A    between atoms: C7_7  and  C8_8 
ROOT
HETATM    1  C8  UNL     1     -35.085  14.992  -3.547  1.00 20.00     0.072 C 
ENDROOT
BRANCH   1   2
HETATM    2  C1  UNL     1     -34.452  13.633  -3.845  1.00 20.00     0.223 C 
HETATM    3  O9  UNL     1     -35.107  12.692  -4.283  1.00 20.00    -0.279 OA
HETATM    4 CL10 UNL     1     -32.746  13.596  -3.493  1.00 20.00    -0.043 Cl
ENDBRANCH   1   2
BRANCH   1   5
HETATM    5  C5  UNL     1     -34.103  15.857  -2.737  1.00 20.00     0.009 C 
HETATM    6  C3  UNL     1     -34.694  16.348  -1.422  1.00 20.00     0.006 C 
ENDBRANCH   1   5
BRANCH   1   7
HETATM    7  C7  UNL     1     -35.451  15.696  -4.868  1.00 20.00     0.013 C 
BRANCH   7   8
HETATM    8  C6  UNL     1     -34.220  16.009  -5.727  1.00 20.00     0.000 C 
BRANCH   8   9
HETATM    9  C4  UNL     1     -34.349  15.512  -7.169  1.00 20.00    -0.005 C 
HETATM   10  C2  UNL     1     -35.429  14.456  -7.353  1.00 20.00     0.005 C 
ENDBRANCH   8   9
ENDBRANCH   7   8
ENDBRANCH   1   7
TORSDOF 5
ENDMDL
MODEL 5
REMARK VINA RESULT:      -4.3     11.168     12.234
REMARK  5 active torsions:
REMARK  status: ('A' for Active; 'I' for Inactive)
REMARK    1  A    between atoms: C1_1  and  C8_8 
REMARK    2  A    between atoms: C4_4  and  C6_6 
REMARK    3  A    between atoms: C5_5  and  C8_8 
REMARK    4  A    between atoms: C6_6  and  C7_7 
REMARK    5  A    between atoms: C7_7  and  C8_8 
ROOT
HETATM    1  C8  UNL     1     -33.903  14.665  -4.439  1.00 20.00     0.072 C 
ENDROOT
BRANCH   1   2
HETATM    2  C1  UNL     1     -35.118  13.752  -4.267  1.00 20.00     0.223 C 
HETATM    3  O9  UNL     1     -35.055  12.542  -4.462  1.00 20.00    -0.279 OA
HETATM    4 CL10 UNL     1     -36.545  14.622  -3.778  1.00 20.00    -0.043 Cl
ENDBRANCH   1   2
BRANCH   1   5
HETATM    5  C5  UNL     1     -34.196  15.722  -5.518  1.00 20.00     0.009 C 
HETATM    6  C3  UNL     1     -34.402  15.114  -6.900  1.00 20.00     0.006 C 
ENDBRANCH   1   5
BRANCH   1   7
HETATM    7  C7  UNL     1     -33.573  15.349  -3.099  1.00 20.00     0.013 C 
BRANCH   7   8
HETATM    8  C6  UNL     1     -33.743  16.872  -3.159  1.00 20.00     0.000 C 
BRANCH   8   9
HETATM    9  C4  UNL     1     -33.857  17.522  -1.778  1.00 20.00    -0.005 C 
HETATM   10  C2  UNL     1     -34.613  16.671  -0.768  1.00 20.00     0.005 C 
ENDBRANCH   8   9
ENDBRANCH   7   8
ENDBRANCH   1   7
TORSDOF 5
ENDMDL
MODEL 6
REMARK VINA RESULT:      -4.2     11.649     12.425
REMARK  5 active torsions:
REMARK  status: ('A' for Active; 'I' for Inactive)
REMARK    1  A    between atoms: C1_1  and  C8_8 
REMARK    2  A    between atoms: C4_4  and  C6_6 
REMARK    3  A    between atoms: C5_5  and  C8_8 
REMARK    4  A    between atoms: C6_6  and  C7_7 
REMARK    5  A    between atoms: C7_7  and  C8_8 
ROOT
HETATM    1  C8  UNL     1     -33.620  16.217  -3.022  1.00 20.00     0.072 C 
ENDROOT
BRANCH   1   2
HETATM    2  C1  UNL     1     -34.075  17.140  -4.153  1.00 20.00     0.223 C 
HETATM    3  O9  UNL     1     -33.281  17.628  -4.952  1.00 20.00    -0.279 OA
HETATM    4 CL10 UNL     1     -35.797  17.398  -4.157  1.00 20.00    -0.043 Cl
ENDBRANCH   1   2
BRANCH   1   5
HETATM    5  C5  UNL     1     -34.774  16.010  -2.025  1.00 20.00     0.009 C 
HETATM    6  C3  UNL     1     -34.560  16.750  -0.711  1.00 20.00     0.006 C 
ENDBRANCH   1   5
BRANCH   1   7
HETATM    7  C7  UNL     1     -33.171  14.863  -3.605  1.00 20.00     0.013 C 
BRANCH   7   8
HETATM    8  C6  UNL     1     -34.290  13.815  -3.588  1.00 20.00     0.000 C 
BRANCH   8   9
HETATM    9  C4  UNL     1     -34.554  13.193  -4.962  1.00 20.00    -0.005 C 
HETATM   10  C2  UNL     1     -35.136  14.172  -5.970  1.00 20.00     0.005 C 
ENDBRANCH   8   9
ENDBRANCH   7   8
ENDBRANCH   1   7
TORSDOF 5
ENDMDL
MODEL 7
REMARK VINA RESULT:      -4.2     10.998     12.195
REMARK  5 active torsions:
REMARK  status: ('A' for Active; 'I' for Inactive)
REMARK    1  A    between atoms: C1_1  and  C8_8 
REMARK    2  A    between atoms: C4_4  and  C6_6 
REMARK    3  A    between atoms: C5_5  and  C8_8 
REMARK    4  A    between atoms: C6_6  and  C7_7 
REMARK    5  A    between atoms: C7_7  and  C8_8 
ROOT
HETATM    1  C8  UNL     1     -34.949  14.945  -4.536  1.00 20.00     0.072 C 
ENDROOT
BRANCH   1   2
HETATM    2  C1  UNL     1     -34.325  13.573  -4.277  1.00 20.00     0.223 C 
HETATM    3  O9  UNL     1     -34.889  12.532  -4.600  1.00 20.00    -0.279 OA
HETATM    4 CL10 UNL     1     -32.772  13.680  -3.496  1.00 20.00    -0.043 Cl
ENDBRANCH   1   2
BRANCH   1   5
HETATM    5  C5  UNL     1     -35.574  14.975  -5.941  1.00 20.00     0.009 C 
HETATM    6  C3  UNL     1     -34.534  15.080  -7.049  1.00 20.00     0.006 C 
ENDBRANCH   1   5
BRANCH   1   7
HETATM    7  C7  UNL     1     -36.022  15.237  -3.469  1.00 20.00     0.013 C 
BRANCH   7   8
HETATM    8  C6  UNL     1     -35.723  16.511  -2.668  1.00 20.00     0.000 C 
BRANCH   8   9
HETATM    9  C4  UNL     1     -34.770  16.275  -1.493  1.00 20.00    -0.005 C 
HETATM   10  C2  UNL     1     -33.635  17.286  -1.419  1.00 20.00     0.005 C 
ENDBRANCH   8   9
ENDBRANCH   7   8
ENDBRANCH   1   7
TORSDOF 5
ENDMDL
MODEL 8
REMARK VINA RESULT:      -4.0     11.425     12.198
REMARK  5 active torsions:
REMARK  status: ('A' for Active; 'I' for Inactive)
REMARK    1  A    between atoms: C1_1  and  C8_8 
REMARK    2  A    between atoms: C4_4  and  C6_6 
REMARK    3  A    between atoms: C5_5  and  C8_8 
REMARK    4  A    between atoms: C6_6  and  C7_7 
REMARK    5  A    between atoms: C7_7  and  C8_8 
ROOT
HETATM    1  C8  UNL     1     -35.007  15.102  -4.568  1.00 20.00     0.072 C 
ENDROOT
BRANCH   1   2
HETATM    2  C1  UNL     1     -34.964  13.809  -5.384  1.00 20.00     0.223 C 
HETATM    3  O9  UNL     1     -34.762  12.717  -4.861  1.00 20.00    -0.279 OA
HETATM    4 CL10 UNL     1     -35.228  14.080  -7.084  1.00 20.00    -0.043 Cl
ENDBRANCH   1   2
BRANCH   1   5
HETATM    5  C5  UNL     1     -36.434  15.678  -4.581  1.00 20.00     0.009 C 
HETATM    6  C3  UNL     1     -37.407  14.861  -3.741  1.00 20.00     0.006 C 
ENDBRANCH   1   5
BRANCH   1   7
HETATM    7  C7  UNL     1     -34.560  14.818  -3.121  1.00 20.00     0.013 C 
BRANCH   7   8
HETATM    8  C6  UNL     1     -33.884  16.030  -2.467  1.00 20.00     0.000 C 
BRANCH   8   9
HETATM    9  C4  UNL     1     -34.586  16.495  -1.188  1.00 20.00    -0.005 C 
HETATM   10  C2  UNL     1     -35.600  17.605  -1.422  1.00 20.00     0.005 C 
ENDBRANCH   8   9
ENDBRANCH   7   8
ENDBRANCH   1   7
TORSDOF 5
ENDMDL
MODEL 9
REMARK VINA RESULT:      -4.0     11.504     12.273
REMARK  5 active torsions:
REMARK  status: ('A' for Active; 'I' for Inactive)
REMARK    1  A    between atoms: C1_1  and  C8_8 
REMARK    2  A    between atoms: C4_4  and  C6_6 
REMARK    3  A    between atoms: C5_5  and  C8_8 
REMARK    4  A    between atoms: C6_6  and  C7_7 
REMARK    5  A    between atoms: C7_7  and  C8_8 
ROOT
HETATM    1  C8  UNL     1     -34.435  14.817  -2.993  1.00 20.00     0.072 C 
ENDROOT
BRANCH   1   2
HETATM    2  C1  UNL     1     -33.143  15.229  -3.700  1.00 20.00     0.223 C 
HETATM    3  O9  UNL     1     -32.092  14.615  -3.544  1.00 20.00    -0.279 OA
HETATM    4 CL10 UNL     1     -33.352  16.629  -4.715  1.00 20.00    -0.043 Cl
ENDBRANCH   1   2
BRANCH   1   5
HETATM    5  C5  UNL     1     -35.145  16.065  -2.440  1.00 20.00     0.009 C 
HETATM    6  C3  UNL     1     -34.597  16.507  -1.089  1.00 20.00     0.006 C 
ENDBRANCH   1   5
BRANCH   1   7
HETATM    7  C7  UNL     1     -35.355  14.075  -3.982  1.00 20.00     0.013 C 
BRANCH   7   8
HETATM    8  C6  UNL     1     -36.770  14.665  -4.024  1.00 20.00     0.000 C 
BRANCH   8   9
HETATM    9  C4  UNL     1     -37.161  15.194  -5.407  1.00 20.00    -0.005 C 
HETATM   10  C2  UNL     1     -36.098  14.961  -6.470  1.00 20.00     0.005 C 
ENDBRANCH   8   9
ENDBRANCH   7   8
ENDBRANCH   1   7
TORSDOF 5
ENDMDL
