MODEL 1
REMARK VINA RESULT:      -3.8      0.000      0.000
REMARK  2 active torsions:
REMARK  status: ('A' for Active; 'I' for Inactive)
REMARK    1  A    between atoms: C1_1  and  C5_5 
REMARK    2  A    between atoms: C5_5  and  C6_6 
ROOT
HETATM    1  C5  UNL     1     -35.505  14.840  -3.771  1.00 20.00     0.104 C 
ENDROOT
BRANCH   1   2
HETATM    2  C1  UNL     1     -35.134  13.753  -4.768  1.00 20.00     0.219 C 
HETATM    3  O7  UNL     1     -35.002  12.582  -4.421  1.00 20.00    -0.280 OA
HETATM    4 CL8  UNL     1     -34.934  14.356  -6.389  1.00 20.00    -0.044 Cl
ENDBRANCH   1   2
BRANCH   1   5
HETATM    5  C6  UNL     1     -34.347  15.790  -3.382  1.00 20.00    -0.044 C 
HETATM    6  C2  UNL     1     -34.395  17.090  -4.202  1.00 20.00     0.015 C 
HETATM    7  C3  UNL     1     -34.504  16.146  -1.891  1.00 20.00     0.015 C 
HETATM    8  C4  UNL     1     -32.979  15.115  -3.578  1.00 20.00     0.015 C 
ENDBRANCH   1   5
TORSDOF 2
ENDMDL
MODEL 2
REMARK VINA RESULT:      -3.8      0.103      1.527
REMARK  2 active torsions:
REMARK  status: ('A' for Active; 'I' for Inactive)
REMARK    1  A    between atoms: C1_1  and  C5_5 
REMARK    2  A    between atoms: C5_5  and  C6_6 
ROOT
HETATM    1  C5  UNL     1     -35.571  14.790  -3.740  1.00 20.00     0.104 C 
ENDROOT
BRANCH   1   2
HETATM    2  C1  UNL     1     -35.189  13.716  -4.746  1.00 20.00     0.219 C 
HETATM    3  O7  UNL     1     -34.983  12.555  -4.399  1.00 20.00    -0.280 OA
HETATM    4 CL8  UNL     1     -35.091  14.315  -6.377  1.00 20.00    -0.044 Cl
ENDBRANCH   1   2
BRANCH   1   5
HETATM    5  C6  UNL     1     -34.424  15.750  -3.345  1.00 20.00    -0.044 C 
HETATM    6  C2  UNL     1     -33.050  15.112  -3.607  1.00 20.00     0.015 C 
HETATM    7  C3  UNL     1     -34.546  17.020  -4.208  1.00 20.00     0.015 C 
HETATM    8  C4  UNL     1     -34.520  16.159  -1.865  1.00 20.00     0.015 C 
ENDBRANCH   1   5
TORSDOF 2
ENDMDL
MODEL 3
REMARK VINA RESULT:      -3.7      0.148      1.519
REMARK  2 active torsions:
REMARK  status: ('A' for Active; 'I' for Inactive)
REMARK    1  A    between atoms: C1_1  and  C5_5 
REMARK    2  A    between atoms: C5_5  and  C6_6 
ROOT
HETATM    1  C5  UNL     1     -35.407  14.774  -3.813  1.00 20.00     0.104 C 
ENDROOT
BRANCH   1   2
HETATM    2  C1  UNL     1     -35.029  13.745  -4.867  1.00 20.00     0.219 C 
HETATM    3  O7  UNL     1     -34.846  12.565  -4.575  1.00 20.00    -0.280 OA
HETATM    4 CL8  UNL     1     -34.900  14.423  -6.464  1.00 20.00    -0.044 Cl
ENDBRANCH   1   2
BRANCH   1   5
HETATM    5  C6  UNL     1     -34.267  15.736  -3.403  1.00 20.00    -0.044 C 
HETATM    6  C2  UNL     1     -34.394  16.154  -1.929  1.00 20.00     0.015 C 
HETATM    7  C3  UNL     1     -32.929  14.994  -3.586  1.00 20.00     0.015 C 
HETATM    8  C4  UNL     1     -34.248  16.993  -4.288  1.00 20.00     0.015 C 
ENDBRANCH   1   5
TORSDOF 2
ENDMDL
MODEL 4
REMARK VINA RESULT:      -3.7      0.670      1.868
REMARK  2 active torsions:
REMARK  status: ('A' for Active; 'I' for Inactive)
REMARK    1  A    between atoms: C1_1  and  C5_5 
REMARK    2  A    between atoms: C5_5  and  C6_6 
ROOT
HETATM    1  C5  UNL     1     -33.984  14.713  -3.769  1.00 20.00     0.104 C 
ENDROOT
BRANCH   1   2
HETATM    2  C1  UNL     1     -34.568  13.739  -4.781  1.00 20.00     0.219 C 
HETATM    3  O7  UNL     1     -34.929  12.612  -4.453  1.00 20.00    -0.280 OA
HETATM    4 CL8  UNL     1     -34.655  14.400  -6.389  1.00 20.00    -0.044 Cl
ENDBRANCH   1   2
BRANCH   1   5
HETATM    5  C6  UNL     1     -34.987  15.749  -3.209  1.00 20.00    -0.044 C 
HETATM    6  C2  UNL     1     -34.677  16.087  -1.742  1.00 20.00     0.015 C 
HETATM    7  C3  UNL     1     -34.858  17.037  -4.045  1.00 20.00     0.015 C 
HETATM    8  C4  UNL     1     -36.436  15.244  -3.320  1.00 20.00     0.015 C 
ENDBRANCH   1   5
TORSDOF 2
ENDMDL
MODEL 5
REMARK VINA RESULT:      -3.6      1.960      2.598
REMARK  2 active torsions:
REMARK  status: ('A' for Active; 'I' for Inactive)
REMARK    1  A    between atoms: C1_1  and  C5_5 
REMARK    2  A    between atoms: C5_5  and  C6_6 
ROOT
HETATM    1  C5  UNL     1     -35.146  15.008  -4.325  1.00 20.00     0.104 C 
ENDROOT
BRANCH   1   2
HETATM    2  C1  UNL     1     -34.509  13.635  -4.178  1.00 20.00     0.219 C 
HETATM    3  O7  UNL     1     -35.124  12.609  -4.457  1.00 20.00    -0.280 OA
HETATM    4 CL8  UNL     1     -32.872  13.704  -3.592  1.00 20.00    -0.044 Cl
ENDBRANCH   1   2
BRANCH   1   5
HETATM    5  C6  UNL     1     -34.689  15.808  -5.568  1.00 20.00    -0.044 C 
HETATM    6  C2  UNL     1     -34.435  14.878  -6.765  1.00 20.00     0.015 C 
HETATM    7  C3  UNL     1     -35.815  16.791  -5.943  1.00 20.00     0.015 C 
HETATM    8  C4  UNL     1     -33.416  16.619  -5.275  1.00 20.00     0.015 C 
ENDBRANCH   1   5
TORSDOF 2
ENDMDL
MODEL 6
REMARK VINA RESULT:      -3.5      1.953      2.468
REMARK  2 active torsions:
REMARK  status: ('A' for Active; 'I' for Inactive)
REMARK    1  A    between atoms: C1_1  and  C5_5 
REMARK    2  A    between atoms: C5_5  and  C6_6 
ROOT
HETATM    1  C5  UNL     1     -35.122  15.035  -4.291  1.00 20.00     0.104 C 
ENDROOT
BRANCH   1   2
HETATM    2  C1  UNL     1     -34.503  13.653  -4.159  1.00 20.00     0.219 C 
HETATM    3  O7  UNL     1     -35.133  12.636  -4.442  1.00 20.00    -0.280 OA
HETATM    4 CL8  UNL     1     -32.860  13.695  -3.585  1.00 20.00    -0.044 Cl
ENDBRANCH   1   2
BRANCH   1   5
HETATM    5  C6  UNL     1     -34.713  15.814  -5.563  1.00 20.00    -0.044 C 
HETATM    6  C2  UNL     1     -35.804  16.814  -5.978  1.00 20.00     0.015 C 
HETATM    7  C3  UNL     1     -33.425  16.598  -5.249  1.00 20.00     0.015 C 
HETATM    8  C4  UNL     1     -34.426  14.860  -6.735  1.00 20.00     0.015 C 
ENDBRANCH   1   5
TORSDOF 2
ENDMDL
MODEL 7
REMARK VINA RESULT:      -3.4      2.450      3.473
REMARK  2 active torsions:
REMARK  status: ('A' for Active; 'I' for Inactive)
REMARK    1  A    between atoms: C1_1  and  C5_5 
REMARK    2  A    between atoms: C5_5  and  C6_6 
ROOT
HETATM    1  C5  UNL     1     -33.762  15.772  -5.044  1.00 20.00     0.104 C 
ENDROOT
BRANCH   1   2
HETATM    2  C1  UNL     1     -33.289  15.302  -3.678  1.00 20.00     0.219 C 
HETATM    3  O7  UNL     1     -32.218  14.716  -3.535  1.00 20.00    -0.280 OA
HETATM    4 CL8  UNL     1     -34.408  15.685  -2.401  1.00 20.00    -0.044 Cl
ENDBRANCH   1   2
BRANCH   1   5
HETATM    5  C6  UNL     1     -34.834  14.874  -5.707  1.00 20.00    -0.044 C 
HETATM    6  C2  UNL     1     -36.248  15.434  -5.477  1.00 20.00     0.015 C 
HETATM    7  C3  UNL     1     -34.560  14.845  -7.223  1.00 20.00     0.015 C 
HETATM    8  C4  UNL     1     -34.765  13.433  -5.174  1.00 20.00     0.015 C 
ENDBRANCH   1   5
TORSDOF 2
ENDMDL
MODEL 8
REMARK VINA RESULT:      -3.4      2.972      3.639
REMARK  2 active torsions:
REMARK  status: ('A' for Active; 'I' for Inactive)
REMARK    1  A    between atoms: C1_1  and  C5_5 
REMARK    2  A    between atoms: C5_5  and  C6_6 
ROOT
HETATM    1  C5  UNL     1     -35.442  15.349  -3.221  1.00 20.00     0.104 C 
ENDROOT
BRANCH   1   2
HETATM    2  C1  UNL     1     -35.070  16.658  -2.542  1.00 20.00     0.219 C 
HETATM    3  O7  UNL     1     -35.095  17.725  -3.150  1.00 20.00    -0.280 OA
HETATM    4 CL8  UNL     1     -34.630  16.456  -0.871  1.00 20.00    -0.044 Cl
ENDBRANCH   1   2
BRANCH   1   5
HETATM    5  C6  UNL     1     -34.373  14.790  -4.189  1.00 20.00    -0.044 C 
HETATM    6  C2  UNL     1     -32.954  15.022  -3.645  1.00 20.00     0.015 C 
HETATM    7  C3  UNL     1     -34.601  13.273  -4.328  1.00 20.00     0.015 C 
HETATM    8  C4  UNL     1     -34.493  15.427  -5.584  1.00 20.00     0.015 C 
ENDBRANCH   1   5
TORSDOF 2
ENDMDL
MODEL 9
REMARK VINA RESULT:      -3.4      3.011      3.770
REMARK  2 active torsions:
REMARK  status: ('A' for Active; 'I' for Inactive)
REMARK    1  A    between atoms: C1_1  and  C5_5 
REMARK    2  A    between atoms: C5_5  and  C6_6 
ROOT
HETATM    1  C5  UNL     1     -33.746  15.321  -3.120  1.00 20.00     0.104 C 
ENDROOT
BRANCH   1   2
HETATM    2  C1  UNL     1     -33.991  16.666  -2.454  1.00 20.00     0.219 C 
HETATM    3  O7  UNL     1     -33.789  17.723  -3.048  1.00 20.00    -0.280 OA
HETATM    4 CL8  UNL     1     -34.571  16.521  -0.820  1.00 20.00    -0.044 Cl
ENDBRANCH   1   2
BRANCH   1   5
HETATM    5  C6  UNL     1     -34.890  14.831  -4.038  1.00 20.00    -0.044 C 
HETATM    6  C2  UNL     1     -36.262  15.276  -3.505  1.00 20.00     0.015 C 
HETATM    7  C3  UNL     1     -34.682  15.453  -5.433  1.00 20.00     0.015 C 
HETATM    8  C4  UNL     1     -34.875  13.300  -4.184  1.00 20.00     0.015 C 
ENDBRANCH   1   5
TORSDOF 2
ENDMDL
