MODEL 1
REMARK VINA RESULT:      -3.6      0.000      0.000
REMARK  1 active torsions:
REMARK  status: ('A' for Active; 'I' for Inactive)
REMARK    1  A    between atoms: C3_3  and  C5_5 
ROOT
HETATM    1  C1  UNL     1     -34.595  15.411  -2.870  1.00 20.00     0.065 A 
HETATM    2  C2  UNL     1     -33.746  16.849  -4.676  1.00 20.00     0.069 A 
HETATM    3  C3  UNL     1     -34.799  14.855  -4.115  1.00 20.00     0.026 A 
HETATM    4  C4  UNL     1     -34.307  15.689  -5.160  1.00 20.00     0.031 A 
HETATM    5  S7  UNL     1     -33.813  16.930  -2.967  1.00 20.00    -0.111 SA
HETATM    6 BR8  UNL     1     -34.420  15.245  -6.990  1.00 20.00    -0.050 Br
ENDROOT
BRANCH   3   7
HETATM    7  C5  UNL     1     -35.443  13.575  -4.270  1.00 20.00     0.271 C 
HETATM    8  O6  UNL     1     -34.849  12.547  -4.631  1.00 20.00    -0.301 OA
ENDBRANCH   3   7
TORSDOF 1
ENDMDL
MODEL 2
REMARK VINA RESULT:      -3.5      2.298      2.528
REMARK  1 active torsions:
REMARK  status: ('A' for Active; 'I' for Inactive)
REMARK    1  A    between atoms: C3_3  and  C5_5 
ROOT
HETATM    1  C1  UNL     1     -34.371  15.115  -5.719  1.00 20.00     0.065 A 
HETATM    2  C2  UNL     1     -34.280  17.257  -4.513  1.00 20.00     0.069 A 
HETATM    3  C3  UNL     1     -34.478  14.947  -4.355  1.00 20.00     0.026 A 
HETATM    4  C4  UNL     1     -34.426  16.188  -3.657  1.00 20.00     0.031 A 
HETATM    5  S7  UNL     1     -34.208  16.763  -6.151  1.00 20.00    -0.111 SA
HETATM    6 BR8  UNL     1     -34.541  16.336  -1.780  1.00 20.00    -0.050 Br
ENDROOT
BRANCH   3   7
HETATM    7  C5  UNL     1     -34.625  13.639  -3.768  1.00 20.00     0.271 C 
HETATM    8  O6  UNL     1     -35.014  12.643  -4.398  1.00 20.00    -0.301 OA
ENDBRANCH   3   7
TORSDOF 1
ENDMDL
MODEL 3
REMARK VINA RESULT:      -3.5      1.931      2.157
REMARK  1 active torsions:
REMARK  status: ('A' for Active; 'I' for Inactive)
REMARK    1  A    between atoms: C3_3  and  C5_5 
ROOT
HETATM    1  C1  UNL     1     -33.567  15.369  -3.261  1.00 20.00     0.065 A 
HETATM    2  C2  UNL     1     -35.618  16.472  -2.469  1.00 20.00     0.069 A 
HETATM    3  C3  UNL     1     -34.702  14.812  -3.811  1.00 20.00     0.026 A 
HETATM    4  C4  UNL     1     -35.889  15.451  -3.352  1.00 20.00     0.031 A 
HETATM    5  S7  UNL     1     -33.938  16.658  -2.197  1.00 20.00    -0.111 SA
HETATM    6 BR8  UNL     1     -37.623  14.947  -3.895  1.00 20.00    -0.050 Br
ENDROOT
BRANCH   3   7
HETATM    7  C5  UNL     1     -34.624  13.711  -4.739  1.00 20.00     0.271 C 
HETATM    8  O6  UNL     1     -34.968  12.552  -4.458  1.00 20.00    -0.301 OA
ENDBRANCH   3   7
TORSDOF 1
ENDMDL
MODEL 4
REMARK VINA RESULT:      -3.4      2.710      2.987
REMARK  1 active torsions:
REMARK  status: ('A' for Active; 'I' for Inactive)
REMARK    1  A    between atoms: C3_3  and  C5_5 
ROOT
HETATM    1  C1  UNL     1     -37.038  14.587  -4.119  1.00 20.00     0.065 A 
HETATM    2  C2  UNL     1     -36.693  16.755  -3.007  1.00 20.00     0.069 A 
HETATM    3  C3  UNL     1     -35.751  14.729  -3.647  1.00 20.00     0.026 A 
HETATM    4  C4  UNL     1     -35.552  15.985  -3.004  1.00 20.00     0.031 A 
HETATM    5  S7  UNL     1     -37.999  15.964  -3.784  1.00 20.00    -0.111 SA
HETATM    6 BR8  UNL     1     -33.911  16.519  -2.241  1.00 20.00    -0.050 Br
ENDROOT
BRANCH   3   7
HETATM    7  C5  UNL     1     -34.768  13.688  -3.819  1.00 20.00     0.271 C 
HETATM    8  O6  UNL     1     -34.954  12.677  -4.513  1.00 20.00    -0.301 OA
ENDBRANCH   3   7
TORSDOF 1
ENDMDL
MODEL 5
REMARK VINA RESULT:      -3.4      1.196      1.207
REMARK  1 active torsions:
REMARK  status: ('A' for Active; 'I' for Inactive)
REMARK    1  A    between atoms: C3_3  and  C5_5 
ROOT
HETATM    1  C1  UNL     1     -35.472  15.618  -2.945  1.00 20.00     0.065 A 
HETATM    2  C2  UNL     1     -35.643  16.989  -4.981  1.00 20.00     0.069 A 
HETATM    3  C3  UNL     1     -34.975  14.966  -4.053  1.00 20.00     0.026 A 
HETATM    4  C4  UNL     1     -35.074  15.760  -5.231  1.00 20.00     0.031 A 
HETATM    5  S7  UNL     1     -36.055  17.181  -3.330  1.00 20.00    -0.111 SA
HETATM    6 BR8  UNL     1     -34.492  15.184  -6.930  1.00 20.00    -0.050 Br
ENDROOT
BRANCH   3   7
HETATM    7  C5  UNL     1     -34.431  13.634  -3.959  1.00 20.00     0.271 C 
HETATM    8  O6  UNL     1     -35.025  12.620  -4.356  1.00 20.00    -0.301 OA
ENDBRANCH   3   7
TORSDOF 1
ENDMDL
MODEL 6
REMARK VINA RESULT:      -3.3      2.897      3.153
REMARK  1 active torsions:
REMARK  status: ('A' for Active; 'I' for Inactive)
REMARK    1  A    between atoms: C3_3  and  C5_5 
ROOT
HETATM    1  C1  UNL     1     -35.449  13.794  -4.161  1.00 20.00     0.065 A 
HETATM    2  C2  UNL     1     -33.832  15.305  -3.087  1.00 20.00     0.069 A 
HETATM    3  C3  UNL     1     -36.061  14.894  -3.600  1.00 20.00     0.026 A 
HETATM    4  C4  UNL     1     -35.124  15.769  -2.978  1.00 20.00     0.031 A 
HETATM    5  S7  UNL     1     -33.752  13.820  -3.937  1.00 20.00    -0.111 SA
HETATM    6 BR8  UNL     1     -35.610  17.370  -2.108  1.00 20.00    -0.050 Br
ENDROOT
BRANCH   3   7
HETATM    7  C5  UNL     1     -37.489  15.077  -3.670  1.00 20.00     0.271 C 
HETATM    8  O6  UNL     1     -38.295  14.142  -3.800  1.00 20.00    -0.301 OA
ENDBRANCH   3   7
TORSDOF 1
ENDMDL
MODEL 7
REMARK VINA RESULT:      -3.3      3.058      3.354
REMARK  1 active torsions:
REMARK  status: ('A' for Active; 'I' for Inactive)
REMARK    1  A    between atoms: C3_3  and  C5_5 
ROOT
HETATM    1  C1  UNL     1     -36.951  15.255  -6.232  1.00 20.00     0.065 A 
HETATM    2  C2  UNL     1     -34.590  14.669  -6.602  1.00 20.00     0.069 A 
HETATM    3  C3  UNL     1     -36.338  14.815  -5.078  1.00 20.00     0.026 A 
HETATM    4  C4  UNL     1     -34.972  14.476  -5.293  1.00 20.00     0.031 A 
HETATM    5  S7  UNL     1     -35.878  15.257  -7.566  1.00 20.00    -0.111 SA
HETATM    6 BR8  UNL     1     -33.829  13.836  -3.936  1.00 20.00    -0.050 Br
ENDROOT
BRANCH   3   7
HETATM    7  C5  UNL     1     -37.056  14.733  -3.831  1.00 20.00     0.271 C 
HETATM    8  O6  UNL     1     -38.179  14.216  -3.718  1.00 20.00    -0.301 OA
ENDBRANCH   3   7
TORSDOF 1
ENDMDL
MODEL 8
REMARK VINA RESULT:      -3.3      2.137      2.345
REMARK  1 active torsions:
REMARK  status: ('A' for Active; 'I' for Inactive)
REMARK    1  A    between atoms: C3_3  and  C5_5 
ROOT
HETATM    1  C1  UNL     1     -36.021  16.499  -2.631  1.00 20.00     0.065 A 
HETATM    2  C2  UNL     1     -33.856  15.388  -2.990  1.00 20.00     0.069 A 
HETATM    3  C3  UNL     1     -36.122  15.438  -3.504  1.00 20.00     0.026 A 
HETATM    4  C4  UNL     1     -34.868  14.795  -3.712  1.00 20.00     0.031 A 
HETATM    5  S7  UNL     1     -34.419  16.715  -2.066  1.00 20.00    -0.111 SA
HETATM    6 BR8  UNL     1     -34.633  13.307  -4.847  1.00 20.00    -0.050 Br
ENDROOT
BRANCH   3   7
HETATM    7  C5  UNL     1     -37.382  15.074  -4.102  1.00 20.00     0.271 C 
HETATM    8  O6  UNL     1     -38.126  14.189  -3.651  1.00 20.00    -0.301 OA
ENDBRANCH   3   7
TORSDOF 1
ENDMDL
MODEL 9
REMARK VINA RESULT:      -3.2      2.852      3.168
REMARK  1 active torsions:
REMARK  status: ('A' for Active; 'I' for Inactive)
REMARK    1  A    between atoms: C3_3  and  C5_5 
ROOT
HETATM    1  C1  UNL     1     -34.130  17.916  -3.288  1.00 20.00     0.065 A 
HETATM    2  C2  UNL     1     -33.389  16.433  -5.106  1.00 20.00     0.069 A 
HETATM    3  C3  UNL     1     -34.187  16.586  -2.929  1.00 20.00     0.026 A 
HETATM    4  C4  UNL     1     -33.758  15.728  -3.982  1.00 20.00     0.031 A 
HETATM    5  S7  UNL     1     -33.560  18.123  -4.889  1.00 20.00    -0.111 SA
HETATM    6 BR8  UNL     1     -33.708  13.848  -3.842  1.00 20.00    -0.050 Br
ENDROOT
BRANCH   3   7
HETATM    7  C5  UNL     1     -34.639  16.180  -1.622  1.00 20.00     0.271 C 
HETATM    8  O6  UNL     1     -34.361  16.791  -0.578  1.00 20.00    -0.301 OA
ENDBRANCH   3   7
TORSDOF 1
ENDMDL
