MODEL 1
REMARK VINA RESULT:      -4.5      0.000      0.000
REMARK  2 active torsions:
REMARK  status: ('A' for Active; 'I' for Inactive)
REMARK    1  A    between atoms: C3_3  and  C4_4 
REMARK    2  A    between atoms: C4_4  and  C5_5 
ROOT
HETATM    1  C1  UNL     1     -33.699   6.977   6.611  1.00 20.00     0.012 C 
HETATM    2  C2  UNL     1     -34.306   5.962   6.409  1.00 20.00    -0.117 C 
HETATM    3  C3  UNL     1     -35.052   4.717   6.169  1.00 20.00     0.094 C 
ENDROOT
BRANCH   3   4
HETATM    4  C4  UNL     1     -35.006   4.287   4.700  1.00 20.00     0.027 C 
BRANCH   4   5
HETATM    5  C5  UNL     1     -35.080   5.429   3.687  1.00 20.00     0.115 C 
HETATM    6 CL6  UNL     1     -33.491   5.802   2.980  1.00 20.00    -0.130 Cl
ENDBRANCH   4   5
ENDBRANCH   3   4
TORSDOF 2
ENDMDL
MODEL 2
REMARK VINA RESULT:      -4.3      1.599      2.411
REMARK  2 active torsions:
REMARK  status: ('A' for Active; 'I' for Inactive)
REMARK    1  A    between atoms: C3_3  and  C4_4 
REMARK    2  A    between atoms: C4_4  and  C5_5 
ROOT
HETATM    1  C1  UNL     1     -34.810   4.641   6.225  1.00 20.00     0.012 C 
HETATM    2  C2  UNL     1     -34.957   5.000   5.089  1.00 20.00    -0.117 C 
HETATM    3  C3  UNL     1     -35.144   5.440   3.698  1.00 20.00     0.094 C 
ENDROOT
BRANCH   3   4
HETATM    4  C4  UNL     1     -33.815   5.594   2.954  1.00 20.00     0.027 C 
BRANCH   4   5
HETATM    5  C5  UNL     1     -32.799   6.518   3.625  1.00 20.00     0.115 C 
HETATM    6 CL6  UNL     1     -32.106   7.694   2.485  1.00 20.00    -0.130 Cl
ENDBRANCH   4   5
ENDBRANCH   3   4
TORSDOF 2
ENDMDL
MODEL 3
REMARK VINA RESULT:      -4.3      2.249      3.002
REMARK  2 active torsions:
REMARK  status: ('A' for Active; 'I' for Inactive)
REMARK    1  A    between atoms: C3_3  and  C4_4 
REMARK    2  A    between atoms: C4_4  and  C5_5 
ROOT
HETATM    1  C1  UNL     1     -32.183   6.809   3.375  1.00 20.00     0.012 C 
HETATM    2  C2  UNL     1     -33.155   6.126   3.204  1.00 20.00    -0.117 C 
HETATM    3  C3  UNL     1     -34.343   5.287   2.987  1.00 20.00     0.094 C 
ENDROOT
BRANCH   3   4
HETATM    4  C4  UNL     1     -35.266   5.261   4.208  1.00 20.00     0.027 C 
BRANCH   4   5
HETATM    5  C5  UNL     1     -34.596   4.855   5.520  1.00 20.00     0.115 C 
HETATM    6 CL6  UNL     1     -34.231   6.260   6.549  1.00 20.00    -0.130 Cl
ENDBRANCH   4   5
ENDBRANCH   3   4
TORSDOF 2
ENDMDL
MODEL 4
REMARK VINA RESULT:      -4.2      2.766      3.376
REMARK  2 active torsions:
REMARK  status: ('A' for Active; 'I' for Inactive)
REMARK    1  A    between atoms: C3_3  and  C4_4 
REMARK    2  A    between atoms: C4_4  and  C5_5 
ROOT
HETATM    1  C1  UNL     1     -32.081   7.976   2.212  1.00 20.00     0.012 C 
HETATM    2  C2  UNL     1     -32.500   7.127   2.949  1.00 20.00    -0.117 C 
HETATM    3  C3  UNL     1     -33.006   6.086   3.856  1.00 20.00     0.094 C 
ENDROOT
BRANCH   3   4
HETATM    4  C4  UNL     1     -34.467   5.726   3.569  1.00 20.00     0.027 C 
BRANCH   4   5
HETATM    5  C5  UNL     1     -35.148   4.874   4.639  1.00 20.00     0.115 C 
HETATM    6 CL6  UNL     1     -34.711   5.389   6.284  1.00 20.00    -0.130 Cl
ENDBRANCH   4   5
ENDBRANCH   3   4
TORSDOF 2
ENDMDL
MODEL 5
REMARK VINA RESULT:      -4.1      3.368      4.064
REMARK  2 active torsions:
REMARK  status: ('A' for Active; 'I' for Inactive)
REMARK    1  A    between atoms: C3_3  and  C4_4 
REMARK    2  A    between atoms: C4_4  and  C5_5 
ROOT
HETATM    1  C1  UNL     1     -32.076   8.792   1.405  1.00 20.00     0.012 C 
HETATM    2  C2  UNL     1     -32.075   7.951   2.260  1.00 20.00    -0.117 C 
HETATM    3  C3  UNL     1     -32.068   6.923   3.311  1.00 20.00     0.094 C 
ENDROOT
BRANCH   3   4
HETATM    4  C4  UNL     1     -33.378   6.131   3.358  1.00 20.00     0.027 C 
BRANCH   4   5
HETATM    5  C5  UNL     1     -34.013   6.009   4.743  1.00 20.00     0.115 C 
HETATM    6 CL6  UNL     1     -35.163   4.655   4.836  1.00 20.00    -0.130 Cl
ENDBRANCH   4   5
ENDBRANCH   3   4
TORSDOF 2
ENDMDL
MODEL 6
REMARK VINA RESULT:      -3.9      1.155      2.317
REMARK  2 active torsions:
REMARK  status: ('A' for Active; 'I' for Inactive)
REMARK    1  A    between atoms: C3_3  and  C4_4 
REMARK    2  A    between atoms: C4_4  and  C5_5 
ROOT
HETATM    1  C1  UNL     1     -35.119   3.850   5.646  1.00 20.00     0.012 C 
HETATM    2  C2  UNL     1     -34.714   4.926   5.988  1.00 20.00    -0.117 C 
HETATM    3  C3  UNL     1     -34.221   6.244   6.415  1.00 20.00     0.094 C 
ENDROOT
BRANCH   3   4
HETATM    4  C4  UNL     1     -33.378   6.927   5.333  1.00 20.00     0.027 C 
BRANCH   4   5
HETATM    5  C5  UNL     1     -33.657   6.463   3.904  1.00 20.00     0.115 C 
HETATM    6 CL6  UNL     1     -32.165   6.052   3.029  1.00 20.00    -0.130 Cl
ENDBRANCH   4   5
ENDBRANCH   3   4
TORSDOF 2
ENDMDL
MODEL 7
REMARK VINA RESULT:      -3.8      3.274      4.117
REMARK  2 active torsions:
REMARK  status: ('A' for Active; 'I' for Inactive)
REMARK    1  A    between atoms: C3_3  and  C4_4 
REMARK    2  A    between atoms: C4_4  and  C5_5 
ROOT
HETATM    1  C1  UNL     1     -34.900   5.460   3.804  1.00 20.00     0.012 C 
HETATM    2  C2  UNL     1     -33.783   5.736   3.464  1.00 20.00    -0.117 C 
HETATM    3  C3  UNL     1     -32.413   6.068   3.046  1.00 20.00     0.094 C 
ENDROOT
BRANCH   3   4
HETATM    4  C4  UNL     1     -32.143   7.575   3.083  1.00 20.00     0.027 C 
BRANCH   4   5
HETATM    5  C5  UNL     1     -31.940   8.231   1.717  1.00 20.00     0.115 C 
HETATM    6 CL6  UNL     1     -32.559   9.897   1.675  1.00 20.00    -0.130 Cl
ENDBRANCH   4   5
ENDBRANCH   3   4
TORSDOF 2
ENDMDL
MODEL 8
REMARK VINA RESULT:      -3.6      1.975      2.501
REMARK  2 active torsions:
REMARK  status: ('A' for Active; 'I' for Inactive)
REMARK    1  A    between atoms: C3_3  and  C4_4 
REMARK    2  A    between atoms: C4_4  and  C5_5 
ROOT
HETATM    1  C1  UNL     1     -32.308   6.322   3.285  1.00 20.00     0.012 C 
HETATM    2  C2  UNL     1     -33.000   6.423   4.260  1.00 20.00    -0.117 C 
HETATM    3  C3  UNL     1     -33.847   6.553   5.455  1.00 20.00     0.094 C 
ENDROOT
BRANCH   3   4
HETATM    4  C4  UNL     1     -34.364   5.200   5.951  1.00 20.00     0.027 C 
BRANCH   4   5
HETATM    5  C5  UNL     1     -35.194   4.411   4.938  1.00 20.00     0.115 C 
HETATM    6 CL6  UNL     1     -35.964   5.469   3.734  1.00 20.00    -0.130 Cl
ENDBRANCH   4   5
ENDBRANCH   3   4
TORSDOF 2
ENDMDL
MODEL 9
REMARK VINA RESULT:      -3.5      1.811      2.247
REMARK  2 active torsions:
REMARK  status: ('A' for Active; 'I' for Inactive)
REMARK    1  A    between atoms: C3_3  and  C4_4 
REMARK    2  A    between atoms: C4_4  and  C5_5 
ROOT
HETATM    1  C1  UNL     1     -33.727   6.897   6.518  1.00 20.00     0.012 C 
HETATM    2  C2  UNL     1     -33.588   6.744   5.336  1.00 20.00    -0.117 C 
HETATM    3  C3  UNL     1     -33.414   6.562   3.887  1.00 20.00     0.094 C 
ENDROOT
BRANCH   3   4
HETATM    4  C4  UNL     1     -34.241   5.394   3.345  1.00 20.00     0.027 C 
BRANCH   4   5
HETATM    5  C5  UNL     1     -35.454   5.009   4.191  1.00 20.00     0.115 C 
HETATM    6 CL6  UNL     1     -35.068   3.742   5.379  1.00 20.00    -0.130 Cl
ENDBRANCH   4   5
ENDBRANCH   3   4
TORSDOF 2
ENDMDL
