MODEL 1
REMARK VINA RESULT:      -5.2      0.000      0.000
REMARK  4 active torsions:
REMARK  status: ('A' for Active; 'I' for Inactive)
REMARK    1  A    between atoms: C3_3  and  C4_4 
REMARK    2  A    between atoms: C4_4  and  C5_5 
REMARK    3  A    between atoms: C5_5  and  C6_6 
REMARK    4  A    between atoms: C6_6  and  C7_7 
ROOT
HETATM    1  C1  UNL     1     -32.092   7.958   2.267  1.00 20.00    -0.176 C 
HETATM    2  C2  UNL     1     -32.053   8.898   1.372  1.00 20.00     0.091 C 
HETATM    3  C3  UNL     1     -32.131   7.016   3.165  1.00 20.00     0.066 C 
ENDROOT
BRANCH   3   4
HETATM    4  C4  UNL     1     -33.092   5.865   3.157  1.00 20.00     0.017 C 
BRANCH   4   5
HETATM    5  C5  UNL     1     -34.396   6.223   3.873  1.00 20.00     0.002 C 
BRANCH   5   6
HETATM    6  C6  UNL     1     -34.996   5.004   4.576  1.00 20.00     0.015 C 
BRANCH   6   7
HETATM    7  C7  UNL     1     -34.759   5.066   6.080  1.00 20.00     0.114 C 
HETATM    8 CL8  UNL     1     -34.018   6.620   6.528  1.00 20.00    -0.130 Cl
ENDBRANCH   6   7
ENDBRANCH   5   6
ENDBRANCH   4   5
ENDBRANCH   3   4
TORSDOF 4
ENDMDL
MODEL 2
REMARK VINA RESULT:      -5.2      2.203      4.023
REMARK  4 active torsions:
REMARK  status: ('A' for Active; 'I' for Inactive)
REMARK    1  A    between atoms: C3_3  and  C4_4 
REMARK    2  A    between atoms: C4_4  and  C5_5 
REMARK    3  A    between atoms: C5_5  and  C6_6 
REMARK    4  A    between atoms: C6_6  and  C7_7 
ROOT
HETATM    1  C1  UNL     1     -34.216   6.044   6.424  1.00 20.00    -0.176 C 
HETATM    2  C2  UNL     1     -33.649   7.157   6.778  1.00 20.00     0.091 C 
HETATM    3  C3  UNL     1     -34.785   4.927   6.070  1.00 20.00     0.066 C 
ENDROOT
BRANCH   3   4
HETATM    4  C4  UNL     1     -35.163   4.568   4.664  1.00 20.00     0.017 C 
BRANCH   4   5
HETATM    5  C5  UNL     1     -34.901   5.729   3.703  1.00 20.00     0.002 C 
BRANCH   5   6
HETATM    6  C6  UNL     1     -33.707   5.437   2.792  1.00 20.00     0.015 C 
BRANCH   6   7
HETATM    7  C7  UNL     1     -32.461   6.173   3.269  1.00 20.00     0.114 C 
HETATM    8 CL8  UNL     1     -32.285   7.719   2.406  1.00 20.00    -0.130 Cl
ENDBRANCH   6   7
ENDBRANCH   5   6
ENDBRANCH   4   5
ENDBRANCH   3   4
TORSDOF 4
ENDMDL
MODEL 3
REMARK VINA RESULT:      -5.1      1.247      1.314
REMARK  4 active torsions:
REMARK  status: ('A' for Active; 'I' for Inactive)
REMARK    1  A    between atoms: C3_3  and  C4_4 
REMARK    2  A    between atoms: C4_4  and  C5_5 
REMARK    3  A    between atoms: C5_5  and  C6_6 
REMARK    4  A    between atoms: C6_6  and  C7_7 
ROOT
HETATM    1  C1  UNL     1     -32.137   8.203   2.101  1.00 20.00    -0.176 C 
HETATM    2  C2  UNL     1     -32.164   9.052   1.120  1.00 20.00     0.091 C 
HETATM    3  C3  UNL     1     -32.111   7.351   3.085  1.00 20.00     0.066 C 
ENDROOT
BRANCH   3   4
HETATM    4  C4  UNL     1     -32.812   6.026   3.090  1.00 20.00     0.017 C 
BRANCH   4   5
HETATM    5  C5  UNL     1     -34.094   6.077   3.923  1.00 20.00     0.002 C 
BRANCH   5   6
HETATM    6  C6  UNL     1     -33.793   6.405   5.387  1.00 20.00     0.015 C 
BRANCH   6   7
HETATM    7  C7  UNL     1     -34.603   5.519   6.325  1.00 20.00     0.114 C 
HETATM    8 CL8  UNL     1     -34.940   3.949   5.559  1.00 20.00    -0.130 Cl
ENDBRANCH   6   7
ENDBRANCH   5   6
ENDBRANCH   4   5
ENDBRANCH   3   4
TORSDOF 4
ENDMDL
MODEL 4
REMARK VINA RESULT:      -4.8      2.464      4.827
REMARK  4 active torsions:
REMARK  status: ('A' for Active; 'I' for Inactive)
REMARK    1  A    between atoms: C3_3  and  C4_4 
REMARK    2  A    between atoms: C4_4  and  C5_5 
REMARK    3  A    between atoms: C5_5  and  C6_6 
REMARK    4  A    between atoms: C6_6  and  C7_7 
ROOT
HETATM    1  C1  UNL     1     -35.072   4.839   4.901  1.00 20.00    -0.176 C 
HETATM    2  C2  UNL     1     -35.086   4.287   6.075  1.00 20.00     0.091 C 
HETATM    3  C3  UNL     1     -35.058   5.394   3.722  1.00 20.00     0.066 C 
ENDROOT
BRANCH   3   4
HETATM    4  C4  UNL     1     -33.819   5.745   2.956  1.00 20.00     0.017 C 
BRANCH   4   5
HETATM    5  C5  UNL     1     -32.817   6.500   3.832  1.00 20.00     0.002 C 
BRANCH   5   6
HETATM    6  C6  UNL     1     -31.783   7.241   2.982  1.00 20.00     0.015 C 
BRANCH   6   7
HETATM    7  C7  UNL     1     -32.423   8.395   2.221  1.00 20.00     0.114 C 
HETATM    8 CL8  UNL     1     -31.546   8.700   0.704  1.00 20.00    -0.130 Cl
ENDBRANCH   6   7
ENDBRANCH   5   6
ENDBRANCH   4   5
ENDBRANCH   3   4
TORSDOF 4
ENDMDL
MODEL 5
REMARK VINA RESULT:      -4.6      2.267      4.839
REMARK  4 active torsions:
REMARK  status: ('A' for Active; 'I' for Inactive)
REMARK    1  A    between atoms: C3_3  and  C4_4 
REMARK    2  A    between atoms: C4_4  and  C5_5 
REMARK    3  A    between atoms: C5_5  and  C6_6 
REMARK    4  A    between atoms: C6_6  and  C7_7 
ROOT
HETATM    1  C1  UNL     1     -34.573   5.049   5.550  1.00 20.00    -0.176 C 
HETATM    2  C2  UNL     1     -35.041   3.897   5.924  1.00 20.00     0.091 C 
HETATM    3  C3  UNL     1     -34.104   6.204   5.175  1.00 20.00     0.066 C 
ENDROOT
BRANCH   3   4
HETATM    4  C4  UNL     1     -33.938   6.639   3.750  1.00 20.00     0.017 C 
BRANCH   4   5
HETATM    5  C5  UNL     1     -32.529   6.334   3.236  1.00 20.00     0.002 C 
BRANCH   5   6
HETATM    6  C6  UNL     1     -31.723   7.619   3.030  1.00 20.00     0.015 C 
BRANCH   6   7
HETATM    7  C7  UNL     1     -31.917   8.169   1.623  1.00 20.00     0.114 C 
HETATM    8 CL8  UNL     1     -32.605   9.809   1.688  1.00 20.00    -0.130 Cl
ENDBRANCH   6   7
ENDBRANCH   5   6
ENDBRANCH   4   5
ENDBRANCH   3   4
TORSDOF 4
ENDMDL
MODEL 6
REMARK VINA RESULT:      -4.4      2.141      4.650
REMARK  4 active torsions:
REMARK  status: ('A' for Active; 'I' for Inactive)
REMARK    1  A    between atoms: C3_3  and  C4_4 
REMARK    2  A    between atoms: C4_4  and  C5_5 
REMARK    3  A    between atoms: C5_5  and  C6_6 
REMARK    4  A    between atoms: C6_6  and  C7_7 
ROOT
HETATM    1  C1  UNL     1     -34.872   4.832   5.481  1.00 20.00    -0.176 C 
HETATM    2  C2  UNL     1     -34.504   4.903   6.723  1.00 20.00     0.091 C 
HETATM    3  C3  UNL     1     -35.242   4.760   4.234  1.00 20.00     0.066 C 
ENDROOT
BRANCH   3   4
HETATM    4  C4  UNL     1     -34.851   5.737   3.167  1.00 20.00     0.017 C 
BRANCH   4   5
HETATM    5  C5  UNL     1     -33.333   5.785   2.984  1.00 20.00     0.002 C 
BRANCH   5   6
HETATM    6  C6  UNL     1     -32.771   7.159   3.355  1.00 20.00     0.015 C 
BRANCH   6   7
HETATM    7  C7  UNL     1     -31.939   7.736   2.217  1.00 20.00     0.114 C 
HETATM    8 CL8  UNL     1     -32.552   9.341   1.753  1.00 20.00    -0.130 Cl
ENDBRANCH   6   7
ENDBRANCH   5   6
ENDBRANCH   4   5
ENDBRANCH   3   4
TORSDOF 4
ENDMDL
MODEL 7
REMARK VINA RESULT:      -3.9     11.090     11.833
REMARK  4 active torsions:
REMARK  status: ('A' for Active; 'I' for Inactive)
REMARK    1  A    between atoms: C3_3  and  C4_4 
REMARK    2  A    between atoms: C4_4  and  C5_5 
REMARK    3  A    between atoms: C5_5  and  C6_6 
REMARK    4  A    between atoms: C6_6  and  C7_7 
ROOT
HETATM    1  C1  UNL     1     -34.704  16.656  -0.885  1.00 20.00    -0.176 C 
HETATM    2  C2  UNL     1     -34.768  17.323   0.226  1.00 20.00     0.091 C 
HETATM    3  C3  UNL     1     -34.640  15.987  -2.001  1.00 20.00     0.066 C 
ENDROOT
BRANCH   3   4
HETATM    4  C4  UNL     1     -33.601  16.190  -3.062  1.00 20.00     0.017 C 
BRANCH   4   5
HETATM    5  C5  UNL     1     -33.172  14.859  -3.683  1.00 20.00     0.002 C 
BRANCH   5   6
HETATM    6  C6  UNL     1     -34.282  13.811  -3.572  1.00 20.00     0.015 C 
BRANCH   6   7
HETATM    7  C7  UNL     1     -34.613  13.216  -4.935  1.00 20.00     0.114 C 
HETATM    8 CL8  UNL     1     -34.611  14.484  -6.183  1.00 20.00    -0.130 Cl
ENDBRANCH   6   7
ENDBRANCH   5   6
ENDBRANCH   4   5
ENDBRANCH   3   4
TORSDOF 4
ENDMDL
MODEL 8
REMARK VINA RESULT:      -3.9      2.144      4.462
REMARK  4 active torsions:
REMARK  status: ('A' for Active; 'I' for Inactive)
REMARK    1  A    between atoms: C3_3  and  C4_4 
REMARK    2  A    between atoms: C4_4  and  C5_5 
REMARK    3  A    between atoms: C5_5  and  C6_6 
REMARK    4  A    between atoms: C6_6  and  C7_7 
ROOT
HETATM    1  C1  UNL     1     -34.789   4.773   5.954  1.00 20.00    -0.176 C 
HETATM    2  C2  UNL     1     -35.154   3.721   5.288  1.00 20.00     0.091 C 
HETATM    3  C3  UNL     1     -34.423   5.829   6.622  1.00 20.00     0.066 C 
ENDROOT
BRANCH   3   4
HETATM    4  C4  UNL     1     -33.587   6.945   6.070  1.00 20.00     0.017 C 
BRANCH   4   5
HETATM    5  C5  UNL     1     -33.734   7.051   4.551  1.00 20.00     0.002 C 
BRANCH   5   6
HETATM    6  C6  UNL     1     -32.375   6.955   3.854  1.00 20.00     0.015 C 
BRANCH   6   7
HETATM    7  C7  UNL     1     -32.365   5.833   2.823  1.00 20.00     0.114 C 
HETATM    8 CL8  UNL     1     -34.027   5.312   2.457  1.00 20.00    -0.130 Cl
ENDBRANCH   6   7
ENDBRANCH   5   6
ENDBRANCH   4   5
ENDBRANCH   3   4
TORSDOF 4
ENDMDL
MODEL 9
REMARK VINA RESULT:      -3.8     11.440     12.056
REMARK  4 active torsions:
REMARK  status: ('A' for Active; 'I' for Inactive)
REMARK    1  A    between atoms: C3_3  and  C4_4 
REMARK    2  A    between atoms: C4_4  and  C5_5 
REMARK    3  A    between atoms: C5_5  and  C6_6 
REMARK    4  A    between atoms: C6_6  and  C7_7 
ROOT
HETATM    1  C1  UNL     1     -34.467  16.614  -1.224  1.00 20.00    -0.176 C 
HETATM    2  C2  UNL     1     -34.782  17.100  -0.063  1.00 20.00     0.091 C 
HETATM    3  C3  UNL     1     -34.152  16.125  -2.389  1.00 20.00     0.066 C 
ENDROOT
BRANCH   3   4
HETATM    4  C4  UNL     1     -34.825  14.953  -3.037  1.00 20.00     0.017 C 
BRANCH   4   5
HETATM    5  C5  UNL     1     -33.814  14.056  -3.754  1.00 20.00     0.002 C 
BRANCH   5   6
HETATM    6  C6  UNL     1     -34.478  13.261  -4.880  1.00 20.00     0.015 C 
BRANCH   6   7
HETATM    7  C7  UNL     1     -35.211  14.185  -5.845  1.00 20.00     0.114 C 
HETATM    8 CL8  UNL     1     -34.074  15.332  -6.592  1.00 20.00    -0.130 Cl
ENDBRANCH   6   7
ENDBRANCH   5   6
ENDBRANCH   4   5
ENDBRANCH   3   4
TORSDOF 4
ENDMDL
