MODEL 1
REMARK VINA RESULT:      -5.1      0.000      0.000
REMARK  1 active torsions:
REMARK  status: ('A' for Active; 'I' for Inactive)
REMARK    1  A    between atoms: C2_2  and  C3_3 
ROOT
HETATM    1  C3  UNL     1     -34.261   5.684   5.118  1.00 20.00     0.101 C 
HETATM    2  C4  UNL     1     -34.961   4.563   5.344  1.00 20.00     0.288 C 
HETATM    3  F5  UNL     1     -35.387   4.257   6.589  1.00 20.00    -0.171 F 
HETATM    4  F6  UNL     1     -35.256   3.720   4.329  1.00 20.00    -0.171 F 
HETATM    5 CL7  UNL     1     -33.913   6.729   6.463  1.00 20.00    -0.079 Cl
ENDROOT
BRANCH   1   6
HETATM    6  C2  UNL     1     -33.789   6.044   3.792  1.00 20.00     0.019 C 
HETATM    7  C1  UNL     1     -32.547   6.400   3.443  1.00 20.00     0.013 C 
ENDBRANCH   1   6
TORSDOF 1
ENDMDL
MODEL 2
REMARK VINA RESULT:      -4.9      1.998      2.388
REMARK  1 active torsions:
REMARK  status: ('A' for Active; 'I' for Inactive)
REMARK    1  A    between atoms: C2_2  and  C3_3 
ROOT
HETATM    1  C3  UNL     1     -34.026   6.069   4.814  1.00 20.00     0.101 C 
HETATM    2  C4  UNL     1     -34.093   6.279   6.137  1.00 20.00     0.288 C 
HETATM    3  F5  UNL     1     -35.043   5.671   6.882  1.00 20.00    -0.171 F 
HETATM    4  F6  UNL     1     -33.210   7.098   6.750  1.00 20.00    -0.171 F 
HETATM    5 CL7  UNL     1     -35.188   5.005   4.084  1.00 20.00    -0.079 Cl
ENDROOT
BRANCH   1   6
HETATM    6  C2  UNL     1     -33.017   6.705   3.985  1.00 20.00     0.019 C 
HETATM    7  C1  UNL     1     -32.258   6.126   3.046  1.00 20.00     0.013 C 
ENDBRANCH   1   6
TORSDOF 1
ENDMDL
MODEL 3
REMARK VINA RESULT:      -4.8      2.200      3.073
REMARK  1 active torsions:
REMARK  status: ('A' for Active; 'I' for Inactive)
REMARK    1  A    between atoms: C2_2  and  C3_3 
ROOT
HETATM    1  C3  UNL     1     -33.910   6.045   4.928  1.00 20.00     0.101 C 
HETATM    2  C4  UNL     1     -33.140   6.298   3.859  1.00 20.00     0.288 C 
HETATM    3  F5  UNL     1     -32.149   7.214   3.927  1.00 20.00    -0.171 F 
HETATM    4  F6  UNL     1     -33.340   5.639   2.697  1.00 20.00    -0.171 F 
HETATM    5 CL7  UNL     1     -33.605   6.925   6.395  1.00 20.00    -0.079 Cl
ENDROOT
BRANCH   1   6
HETATM    6  C2  UNL     1     -34.983   5.067   4.890  1.00 20.00     0.019 C 
HETATM    7  C1  UNL     1     -35.091   3.954   5.627  1.00 20.00     0.013 C 
ENDBRANCH   1   6
TORSDOF 1
ENDMDL
MODEL 4
REMARK VINA RESULT:      -4.7      2.133      2.910
REMARK  1 active torsions:
REMARK  status: ('A' for Active; 'I' for Inactive)
REMARK    1  A    between atoms: C2_2  and  C3_3 
ROOT
HETATM    1  C3  UNL     1     -33.878   6.133   4.902  1.00 20.00     0.101 C 
HETATM    2  C4  UNL     1     -33.888   6.503   6.191  1.00 20.00     0.288 C 
HETATM    3  F5  UNL     1     -32.928   7.320   6.679  1.00 20.00    -0.171 F 
HETATM    4  F6  UNL     1     -34.860   6.070   7.024  1.00 20.00    -0.171 F 
HETATM    5 CL7  UNL     1     -32.603   6.724   3.880  1.00 20.00    -0.079 Cl
ENDROOT
BRANCH   1   6
HETATM    6  C2  UNL     1     -34.894   5.258   4.345  1.00 20.00     0.019 C 
HETATM    7  C1  UNL     1     -35.188   4.009   4.729  1.00 20.00     0.013 C 
ENDBRANCH   1   6
TORSDOF 1
ENDMDL
MODEL 5
REMARK VINA RESULT:      -4.7      2.040      2.920
REMARK  1 active torsions:
REMARK  status: ('A' for Active; 'I' for Inactive)
REMARK    1  A    between atoms: C2_2  and  C3_3 
ROOT
HETATM    1  C3  UNL     1     -33.727   6.040   4.148  1.00 20.00     0.101 C 
HETATM    2  C4  UNL     1     -34.676   5.463   3.396  1.00 20.00     0.288 C 
HETATM    3  F5  UNL     1     -34.428   5.133   2.110  1.00 20.00    -0.171 F 
HETATM    4  F6  UNL     1     -35.896   5.197   3.914  1.00 20.00    -0.171 F 
HETATM    5 CL7  UNL     1     -32.178   6.356   3.427  1.00 20.00    -0.079 Cl
ENDROOT
BRANCH   1   6
HETATM    6  C2  UNL     1     -33.960   6.407   5.533  1.00 20.00     0.019 C 
HETATM    7  C1  UNL     1     -34.442   5.626   6.509  1.00 20.00     0.013 C 
ENDBRANCH   1   6
TORSDOF 1
ENDMDL
MODEL 6
REMARK VINA RESULT:      -4.5      1.617      2.325
REMARK  1 active torsions:
REMARK  status: ('A' for Active; 'I' for Inactive)
REMARK    1  A    between atoms: C2_2  and  C3_3 
ROOT
HETATM    1  C3  UNL     1     -34.345   5.548   5.297  1.00 20.00     0.101 C 
HETATM    2  C4  UNL     1     -34.986   4.372   5.379  1.00 20.00     0.288 C 
HETATM    3  F5  UNL     1     -35.095   3.572   4.296  1.00 20.00    -0.171 F 
HETATM    4  F6  UNL     1     -35.531   3.966   6.547  1.00 20.00    -0.171 F 
HETATM    5 CL7  UNL     1     -33.665   6.015   3.767  1.00 20.00    -0.079 Cl
ENDROOT
BRANCH   1   6
HETATM    6  C2  UNL     1     -34.209   6.432   6.440  1.00 20.00     0.019 C 
HETATM    7  C1  UNL     1     -33.237   7.326   6.662  1.00 20.00     0.013 C 
ENDBRANCH   1   6
TORSDOF 1
ENDMDL
MODEL 7
REMARK VINA RESULT:      -4.4      3.116      3.918
REMARK  1 active torsions:
REMARK  status: ('A' for Active; 'I' for Inactive)
REMARK    1  A    between atoms: C2_2  and  C3_3 
ROOT
HETATM    1  C3  UNL     1     -33.570   6.194   4.160  1.00 20.00     0.101 C 
HETATM    2  C4  UNL     1     -32.483   6.773   3.630  1.00 20.00     0.288 C 
HETATM    3  F5  UNL     1     -32.210   6.649   2.313  1.00 20.00    -0.171 F 
HETATM    4  F6  UNL     1     -31.641   7.493   4.405  1.00 20.00    -0.171 F 
HETATM    5 CL7  UNL     1     -34.615   5.281   3.113  1.00 20.00    -0.079 Cl
ENDROOT
BRANCH   1   6
HETATM    6  C2  UNL     1     -33.893   6.307   5.571  1.00 20.00     0.019 C 
HETATM    7  C1  UNL     1     -34.598   5.443   6.313  1.00 20.00     0.013 C 
ENDBRANCH   1   6
TORSDOF 1
ENDMDL
MODEL 8
REMARK VINA RESULT:      -4.3      2.570      3.278
REMARK  1 active torsions:
REMARK  status: ('A' for Active; 'I' for Inactive)
REMARK    1  A    between atoms: C2_2  and  C3_3 
ROOT
HETATM    1  C3  UNL     1     -34.106   5.696   4.336  1.00 20.00     0.101 C 
HETATM    2  C4  UNL     1     -33.670   5.826   3.074  1.00 20.00     0.288 C 
HETATM    3  F5  UNL     1     -34.096   4.982   2.109  1.00 20.00    -0.171 F 
HETATM    4  F6  UNL     1     -32.798   6.805   2.746  1.00 20.00    -0.171 F 
HETATM    5 CL7  UNL     1     -35.227   4.418   4.697  1.00 20.00    -0.079 Cl
ENDROOT
BRANCH   1   6
HETATM    6  C2  UNL     1     -33.670   6.585   5.397  1.00 20.00     0.019 C 
HETATM    7  C1  UNL     1     -34.059   6.571   6.678  1.00 20.00     0.013 C 
ENDBRANCH   1   6
TORSDOF 1
ENDMDL
MODEL 9
REMARK VINA RESULT:      -3.8      2.412      2.523
REMARK  1 active torsions:
REMARK  status: ('A' for Active; 'I' for Inactive)
REMARK    1  A    between atoms: C2_2  and  C3_3 
ROOT
HETATM    1  C3  UNL     1     -34.611   5.415   5.076  1.00 20.00     0.101 C 
HETATM    2  C4  UNL     1     -33.807   6.403   5.493  1.00 20.00     0.288 C 
HETATM    3  F5  UNL     1     -33.506   6.539   6.804  1.00 20.00    -0.171 F 
HETATM    4  F6  UNL     1     -33.280   7.280   4.610  1.00 20.00    -0.171 F 
HETATM    5 CL7  UNL     1     -35.258   4.318   6.259  1.00 20.00    -0.079 Cl
ENDROOT
BRANCH   1   6
HETATM    6  C2  UNL     1     -34.954   5.240   3.676  1.00 20.00     0.019 C 
HETATM    7  C1  UNL     1     -34.116   5.232   2.631  1.00 20.00     0.013 C 
ENDBRANCH   1   6
TORSDOF 1
ENDMDL
