MODEL 1
REMARK VINA RESULT:      -5.2      0.000      0.000
REMARK  3 active torsions:
REMARK  status: ('A' for Active; 'I' for Inactive)
REMARK    1  A    between atoms: C2_2  and  O5_5 
REMARK    2  A    between atoms: C3_3  and  C4_4 
REMARK    3  A    between atoms: C3_3  and  O5_5 
ROOT
HETATM    1  C3  UNL     1     -34.833   5.321   4.331  1.00 20.00     0.454 C 
HETATM    2  F6  UNL     1     -36.151   5.512   4.084  1.00 20.00    -0.166 F 
HETATM    3  F7  UNL     1     -34.423   4.257   3.599  1.00 20.00    -0.166 F 
ENDROOT
BRANCH   1   4
HETATM    4  C4  UNL     1     -34.622   5.047   5.793  1.00 20.00     0.484 C 
HETATM    5  F8  UNL     1     -33.684   4.095   5.973  1.00 20.00    -0.163 F 
HETATM    6  F9  UNL     1     -34.215   6.158   6.443  1.00 20.00    -0.163 F 
HETATM    7  F10 UNL     1     -35.762   4.620   6.377  1.00 20.00    -0.163 F 
ENDBRANCH   1   4
BRANCH   1   8
HETATM    8  O5  UNL     1     -34.106   6.477   3.933  1.00 20.00    -0.319 OA
BRANCH   8   9
HETATM    9  C2  UNL     1     -32.860   6.156   3.330  1.00 20.00     0.170 C 
HETATM   10  C1  UNL     1     -32.236   7.422   2.784  1.00 20.00     0.033 C 
ENDBRANCH   8   9
ENDBRANCH   1   8
TORSDOF 3
ENDMDL
MODEL 2
REMARK VINA RESULT:      -5.2      0.053      1.195
REMARK  3 active torsions:
REMARK  status: ('A' for Active; 'I' for Inactive)
REMARK    1  A    between atoms: C2_2  and  O5_5 
REMARK    2  A    between atoms: C3_3  and  C4_4 
REMARK    3  A    between atoms: C3_3  and  O5_5 
ROOT
HETATM    1  C3  UNL     1     -34.857   5.280   4.357  1.00 20.00     0.454 C 
HETATM    2  F6  UNL     1     -36.178   5.464   4.116  1.00 20.00    -0.166 F 
HETATM    3  F7  UNL     1     -34.446   4.216   3.625  1.00 20.00    -0.166 F 
ENDROOT
BRANCH   1   4
HETATM    4  C4  UNL     1     -34.638   5.009   5.818  1.00 20.00     0.484 C 
HETATM    5  F8  UNL     1     -35.775   4.580   6.403  1.00 20.00    -0.163 F 
HETATM    6  F9  UNL     1     -33.694   4.061   6.002  1.00 20.00    -0.163 F 
HETATM    7  F10 UNL     1     -34.236   6.124   6.464  1.00 20.00    -0.163 F 
ENDBRANCH   1   4
BRANCH   1   8
HETATM    8  O5  UNL     1     -34.138   6.438   3.952  1.00 20.00    -0.319 OA
BRANCH   8   9
HETATM    9  C2  UNL     1     -32.895   6.121   3.340  1.00 20.00     0.170 C 
HETATM   10  C1  UNL     1     -32.281   7.389   2.789  1.00 20.00     0.033 C 
ENDBRANCH   8   9
ENDBRANCH   1   8
TORSDOF 3
ENDMDL
MODEL 3
REMARK VINA RESULT:      -5.2      0.867      1.906
REMARK  3 active torsions:
REMARK  status: ('A' for Active; 'I' for Inactive)
REMARK    1  A    between atoms: C2_2  and  O5_5 
REMARK    2  A    between atoms: C3_3  and  C4_4 
REMARK    3  A    between atoms: C3_3  and  O5_5 
ROOT
HETATM    1  C3  UNL     1     -34.332   5.774   4.987  1.00 20.00     0.454 C 
HETATM    2  F6  UNL     1     -34.335   6.730   5.948  1.00 20.00    -0.166 F 
HETATM    3  F7  UNL     1     -35.233   6.134   4.041  1.00 20.00    -0.166 F 
ENDROOT
BRANCH   1   4
HETATM    4  C4  UNL     1     -34.718   4.451   5.583  1.00 20.00     0.484 C 
HETATM    5  F8  UNL     1     -35.658   4.609   6.538  1.00 20.00    -0.163 F 
HETATM    6  F9  UNL     1     -35.218   3.621   4.643  1.00 20.00    -0.163 F 
HETATM    7  F10 UNL     1     -33.653   3.842   6.148  1.00 20.00    -0.163 F 
ENDBRANCH   1   4
BRANCH   1   8
HETATM    8  O5  UNL     1     -33.038   5.698   4.402  1.00 20.00    -0.319 OA
BRANCH   8   9
HETATM    9  C2  UNL     1     -33.017   6.174   3.063  1.00 20.00     0.170 C 
HETATM   10  C1  UNL     1     -32.056   7.340   2.970  1.00 20.00     0.033 C 
ENDBRANCH   8   9
ENDBRANCH   1   8
TORSDOF 3
ENDMDL
MODEL 4
REMARK VINA RESULT:      -5.2      0.862      1.618
REMARK  3 active torsions:
REMARK  status: ('A' for Active; 'I' for Inactive)
REMARK    1  A    between atoms: C2_2  and  O5_5 
REMARK    2  A    between atoms: C3_3  and  C4_4 
REMARK    3  A    between atoms: C3_3  and  O5_5 
ROOT
HETATM    1  C3  UNL     1     -34.348   5.761   5.000  1.00 20.00     0.454 C 
HETATM    2  F6  UNL     1     -34.361   6.714   5.963  1.00 20.00    -0.166 F 
HETATM    3  F7  UNL     1     -35.255   6.113   4.056  1.00 20.00    -0.166 F 
ENDROOT
BRANCH   1   4
HETATM    4  C4  UNL     1     -34.719   4.432   5.592  1.00 20.00     0.484 C 
HETATM    5  F8  UNL     1     -35.219   3.608   4.648  1.00 20.00    -0.163 F 
HETATM    6  F9  UNL     1     -33.644   3.827   6.142  1.00 20.00    -0.163 F 
HETATM    7  F10 UNL     1     -35.653   4.571   6.556  1.00 20.00    -0.163 F 
ENDBRANCH   1   4
BRANCH   1   8
HETATM    8  O5  UNL     1     -33.055   5.701   4.413  1.00 20.00    -0.319 OA
BRANCH   8   9
HETATM    9  C2  UNL     1     -33.042   6.172   3.072  1.00 20.00     0.170 C 
HETATM   10  C1  UNL     1     -32.070   7.328   2.965  1.00 20.00     0.033 C 
ENDBRANCH   8   9
ENDBRANCH   1   8
TORSDOF 3
ENDMDL
MODEL 5
REMARK VINA RESULT:      -5.2      0.860      1.582
REMARK  3 active torsions:
REMARK  status: ('A' for Active; 'I' for Inactive)
REMARK    1  A    between atoms: C2_2  and  O5_5 
REMARK    2  A    between atoms: C3_3  and  C4_4 
REMARK    3  A    between atoms: C3_3  and  O5_5 
ROOT
HETATM    1  C3  UNL     1     -34.360   5.750   5.017  1.00 20.00     0.454 C 
HETATM    2  F6  UNL     1     -34.377   6.699   5.984  1.00 20.00    -0.166 F 
HETATM    3  F7  UNL     1     -35.275   6.096   4.079  1.00 20.00    -0.166 F 
ENDROOT
BRANCH   1   4
HETATM    4  C4  UNL     1     -34.714   4.415   5.606  1.00 20.00     0.484 C 
HETATM    5  F8  UNL     1     -33.630   3.830   6.156  1.00 20.00    -0.163 F 
HETATM    6  F9  UNL     1     -35.650   4.541   6.571  1.00 20.00    -0.163 F 
HETATM    7  F10 UNL     1     -35.202   3.580   4.664  1.00 20.00    -0.163 F 
ENDBRANCH   1   4
BRANCH   1   8
HETATM    8  O5  UNL     1     -33.069   5.705   4.423  1.00 20.00    -0.319 OA
BRANCH   8   9
HETATM    9  C2  UNL     1     -33.073   6.158   3.076  1.00 20.00     0.170 C 
HETATM   10  C1  UNL     1     -32.106   7.315   2.942  1.00 20.00     0.033 C 
ENDBRANCH   8   9
ENDBRANCH   1   8
TORSDOF 3
ENDMDL
MODEL 6
REMARK VINA RESULT:      -5.0      2.337      3.816
REMARK  3 active torsions:
REMARK  status: ('A' for Active; 'I' for Inactive)
REMARK    1  A    between atoms: C2_2  and  O5_5 
REMARK    2  A    between atoms: C3_3  and  C4_4 
REMARK    3  A    between atoms: C3_3  and  O5_5 
ROOT
HETATM    1  C3  UNL     1     -33.496   6.507   4.157  1.00 20.00     0.454 C 
HETATM    2  F6  UNL     1     -34.539   7.292   3.796  1.00 20.00    -0.166 F 
HETATM    3  F7  UNL     1     -33.167   6.816   5.435  1.00 20.00    -0.166 F 
ENDROOT
BRANCH   1   4
HETATM    4  C4  UNL     1     -32.325   6.766   3.252  1.00 20.00     0.484 C 
HETATM    5  F8  UNL     1     -31.826   5.610   2.770  1.00 20.00    -0.163 F 
HETATM    6  F9  UNL     1     -32.683   7.533   2.200  1.00 20.00    -0.163 F 
HETATM    7  F10 UNL     1     -31.333   7.403   3.910  1.00 20.00    -0.163 F 
ENDBRANCH   1   4
BRANCH   1   8
HETATM    8  O5  UNL     1     -33.886   5.142   4.087  1.00 20.00    -0.319 OA
BRANCH   8   9
HETATM    9  C2  UNL     1     -35.192   4.921   4.601  1.00 20.00     0.170 C 
HETATM   10  C1  UNL     1     -35.083   4.254   5.955  1.00 20.00     0.033 C 
ENDBRANCH   8   9
ENDBRANCH   1   8
TORSDOF 3
ENDMDL
MODEL 7
REMARK VINA RESULT:      -5.0      2.335      3.866
REMARK  3 active torsions:
REMARK  status: ('A' for Active; 'I' for Inactive)
REMARK    1  A    between atoms: C2_2  and  O5_5 
REMARK    2  A    between atoms: C3_3  and  C4_4 
REMARK    3  A    between atoms: C3_3  and  O5_5 
ROOT
HETATM    1  C3  UNL     1     -33.496   6.504   4.159  1.00 20.00     0.454 C 
HETATM    2  F6  UNL     1     -34.540   7.288   3.795  1.00 20.00    -0.166 F 
HETATM    3  F7  UNL     1     -33.168   6.816   5.436  1.00 20.00    -0.166 F 
ENDROOT
BRANCH   1   4
HETATM    4  C4  UNL     1     -32.326   6.761   3.253  1.00 20.00     0.484 C 
HETATM    5  F8  UNL     1     -31.336   7.395   3.916  1.00 20.00    -0.163 F 
HETATM    6  F9  UNL     1     -31.824   5.607   2.766  1.00 20.00    -0.163 F 
HETATM    7  F10 UNL     1     -32.682   7.533   2.204  1.00 20.00    -0.163 F 
ENDBRANCH   1   4
BRANCH   1   8
HETATM    8  O5  UNL     1     -33.887   5.138   4.091  1.00 20.00    -0.319 OA
BRANCH   8   9
HETATM    9  C2  UNL     1     -35.193   4.919   4.604  1.00 20.00     0.170 C 
HETATM   10  C1  UNL     1     -35.085   4.253   5.959  1.00 20.00     0.033 C 
ENDBRANCH   8   9
ENDBRANCH   1   8
TORSDOF 3
ENDMDL
MODEL 8
REMARK VINA RESULT:      -4.9      2.331      3.827
REMARK  3 active torsions:
REMARK  status: ('A' for Active; 'I' for Inactive)
REMARK    1  A    between atoms: C2_2  and  O5_5 
REMARK    2  A    between atoms: C3_3  and  C4_4 
REMARK    3  A    between atoms: C3_3  and  O5_5 
ROOT
HETATM    1  C3  UNL     1     -33.504   6.500   4.165  1.00 20.00     0.454 C 
HETATM    2  F6  UNL     1     -34.550   7.280   3.799  1.00 20.00    -0.166 F 
HETATM    3  F7  UNL     1     -33.177   6.817   5.442  1.00 20.00    -0.166 F 
ENDROOT
BRANCH   1   4
HETATM    4  C4  UNL     1     -32.334   6.758   3.260  1.00 20.00     0.484 C 
HETATM    5  F8  UNL     1     -32.692   7.547   2.226  1.00 20.00    -0.163 F 
HETATM    6  F9  UNL     1     -31.331   7.373   3.922  1.00 20.00    -0.163 F 
HETATM    7  F10 UNL     1     -31.848   5.606   2.752  1.00 20.00    -0.163 F 
ENDBRANCH   1   4
BRANCH   1   8
HETATM    8  O5  UNL     1     -33.891   5.133   4.102  1.00 20.00    -0.319 OA
BRANCH   8   9
HETATM    9  C2  UNL     1     -35.196   4.911   4.618  1.00 20.00     0.170 C 
HETATM   10  C1  UNL     1     -35.083   4.237   5.968  1.00 20.00     0.033 C 
ENDBRANCH   8   9
ENDBRANCH   1   8
TORSDOF 3
ENDMDL
MODEL 9
REMARK VINA RESULT:      -4.7      1.455      2.528
REMARK  3 active torsions:
REMARK  status: ('A' for Active; 'I' for Inactive)
REMARK    1  A    between atoms: C2_2  and  O5_5 
REMARK    2  A    between atoms: C3_3  and  C4_4 
REMARK    3  A    between atoms: C3_3  and  O5_5 
ROOT
HETATM    1  C3  UNL     1     -33.913   6.217   4.177  1.00 20.00     0.454 C 
HETATM    2  F6  UNL     1     -33.780   5.982   5.505  1.00 20.00    -0.166 F 
HETATM    3  F7  UNL     1     -34.393   7.475   4.024  1.00 20.00    -0.166 F 
ENDROOT
BRANCH   1   4
HETATM    4  C4  UNL     1     -34.871   5.229   3.577  1.00 20.00     0.484 C 
HETATM    5  F8  UNL     1     -34.447   4.825   2.362  1.00 20.00    -0.163 F 
HETATM    6  F9  UNL     1     -34.994   4.133   4.357  1.00 20.00    -0.163 F 
HETATM    7  F10 UNL     1     -36.099   5.769   3.428  1.00 20.00    -0.163 F 
ENDBRANCH   1   4
BRANCH   1   8
HETATM    8  O5  UNL     1     -32.640   6.118   3.551  1.00 20.00    -0.319 OA
BRANCH   8   9
HETATM    9  C2  UNL     1     -31.946   7.358   3.529  1.00 20.00     0.170 C 
HETATM   10  C1  UNL     1     -31.996   7.926   2.127  1.00 20.00     0.033 C 
ENDBRANCH   8   9
ENDBRANCH   1   8
TORSDOF 3
ENDMDL
