MODEL 1
REMARK VINA RESULT:      -5.1      0.000      0.000
REMARK  2 active torsions:
REMARK  status: ('A' for Active; 'I' for Inactive)
REMARK    1  A    between atoms: C1_1  and  C5_5 
REMARK    2  A    between atoms: C4_4  and  C5_5 
ROOT
HETATM    1  C1  UNL     1     -34.824   5.026   4.717  1.00 20.00     0.164 C 
HETATM    2  C2  UNL     1     -34.922   5.102   6.047  1.00 20.00     0.301 C 
HETATM    3  F7  UNL     1     -35.136   3.847   4.128  1.00 20.00    -0.205 F 
HETATM    4  F8  UNL     1     -35.326   4.023   6.751  1.00 20.00    -0.170 F 
HETATM    5  F9  UNL     1     -34.621   6.247   6.696  1.00 20.00    -0.170 F 
ENDROOT
BRANCH   1   6
HETATM    6  C5  UNL     1     -34.380   6.154   3.833  1.00 20.00     0.110 C 
BRANCH   6   7
HETATM    7  C4  UNL     1     -32.920   6.479   3.934  1.00 20.00     0.151 A 
HETATM    8  C3  UNL     1     -32.227   7.283   2.870  1.00 20.00     0.200 A 
HETATM    9  O6  UNL     1     -32.101   5.854   2.941  1.00 20.00    -0.381 OA
ENDBRANCH   6   7
ENDBRANCH   1   6
TORSDOF 2
ENDMDL
MODEL 2
REMARK VINA RESULT:      -5.1      0.488      1.729
REMARK  2 active torsions:
REMARK  status: ('A' for Active; 'I' for Inactive)
REMARK    1  A    between atoms: C1_1  and  C5_5 
REMARK    2  A    between atoms: C4_4  and  C5_5 
ROOT
HETATM    1  C1  UNL     1     -34.564   5.653   5.351  1.00 20.00     0.164 C 
HETATM    2  C2  UNL     1     -35.052   4.417   5.489  1.00 20.00     0.301 C 
HETATM    3  F7  UNL     1     -34.416   6.402   6.469  1.00 20.00    -0.205 F 
HETATM    4  F8  UNL     1     -35.371   3.959   6.717  1.00 20.00    -0.170 F 
HETATM    5  F9  UNL     1     -35.227   3.621   4.413  1.00 20.00    -0.170 F 
ENDROOT
BRANCH   1   6
HETATM    6  C5  UNL     1     -34.181   6.273   4.039  1.00 20.00     0.110 C 
BRANCH   6   7
HETATM    7  C4  UNL     1     -32.733   6.648   3.933  1.00 20.00     0.151 A 
HETATM    8  C3  UNL     1     -32.207   7.386   2.733  1.00 20.00     0.200 A 
HETATM    9  O6  UNL     1     -32.017   5.971   2.895  1.00 20.00    -0.381 OA
ENDBRANCH   6   7
ENDBRANCH   1   6
TORSDOF 2
ENDMDL
MODEL 3
REMARK VINA RESULT:      -4.5      2.687      4.120
REMARK  2 active torsions:
REMARK  status: ('A' for Active; 'I' for Inactive)
REMARK    1  A    between atoms: C1_1  and  C5_5 
REMARK    2  A    between atoms: C4_4  and  C5_5 
ROOT
HETATM    1  C1  UNL     1     -33.273   6.473   4.216  1.00 20.00     0.164 C 
HETATM    2  C2  UNL     1     -32.234   6.877   3.479  1.00 20.00     0.301 C 
HETATM    3  F7  UNL     1     -33.362   6.931   5.487  1.00 20.00    -0.205 F 
HETATM    4  F8  UNL     1     -31.325   7.720   4.013  1.00 20.00    -0.170 F 
HETATM    5  F9  UNL     1     -32.084   6.453   2.207  1.00 20.00    -0.170 F 
ENDROOT
BRANCH   1   6
HETATM    6  C5  UNL     1     -34.340   5.534   3.734  1.00 20.00     0.110 C 
BRANCH   6   7
HETATM    7  C4  UNL     1     -35.209   4.978   4.822  1.00 20.00     0.151 A 
HETATM    8  C3  UNL     1     -34.626   4.165   5.944  1.00 20.00     0.200 A 
HETATM    9  O6  UNL     1     -35.303   3.550   4.836  1.00 20.00    -0.381 OA
ENDBRANCH   6   7
ENDBRANCH   1   6
TORSDOF 2
ENDMDL
MODEL 4
REMARK VINA RESULT:      -4.4      2.811      4.068
REMARK  2 active torsions:
REMARK  status: ('A' for Active; 'I' for Inactive)
REMARK    1  A    between atoms: C1_1  and  C5_5 
REMARK    2  A    between atoms: C4_4  and  C5_5 
ROOT
HETATM    1  C1  UNL     1     -33.240   6.282   3.501  1.00 20.00     0.164 C 
HETATM    2  C2  UNL     1     -32.218   7.071   3.159  1.00 20.00     0.301 C 
HETATM    3  F7  UNL     1     -33.927   5.672   2.506  1.00 20.00    -0.205 F 
HETATM    4  F8  UNL     1     -31.903   7.229   1.856  1.00 20.00    -0.170 F 
HETATM    5  F9  UNL     1     -31.495   7.711   4.102  1.00 20.00    -0.170 F 
ENDROOT
BRANCH   1   6
HETATM    6  C5  UNL     1     -33.686   6.036   4.912  1.00 20.00     0.110 C 
BRANCH   6   7
HETATM    7  C4  UNL     1     -34.986   5.297   5.028  1.00 20.00     0.151 A 
HETATM    8  C3  UNL     1     -35.197   4.258   6.094  1.00 20.00     0.200 A 
HETATM    9  O6  UNL     1     -34.904   3.899   4.734  1.00 20.00    -0.381 OA
ENDBRANCH   6   7
ENDBRANCH   1   6
TORSDOF 2
ENDMDL
MODEL 5
REMARK VINA RESULT:      -4.3     12.012     12.764
REMARK  2 active torsions:
REMARK  status: ('A' for Active; 'I' for Inactive)
REMARK    1  A    between atoms: C1_1  and  C5_5 
REMARK    2  A    between atoms: C4_4  and  C5_5 
ROOT
HETATM    1  C1  UNL     1     -34.029  16.088  -2.695  1.00 20.00     0.164 C 
HETATM    2  C2  UNL     1     -34.031  16.665  -1.490  1.00 20.00     0.301 C 
HETATM    3  F7  UNL     1     -33.191  16.589  -3.634  1.00 20.00    -0.205 F 
HETATM    4  F8  UNL     1     -33.209  17.708  -1.248  1.00 20.00    -0.170 F 
HETATM    5  F9  UNL     1     -34.846  16.216  -0.512  1.00 20.00    -0.170 F 
ENDROOT
BRANCH   1   6
HETATM    6  C5  UNL     1     -34.901  14.931  -3.082  1.00 20.00     0.110 C 
BRANCH   6   7
HETATM    7  C4  UNL     1     -34.218  13.899  -3.930  1.00 20.00     0.151 A 
HETATM    8  C3  UNL     1     -34.705  13.586  -5.317  1.00 20.00     0.200 A 
HETATM    9  O6  UNL     1     -35.006  12.735  -4.200  1.00 20.00    -0.381 OA
ENDBRANCH   6   7
ENDBRANCH   1   6
TORSDOF 2
ENDMDL
MODEL 6
REMARK VINA RESULT:      -4.1      1.378      2.309
REMARK  2 active torsions:
REMARK  status: ('A' for Active; 'I' for Inactive)
REMARK    1  A    between atoms: C1_1  and  C5_5 
REMARK    2  A    between atoms: C4_4  and  C5_5 
ROOT
HETATM    1  C1  UNL     1     -33.546   6.238   4.507  1.00 20.00     0.164 C 
HETATM    2  C2  UNL     1     -34.583   5.457   4.824  1.00 20.00     0.301 C 
HETATM    3  F7  UNL     1     -32.960   6.945   5.502  1.00 20.00    -0.205 F 
HETATM    4  F8  UNL     1     -35.003   5.392   6.105  1.00 20.00    -0.170 F 
HETATM    5  F9  UNL     1     -35.214   4.729   3.878  1.00 20.00    -0.170 F 
ENDROOT
BRANCH   1   6
HETATM    6  C5  UNL     1     -32.997   6.395   3.120  1.00 20.00     0.110 C 
BRANCH   6   7
HETATM    7  C4  UNL     1     -32.073   7.564   2.950  1.00 20.00     0.151 A 
HETATM    8  C3  UNL     1     -32.495   8.783   2.179  1.00 20.00     0.200 A 
HETATM    9  O6  UNL     1     -31.634   7.785   1.606  1.00 20.00    -0.381 OA
ENDBRANCH   6   7
ENDBRANCH   1   6
TORSDOF 2
ENDMDL
MODEL 7
REMARK VINA RESULT:      -3.9     11.869     12.515
REMARK  2 active torsions:
REMARK  status: ('A' for Active; 'I' for Inactive)
REMARK    1  A    between atoms: C1_1  and  C5_5 
REMARK    2  A    between atoms: C4_4  and  C5_5 
ROOT
HETATM    1  C1  UNL     1     -34.663  14.920  -3.128  1.00 20.00     0.164 C 
HETATM    2  C2  UNL     1     -34.222  13.775  -3.655  1.00 20.00     0.301 C 
HETATM    3  F7  UNL     1     -36.002  15.097  -3.032  1.00 20.00    -0.205 F 
HETATM    4  F8  UNL     1     -35.109  12.843  -4.065  1.00 20.00    -0.170 F 
HETATM    5  F9  UNL     1     -32.899  13.538  -3.783  1.00 20.00    -0.170 F 
ENDROOT
BRANCH   1   6
HETATM    6  C5  UNL     1     -33.775  16.029  -2.646  1.00 20.00     0.110 C 
BRANCH   6   7
HETATM    7  C4  UNL     1     -34.461  17.029  -1.763  1.00 20.00     0.151 A 
HETATM    8  C3  UNL     1     -33.748  17.654  -0.596  1.00 20.00     0.200 A 
HETATM    9  O6  UNL     1     -34.689  16.582  -0.423  1.00 20.00    -0.381 OA
ENDBRANCH   6   7
ENDBRANCH   1   6
TORSDOF 2
ENDMDL
MODEL 8
REMARK VINA RESULT:      -3.9     12.026     13.007
REMARK  2 active torsions:
REMARK  status: ('A' for Active; 'I' for Inactive)
REMARK    1  A    between atoms: C1_1  and  C5_5 
REMARK    2  A    between atoms: C4_4  and  C5_5 
ROOT
HETATM    1  C1  UNL     1     -34.334  14.567  -3.379  1.00 20.00     0.164 C 
HETATM    2  C2  UNL     1     -33.211  15.281  -3.496  1.00 20.00     0.301 C 
HETATM    3  F7  UNL     1     -34.219  13.222  -3.273  1.00 20.00    -0.205 F 
HETATM    4  F8  UNL     1     -32.017  14.652  -3.499  1.00 20.00    -0.170 F 
HETATM    5  F9  UNL     1     -33.257  16.626  -3.610  1.00 20.00    -0.170 F 
ENDROOT
BRANCH   1   6
HETATM    6  C5  UNL     1     -35.715  15.154  -3.371  1.00 20.00     0.110 C 
BRANCH   6   7
HETATM    7  C4  UNL     1     -36.690  14.450  -4.266  1.00 20.00     0.151 A 
HETATM    8  C3  UNL     1     -37.932  15.139  -4.758  1.00 20.00     0.200 A 
HETATM    9  O6  UNL     1     -37.968  14.199  -3.673  1.00 20.00    -0.381 OA
ENDBRANCH   6   7
ENDBRANCH   1   6
TORSDOF 2
ENDMDL
MODEL 9
REMARK VINA RESULT:      -3.9      2.805      4.196
REMARK  2 active torsions:
REMARK  status: ('A' for Active; 'I' for Inactive)
REMARK    1  A    between atoms: C1_1  and  C5_5 
REMARK    2  A    between atoms: C4_4  and  C5_5 
ROOT
HETATM    1  C1  UNL     1     -33.067   6.616   4.281  1.00 20.00     0.164 C 
HETATM    2  C2  UNL     1     -32.984   6.152   3.030  1.00 20.00     0.301 C 
HETATM    3  F7  UNL     1     -32.057   7.395   4.734  1.00 20.00    -0.205 F 
HETATM    4  F8  UNL     1     -31.918   6.474   2.268  1.00 20.00    -0.170 F 
HETATM    5  F9  UNL     1     -33.956   5.367   2.520  1.00 20.00    -0.170 F 
ENDROOT
BRANCH   1   6
HETATM    6  C5  UNL     1     -34.198   6.320   5.221  1.00 20.00     0.110 C 
BRANCH   6   7
HETATM    7  C4  UNL     1     -34.173   4.937   5.801  1.00 20.00     0.151 A 
HETATM    8  C3  UNL     1     -35.062   3.851   5.263  1.00 20.00     0.200 A 
HETATM    9  O6  UNL     1     -35.375   4.553   6.477  1.00 20.00    -0.381 OA
ENDBRANCH   6   7
ENDBRANCH   1   6
TORSDOF 2
ENDMDL
