MODEL 1
REMARK VINA RESULT:      -4.6      0.000      0.000
REMARK  4 active torsions:
REMARK  status: ('A' for Active; 'I' for Inactive)
REMARK    1  A    between atoms: C1_1  and  C5_5 
REMARK    2  A    between atoms: C1_1  and  C8_8 
REMARK    3  A    between atoms: C6_6  and  C8_8 
REMARK    4  A    between atoms: C7_7  and  C8_8 
ROOT
HETATM    1  C8  UNL     1     -34.277   6.154   4.672  1.00 20.00     0.054 C 
ENDROOT
BRANCH   1   2
HETATM    2  C1  UNL     1     -33.406   6.091   3.414  1.00 20.00     0.130 C 
HETATM    3  O9  UNL     1     -33.727   5.413   2.437  1.00 20.00    -0.298 OA
BRANCH   2   4
HETATM    4  C5  UNL     1     -32.138   6.932   3.429  1.00 20.00     0.074 C 
HETATM    5  C2  UNL     1     -32.098   7.950   2.304  1.00 20.00     0.013 C 
ENDBRANCH   2   4
ENDBRANCH   1   2
BRANCH   1   6
HETATM    6  C6  UNL     1     -33.431   6.193   5.956  1.00 20.00     0.007 C 
HETATM    7  C3  UNL     1     -33.763   7.395   6.833  1.00 20.00     0.006 C 
ENDBRANCH   1   6
BRANCH   1   8
HETATM    8  C7  UNL     1     -35.295   5.001   4.670  1.00 20.00     0.007 C 
HETATM    9  C4  UNL     1     -35.067   3.938   5.738  1.00 20.00     0.006 C 
ENDBRANCH   1   8
TORSDOF 4
ENDMDL
MODEL 2
REMARK VINA RESULT:      -4.2      1.797      4.185
REMARK  4 active torsions:
REMARK  status: ('A' for Active; 'I' for Inactive)
REMARK    1  A    between atoms: C1_1  and  C5_5 
REMARK    2  A    between atoms: C1_1  and  C8_8 
REMARK    3  A    between atoms: C6_6  and  C8_8 
REMARK    4  A    between atoms: C7_7  and  C8_8 
ROOT
HETATM    1  C8  UNL     1     -33.974   6.534   4.221  1.00 20.00     0.054 C 
ENDROOT
BRANCH   1   2
HETATM    2  C1  UNL     1     -34.048   6.266   5.727  1.00 20.00     0.130 C 
HETATM    3  O9  UNL     1     -33.397   6.928   6.536  1.00 20.00    -0.298 OA
BRANCH   2   4
HETATM    4  C5  UNL     1     -34.989   5.154   6.167  1.00 20.00     0.074 C 
HETATM    5  C2  UNL     1     -34.381   3.773   6.000  1.00 20.00     0.013 C 
ENDBRANCH   2   4
ENDBRANCH   1   2
BRANCH   1   6
HETATM    6  C6  UNL     1     -34.978   5.676   3.433  1.00 20.00     0.007 C 
HETATM    7  C3  UNL     1     -34.332   4.974   2.244  1.00 20.00     0.006 C 
ENDBRANCH   1   6
BRANCH   1   8
HETATM    8  C7  UNL     1     -32.528   6.361   3.723  1.00 20.00     0.007 C 
HETATM    9  C4  UNL     1     -31.926   7.591   3.054  1.00 20.00     0.006 C 
ENDBRANCH   1   8
TORSDOF 4
ENDMDL
MODEL 3
REMARK VINA RESULT:      -4.1      0.495      2.161
REMARK  4 active torsions:
REMARK  status: ('A' for Active; 'I' for Inactive)
REMARK    1  A    between atoms: C1_1  and  C5_5 
REMARK    2  A    between atoms: C1_1  and  C8_8 
REMARK    3  A    between atoms: C6_6  and  C8_8 
REMARK    4  A    between atoms: C7_7  and  C8_8 
ROOT
HETATM    1  C8  UNL     1     -33.813   5.723   4.759  1.00 20.00     0.054 C 
ENDROOT
BRANCH   1   2
HETATM    2  C1  UNL     1     -33.244   6.015   3.367  1.00 20.00     0.130 C 
HETATM    3  O9  UNL     1     -33.751   5.546   2.348  1.00 20.00    -0.298 OA
BRANCH   2   4
HETATM    4  C5  UNL     1     -32.034   6.937   3.314  1.00 20.00     0.074 C 
HETATM    5  C2  UNL     1     -32.149   7.990   2.227  1.00 20.00     0.013 C 
ENDBRANCH   2   4
ENDBRANCH   1   2
BRANCH   1   6
HETATM    6  C6  UNL     1     -35.048   4.810   4.697  1.00 20.00     0.007 C 
HETATM    7  C3  UNL     1     -35.209   3.965   5.955  1.00 20.00     0.006 C 
ENDBRANCH   1   6
BRANCH   1   8
HETATM    8  C7  UNL     1     -34.088   7.041   5.505  1.00 20.00     0.007 C 
HETATM    9  C4  UNL     1     -33.402   7.169   6.860  1.00 20.00     0.006 C 
ENDBRANCH   1   8
TORSDOF 4
ENDMDL
MODEL 4
REMARK VINA RESULT:      -4.1     11.499     12.427
REMARK  4 active torsions:
REMARK  status: ('A' for Active; 'I' for Inactive)
REMARK    1  A    between atoms: C1_1  and  C5_5 
REMARK    2  A    between atoms: C1_1  and  C8_8 
REMARK    3  A    between atoms: C6_6  and  C8_8 
REMARK    4  A    between atoms: C7_7  and  C8_8 
ROOT
HETATM    1  C8  UNL     1     -34.366  14.775  -3.035  1.00 20.00     0.054 C 
ENDROOT
BRANCH   1   2
HETATM    2  C1  UNL     1     -35.250  13.916  -3.943  1.00 20.00     0.130 C 
HETATM    3  O9  UNL     1     -34.905  12.791  -4.308  1.00 20.00    -0.298 OA
BRANCH   2   4
HETATM    4  C5  UNL     1     -36.587  14.519  -4.348  1.00 20.00     0.074 C 
HETATM    5  C2  UNL     1     -36.578  15.062  -5.765  1.00 20.00     0.013 C 
ENDBRANCH   2   4
ENDBRANCH   1   2
BRANCH   1   6
HETATM    6  C6  UNL     1     -35.116  16.003  -2.494  1.00 20.00     0.007 C 
HETATM    7  C3  UNL     1     -34.586  16.458  -1.140  1.00 20.00     0.006 C 
ENDBRANCH   1   6
BRANCH   1   8
HETATM    8  C7  UNL     1     -33.064  15.151  -3.765  1.00 20.00     0.007 C 
HETATM    9  C4  UNL     1     -33.198  16.282  -4.777  1.00 20.00     0.006 C 
ENDBRANCH   1   8
TORSDOF 4
ENDMDL
MODEL 5
REMARK VINA RESULT:      -4.1      1.166      1.604
REMARK  4 active torsions:
REMARK  status: ('A' for Active; 'I' for Inactive)
REMARK    1  A    between atoms: C1_1  and  C5_5 
REMARK    2  A    between atoms: C1_1  and  C8_8 
REMARK    3  A    between atoms: C6_6  and  C8_8 
REMARK    4  A    between atoms: C7_7  and  C8_8 
ROOT
HETATM    1  C8  UNL     1     -33.885   6.488   4.193  1.00 20.00     0.054 C 
ENDROOT
BRANCH   1   2
HETATM    2  C1  UNL     1     -32.540   6.433   3.463  1.00 20.00     0.130 C 
HETATM    3  O9  UNL     1     -32.072   5.373   3.046  1.00 20.00    -0.298 OA
BRANCH   2   4
HETATM    4  C5  UNL     1     -31.830   7.763   3.260  1.00 20.00     0.074 C 
HETATM    5  C2  UNL     1     -32.079   8.355   1.884  1.00 20.00     0.013 C 
ENDBRANCH   2   4
ENDBRANCH   1   2
BRANCH   1   6
HETATM    6  C6  UNL     1     -33.714   6.443   5.721  1.00 20.00     0.007 C 
HETATM    7  C3  UNL     1     -34.500   5.304   6.359  1.00 20.00     0.006 C 
ENDBRANCH   1   6
BRANCH   1   8
HETATM    8  C7  UNL     1     -34.818   5.382   3.669  1.00 20.00     0.007 C 
HETATM    9  C4  UNL     1     -36.228   5.841   3.319  1.00 20.00     0.006 C 
ENDBRANCH   1   8
TORSDOF 4
ENDMDL
MODEL 6
REMARK VINA RESULT:      -4.0     11.502     12.720
REMARK  4 active torsions:
REMARK  status: ('A' for Active; 'I' for Inactive)
REMARK    1  A    between atoms: C1_1  and  C5_5 
REMARK    2  A    between atoms: C1_1  and  C8_8 
REMARK    3  A    between atoms: C6_6  and  C8_8 
REMARK    4  A    between atoms: C7_7  and  C8_8 
ROOT
HETATM    1  C8  UNL     1     -34.097  15.652  -3.886  1.00 20.00     0.054 C 
ENDROOT
BRANCH   1   2
HETATM    2  C1  UNL     1     -34.080  14.121  -3.911  1.00 20.00     0.130 C 
HETATM    3  O9  UNL     1     -33.054  13.480  -3.679  1.00 20.00    -0.298 OA
BRANCH   2   4
HETATM    4  C5  UNL     1     -35.405  13.438  -4.214  1.00 20.00     0.074 C 
HETATM    5  C2  UNL     1     -36.589  14.380  -4.096  1.00 20.00     0.013 C 
ENDBRANCH   2   4
ENDBRANCH   1   2
BRANCH   1   6
HETATM    6  C6  UNL     1     -33.310  16.256  -5.061  1.00 20.00     0.007 C 
HETATM    7  C3  UNL     1     -34.018  16.059  -6.396  1.00 20.00     0.006 C 
ENDBRANCH   1   6
BRANCH   1   8
HETATM    8  C7  UNL     1     -33.607  16.164  -2.520  1.00 20.00     0.007 C 
HETATM    9  C4  UNL     1     -34.695  16.323  -1.464  1.00 20.00     0.006 C 
ENDBRANCH   1   8
TORSDOF 4
ENDMDL
MODEL 7
REMARK VINA RESULT:      -4.0      1.072      3.513
REMARK  4 active torsions:
REMARK  status: ('A' for Active; 'I' for Inactive)
REMARK    1  A    between atoms: C1_1  and  C5_5 
REMARK    2  A    between atoms: C1_1  and  C8_8 
REMARK    3  A    between atoms: C6_6  and  C8_8 
REMARK    4  A    between atoms: C7_7  and  C8_8 
ROOT
HETATM    1  C8  UNL     1     -33.458   5.907   4.342  1.00 20.00     0.054 C 
ENDROOT
BRANCH   1   2
HETATM    2  C1  UNL     1     -34.819   5.243   4.116  1.00 20.00     0.130 C 
HETATM    3  O9  UNL     1     -35.649   5.715   3.337  1.00 20.00    -0.298 OA
BRANCH   2   4
HETATM    4  C5  UNL     1     -35.078   3.957   4.887  1.00 20.00     0.074 C 
HETATM    5  C2  UNL     1     -35.195   4.186   6.383  1.00 20.00     0.013 C 
ENDBRANCH   2   4
ENDBRANCH   1   2
BRANCH   1   6
HETATM    6  C6  UNL     1     -33.584   7.237   5.104  1.00 20.00     0.007 C 
HETATM    7  C3  UNL     1     -33.562   7.044   6.616  1.00 20.00     0.006 C 
ENDBRANCH   1   6
BRANCH   1   8
HETATM    8  C7  UNL     1     -32.714   6.060   3.003  1.00 20.00     0.007 C 
HETATM    9  C4  UNL     1     -32.213   7.468   2.703  1.00 20.00     0.006 C 
ENDBRANCH   1   8
TORSDOF 4
ENDMDL
MODEL 8
REMARK VINA RESULT:      -3.9     11.742     12.535
REMARK  4 active torsions:
REMARK  status: ('A' for Active; 'I' for Inactive)
REMARK    1  A    between atoms: C1_1  and  C5_5 
REMARK    2  A    between atoms: C1_1  and  C8_8 
REMARK    3  A    between atoms: C6_6  and  C8_8 
REMARK    4  A    between atoms: C7_7  and  C8_8 
ROOT
HETATM    1  C8  UNL     1     -35.418  14.688  -3.400  1.00 20.00     0.054 C 
ENDROOT
BRANCH   1   2
HETATM    2  C1  UNL     1     -34.944  13.867  -4.602  1.00 20.00     0.130 C 
HETATM    3  O9  UNL     1     -34.949  12.635  -4.589  1.00 20.00    -0.298 OA
BRANCH   2   4
HETATM    4  C5  UNL     1     -34.492  14.657  -5.821  1.00 20.00     0.074 C 
HETATM    5  C2  UNL     1     -35.334  14.368  -7.051  1.00 20.00     0.013 C 
ENDBRANCH   2   4
ENDBRANCH   1   2
BRANCH   1   6
HETATM    6  C6  UNL     1     -36.636  15.563  -3.743  1.00 20.00     0.007 C 
HETATM    7  C3  UNL     1     -37.889  14.735  -4.004  1.00 20.00     0.006 C 
ENDBRANCH   1   6
BRANCH   1   8
HETATM    8  C7  UNL     1     -34.248  15.505  -2.823  1.00 20.00     0.007 C 
HETATM    9  C4  UNL     1     -34.579  16.307  -1.570  1.00 20.00     0.006 C 
ENDBRANCH   1   8
TORSDOF 4
ENDMDL
MODEL 9
REMARK VINA RESULT:      -3.9      0.593      3.424
REMARK  4 active torsions:
REMARK  status: ('A' for Active; 'I' for Inactive)
REMARK    1  A    between atoms: C1_1  and  C5_5 
REMARK    2  A    between atoms: C1_1  and  C8_8 
REMARK    3  A    between atoms: C6_6  and  C8_8 
REMARK    4  A    between atoms: C7_7  and  C8_8 
ROOT
HETATM    1  C8  UNL     1     -33.491   6.571   4.225  1.00 20.00     0.054 C 
ENDROOT
BRANCH   1   2
HETATM    2  C1  UNL     1     -34.433   5.533   3.609  1.00 20.00     0.130 C 
HETATM    3  O9  UNL     1     -34.314   5.162   2.440  1.00 20.00    -0.298 OA
BRANCH   2   4
HETATM    4  C5  UNL     1     -35.507   4.969   4.528  1.00 20.00     0.074 C 
HETATM    5  C2  UNL     1     -35.008   3.803   5.362  1.00 20.00     0.013 C 
ENDBRANCH   2   4
ENDBRANCH   1   2
BRANCH   1   6
HETATM    6  C6  UNL     1     -32.168   6.681   3.449  1.00 20.00     0.007 C 
HETATM    7  C3  UNL     1     -32.155   7.867   2.491  1.00 20.00     0.006 C 
ENDBRANCH   1   6
BRANCH   1   8
HETATM    8  C7  UNL     1     -33.277   6.270   5.719  1.00 20.00     0.007 C 
HETATM    9  C4  UNL     1     -33.684   7.391   6.667  1.00 20.00     0.006 C 
ENDBRANCH   1   8
TORSDOF 4
ENDMDL
