MODEL 1
REMARK VINA RESULT:      -4.6      0.000      0.000
REMARK  0 active torsions:
REMARK  status: ('A' for Active; 'I' for Inactive)
ROOT
HETATM    1  C1  UNL     1     -34.464  16.568  -1.121  1.00 20.00     0.014 C 
HETATM    2  C2  UNL     1     -34.718  16.020  -2.159  1.00 20.00    -0.091 C 
HETATM    3  C3  UNL     1     -34.849  14.167  -6.035  1.00 20.00     0.000 C 
HETATM    4  C4  UNL     1     -34.538  13.262  -4.843  1.00 20.00     0.003 C 
HETATM    5  C5  UNL     1     -34.230  15.548  -5.882  1.00 20.00     0.003 C 
HETATM    6  C6  UNL     1     -34.265  14.024  -3.541  1.00 20.00     0.039 C 
HETATM    7  C7  UNL     1     -34.710  16.279  -4.622  1.00 20.00     0.039 C 
HETATM    8  C8  UNL     1     -35.031  15.349  -3.433  1.00 20.00     0.099 C 
HETATM    9 CL9  UNL     1     -36.801  15.014  -3.374  1.00 20.00    -0.105 Cl
ENDROOT
TORSDOF 0
ENDMDL
MODEL 2
REMARK VINA RESULT:      -4.6     11.222     12.405
REMARK  0 active torsions:
REMARK  status: ('A' for Active; 'I' for Inactive)
ROOT
HETATM    1  C1  UNL     1     -32.260   8.357   2.030  1.00 20.00     0.014 C 
HETATM    2  C2  UNL     1     -32.643   7.493   2.770  1.00 20.00    -0.091 C 
HETATM    3  C3  UNL     1     -34.556   4.942   5.652  1.00 20.00     0.000 C 
HETATM    4  C4  UNL     1     -35.109   4.915   4.226  1.00 20.00     0.003 C 
HETATM    5  C5  UNL     1     -34.100   6.333   6.064  1.00 20.00     0.003 C 
HETATM    6  C6  UNL     1     -34.546   6.020   3.324  1.00 20.00     0.039 C 
HETATM    7  C7  UNL     1     -33.010   6.899   5.146  1.00 20.00     0.039 C 
HETATM    8  C8  UNL     1     -33.112   6.432   3.679  1.00 20.00     0.099 C 
HETATM    9 CL9  UNL     1     -32.003   5.038   3.398  1.00 20.00    -0.105 Cl
ENDROOT
TORSDOF 0
ENDMDL
MODEL 3
REMARK VINA RESULT:      -4.5      1.528      2.190
REMARK  0 active torsions:
REMARK  status: ('A' for Active; 'I' for Inactive)
ROOT
HETATM    1  C1  UNL     1     -34.613  16.503  -1.034  1.00 20.00     0.014 C 
HETATM    2  C2  UNL     1     -34.575  16.069  -2.153  1.00 20.00    -0.091 C 
HETATM    3  C3  UNL     1     -35.031  14.035  -5.911  1.00 20.00     0.000 C 
HETATM    4  C4  UNL     1     -35.879  15.288  -5.693  1.00 20.00     0.003 C 
HETATM    5  C5  UNL     1     -34.865  13.227  -4.633  1.00 20.00     0.003 C 
HETATM    6  C6  UNL     1     -35.849  15.813  -4.253  1.00 20.00     0.039 C 
HETATM    7  C7  UNL     1     -34.205  14.027  -3.504  1.00 20.00     0.039 C 
HETATM    8  C8  UNL     1     -34.527  15.536  -3.526  1.00 20.00     0.099 C 
HETATM    9 CL9  UNL     1     -33.196  16.438  -4.341  1.00 20.00    -0.105 Cl
ENDROOT
TORSDOF 0
ENDMDL
MODEL 4
REMARK VINA RESULT:      -4.4      1.656      2.245
REMARK  0 active torsions:
REMARK  status: ('A' for Active; 'I' for Inactive)
ROOT
HETATM    1  C1  UNL     1     -34.454  16.589  -1.110  1.00 20.00     0.014 C 
HETATM    2  C2  UNL     1     -34.311  16.109  -2.201  1.00 20.00    -0.091 C 
HETATM    3  C3  UNL     1     -34.530  14.690  -6.252  1.00 20.00     0.000 C 
HETATM    4  C4  UNL     1     -33.938  16.083  -6.036  1.00 20.00     0.003 C 
HETATM    5  C5  UNL     1     -35.670  14.396  -5.290  1.00 20.00     0.003 C 
HETATM    6  C6  UNL     1     -34.118  16.618  -4.611  1.00 20.00     0.039 C 
HETATM    7  C7  UNL     1     -35.245  14.483  -3.819  1.00 20.00     0.039 C 
HETATM    8  C8  UNL     1     -34.136  15.519  -3.540  1.00 20.00     0.099 C 
HETATM    9 CL9  UNL     1     -32.529  14.703  -3.495  1.00 20.00    -0.105 Cl
ENDROOT
TORSDOF 0
ENDMDL
MODEL 5
REMARK VINA RESULT:      -4.4     12.328     13.762
REMARK  0 active torsions:
REMARK  status: ('A' for Active; 'I' for Inactive)
ROOT
HETATM    1  C1  UNL     1     -41.573   2.073  -3.584  1.00 20.00     0.014 C 
HETATM    2  C2  UNL     1     -41.794   2.985  -2.834  1.00 20.00    -0.091 C 
HETATM    3  C3  UNL     1     -42.359   5.730   0.424  1.00 20.00     0.000 C 
HETATM    4  C4  UNL     1     -40.976   5.701  -0.227  1.00 20.00     0.003 C 
HETATM    5  C5  UNL     1     -42.992   4.349   0.486  1.00 20.00     0.003 C 
HETATM    6  C6  UNL     1     -40.776   4.538  -1.205  1.00 20.00     0.039 C 
HETATM    7  C7  UNL     1     -43.157   3.707  -0.897  1.00 20.00     0.039 C 
HETATM    8  C8  UNL     1     -42.066   4.103  -1.913  1.00 20.00     0.099 C 
HETATM    9 CL9  UNL     1     -42.656   5.448  -2.958  1.00 20.00    -0.105 Cl
ENDROOT
TORSDOF 0
ENDMDL
MODEL 6
REMARK VINA RESULT:      -4.2     11.832     13.221
REMARK  0 active torsions:
REMARK  status: ('A' for Active; 'I' for Inactive)
ROOT
HETATM    1  C1  UNL     1     -41.505   2.198  -3.438  1.00 20.00     0.014 C 
HETATM    2  C2  UNL     1     -41.783   3.142  -2.750  1.00 20.00    -0.091 C 
HETATM    3  C3  UNL     1     -42.200   6.898  -0.704  1.00 20.00     0.000 C 
HETATM    4  C4  UNL     1     -43.050   6.694  -1.958  1.00 20.00     0.003 C 
HETATM    5  C5  UNL     1     -40.826   6.260  -0.832  1.00 20.00     0.003 C 
HETATM    6  C6  UNL     1     -42.670   5.447  -2.766  1.00 20.00     0.039 C 
HETATM    7  C7  UNL     1     -40.892   4.750  -1.091  1.00 20.00     0.039 C 
HETATM    8  C8  UNL     1     -42.123   4.301  -1.906  1.00 20.00     0.099 C 
HETATM    9 CL9  UNL     1     -43.417   3.718  -0.795  1.00 20.00    -0.105 Cl
ENDROOT
TORSDOF 0
ENDMDL
MODEL 7
REMARK VINA RESULT:      -4.1      1.644      3.675
REMARK  0 active torsions:
REMARK  status: ('A' for Active; 'I' for Inactive)
ROOT
HETATM    1  C1  UNL     1     -35.082  14.313  -6.867  1.00 20.00     0.014 C 
HETATM    2  C2  UNL     1     -34.717  14.690  -5.787  1.00 20.00    -0.091 C 
HETATM    3  C3  UNL     1     -33.843  16.695  -2.087  1.00 20.00     0.000 C 
HETATM    4  C4  UNL     1     -35.079  15.796  -2.114  1.00 20.00     0.003 C 
HETATM    5  C5  UNL     1     -33.635  17.424  -3.405  1.00 20.00     0.003 C 
HETATM    6  C6  UNL     1     -35.465  15.316  -3.518  1.00 20.00     0.039 C 
HETATM    7  C7  UNL     1     -33.475  16.470  -4.595  1.00 20.00     0.039 C 
HETATM    8  C8  UNL     1     -34.267  15.153  -4.462  1.00 20.00     0.099 C 
HETATM    9 CL9  UNL     1     -33.191  13.847  -3.841  1.00 20.00    -0.105 Cl
ENDROOT
TORSDOF 0
ENDMDL
MODEL 8
REMARK VINA RESULT:      -4.1      1.771      2.186
REMARK  0 active torsions:
REMARK  status: ('A' for Active; 'I' for Inactive)
ROOT
HETATM    1  C1  UNL     1     -33.687  18.147  -2.015  1.00 20.00     0.014 C 
HETATM    2  C2  UNL     1     -33.918  17.213  -2.733  1.00 20.00    -0.091 C 
HETATM    3  C3  UNL     1     -34.646  13.431  -4.640  1.00 20.00     0.000 C 
HETATM    4  C4  UNL     1     -35.856  14.155  -4.052  1.00 20.00     0.003 C 
HETATM    5  C5  UNL     1     -33.398  13.617  -3.791  1.00 20.00     0.003 C 
HETATM    6  C6  UNL     1     -35.492  15.363  -3.180  1.00 20.00     0.039 C 
HETATM    7  C7  UNL     1     -33.005  15.091  -3.625  1.00 20.00     0.039 C 
HETATM    8  C8  UNL     1     -34.200  16.067  -3.616  1.00 20.00     0.099 C 
HETATM    9 CL9  UNL     1     -34.431  16.774  -5.257  1.00 20.00    -0.105 Cl
ENDROOT
TORSDOF 0
ENDMDL
MODEL 9
REMARK VINA RESULT:      -4.1      1.981      2.932
REMARK  0 active torsions:
REMARK  status: ('A' for Active; 'I' for Inactive)
ROOT
HETATM    1  C1  UNL     1     -38.624  14.667  -4.024  1.00 20.00     0.014 C 
HETATM    2  C2  UNL     1     -37.434  14.805  -4.099  1.00 20.00    -0.091 C 
HETATM    3  C3  UNL     1     -33.172  15.056  -3.601  1.00 20.00     0.000 C 
HETATM    4  C4  UNL     1     -33.737  13.720  -4.083  1.00 20.00     0.003 C 
HETATM    5  C5  UNL     1     -34.089  15.736  -2.595  1.00 20.00     0.003 C 
HETATM    6  C6  UNL     1     -35.265  13.627  -4.001  1.00 20.00     0.039 C 
HETATM    7  C7  UNL     1     -35.488  16.013  -3.158  1.00 20.00     0.039 C 
HETATM    8  C8  UNL     1     -35.973  14.975  -4.191  1.00 20.00     0.099 C 
HETATM    9 CL9  UNL     1     -35.667  15.580  -5.861  1.00 20.00    -0.105 Cl
ENDROOT
TORSDOF 0
ENDMDL
