MODEL 1
REMARK VINA RESULT:      -4.7      0.000      0.000
REMARK  2 active torsions:
REMARK  status: ('A' for Active; 'I' for Inactive)
REMARK    1  A    between atoms: C1_1  and  C2_2 
REMARK    2  A    between atoms: C1_1  and  C3_3 
ROOT
HETATM    1  C1  UNL     1     -34.193   5.901   5.418  1.00 20.00     0.245 C 
HETATM    2  O4  UNL     1     -33.894   6.632   6.361  1.00 20.00    -0.287 OA
ENDROOT
BRANCH   1   3
HETATM    3  C2  UNL     1     -34.067   6.311   3.970  1.00 20.00     0.202 C 
HETATM    4 CL8  UNL     1     -32.389   6.178   3.425  1.00 20.00    -0.122 Cl
ENDBRANCH   1   3
BRANCH   1   5
HETATM    5  C3  UNL     1     -34.716   4.513   5.662  1.00 20.00     0.452 C 
HETATM    6  F5  UNL     1     -35.278   3.984   4.547  1.00 20.00    -0.163 F 
HETATM    7  F6  UNL     1     -35.667   4.498   6.630  1.00 20.00    -0.163 F 
HETATM    8  F7  UNL     1     -33.740   3.658   6.056  1.00 20.00    -0.163 F 
ENDBRANCH   1   5
TORSDOF 2
ENDMDL
MODEL 2
REMARK VINA RESULT:      -4.7      0.019      1.331
REMARK  2 active torsions:
REMARK  status: ('A' for Active; 'I' for Inactive)
REMARK    1  A    between atoms: C1_1  and  C2_2 
REMARK    2  A    between atoms: C1_1  and  C3_3 
ROOT
HETATM    1  C1  UNL     1     -34.198   5.890   5.418  1.00 20.00     0.245 C 
HETATM    2  O4  UNL     1     -33.901   6.622   6.361  1.00 20.00    -0.287 OA
ENDROOT
BRANCH   1   3
HETATM    3  C2  UNL     1     -34.078   6.301   3.970  1.00 20.00     0.202 C 
HETATM    4 CL8  UNL     1     -32.399   6.187   3.423  1.00 20.00    -0.122 Cl
ENDBRANCH   1   3
BRANCH   1   5
HETATM    5  C3  UNL     1     -34.714   4.499   5.663  1.00 20.00     0.452 C 
HETATM    6  F5  UNL     1     -35.669   4.478   6.625  1.00 20.00    -0.163 F 
HETATM    7  F6  UNL     1     -33.726   3.661   6.067  1.00 20.00    -0.163 F 
HETATM    8  F7  UNL     1     -35.263   3.952   4.550  1.00 20.00    -0.163 F 
ENDBRANCH   1   5
TORSDOF 2
ENDMDL
MODEL 3
REMARK VINA RESULT:      -4.7      0.042      1.331
REMARK  2 active torsions:
REMARK  status: ('A' for Active; 'I' for Inactive)
REMARK    1  A    between atoms: C1_1  and  C2_2 
REMARK    2  A    between atoms: C1_1  and  C3_3 
ROOT
HETATM    1  C1  UNL     1     -34.178   5.931   5.413  1.00 20.00     0.245 C 
HETATM    2  O4  UNL     1     -33.862   6.653   6.357  1.00 20.00    -0.287 OA
ENDROOT
BRANCH   1   3
HETATM    3  C2  UNL     1     -34.045   6.340   3.965  1.00 20.00     0.202 C 
HETATM    4 CL8  UNL     1     -32.372   6.171   3.416  1.00 20.00    -0.122 Cl
ENDBRANCH   1   3
BRANCH   1   5
HETATM    5  C3  UNL     1     -34.729   4.553   5.655  1.00 20.00     0.452 C 
HETATM    6  F5  UNL     1     -33.762   3.683   6.037  1.00 20.00    -0.163 F 
HETATM    7  F6  UNL     1     -35.306   4.040   4.539  1.00 20.00    -0.163 F 
HETATM    8  F7  UNL     1     -35.675   4.543   6.627  1.00 20.00    -0.163 F 
ENDBRANCH   1   5
TORSDOF 2
ENDMDL
MODEL 4
REMARK VINA RESULT:      -4.5      1.829      2.231
REMARK  2 active torsions:
REMARK  status: ('A' for Active; 'I' for Inactive)
REMARK    1  A    between atoms: C1_1  and  C2_2 
REMARK    2  A    between atoms: C1_1  and  C3_3 
ROOT
HETATM    1  C1  UNL     1     -34.853   4.744   4.862  1.00 20.00     0.245 C 
HETATM    2  O4  UNL     1     -35.166   3.572   4.657  1.00 20.00    -0.287 OA
ENDROOT
BRANCH   1   3
HETATM    3  C2  UNL     1     -34.674   5.766   3.764  1.00 20.00     0.202 C 
HETATM    4 CL8  UNL     1     -32.957   6.039   3.435  1.00 20.00    -0.122 Cl
ENDBRANCH   1   3
BRANCH   1   5
HETATM    5  C3  UNL     1     -34.625   5.241   6.262  1.00 20.00     0.452 C 
HETATM    6  F5  UNL     1     -34.239   6.541   6.278  1.00 20.00    -0.163 F 
HETATM    7  F6  UNL     1     -33.657   4.532   6.895  1.00 20.00    -0.163 F 
HETATM    8  F7  UNL     1     -35.742   5.152   7.027  1.00 20.00    -0.163 F 
ENDBRANCH   1   5
TORSDOF 2
ENDMDL
MODEL 5
REMARK VINA RESULT:      -4.5      2.091      2.535
REMARK  2 active torsions:
REMARK  status: ('A' for Active; 'I' for Inactive)
REMARK    1  A    between atoms: C1_1  and  C2_2 
REMARK    2  A    between atoms: C1_1  and  C3_3 
ROOT
HETATM    1  C1  UNL     1     -33.977   5.986   4.649  1.00 20.00     0.245 C 
HETATM    2  O4  UNL     1     -33.045   6.608   4.142  1.00 20.00    -0.287 OA
ENDROOT
BRANCH   1   3
HETATM    3  C2  UNL     1     -34.283   5.994   6.128  1.00 20.00     0.202 C 
HETATM    4 CL8  UNL     1     -33.464   7.342   6.930  1.00 20.00    -0.122 Cl
ENDBRANCH   1   3
BRANCH   1   5
HETATM    5  C3  UNL     1     -34.897   5.157   3.796  1.00 20.00     0.452 C 
HETATM    6  F5  UNL     1     -34.372   4.926   2.567  1.00 20.00    -0.163 F 
HETATM    7  F6  UNL     1     -36.094   5.768   3.607  1.00 20.00    -0.163 F 
HETATM    8  F7  UNL     1     -35.156   3.945   4.348  1.00 20.00    -0.163 F 
ENDBRANCH   1   5
TORSDOF 2
ENDMDL
MODEL 6
REMARK VINA RESULT:      -4.4      1.661      1.914
REMARK  2 active torsions:
REMARK  status: ('A' for Active; 'I' for Inactive)
REMARK    1  A    between atoms: C1_1  and  C2_2 
REMARK    2  A    between atoms: C1_1  and  C3_3 
ROOT
HETATM    1  C1  UNL     1     -34.579   5.361   4.714  1.00 20.00     0.245 C 
HETATM    2  O4  UNL     1     -35.198   4.465   4.143  1.00 20.00    -0.287 OA
ENDROOT
BRANCH   1   3
HETATM    3  C2  UNL     1     -33.935   6.523   3.996  1.00 20.00     0.202 C 
HETATM    4 CL8  UNL     1     -32.381   6.045   3.297  1.00 20.00    -0.122 Cl
ENDBRANCH   1   3
BRANCH   1   5
HETATM    5  C3  UNL     1     -34.425   5.349   6.210  1.00 20.00     0.452 C 
HETATM    6  F5  UNL     1     -33.694   4.289   6.633  1.00 20.00    -0.163 F 
HETATM    7  F6  UNL     1     -35.626   5.279   6.838  1.00 20.00    -0.163 F 
HETATM    8  F7  UNL     1     -33.806   6.465   6.670  1.00 20.00    -0.163 F 
ENDBRANCH   1   5
TORSDOF 2
ENDMDL
MODEL 7
REMARK VINA RESULT:      -4.4      2.964      3.388
REMARK  2 active torsions:
REMARK  status: ('A' for Active; 'I' for Inactive)
REMARK    1  A    between atoms: C1_1  and  C2_2 
REMARK    2  A    between atoms: C1_1  and  C3_3 
ROOT
HETATM    1  C1  UNL     1     -33.900   6.029   4.584  1.00 20.00     0.245 C 
HETATM    2  O4  UNL     1     -33.574   6.667   5.584  1.00 20.00    -0.287 OA
ENDROOT
BRANCH   1   3
HETATM    3  C2  UNL     1     -35.067   5.071   4.547  1.00 20.00     0.202 C 
HETATM    4 CL8  UNL     1     -35.083   4.046   5.989  1.00 20.00    -0.122 Cl
ENDBRANCH   1   3
BRANCH   1   5
HETATM    5  C3  UNL     1     -33.131   6.174   3.301  1.00 20.00     0.452 C 
HETATM    6  F5  UNL     1     -33.065   7.466   2.896  1.00 20.00    -0.163 F 
HETATM    7  F6  UNL     1     -33.704   5.471   2.291  1.00 20.00    -0.163 F 
HETATM    8  F7  UNL     1     -31.854   5.730   3.414  1.00 20.00    -0.163 F 
ENDBRANCH   1   5
TORSDOF 2
ENDMDL
MODEL 8
REMARK VINA RESULT:      -4.3      3.386      3.838
REMARK  2 active torsions:
REMARK  status: ('A' for Active; 'I' for Inactive)
REMARK    1  A    between atoms: C1_1  and  C2_2 
REMARK    2  A    between atoms: C1_1  and  C3_3 
ROOT
HETATM    1  C1  UNL     1     -33.880   5.953   3.964  1.00 20.00     0.245 C 
HETATM    2  O4  UNL     1     -34.675   5.395   3.211  1.00 20.00    -0.287 OA
ENDROOT
BRANCH   1   3
HETATM    3  C2  UNL     1     -34.110   6.121   5.448  1.00 20.00     0.202 C 
HETATM    4 CL8  UNL     1     -34.981   4.730   6.109  1.00 20.00    -0.122 Cl
ENDBRANCH   1   3
BRANCH   1   5
HETATM    5  C3  UNL     1     -32.591   6.516   3.434  1.00 20.00     0.452 C 
HETATM    6  F5  UNL     1     -31.731   5.538   3.056  1.00 20.00    -0.163 F 
HETATM    7  F6  UNL     1     -31.950   7.268   4.365  1.00 20.00    -0.163 F 
HETATM    8  F7  UNL     1     -32.784   7.311   2.352  1.00 20.00    -0.163 F 
ENDBRANCH   1   5
TORSDOF 2
ENDMDL
MODEL 9
REMARK VINA RESULT:      -4.3      1.709      2.553
REMARK  2 active torsions:
REMARK  status: ('A' for Active; 'I' for Inactive)
REMARK    1  A    between atoms: C1_1  and  C2_2 
REMARK    2  A    between atoms: C1_1  and  C3_3 
ROOT
HETATM    1  C1  UNL     1     -33.626   6.089   4.226  1.00 20.00     0.245 C 
HETATM    2  O4  UNL     1     -33.800   6.564   5.347  1.00 20.00    -0.287 OA
ENDROOT
BRANCH   1   3
HETATM    3  C2  UNL     1     -32.344   6.245   3.441  1.00 20.00     0.202 C 
HETATM    4 CL8  UNL     1     -32.352   7.756   2.520  1.00 20.00    -0.122 Cl
ENDBRANCH   1   3
BRANCH   1   5
HETATM    5  C3  UNL     1     -34.713   5.300   3.552  1.00 20.00     0.452 C 
HETATM    6  F5  UNL     1     -34.978   4.144   4.210  1.00 20.00    -0.163 F 
HETATM    7  F6  UNL     1     -34.376   4.963   2.281  1.00 20.00    -0.163 F 
HETATM    8  F7  UNL     1     -35.879   5.989   3.480  1.00 20.00    -0.163 F 
ENDBRANCH   1   5
TORSDOF 2
ENDMDL
