MODEL 1
REMARK VINA RESULT:      -4.3      0.000      0.000
REMARK  5 active torsions:
REMARK  status: ('A' for Active; 'I' for Inactive)
REMARK    1  A    between atoms: C1_1  and  C2_2 
REMARK    2  A    between atoms: C1_1  and  C3_3 
REMARK    3  A    between atoms: C2_2  and  P11_11 
REMARK    4  A    between atoms: C8_8  and  P11_11 
REMARK    5  A    between atoms: C9_9  and  P11_11 
ROOT
HETATM    1  O10 UNL     1     -32.149  14.781  -3.500  1.00 20.00    -0.317 OA
HETATM    2  P11 UNL     1     -33.518  15.339  -3.785  1.00 20.00     0.105 P 
ENDROOT
BRANCH   2   3
HETATM    3  C2  UNL     1     -34.727  15.568  -2.558  1.00 20.00     0.096 C 
BRANCH   3   4
HETATM    4  C1  UNL     1     -34.484  16.411  -1.602  1.00 20.00    -0.141 C 
BRANCH   4   5
HETATM    5  C3  UNL     1     -34.233  17.260  -0.642  1.00 20.00     0.026 C 
HETATM    6  C4  UNL     1     -35.095  17.366   0.582  1.00 20.00     0.030 C 
HETATM    7  C5  UNL     1     -33.059  18.197  -0.688  1.00 20.00     0.030 C 
ENDBRANCH   4   5
ENDBRANCH   3   4
ENDBRANCH   2   3
BRANCH   2   8
HETATM    8  C8  UNL     1     -34.360  14.350  -5.025  1.00 20.00     0.073 C 
HETATM    9  C6  UNL     1     -35.164  13.222  -4.416  1.00 20.00     0.013 C 
ENDBRANCH   2   8
BRANCH   2  10
HETATM   10  C9  UNL     1     -33.398  16.952  -4.562  1.00 20.00     0.073 C 
HETATM   11  C7  UNL     1     -34.013  16.975  -5.945  1.00 20.00     0.013 C 
ENDBRANCH   2  10
TORSDOF 5
ENDMDL
MODEL 2
REMARK VINA RESULT:      -4.2      1.960      2.514
REMARK  5 active torsions:
REMARK  status: ('A' for Active; 'I' for Inactive)
REMARK    1  A    between atoms: C1_1  and  C2_2 
REMARK    2  A    between atoms: C1_1  and  C3_3 
REMARK    3  A    between atoms: C2_2  and  P11_11 
REMARK    4  A    between atoms: C8_8  and  P11_11 
REMARK    5  A    between atoms: C9_9  and  P11_11 
ROOT
HETATM    1  O10 UNL     1     -34.973  12.528  -4.319  1.00 20.00    -0.317 OA
HETATM    2  P11 UNL     1     -34.842  14.023  -4.448  1.00 20.00     0.105 P 
ENDROOT
BRANCH   2   3
HETATM    3  C2  UNL     1     -33.503  14.920  -3.799  1.00 20.00     0.096 C 
BRANCH   3   4
HETATM    4  C1  UNL     1     -33.752  15.878  -2.958  1.00 20.00    -0.141 C 
BRANCH   4   5
HETATM    5  C3  UNL     1     -34.006  16.844  -2.117  1.00 20.00     0.026 C 
HETATM    6  C4  UNL     1     -33.694  18.280  -2.425  1.00 20.00     0.030 C 
HETATM    7  C5  UNL     1     -34.634  16.593  -0.776  1.00 20.00     0.030 C 
ENDBRANCH   4   5
ENDBRANCH   3   4
ENDBRANCH   2   3
BRANCH   2   8
HETATM    8  C8  UNL     1     -36.277  14.847  -3.752  1.00 20.00     0.073 C 
HETATM    9  C6  UNL     1     -37.341  15.130  -4.791  1.00 20.00     0.013 C 
ENDBRANCH   2   8
BRANCH   2  10
HETATM   10  C9  UNL     1     -34.883  14.518  -6.172  1.00 20.00     0.073 C 
HETATM   11  C7  UNL     1     -34.099  15.788  -6.428  1.00 20.00     0.013 C 
ENDBRANCH   2  10
TORSDOF 5
ENDMDL
MODEL 3
REMARK VINA RESULT:      -4.0      0.892      1.450
REMARK  5 active torsions:
REMARK  status: ('A' for Active; 'I' for Inactive)
REMARK    1  A    between atoms: C1_1  and  C2_2 
REMARK    2  A    between atoms: C1_1  and  C3_3 
REMARK    3  A    between atoms: C2_2  and  P11_11 
REMARK    4  A    between atoms: C8_8  and  P11_11 
REMARK    5  A    between atoms: C9_9  and  P11_11 
ROOT
HETATM    1  O10 UNL     1     -32.533  15.897  -4.530  1.00 20.00    -0.317 OA
HETATM    2  P11 UNL     1     -33.995  15.898  -4.166  1.00 20.00     0.105 P 
ENDROOT
BRANCH   2   3
HETATM    3  C2  UNL     1     -34.578  15.540  -2.569  1.00 20.00     0.096 C 
BRANCH   3   4
HETATM    4  C1  UNL     1     -34.389  16.419  -1.632  1.00 20.00    -0.141 C 
BRANCH   4   5
HETATM    5  C3  UNL     1     -34.206  17.303  -0.689  1.00 20.00     0.026 C 
HETATM    6  C4  UNL     1     -33.118  18.336  -0.757  1.00 20.00     0.030 C 
HETATM    7  C5  UNL     1     -35.072  17.358   0.537  1.00 20.00     0.030 C 
ENDBRANCH   4   5
ENDBRANCH   3   4
ENDBRANCH   2   3
BRANCH   2   8
HETATM    8  C8  UNL     1     -34.909  14.761  -5.212  1.00 20.00     0.073 C 
HETATM    9  C6  UNL     1     -34.897  13.345  -4.675  1.00 20.00     0.013 C 
ENDBRANCH   2   8
BRANCH   2  10
HETATM   10  C9  UNL     1     -34.742  17.486  -4.540  1.00 20.00     0.073 C 
HETATM   11  C7  UNL     1     -33.714  18.589  -4.683  1.00 20.00     0.013 C 
ENDBRANCH   2  10
TORSDOF 5
ENDMDL
MODEL 4
REMARK VINA RESULT:      -4.0      1.338      1.434
REMARK  5 active torsions:
REMARK  status: ('A' for Active; 'I' for Inactive)
REMARK    1  A    between atoms: C1_1  and  C2_2 
REMARK    2  A    between atoms: C1_1  and  C3_3 
REMARK    3  A    between atoms: C2_2  and  P11_11 
REMARK    4  A    between atoms: C8_8  and  P11_11 
REMARK    5  A    between atoms: C9_9  and  P11_11 
ROOT
HETATM    1  O10 UNL     1     -32.899  16.609  -4.676  1.00 20.00    -0.317 OA
HETATM    2  P11 UNL     1     -34.218  15.986  -4.297  1.00 20.00     0.105 P 
ENDROOT
BRANCH   2   3
HETATM    3  C2  UNL     1     -34.621  15.529  -2.670  1.00 20.00     0.096 C 
BRANCH   3   4
HETATM    4  C1  UNL     1     -34.423  16.390  -1.719  1.00 20.00    -0.141 C 
BRANCH   4   5
HETATM    5  C3  UNL     1     -34.216  17.255  -0.763  1.00 20.00     0.026 C 
HETATM    6  C4  UNL     1     -35.076  17.314   0.466  1.00 20.00     0.030 C 
HETATM    7  C5  UNL     1     -33.101  18.259  -0.819  1.00 20.00     0.030 C 
ENDBRANCH   4   5
ENDBRANCH   3   4
ENDBRANCH   2   3
BRANCH   2   8
HETATM    8  C8  UNL     1     -34.505  14.486  -5.239  1.00 20.00     0.073 C 
HETATM    9  C6  UNL     1     -34.904  13.320  -4.361  1.00 20.00     0.013 C 
ENDBRANCH   2   8
BRANCH   2  10
HETATM   10  C9  UNL     1     -35.583  17.044  -4.786  1.00 20.00     0.073 C 
HETATM   11  C7  UNL     1     -36.930  16.448  -4.435  1.00 20.00     0.013 C 
ENDBRANCH   2  10
TORSDOF 5
ENDMDL
MODEL 5
REMARK VINA RESULT:      -3.9      1.904      2.508
REMARK  5 active torsions:
REMARK  status: ('A' for Active; 'I' for Inactive)
REMARK    1  A    between atoms: C1_1  and  C2_2 
REMARK    2  A    between atoms: C1_1  and  C3_3 
REMARK    3  A    between atoms: C2_2  and  P11_11 
REMARK    4  A    between atoms: C8_8  and  P11_11 
REMARK    5  A    between atoms: C9_9  and  P11_11 
ROOT
HETATM    1  O10 UNL     1     -35.158  12.621  -4.440  1.00 20.00    -0.317 OA
HETATM    2  P11 UNL     1     -35.070  14.125  -4.416  1.00 20.00     0.105 P 
ENDROOT
BRANCH   2   3
HETATM    3  C2  UNL     1     -35.968  15.113  -3.303  1.00 20.00     0.096 C 
BRANCH   3   4
HETATM    4  C1  UNL     1     -35.321  15.987  -2.594  1.00 20.00    -0.141 C 
BRANCH   4   5
HETATM    5  C3  UNL     1     -34.676  16.866  -1.875  1.00 20.00     0.026 C 
HETATM    6  C4  UNL     1     -34.724  16.867  -0.375  1.00 20.00     0.030 C 
HETATM    7  C5  UNL     1     -33.832  17.943  -2.495  1.00 20.00     0.030 C 
ENDBRANCH   4   5
ENDBRANCH   3   4
ENDBRANCH   2   3
BRANCH   2   8
HETATM    8  C8  UNL     1     -35.492  14.810  -6.021  1.00 20.00     0.073 C 
HETATM    9  C6  UNL     1     -34.420  15.738  -6.552  1.00 20.00     0.013 C 
ENDBRANCH   2   8
BRANCH   2  10
HETATM   10  C9  UNL     1     -33.374  14.659  -4.176  1.00 20.00     0.073 C 
HETATM   11  C7  UNL     1     -32.578  13.690  -3.327  1.00 20.00     0.013 C 
ENDBRANCH   2  10
TORSDOF 5
ENDMDL
MODEL 6
REMARK VINA RESULT:      -3.9      1.739      2.714
REMARK  5 active torsions:
REMARK  status: ('A' for Active; 'I' for Inactive)
REMARK    1  A    between atoms: C1_1  and  C2_2 
REMARK    2  A    between atoms: C1_1  and  C3_3 
REMARK    3  A    between atoms: C2_2  and  P11_11 
REMARK    4  A    between atoms: C8_8  and  P11_11 
REMARK    5  A    between atoms: C9_9  and  P11_11 
ROOT
HETATM    1  O10 UNL     1     -36.691  16.723  -3.499  1.00 20.00    -0.317 OA
HETATM    2  P11 UNL     1     -35.475  15.885  -3.799  1.00 20.00     0.105 P 
ENDROOT
BRANCH   2   3
HETATM    3  C2  UNL     1     -34.078  15.831  -2.768  1.00 20.00     0.096 C 
BRANCH   3   4
HETATM    4  C1  UNL     1     -34.050  16.604  -1.725  1.00 20.00    -0.141 C 
BRANCH   4   5
HETATM    5  C3  UNL     1     -34.028  17.385  -0.679  1.00 20.00     0.026 C 
HETATM    6  C4  UNL     1     -35.073  17.316   0.397  1.00 20.00     0.030 C 
HETATM    7  C5  UNL     1     -32.952  18.412  -0.469  1.00 20.00     0.030 C 
ENDBRANCH   4   5
ENDBRANCH   3   4
ENDBRANCH   2   3
BRANCH   2   8
HETATM    8  C8  UNL     1     -34.795  16.309  -5.406  1.00 20.00     0.073 C 
HETATM    9  C6  UNL     1     -33.361  16.786  -5.318  1.00 20.00     0.013 C 
ENDBRANCH   2   8
BRANCH   2  10
HETATM   10  C9  UNL     1     -35.925  14.159  -3.989  1.00 20.00     0.073 C 
HETATM   11  C7  UNL     1     -34.776  13.314  -4.496  1.00 20.00     0.013 C 
ENDBRANCH   2  10
TORSDOF 5
ENDMDL
MODEL 7
REMARK VINA RESULT:      -3.8      1.829      2.184
REMARK  5 active torsions:
REMARK  status: ('A' for Active; 'I' for Inactive)
REMARK    1  A    between atoms: C1_1  and  C2_2 
REMARK    2  A    between atoms: C1_1  and  C3_3 
REMARK    3  A    between atoms: C2_2  and  P11_11 
REMARK    4  A    between atoms: C8_8  and  P11_11 
REMARK    5  A    between atoms: C9_9  and  P11_11 
ROOT
HETATM    1  O10 UNL     1     -34.837  12.805  -4.133  1.00 20.00    -0.317 OA
HETATM    2  P11 UNL     1     -35.043  14.291  -4.274  1.00 20.00     0.105 P 
ENDROOT
BRANCH   2   3
HETATM    3  C2  UNL     1     -35.952  15.238  -3.137  1.00 20.00     0.096 C 
BRANCH   3   4
HETATM    4  C1  UNL     1     -35.314  16.091  -2.394  1.00 20.00    -0.141 C 
BRANCH   4   5
HETATM    5  C3  UNL     1     -34.678  16.949  -1.643  1.00 20.00     0.026 C 
HETATM    6  C4  UNL     1     -33.774  18.002  -2.215  1.00 20.00     0.030 C 
HETATM    7  C5  UNL     1     -34.804  16.951  -0.146  1.00 20.00     0.030 C 
ENDBRANCH   4   5
ENDBRANCH   3   4
ENDBRANCH   2   3
BRANCH   2   8
HETATM    8  C8  UNL     1     -35.809  14.677  -5.851  1.00 20.00     0.073 C 
HETATM    9  C6  UNL     1     -37.099  15.452  -5.691  1.00 20.00     0.013 C 
ENDBRANCH   2   8
BRANCH   2  10
HETATM   10  C9  UNL     1     -33.466  15.144  -4.366  1.00 20.00     0.073 C 
HETATM   11  C7  UNL     1     -33.429  16.170  -5.478  1.00 20.00     0.013 C 
ENDBRANCH   2  10
TORSDOF 5
ENDMDL
MODEL 8
REMARK VINA RESULT:      -3.8      2.471      4.644
REMARK  5 active torsions:
REMARK  status: ('A' for Active; 'I' for Inactive)
REMARK    1  A    between atoms: C1_1  and  C2_2 
REMARK    2  A    between atoms: C1_1  and  C3_3 
REMARK    3  A    between atoms: C2_2  and  P11_11 
REMARK    4  A    between atoms: C8_8  and  P11_11 
REMARK    5  A    between atoms: C9_9  and  P11_11 
ROOT
HETATM    1  O10 UNL     1     -35.142  12.576  -4.170  1.00 20.00    -0.317 OA
HETATM    2  P11 UNL     1     -34.855  14.001  -4.564  1.00 20.00     0.105 P 
ENDROOT
BRANCH   2   3
HETATM    3  C2  UNL     1     -34.677  14.515  -6.214  1.00 20.00     0.096 C 
BRANCH   3   4
HETATM    4  C1  UNL     1     -34.528  15.782  -6.454  1.00 20.00    -0.141 C 
BRANCH   4   5
HETATM    5  C3  UNL     1     -34.377  17.055  -6.701  1.00 20.00     0.026 C 
HETATM    6  C4  UNL     1     -33.599  17.963  -5.793  1.00 20.00     0.030 C 
HETATM    7  C5  UNL     1     -34.968  17.711  -7.917  1.00 20.00     0.030 C 
ENDBRANCH   4   5
ENDBRANCH   3   4
ENDBRANCH   2   3
BRANCH   2   8
HETATM    8  C8  UNL     1     -33.350  14.585  -3.778  1.00 20.00     0.073 C 
HETATM    9  C6  UNL     1     -33.601  15.752  -2.846  1.00 20.00     0.013 C 
ENDBRANCH   2   8
BRANCH   2  10
HETATM   10  C9  UNL     1     -36.111  15.105  -3.913  1.00 20.00     0.073 C 
HETATM   11  C7  UNL     1     -37.490  14.796  -4.457  1.00 20.00     0.013 C 
ENDBRANCH   2  10
TORSDOF 5
ENDMDL
MODEL 9
REMARK VINA RESULT:      -3.8      1.640      2.939
REMARK  5 active torsions:
REMARK  status: ('A' for Active; 'I' for Inactive)
REMARK    1  A    between atoms: C1_1  and  C2_2 
REMARK    2  A    between atoms: C1_1  and  C3_3 
REMARK    3  A    between atoms: C2_2  and  P11_11 
REMARK    4  A    between atoms: C8_8  and  P11_11 
REMARK    5  A    between atoms: C9_9  and  P11_11 
ROOT
HETATM    1  O10 UNL     1     -36.172  17.112  -4.196  1.00 20.00    -0.317 OA
HETATM    2  P11 UNL     1     -35.198  15.976  -4.023  1.00 20.00     0.105 P 
ENDROOT
BRANCH   2   3
HETATM    3  C2  UNL     1     -34.563  15.494  -2.479  1.00 20.00     0.096 C 
BRANCH   3   4
HETATM    4  C1  UNL     1     -34.404  16.404  -1.566  1.00 20.00    -0.141 C 
BRANCH   4   5
HETATM    5  C3  UNL     1     -34.247  17.315  -0.644  1.00 20.00     0.026 C 
HETATM    6  C4  UNL     1     -33.191  18.378  -0.736  1.00 20.00     0.030 C 
HETATM    7  C5  UNL     1     -35.113  17.370   0.582  1.00 20.00     0.030 C 
ENDBRANCH   4   5
ENDBRANCH   3   4
ENDBRANCH   2   3
BRANCH   2   8
HETATM    8  C8  UNL     1     -33.728  16.243  -5.018  1.00 20.00     0.073 C 
HETATM    9  C6  UNL     1     -33.477  17.710  -5.294  1.00 20.00     0.013 C 
ENDBRANCH   2   8
BRANCH   2  10
HETATM   10  C9  UNL     1     -35.873  14.453  -4.692  1.00 20.00     0.073 C 
HETATM   11  C7  UNL     1     -34.934  13.279  -4.516  1.00 20.00     0.013 C 
ENDBRANCH   2  10
TORSDOF 5
ENDMDL
