MODEL 1
REMARK VINA RESULT:      -5.6      0.000      0.000
REMARK  3 active torsions:
REMARK  status: ('A' for Active; 'I' for Inactive)
REMARK    1  A    between atoms: C2_2  and  C3_3 
REMARK    2  A    between atoms: C2_2  and  C4_4 
REMARK    3  A    between atoms: C3_3  and  O5_5 
ROOT
HETATM    1  C2  UNL     1     -34.608   5.029   4.674  1.00 20.00     0.379 C 
HETATM    2  F6  UNL     1     -35.862   5.220   4.176  1.00 20.00    -0.231 F 
ENDROOT
BRANCH   1   3
HETATM    3  C3  UNL     1     -33.788   6.265   4.355  1.00 20.00     0.393 C 
HETATM    4  F7  UNL     1     -33.243   6.749   5.500  1.00 20.00    -0.172 F 
HETATM    5  F8  UNL     1     -34.581   7.234   3.837  1.00 20.00    -0.172 F 
BRANCH   3   6
HETATM    6  O5  UNL     1     -32.742   5.970   3.438  1.00 20.00    -0.329 OA
HETATM    7  C1  UNL     1     -32.156   7.138   2.882  1.00 20.00     0.208 C 
ENDBRANCH   3   6
ENDBRANCH   1   3
BRANCH   1   8
HETATM    8  C4  UNL     1     -34.736   4.741   6.152  1.00 20.00     0.426 C 
HETATM    9  F9  UNL     1     -33.578   4.241   6.638  1.00 20.00    -0.168 F 
HETATM   10  F10 UNL     1     -35.703   3.831   6.398  1.00 20.00    -0.168 F 
HETATM   11  F11 UNL     1     -35.027   5.858   6.850  1.00 20.00    -0.168 F 
ENDBRANCH   1   8
TORSDOF 3
ENDMDL
MODEL 2
REMARK VINA RESULT:      -5.5      1.222      1.613
REMARK  3 active torsions:
REMARK  status: ('A' for Active; 'I' for Inactive)
REMARK    1  A    between atoms: C2_2  and  C3_3 
REMARK    2  A    between atoms: C2_2  and  C4_4 
REMARK    3  A    between atoms: C3_3  and  O5_5 
ROOT
HETATM    1  C2  UNL     1     -34.301   4.565   4.771  1.00 20.00     0.379 C 
HETATM    2  F6  UNL     1     -35.131   3.498   4.594  1.00 20.00    -0.231 F 
ENDROOT
BRANCH   1   3
HETATM    3  C3  UNL     1     -34.585   5.563   3.664  1.00 20.00     0.393 C 
HETATM    4  F7  UNL     1     -35.893   5.922   3.708  1.00 20.00    -0.172 F 
HETATM    5  F8  UNL     1     -34.355   4.998   2.453  1.00 20.00    -0.172 F 
BRANCH   3   6
HETATM    6  O5  UNL     1     -33.783   6.729   3.801  1.00 20.00    -0.329 OA
HETATM    7  C1  UNL     1     -32.460   6.542   3.319  1.00 20.00     0.208 C 
ENDBRANCH   3   6
ENDBRANCH   1   3
BRANCH   1   8
HETATM    8  C4  UNL     1     -34.537   5.109   6.162  1.00 20.00     0.426 C 
HETATM    9  F9  UNL     1     -33.672   4.550   7.039  1.00 20.00    -0.168 F 
HETATM   10  F10 UNL     1     -35.785   4.835   6.597  1.00 20.00    -0.168 F 
HETATM   11  F11 UNL     1     -34.364   6.445   6.207  1.00 20.00    -0.168 F 
ENDBRANCH   1   8
TORSDOF 3
ENDMDL
MODEL 3
REMARK VINA RESULT:      -5.5      1.221      1.988
REMARK  3 active torsions:
REMARK  status: ('A' for Active; 'I' for Inactive)
REMARK    1  A    between atoms: C2_2  and  C3_3 
REMARK    2  A    between atoms: C2_2  and  C4_4 
REMARK    3  A    between atoms: C3_3  and  O5_5 
ROOT
HETATM    1  C2  UNL     1     -34.299   4.561   4.767  1.00 20.00     0.379 C 
HETATM    2  F6  UNL     1     -35.135   3.498   4.593  1.00 20.00    -0.231 F 
ENDROOT
BRANCH   1   3
HETATM    3  C3  UNL     1     -34.583   5.562   3.664  1.00 20.00     0.393 C 
HETATM    4  F7  UNL     1     -35.890   5.922   3.711  1.00 20.00    -0.172 F 
HETATM    5  F8  UNL     1     -34.356   5.001   2.451  1.00 20.00    -0.172 F 
BRANCH   3   6
HETATM    6  O5  UNL     1     -33.780   6.727   3.803  1.00 20.00    -0.329 OA
HETATM    7  C1  UNL     1     -32.458   6.540   3.319  1.00 20.00     0.208 C 
ENDBRANCH   3   6
ENDBRANCH   1   3
BRANCH   1   8
HETATM    8  C4  UNL     1     -34.523   5.102   6.161  1.00 20.00     0.426 C 
HETATM    9  F9  UNL     1     -35.781   4.830   6.576  1.00 20.00    -0.168 F 
HETATM   10  F10 UNL     1     -34.366   6.442   6.203  1.00 20.00    -0.168 F 
HETATM   11  F11 UNL     1     -33.668   4.554   7.048  1.00 20.00    -0.168 F 
ENDBRANCH   1   8
TORSDOF 3
ENDMDL
MODEL 4
REMARK VINA RESULT:      -5.5      0.932      1.915
REMARK  3 active torsions:
REMARK  status: ('A' for Active; 'I' for Inactive)
REMARK    1  A    between atoms: C2_2  and  C3_3 
REMARK    2  A    between atoms: C2_2  and  C4_4 
REMARK    3  A    between atoms: C3_3  and  O5_5 
ROOT
HETATM    1  C2  UNL     1     -34.771   5.747   5.401  1.00 20.00     0.379 C 
HETATM    2  F6  UNL     1     -33.922   6.353   6.279  1.00 20.00    -0.231 F 
ENDROOT
BRANCH   1   3
HETATM    3  C3  UNL     1     -34.278   6.043   3.997  1.00 20.00     0.393 C 
HETATM    4  F7  UNL     1     -34.435   7.366   3.737  1.00 20.00    -0.172 F 
HETATM    5  F8  UNL     1     -35.012   5.356   3.088  1.00 20.00    -0.172 F 
BRANCH   3   6
HETATM    6  O5  UNL     1     -32.905   5.705   3.849  1.00 20.00    -0.329 OA
HETATM    7  C1  UNL     1     -32.139   6.764   3.294  1.00 20.00     0.208 C 
ENDBRANCH   3   6
ENDBRANCH   1   3
BRANCH   1   8
HETATM    8  C4  UNL     1     -34.812   4.274   5.740  1.00 20.00     0.426 C 
HETATM    9  F9  UNL     1     -35.722   4.038   6.710  1.00 20.00    -0.168 F 
HETATM   10  F10 UNL     1     -33.617   3.836   6.191  1.00 20.00    -0.168 F 
HETATM   11  F11 UNL     1     -35.150   3.530   4.667  1.00 20.00    -0.168 F 
ENDBRANCH   1   8
TORSDOF 3
ENDMDL
MODEL 5
REMARK VINA RESULT:      -5.3      1.302      2.211
REMARK  3 active torsions:
REMARK  status: ('A' for Active; 'I' for Inactive)
REMARK    1  A    between atoms: C2_2  and  C3_3 
REMARK    2  A    between atoms: C2_2  and  C4_4 
REMARK    3  A    between atoms: C3_3  and  O5_5 
ROOT
HETATM    1  C2  UNL     1     -34.049   6.384   4.779  1.00 20.00     0.379 C 
HETATM    2  F6  UNL     1     -33.109   6.768   5.688  1.00 20.00    -0.231 F 
ENDROOT
BRANCH   1   3
HETATM    3  C3  UNL     1     -33.346   6.139   3.457  1.00 20.00     0.393 C 
HETATM    4  F7  UNL     1     -34.061   5.245   2.729  1.00 20.00    -0.172 F 
HETATM    5  F8  UNL     1     -32.119   5.606   3.671  1.00 20.00    -0.172 F 
BRANCH   3   6
HETATM    6  O5  UNL     1     -33.216   7.341   2.711  1.00 20.00    -0.329 OA
HETATM    7  C1  UNL     1     -31.871   7.790   2.626  1.00 20.00     0.208 C 
ENDBRANCH   3   6
ENDBRANCH   1   3
BRANCH   1   8
HETATM    8  C4  UNL     1     -34.758   5.168   5.333  1.00 20.00     0.426 C 
HETATM    9  F9  UNL     1     -35.177   5.401   6.597  1.00 20.00    -0.168 F 
HETATM   10  F10 UNL     1     -33.942   4.093   5.370  1.00 20.00    -0.168 F 
HETATM   11  F11 UNL     1     -35.838   4.846   4.592  1.00 20.00    -0.168 F 
ENDBRANCH   1   8
TORSDOF 3
ENDMDL
MODEL 6
REMARK VINA RESULT:      -5.3      2.005      3.764
REMARK  3 active torsions:
REMARK  status: ('A' for Active; 'I' for Inactive)
REMARK    1  A    between atoms: C2_2  and  C3_3 
REMARK    2  A    between atoms: C2_2  and  C4_4 
REMARK    3  A    between atoms: C3_3  and  O5_5 
ROOT
HETATM    1  C2  UNL     1     -33.596   5.959   4.456  1.00 20.00     0.379 C 
HETATM    2  F6  UNL     1     -34.110   6.936   5.256  1.00 20.00    -0.231 F 
ENDROOT
BRANCH   1   3
HETATM    3  C3  UNL     1     -34.752   5.289   3.738  1.00 20.00     0.393 C 
HETATM    4  F7  UNL     1     -34.364   4.949   2.483  1.00 20.00    -0.172 F 
HETATM    5  F8  UNL     1     -35.795   6.148   3.626  1.00 20.00    -0.172 F 
BRANCH   3   6
HETATM    6  O5  UNL     1     -35.176   4.117   4.421  1.00 20.00    -0.329 OA
HETATM    7  C1  UNL     1     -34.832   4.133   5.799  1.00 20.00     0.208 C 
ENDBRANCH   3   6
ENDBRANCH   1   3
BRANCH   1   8
HETATM    8  C4  UNL     1     -32.588   6.602   3.530  1.00 20.00     0.426 C 
HETATM    9  F9  UNL     1     -31.703   7.341   4.236  1.00 20.00    -0.168 F 
HETATM   10  F10 UNL     1     -33.185   7.426   2.643  1.00 20.00    -0.168 F 
HETATM   11  F11 UNL     1     -31.892   5.678   2.838  1.00 20.00    -0.168 F 
ENDBRANCH   1   8
TORSDOF 3
ENDMDL
MODEL 7
REMARK VINA RESULT:      -5.2      1.750      2.851
REMARK  3 active torsions:
REMARK  status: ('A' for Active; 'I' for Inactive)
REMARK    1  A    between atoms: C2_2  and  C3_3 
REMARK    2  A    between atoms: C2_2  and  C4_4 
REMARK    3  A    between atoms: C3_3  and  O5_5 
ROOT
HETATM    1  C2  UNL     1     -33.841   6.590   4.066  1.00 20.00     0.379 C 
HETATM    2  F6  UNL     1     -33.651   6.419   5.405  1.00 20.00    -0.231 F 
ENDROOT
BRANCH   1   3
HETATM    3  C3  UNL     1     -32.476   6.715   3.415  1.00 20.00     0.393 C 
HETATM    4  F7  UNL     1     -31.895   5.491   3.353  1.00 20.00    -0.172 F 
HETATM    5  F8  UNL     1     -31.673   7.514   4.159  1.00 20.00    -0.172 F 
BRANCH   3   6
HETATM    6  O5  UNL     1     -32.578   7.243   2.098  1.00 20.00    -0.329 OA
HETATM    7  C1  UNL     1     -32.034   8.551   1.990  1.00 20.00     0.208 C 
ENDBRANCH   3   6
ENDBRANCH   1   3
BRANCH   1   8
HETATM    8  C4  UNL     1     -34.656   5.420   3.562  1.00 20.00     0.426 C 
HETATM    9  F9  UNL     1     -35.957   5.769   3.442  1.00 20.00    -0.168 F 
HETATM   10  F10 UNL     1     -34.596   4.372   4.410  1.00 20.00    -0.168 F 
HETATM   11  F11 UNL     1     -34.228   5.003   2.353  1.00 20.00    -0.168 F 
ENDBRANCH   1   8
TORSDOF 3
ENDMDL
MODEL 8
REMARK VINA RESULT:      -4.9      1.956      3.817
REMARK  3 active torsions:
REMARK  status: ('A' for Active; 'I' for Inactive)
REMARK    1  A    between atoms: C2_2  and  C3_3 
REMARK    2  A    between atoms: C2_2  and  C4_4 
REMARK    3  A    between atoms: C3_3  and  O5_5 
ROOT
HETATM    1  C2  UNL     1     -33.975   6.412   3.604  1.00 20.00     0.379 C 
HETATM    2  F6  UNL     1     -34.459   5.464   2.752  1.00 20.00    -0.231 F 
ENDROOT
BRANCH   1   3
HETATM    3  C3  UNL     1     -34.109   5.880   5.018  1.00 20.00     0.393 C 
HETATM    4  F7  UNL     1     -34.062   6.915   5.893  1.00 20.00    -0.172 F 
HETATM    5  F8  UNL     1     -33.077   5.051   5.307  1.00 20.00    -0.172 F 
BRANCH   3   6
HETATM    6  O5  UNL     1     -35.337   5.184   5.194  1.00 20.00    -0.329 OA
HETATM    7  C1  UNL     1     -35.162   3.908   5.793  1.00 20.00     0.208 C 
ENDBRANCH   3   6
ENDBRANCH   1   3
BRANCH   1   8
HETATM    8  C4  UNL     1     -32.551   6.717   3.195  1.00 20.00     0.426 C 
HETATM    9  F9  UNL     1     -31.874   7.273   4.224  1.00 20.00    -0.168 F 
HETATM   10  F10 UNL     1     -32.507   7.588   2.165  1.00 20.00    -0.168 F 
HETATM   11  F11 UNL     1     -31.894   5.599   2.824  1.00 20.00    -0.168 F 
ENDBRANCH   1   8
TORSDOF 3
ENDMDL
MODEL 9
REMARK VINA RESULT:      -4.9      1.937      3.620
REMARK  3 active torsions:
REMARK  status: ('A' for Active; 'I' for Inactive)
REMARK    1  A    between atoms: C2_2  and  C3_3 
REMARK    2  A    between atoms: C2_2  and  C4_4 
REMARK    3  A    between atoms: C3_3  and  O5_5 
ROOT
HETATM    1  C2  UNL     1     -34.059   5.896   2.887  1.00 20.00     0.379 C 
HETATM    2  F6  UNL     1     -33.843   4.760   2.164  1.00 20.00    -0.231 F 
ENDROOT
BRANCH   1   3
HETATM    3  C3  UNL     1     -35.006   5.553   4.021  1.00 20.00     0.393 C 
HETATM    4  F7  UNL     1     -36.286   5.698   3.595  1.00 20.00    -0.172 F 
HETATM    5  F8  UNL     1     -34.820   6.402   5.060  1.00 20.00    -0.172 F 
BRANCH   3   6
HETATM    6  O5  UNL     1     -34.818   4.215   4.465  1.00 20.00    -0.329 OA
HETATM    7  C1  UNL     1     -34.826   4.102   5.880  1.00 20.00     0.208 C 
ENDBRANCH   3   6
ENDBRANCH   1   3
BRANCH   1   8
HETATM    8  C4  UNL     1     -32.715   6.415   3.345  1.00 20.00     0.426 C 
HETATM    9  F9  UNL     1     -31.759   5.476   3.162  1.00 20.00    -0.168 F 
HETATM   10  F10 UNL     1     -32.726   6.729   4.658  1.00 20.00    -0.168 F 
HETATM   11  F11 UNL     1     -32.349   7.515   2.656  1.00 20.00    -0.168 F 
ENDBRANCH   1   8
TORSDOF 3
ENDMDL
