MODEL 1
REMARK VINA RESULT:      -4.9      0.000      0.000
REMARK  4 active torsions:
REMARK  status: ('A' for Active; 'I' for Inactive)
REMARK    1  A    between atoms: C1_1  and  C4_4 
REMARK    2  A    between atoms: C2_2  and  C8_8 
REMARK    3  A    between atoms: C8_8  and  C9_9 
REMARK    4  A    between atoms: C8_8  and  O10_10 
ROOT
HETATM    1  C8  UNL     1     -34.982   5.188   4.014  1.00 20.00     0.200 C 
ENDROOT
BRANCH   1   2
HETATM    2  C2  UNL     1     -33.882   6.077   3.614  1.00 20.00    -0.069 C 
HETATM    3  C1  UNL     1     -32.984   6.805   3.291  1.00 20.00    -0.070 C 
BRANCH   3   4
HETATM    4  C4  UNL     1     -31.917   7.671   2.906  1.00 20.00    -0.018 C 
HETATM    5  C3  UNL     1     -30.907   7.887   3.762  1.00 20.00     0.028 C 
HETATM    6  C5  UNL     1     -31.958   8.317   1.553  1.00 20.00     0.057 C 
ENDBRANCH   3   4
ENDBRANCH   1   2
BRANCH   1   7
HETATM    7  C9  UNL     1     -35.055   4.950   5.537  1.00 20.00     0.018 C 
HETATM    8  C6  UNL     1     -34.393   6.067   6.354  1.00 20.00     0.013 C 
HETATM    9  C7  UNL     1     -34.482   3.587   5.935  1.00 20.00     0.013 C 
ENDBRANCH   1   7
BRANCH   1  10
HETATM   10  O10 UNL     1     -36.211   5.744   3.553  1.00 20.00    -0.383 OA
HETATM   11  H24 UNL     1     -36.159   6.698   3.714  1.00 20.00     0.211 HD
ENDBRANCH   1  10
TORSDOF 4
ENDMDL
MODEL 2
REMARK VINA RESULT:      -4.7      1.241      1.717
REMARK  4 active torsions:
REMARK  status: ('A' for Active; 'I' for Inactive)
REMARK    1  A    between atoms: C1_1  and  C4_4 
REMARK    2  A    between atoms: C2_2  and  C8_8 
REMARK    3  A    between atoms: C8_8  and  C9_9 
REMARK    4  A    between atoms: C8_8  and  O10_10 
ROOT
HETATM    1  C8  UNL     1     -33.664   5.643   4.158  1.00 20.00     0.200 C 
ENDROOT
BRANCH   1   2
HETATM    2  C2  UNL     1     -33.166   6.736   3.310  1.00 20.00    -0.069 C 
HETATM    3  C1  UNL     1     -32.760   7.628   2.616  1.00 20.00    -0.070 C 
BRANCH   3   4
HETATM    4  C4  UNL     1     -32.278   8.687   1.790  1.00 20.00    -0.018 C 
HETATM    5  C3  UNL     1     -31.447   8.401   0.776  1.00 20.00     0.028 C 
HETATM    6  C5  UNL     1     -32.714  10.092   2.082  1.00 20.00     0.057 C 
ENDBRANCH   3   4
ENDBRANCH   1   2
BRANCH   1   7
HETATM    7  C9  UNL     1     -34.307   6.133   5.472  1.00 20.00     0.018 C 
HETATM    8  C6  UNL     1     -33.354   6.968   6.336  1.00 20.00     0.013 C 
HETATM    9  C7  UNL     1     -34.897   4.981   6.289  1.00 20.00     0.013 C 
ENDBRANCH   1   7
BRANCH   1  10
HETATM   10  O10 UNL     1     -34.610   4.881   3.412  1.00 20.00    -0.383 OA
HETATM   11  H24 UNL     1     -34.535   3.967   3.725  1.00 20.00     0.211 HD
ENDBRANCH   1  10
TORSDOF 4
ENDMDL
MODEL 3
REMARK VINA RESULT:      -4.7     11.635     12.680
REMARK  4 active torsions:
REMARK  status: ('A' for Active; 'I' for Inactive)
REMARK    1  A    between atoms: C1_1  and  C4_4 
REMARK    2  A    between atoms: C2_2  and  C8_8 
REMARK    3  A    between atoms: C8_8  and  C9_9 
REMARK    4  A    between atoms: C8_8  and  O10_10 
ROOT
HETATM    1  C8  UNL     1     -33.336  15.199  -4.047  1.00 20.00     0.200 C 
ENDROOT
BRANCH   1   2
HETATM    2  C2  UNL     1     -33.554  16.019  -2.846  1.00 20.00    -0.069 C 
HETATM    3  C1  UNL     1     -33.731  16.690  -1.867  1.00 20.00    -0.070 C 
BRANCH   3   4
HETATM    4  C4  UNL     1     -33.940  17.488  -0.702  1.00 20.00    -0.018 C 
HETATM    5  C3  UNL     1     -34.982  17.218   0.098  1.00 20.00     0.028 C 
HETATM    6  C5  UNL     1     -32.988  18.609  -0.409  1.00 20.00     0.057 C 
ENDBRANCH   3   4
ENDBRANCH   1   2
BRANCH   1   7
HETATM    7  C9  UNL     1     -34.646  14.747  -4.726  1.00 20.00     0.018 C 
HETATM    8  C6  UNL     1     -35.107  13.355  -4.280  1.00 20.00     0.013 C 
HETATM    9  C7  UNL     1     -34.556  14.816  -6.253  1.00 20.00     0.013 C 
ENDBRANCH   1   7
BRANCH   1  10
HETATM   10  O10 UNL     1     -32.545  15.943  -4.971  1.00 20.00    -0.383 OA
HETATM   11  H24 UNL     1     -33.165  16.414  -5.547  1.00 20.00     0.211 HD
ENDBRANCH   1  10
TORSDOF 4
ENDMDL
MODEL 4
REMARK VINA RESULT:      -4.6     11.244     11.923
REMARK  4 active torsions:
REMARK  status: ('A' for Active; 'I' for Inactive)
REMARK    1  A    between atoms: C1_1  and  C4_4 
REMARK    2  A    between atoms: C2_2  and  C8_8 
REMARK    3  A    between atoms: C8_8  and  C9_9 
REMARK    4  A    between atoms: C8_8  and  O10_10 
ROOT
HETATM    1  C8  UNL     1     -35.387  15.370  -3.181  1.00 20.00     0.200 C 
ENDROOT
BRANCH   1   2
HETATM    2  C2  UNL     1     -35.025  16.168  -1.999  1.00 20.00    -0.069 C 
HETATM    3  C1  UNL     1     -34.727  16.818  -1.036  1.00 20.00    -0.070 C 
BRANCH   3   4
HETATM    4  C4  UNL     1     -34.372  17.591   0.110  1.00 20.00    -0.018 C 
HETATM    5  C3  UNL     1     -35.164  17.560   1.192  1.00 20.00     0.028 C 
HETATM    6  C5  UNL     1     -33.121  18.418   0.070  1.00 20.00     0.057 C 
ENDBRANCH   3   4
ENDBRANCH   1   2
BRANCH   1   7
HETATM    7  C9  UNL     1     -34.436  14.180  -3.430  1.00 20.00     0.018 C 
HETATM    8  C6  UNL     1     -32.989  14.610  -3.697  1.00 20.00     0.013 C 
HETATM    9  C7  UNL     1     -34.937  13.270  -4.554  1.00 20.00     0.013 C 
ENDBRANCH   1   7
BRANCH   1  10
HETATM   10  O10 UNL     1     -36.722  14.896  -3.021  1.00 20.00    -0.383 OA
HETATM   11  H24 UNL     1     -36.662  13.935  -2.916  1.00 20.00     0.211 HD
ENDBRANCH   1  10
TORSDOF 4
ENDMDL
MODEL 5
REMARK VINA RESULT:      -4.6      1.247      1.675
REMARK  4 active torsions:
REMARK  status: ('A' for Active; 'I' for Inactive)
REMARK    1  A    between atoms: C1_1  and  C4_4 
REMARK    2  A    between atoms: C2_2  and  C8_8 
REMARK    3  A    between atoms: C8_8  and  C9_9 
REMARK    4  A    between atoms: C8_8  and  O10_10 
ROOT
HETATM    1  C8  UNL     1     -33.653   5.665   4.144  1.00 20.00     0.200 C 
ENDROOT
BRANCH   1   2
HETATM    2  C2  UNL     1     -33.169   6.767   3.300  1.00 20.00    -0.069 C 
HETATM    3  C1  UNL     1     -32.773   7.665   2.609  1.00 20.00    -0.070 C 
BRANCH   3   4
HETATM    4  C4  UNL     1     -32.301   8.732   1.787  1.00 20.00    -0.018 C 
HETATM    5  C3  UNL     1     -32.696   9.987   2.051  1.00 20.00     0.028 C 
HETATM    6  C5  UNL     1     -31.377   8.418   0.648  1.00 20.00     0.057 C 
ENDBRANCH   3   4
ENDBRANCH   1   2
BRANCH   1   7
HETATM    7  C9  UNL     1     -34.306   6.143   5.459  1.00 20.00     0.018 C 
HETATM    8  C6  UNL     1     -33.362   6.980   6.331  1.00 20.00     0.013 C 
HETATM    9  C7  UNL     1     -34.888   4.981   6.267  1.00 20.00     0.013 C 
ENDBRANCH   1   7
BRANCH   1  10
HETATM   10  O10 UNL     1     -34.587   4.891   3.395  1.00 20.00    -0.383 OA
HETATM   11  H24 UNL     1     -35.346   4.736   3.978  1.00 20.00     0.211 HD
ENDBRANCH   1  10
TORSDOF 4
ENDMDL
MODEL 6
REMARK VINA RESULT:      -4.6      2.060      5.286
REMARK  4 active torsions:
REMARK  status: ('A' for Active; 'I' for Inactive)
REMARK    1  A    between atoms: C1_1  and  C4_4 
REMARK    2  A    between atoms: C2_2  and  C8_8 
REMARK    3  A    between atoms: C8_8  and  C9_9 
REMARK    4  A    between atoms: C8_8  and  O10_10 
ROOT
HETATM    1  C8  UNL     1     -31.769   7.523   2.778  1.00 20.00     0.200 C 
ENDROOT
BRANCH   1   2
HETATM    2  C2  UNL     1     -32.770   6.779   3.555  1.00 20.00    -0.069 C 
HETATM    3  C1  UNL     1     -33.588   6.173   4.193  1.00 20.00    -0.070 C 
BRANCH   3   4
HETATM    4  C4  UNL     1     -34.558   5.452   4.951  1.00 20.00    -0.018 C 
HETATM    5  C3  UNL     1     -35.486   4.728   4.308  1.00 20.00     0.028 C 
HETATM    6  C5  UNL     1     -34.511   5.527   6.448  1.00 20.00     0.057 C 
ENDBRANCH   3   4
ENDBRANCH   1   2
BRANCH   1   7
HETATM    7  C9  UNL     1     -32.389   8.457   1.716  1.00 20.00     0.018 C 
HETATM    8  C6  UNL     1     -31.546   8.563   0.440  1.00 20.00     0.013 C 
HETATM    9  C7  UNL     1     -32.685   9.850   2.277  1.00 20.00     0.013 C 
ENDBRANCH   1   7
BRANCH   1  10
HETATM   10  O10 UNL     1     -30.963   8.283   3.676  1.00 20.00    -0.383 OA
HETATM   11  H24 UNL     1     -31.560   8.623   4.359  1.00 20.00     0.211 HD
ENDBRANCH   1  10
TORSDOF 4
ENDMDL
MODEL 7
REMARK VINA RESULT:      -4.4     11.340     12.429
REMARK  4 active torsions:
REMARK  status: ('A' for Active; 'I' for Inactive)
REMARK    1  A    between atoms: C1_1  and  C4_4 
REMARK    2  A    between atoms: C2_2  and  C8_8 
REMARK    3  A    between atoms: C8_8  and  C9_9 
REMARK    4  A    between atoms: C8_8  and  O10_10 
ROOT
HETATM    1  C8  UNL     1     -34.603  13.875  -3.904  1.00 20.00     0.200 C 
ENDROOT
BRANCH   1   2
HETATM    2  C2  UNL     1     -34.461  15.040  -3.018  1.00 20.00    -0.069 C 
HETATM    3  C1  UNL     1     -34.347  15.991  -2.295  1.00 20.00    -0.070 C 
BRANCH   3   4
HETATM    4  C4  UNL     1     -34.213  17.123  -1.436  1.00 20.00    -0.018 C 
HETATM    5  C3  UNL     1     -33.570  18.212  -1.883  1.00 20.00     0.028 C 
HETATM    6  C5  UNL     1     -34.794  17.059  -0.054  1.00 20.00     0.057 C 
ENDBRANCH   3   4
ENDBRANCH   1   2
BRANCH   1   7
HETATM    7  C9  UNL     1     -35.230  14.219  -5.272  1.00 20.00     0.018 C 
HETATM    8  C6  UNL     1     -34.323  15.092  -6.148  1.00 20.00     0.013 C 
HETATM    9  C7  UNL     1     -36.610  14.864  -5.126  1.00 20.00     0.013 C 
ENDBRANCH   1   7
BRANCH   1  10
HETATM   10  O10 UNL     1     -33.319  13.286  -4.096  1.00 20.00    -0.383 OA
HETATM   11  H24 UNL     1     -32.887  13.792  -4.801  1.00 20.00     0.211 HD
ENDBRANCH   1  10
TORSDOF 4
ENDMDL
MODEL 8
REMARK VINA RESULT:      -4.3     11.305     12.323
REMARK  4 active torsions:
REMARK  status: ('A' for Active; 'I' for Inactive)
REMARK    1  A    between atoms: C1_1  and  C4_4 
REMARK    2  A    between atoms: C2_2  and  C8_8 
REMARK    3  A    between atoms: C8_8  and  C9_9 
REMARK    4  A    between atoms: C8_8  and  O10_10 
ROOT
HETATM    1  C8  UNL     1     -34.948  17.298   0.232  1.00 20.00     0.200 C 
ENDROOT
BRANCH   1   2
HETATM    2  C2  UNL     1     -34.586  16.627  -1.026  1.00 20.00    -0.069 C 
HETATM    3  C1  UNL     1     -34.294  16.077  -2.052  1.00 20.00    -0.070 C 
BRANCH   3   4
HETATM    4  C4  UNL     1     -33.945  15.423  -3.272  1.00 20.00    -0.018 C 
HETATM    5  C3  UNL     1     -33.228  16.087  -4.190  1.00 20.00     0.028 C 
HETATM    6  C5  UNL     1     -34.395  14.009  -3.491  1.00 20.00     0.057 C 
ENDBRANCH   3   4
ENDBRANCH   1   2
BRANCH   1   7
HETATM    7  C9  UNL     1     -34.037  18.498   0.568  1.00 20.00     0.018 C 
HETATM    8  C6  UNL     1     -32.719  18.494  -0.216  1.00 20.00     0.013 C 
HETATM    9  C7  UNL     1     -33.763  18.609   2.070  1.00 20.00     0.013 C 
ENDBRANCH   1   7
BRANCH   1  10
HETATM   10  O10 UNL     1     -36.304  17.730   0.147  1.00 20.00    -0.383 OA
HETATM   11  H24 UNL     1     -36.525  18.114   1.009  1.00 20.00     0.211 HD
ENDBRANCH   1  10
TORSDOF 4
ENDMDL
MODEL 9
REMARK VINA RESULT:      -4.1      9.781     11.464
REMARK  4 active torsions:
REMARK  status: ('A' for Active; 'I' for Inactive)
REMARK    1  A    between atoms: C1_1  and  C4_4 
REMARK    2  A    between atoms: C2_2  and  C8_8 
REMARK    3  A    between atoms: C8_8  and  C9_9 
REMARK    4  A    between atoms: C8_8  and  O10_10 
ROOT
HETATM    1  C8  UNL     1     -41.041   4.516  -1.376  1.00 20.00     0.200 C 
ENDROOT
BRANCH   1   2
HETATM    2  C2  UNL     1     -41.444   3.485  -2.343  1.00 20.00    -0.069 C 
HETATM    3  C1  UNL     1     -41.774   2.645  -3.135  1.00 20.00    -0.070 C 
BRANCH   3   4
HETATM    4  C4  UNL     1     -42.167   1.647  -4.076  1.00 20.00    -0.018 C 
HETATM    5  C3  UNL     1     -43.067   1.956  -5.021  1.00 20.00     0.028 C 
HETATM    6  C5  UNL     1     -41.562   0.278  -3.978  1.00 20.00     0.057 C 
ENDBRANCH   3   4
ENDBRANCH   1   2
BRANCH   1   7
HETATM    7  C9  UNL     1     -41.584   5.920  -1.716  1.00 20.00     0.018 C 
HETATM    8  C6  UNL     1     -41.034   7.018  -0.798  1.00 20.00     0.013 C 
HETATM    9  C7  UNL     1     -43.114   5.956  -1.734  1.00 20.00     0.013 C 
ENDBRANCH   1   7
BRANCH   1  10
HETATM   10  O10 UNL     1     -41.488   4.127  -0.079  1.00 20.00    -0.383 OA
HETATM   11  H24 UNL     1     -41.458   3.159  -0.057  1.00 20.00     0.211 HD
ENDBRANCH   1  10
TORSDOF 4
ENDMDL
