MODEL 1
REMARK VINA RESULT:      -4.6      0.000      0.000
REMARK  2 active torsions:
REMARK  status: ('A' for Active; 'I' for Inactive)
REMARK    1  A    between atoms: C3_3  and  C7_7 
REMARK    2  A    between atoms: C7_7  and  C8_8 
ROOT
HETATM    1  C1  UNL     1     -33.959  13.713  -4.070  1.00 20.00     0.263 C 
HETATM    2  C2  UNL     1     -35.270  15.495  -4.839  1.00 20.00     0.046 C 
HETATM    3  C3  UNL     1     -34.749  14.889  -3.550  1.00 20.00     0.088 C 
HETATM    4  C4  UNL     1     -35.463  14.269  -5.705  1.00 20.00     0.128 C 
HETATM    5  C5  UNL     1     -35.396  14.568  -7.191  1.00 20.00     0.040 C 
HETATM    6  O9  UNL     1     -33.090  13.105  -3.464  1.00 20.00    -0.265 OA
HETATM    7  O10 UNL     1     -34.383  13.400  -5.334  1.00 20.00    -0.316 OA
ENDROOT
BRANCH   3   8
HETATM    8  C7  UNL     1     -33.903  15.857  -2.745  1.00 20.00     0.014 C 
BRANCH   8   9
HETATM    9  C8  UNL     1     -34.625  16.314  -1.477  1.00 20.00    -0.004 C 
HETATM   10  C6  UNL     1     -33.881  17.447  -0.787  1.00 20.00     0.005 C 
ENDBRANCH   8   9
ENDBRANCH   3   8
TORSDOF 2
ENDMDL
MODEL 2
REMARK VINA RESULT:      -4.5     11.462     12.630
REMARK  2 active torsions:
REMARK  status: ('A' for Active; 'I' for Inactive)
REMARK    1  A    between atoms: C3_3  and  C7_7 
REMARK    2  A    between atoms: C7_7  and  C8_8 
ROOT
HETATM    1  C1  UNL     1     -33.661   6.727   6.051  1.00 20.00     0.263 C 
HETATM    2  C2  UNL     1     -34.094   5.531   4.085  1.00 20.00     0.046 C 
HETATM    3  C3  UNL     1     -33.634   6.898   4.552  1.00 20.00     0.088 C 
HETATM    4  C4  UNL     1     -35.056   5.133   5.183  1.00 20.00     0.128 C 
HETATM    5  C5  UNL     1     -35.216   3.631   5.324  1.00 20.00     0.040 C 
HETATM    6  O9  UNL     1     -33.074   7.424   6.865  1.00 20.00    -0.265 OA
HETATM    7  O10 UNL     1     -34.475   5.675   6.377  1.00 20.00    -0.316 OA
ENDROOT
BRANCH   3   8
HETATM    8  C7  UNL     1     -32.261   7.269   4.025  1.00 20.00     0.014 C 
BRANCH   8   9
HETATM    9  C8  UNL     1     -32.188   7.138   2.504  1.00 20.00    -0.004 C 
HETATM   10  C6  UNL     1     -32.092   8.497   1.829  1.00 20.00     0.005 C 
ENDBRANCH   8   9
ENDBRANCH   3   8
TORSDOF 2
ENDMDL
MODEL 3
REMARK VINA RESULT:      -4.4      1.820      2.367
REMARK  2 active torsions:
REMARK  status: ('A' for Active; 'I' for Inactive)
REMARK    1  A    between atoms: C3_3  and  C7_7 
REMARK    2  A    between atoms: C7_7  and  C8_8 
ROOT
HETATM    1  C1  UNL     1     -33.489  16.420  -4.620  1.00 20.00     0.263 C 
HETATM    2  C2  UNL     1     -34.151  14.728  -3.143  1.00 20.00     0.046 C 
HETATM    3  C3  UNL     1     -33.319  15.995  -3.182  1.00 20.00     0.088 C 
HETATM    4  C4  UNL     1     -33.950  14.178  -4.538  1.00 20.00     0.128 C 
HETATM    5  C5  UNL     1     -35.084  13.282  -4.999  1.00 20.00     0.040 C 
HETATM    6  O9  UNL     1     -33.287  17.538  -5.069  1.00 20.00    -0.265 OA
HETATM    7  O10 UNL     1     -33.882  15.344  -5.372  1.00 20.00    -0.316 OA
ENDROOT
BRANCH   3   8
HETATM    8  C7  UNL     1     -33.799  17.044  -2.197  1.00 20.00     0.014 C 
BRANCH   8   9
HETATM    9  C8  UNL     1     -34.756  16.450  -1.164  1.00 20.00    -0.004 C 
HETATM   10  C6  UNL     1     -34.804  17.289   0.103  1.00 20.00     0.005 C 
ENDBRANCH   8   9
ENDBRANCH   3   8
TORSDOF 2
ENDMDL
MODEL 4
REMARK VINA RESULT:      -4.4      1.900      4.313
REMARK  2 active torsions:
REMARK  status: ('A' for Active; 'I' for Inactive)
REMARK    1  A    between atoms: C3_3  and  C7_7 
REMARK    2  A    between atoms: C7_7  and  C8_8 
ROOT
HETATM    1  C1  UNL     1     -36.128  14.583  -3.535  1.00 20.00     0.263 C 
HETATM    2  C2  UNL     1     -33.823  14.996  -3.566  1.00 20.00     0.046 C 
HETATM    3  C3  UNL     1     -34.825  13.898  -3.867  1.00 20.00     0.088 C 
HETATM    4  C4  UNL     1     -34.485  15.715  -2.412  1.00 20.00     0.128 C 
HETATM    5  C5  UNL     1     -34.054  17.164  -2.282  1.00 20.00     0.040 C 
HETATM    6  O9  UNL     1     -37.238  14.240  -3.913  1.00 20.00    -0.265 OA
HETATM    7  O10 UNL     1     -35.887  15.649  -2.710  1.00 20.00    -0.316 OA
ENDROOT
BRANCH   3   8
HETATM    8  C7  UNL     1     -34.760  13.420  -5.305  1.00 20.00     0.014 C 
BRANCH   8   9
HETATM    9  C8  UNL     1     -34.576  14.585  -6.277  1.00 20.00    -0.004 C 
HETATM   10  C6  UNL     1     -35.471  14.444  -7.498  1.00 20.00     0.005 C 
ENDBRANCH   8   9
ENDBRANCH   3   8
TORSDOF 2
ENDMDL
MODEL 5
REMARK VINA RESULT:      -4.3      1.991      4.453
REMARK  2 active torsions:
REMARK  status: ('A' for Active; 'I' for Inactive)
REMARK    1  A    between atoms: C3_3  and  C7_7 
REMARK    2  A    between atoms: C7_7  and  C8_8 
ROOT
HETATM    1  C1  UNL     1     -33.542  16.568  -3.864  1.00 20.00     0.263 C 
HETATM    2  C2  UNL     1     -34.665  15.917  -1.915  1.00 20.00     0.046 C 
HETATM    3  C3  UNL     1     -34.532  15.539  -3.377  1.00 20.00     0.088 C 
HETATM    4  C4  UNL     1     -34.495  17.420  -1.965  1.00 20.00     0.128 C 
HETATM    5  C5  UNL     1     -33.988  18.009  -0.662  1.00 20.00     0.040 C 
HETATM    6  O9  UNL     1     -32.866  16.493  -4.879  1.00 20.00    -0.265 OA
HETATM    7  O10 UNL     1     -33.529  17.633  -3.003  1.00 20.00    -0.316 OA
ENDROOT
BRANCH   3   8
HETATM    8  C7  UNL     1     -34.047  14.115  -3.575  1.00 20.00     0.014 C 
BRANCH   8   9
HETATM    9  C8  UNL     1     -34.996  13.317  -4.469  1.00 20.00    -0.004 C 
HETATM   10  C6  UNL     1     -35.099  13.923  -5.859  1.00 20.00     0.005 C 
ENDBRANCH   8   9
ENDBRANCH   3   8
TORSDOF 2
ENDMDL
MODEL 6
REMARK VINA RESULT:      -4.3      1.265      4.046
REMARK  2 active torsions:
REMARK  status: ('A' for Active; 'I' for Inactive)
REMARK    1  A    between atoms: C3_3  and  C7_7 
REMARK    2  A    between atoms: C7_7  and  C8_8 
ROOT
HETATM    1  C1  UNL     1     -34.530  13.620  -4.518  1.00 20.00     0.263 C 
HETATM    2  C2  UNL     1     -34.506  15.962  -4.527  1.00 20.00     0.046 C 
HETATM    3  C3  UNL     1     -34.296  14.780  -5.454  1.00 20.00     0.088 C 
HETATM    4  C4  UNL     1     -33.991  15.421  -3.211  1.00 20.00     0.128 C 
HETATM    5  C5  UNL     1     -34.596  16.110  -2.003  1.00 20.00     0.040 C 
HETATM    6  O9  UNL     1     -34.796  12.474  -4.845  1.00 20.00    -0.265 OA
HETATM    7  O10 UNL     1     -34.371  14.038  -3.223  1.00 20.00    -0.316 OA
ENDROOT
BRANCH   3   8
HETATM    8  C7  UNL     1     -35.247  14.784  -6.636  1.00 20.00     0.014 C 
BRANCH   8   9
HETATM    9  C8  UNL     1     -36.655  15.211  -6.224  1.00 20.00    -0.004 C 
HETATM   10  C6  UNL     1     -37.612  15.201  -7.405  1.00 20.00     0.005 C 
ENDBRANCH   8   9
ENDBRANCH   3   8
TORSDOF 2
ENDMDL
MODEL 7
REMARK VINA RESULT:      -4.2      1.951      2.642
REMARK  2 active torsions:
REMARK  status: ('A' for Active; 'I' for Inactive)
REMARK    1  A    between atoms: C3_3  and  C7_7 
REMARK    2  A    between atoms: C7_7  and  C8_8 
ROOT
HETATM    1  C1  UNL     1     -34.986  16.752  -4.270  1.00 20.00     0.263 C 
HETATM    2  C2  UNL     1     -33.578  15.092  -3.406  1.00 20.00     0.046 C 
HETATM    3  C3  UNL     1     -33.704  16.601  -3.488  1.00 20.00     0.088 C 
HETATM    4  C4  UNL     1     -34.183  14.656  -4.723  1.00 20.00     0.128 C 
HETATM    5  C5  UNL     1     -34.739  13.245  -4.688  1.00 20.00     0.040 C 
HETATM    6  O9  UNL     1     -35.685  17.752  -4.320  1.00 20.00    -0.265 OA
HETATM    7  O10 UNL     1     -35.244  15.592  -4.952  1.00 20.00    -0.316 OA
ENDROOT
BRANCH   3   8
HETATM    8  C7  UNL     1     -33.766  17.261  -2.123  1.00 20.00     0.014 C 
BRANCH   8   9
HETATM    9  C8  UNL     1     -34.633  16.462  -1.150  1.00 20.00    -0.004 C 
HETATM   10  C6  UNL     1     -34.883  17.230   0.137  1.00 20.00     0.005 C 
ENDBRANCH   8   9
ENDBRANCH   3   8
TORSDOF 2
ENDMDL
MODEL 8
REMARK VINA RESULT:      -4.2      1.825      1.963
REMARK  2 active torsions:
REMARK  status: ('A' for Active; 'I' for Inactive)
REMARK    1  A    between atoms: C3_3  and  C7_7 
REMARK    2  A    between atoms: C7_7  and  C8_8 
ROOT
HETATM    1  C1  UNL     1     -33.865  15.943  -4.613  1.00 20.00     0.263 C 
HETATM    2  C2  UNL     1     -35.698  15.333  -3.288  1.00 20.00     0.046 C 
HETATM    3  C3  UNL     1     -34.197  15.530  -3.200  1.00 20.00     0.088 C 
HETATM    4  C4  UNL     1     -35.864  14.829  -4.705  1.00 20.00     0.128 C 
HETATM    5  C5  UNL     1     -37.239  15.105  -5.282  1.00 20.00     0.040 C 
HETATM    6  O9  UNL     1     -32.852  16.522  -4.974  1.00 20.00    -0.265 OA
HETATM    7  O10 UNL     1     -34.870  15.542  -5.454  1.00 20.00    -0.316 OA
ENDROOT
BRANCH   3   8
HETATM    8  C7  UNL     1     -33.800  16.573  -2.172  1.00 20.00     0.014 C 
BRANCH   8   9
HETATM    9  C8  UNL     1     -34.728  16.548  -0.958  1.00 20.00    -0.004 C 
HETATM   10  C6  UNL     1     -34.317  17.578   0.082  1.00 20.00     0.005 C 
ENDBRANCH   8   9
ENDBRANCH   3   8
TORSDOF 2
ENDMDL
MODEL 9
REMARK VINA RESULT:      -4.1     10.979     12.205
REMARK  2 active torsions:
REMARK  status: ('A' for Active; 'I' for Inactive)
REMARK    1  A    between atoms: C3_3  and  C7_7 
REMARK    2  A    between atoms: C7_7  and  C8_8 
ROOT
HETATM    1  C1  UNL     1     -34.292   5.325   3.244  1.00 20.00     0.263 C 
HETATM    2  C2  UNL     1     -33.664   6.301   5.279  1.00 20.00     0.046 C 
HETATM    3  C3  UNL     1     -33.226   6.220   3.829  1.00 20.00     0.088 C 
HETATM    4  C4  UNL     1     -34.268   4.931   5.500  1.00 20.00     0.128 C 
HETATM    5  C5  UNL     1     -35.299   4.903   6.611  1.00 20.00     0.040 C 
HETATM    6  O9  UNL     1     -34.572   5.220   2.060  1.00 20.00    -0.265 OA
HETATM    7  O10 UNL     1     -34.892   4.613   4.248  1.00 20.00    -0.316 OA
ENDROOT
BRANCH   3   8
HETATM    8  C7  UNL     1     -33.164   7.578   3.157  1.00 20.00     0.014 C 
BRANCH   8   9
HETATM    9  C8  UNL     1     -31.876   7.747   2.350  1.00 20.00    -0.004 C 
HETATM   10  C6  UNL     1     -32.031   8.800   1.264  1.00 20.00     0.005 C 
ENDBRANCH   8   9
ENDBRANCH   3   8
TORSDOF 2
ENDMDL
