MODEL 1
REMARK VINA RESULT:      -3.3      0.000      0.000
REMARK  2 active torsions:
REMARK  status: ('A' for Active; 'I' for Inactive)
REMARK    1  A    between atoms: C2_2  and  C3_3 
REMARK    2  A    between atoms: C2_2  and  N4_4 
ROOT
HETATM    1  C1  UNL     1     -32.774   6.781   3.328  1.00 20.00     0.157 C 
HETATM    2  N4  UNL     1     -33.270   5.995   4.047  1.00 20.00    -0.274 NA
HETATM    3  S5  UNL     1     -32.078   7.847   2.371  1.00 20.00    -0.055 SA
ENDROOT
BRANCH   2   4
HETATM    4  C2  UNL     1     -34.587   5.517   3.622  1.00 20.00     0.165 C 
BRANCH   4   5
HETATM    5  C3  UNL     1     -35.268   4.791   4.769  1.00 20.00     0.136 C 
HETATM    6 CL6  UNL     1     -34.684   5.380   6.345  1.00 20.00    -0.129 Cl
ENDBRANCH   4   5
ENDBRANCH   2   4
TORSDOF 2
ENDMDL
MODEL 2
REMARK VINA RESULT:      -3.3      1.147      1.147
REMARK  2 active torsions:
REMARK  status: ('A' for Active; 'I' for Inactive)
REMARK    1  A    between atoms: C2_2  and  C3_3 
REMARK    2  A    between atoms: C2_2  and  N4_4 
ROOT
HETATM    1  C1  UNL     1     -33.479   5.941   3.164  1.00 20.00     0.157 C 
HETATM    2  N4  UNL     1     -34.410   5.238   3.020  1.00 20.00    -0.274 NA
HETATM    3  S5  UNL     1     -32.207   6.884   3.334  1.00 20.00    -0.055 SA
ENDROOT
BRANCH   2   4
HETATM    4  C2  UNL     1     -35.400   5.299   4.096  1.00 20.00     0.165 C 
BRANCH   4   5
HETATM    5  C3  UNL     1     -34.835   4.666   5.356  1.00 20.00     0.136 C 
HETATM    6 CL6  UNL     1     -34.407   5.900   6.565  1.00 20.00    -0.129 Cl
ENDBRANCH   4   5
ENDBRANCH   2   4
TORSDOF 2
ENDMDL
MODEL 3
REMARK VINA RESULT:      -3.2      1.406      1.408
REMARK  2 active torsions:
REMARK  status: ('A' for Active; 'I' for Inactive)
REMARK    1  A    between atoms: C2_2  and  C3_3 
REMARK    2  A    between atoms: C2_2  and  N4_4 
ROOT
HETATM    1  C1  UNL     1     -33.004   6.599   3.550  1.00 20.00     0.157 C 
HETATM    2  N4  UNL     1     -33.669   5.887   4.207  1.00 20.00    -0.274 NA
HETATM    3  S5  UNL     1     -32.106   7.546   2.637  1.00 20.00    -0.055 SA
ENDROOT
BRANCH   2   4
HETATM    4  C2  UNL     1     -33.915   6.359   5.571  1.00 20.00     0.165 C 
BRANCH   4   5
HETATM    5  C3  UNL     1     -34.706   5.317   6.342  1.00 20.00     0.136 C 
HETATM    6 CL6  UNL     1     -34.962   3.848   5.370  1.00 20.00    -0.129 Cl
ENDBRANCH   4   5
ENDBRANCH   2   4
TORSDOF 2
ENDMDL
MODEL 4
REMARK VINA RESULT:      -3.1      3.438      4.028
REMARK  2 active torsions:
REMARK  status: ('A' for Active; 'I' for Inactive)
REMARK    1  A    between atoms: C2_2  and  C3_3 
REMARK    2  A    between atoms: C2_2  and  N4_4 
ROOT
HETATM    1  C1  UNL     1     -34.358   5.627   4.756  1.00 20.00     0.157 C 
HETATM    2  N4  UNL     1     -34.032   6.464   3.999  1.00 20.00    -0.274 NA
HETATM    3  S5  UNL     1     -34.824   4.508   5.789  1.00 20.00    -0.055 SA
ENDROOT
BRANCH   2   4
HETATM    4  C2  UNL     1     -32.841   6.150   3.207  1.00 20.00     0.165 C 
BRANCH   4   5
HETATM    5  C3  UNL     1     -31.874   7.320   3.242  1.00 20.00     0.136 C 
HETATM    6 CL6  UNL     1     -32.047   8.345   1.796  1.00 20.00    -0.129 Cl
ENDBRANCH   4   5
ENDBRANCH   2   4
TORSDOF 2
ENDMDL
MODEL 5
REMARK VINA RESULT:      -2.8      2.936      3.167
REMARK  2 active torsions:
REMARK  status: ('A' for Active; 'I' for Inactive)
REMARK    1  A    between atoms: C2_2  and  C3_3 
REMARK    2  A    between atoms: C2_2  and  N4_4 
ROOT
HETATM    1  C1  UNL     1     -34.447   5.767   6.331  1.00 20.00     0.157 C 
HETATM    2  N4  UNL     1     -35.096   4.804   6.155  1.00 20.00    -0.274 NA
HETATM    3  S5  UNL     1     -33.575   7.074   6.598  1.00 20.00    -0.055 SA
ENDROOT
BRANCH   2   4
HETATM    4  C2  UNL     1     -35.023   4.251   4.801  1.00 20.00     0.165 C 
BRANCH   4   5
HETATM    5  C3  UNL     1     -35.199   5.361   3.780  1.00 20.00     0.136 C 
HETATM    6 CL6  UNL     1     -33.682   5.681   2.904  1.00 20.00    -0.129 Cl
ENDBRANCH   4   5
ENDBRANCH   2   4
TORSDOF 2
ENDMDL
MODEL 6
REMARK VINA RESULT:      -2.8      3.520      4.303
REMARK  2 active torsions:
REMARK  status: ('A' for Active; 'I' for Inactive)
REMARK    1  A    between atoms: C2_2  and  C3_3 
REMARK    2  A    between atoms: C2_2  and  N4_4 
ROOT
HETATM    1  C1  UNL     1     -33.345   6.126   3.865  1.00 20.00     0.157 C 
HETATM    2  N4  UNL     1     -32.673   6.356   2.930  1.00 20.00    -0.274 NA
HETATM    3  S5  UNL     1     -34.264   5.788   5.122  1.00 20.00    -0.055 SA
ENDROOT
BRANCH   2   4
HETATM    4  C2  UNL     1     -31.940   7.622   2.994  1.00 20.00     0.165 C 
BRANCH   4   5
HETATM    5  C3  UNL     1     -31.931   8.283   1.627  1.00 20.00     0.136 C 
HETATM    6 CL6  UNL     1     -32.587   9.936   1.703  1.00 20.00    -0.129 Cl
ENDBRANCH   4   5
ENDBRANCH   2   4
TORSDOF 2
ENDMDL
MODEL 7
REMARK VINA RESULT:      -2.8     11.638     11.990
REMARK  2 active torsions:
REMARK  status: ('A' for Active; 'I' for Inactive)
REMARK    1  A    between atoms: C2_2  and  C3_3 
REMARK    2  A    between atoms: C2_2  and  N4_4 
ROOT
HETATM    1  C1  UNL     1     -34.928  13.609  -5.584  1.00 20.00     0.157 C 
HETATM    2  N4  UNL     1     -34.689  12.996  -4.610  1.00 20.00    -0.274 NA
HETATM    3  S5  UNL     1     -35.261  14.415  -6.917  1.00 20.00    -0.055 SA
ENDROOT
BRANCH   2   4
HETATM    4  C2  UNL     1     -34.199  13.794  -3.485  1.00 20.00     0.165 C 
BRANCH   4   5
HETATM    5  C3  UNL     1     -35.145  14.953  -3.223  1.00 20.00     0.136 C 
HETATM    6 CL6  UNL     1     -34.561  15.976  -1.889  1.00 20.00    -0.129 Cl
ENDBRANCH   4   5
ENDBRANCH   2   4
TORSDOF 2
ENDMDL
MODEL 8
REMARK VINA RESULT:      -2.7     11.758     11.928
REMARK  2 active torsions:
REMARK  status: ('A' for Active; 'I' for Inactive)
REMARK    1  A    between atoms: C2_2  and  C3_3 
REMARK    2  A    between atoms: C2_2  and  N4_4 
ROOT
HETATM    1  C1  UNL     1     -33.747  14.390  -4.063  1.00 20.00     0.157 C 
HETATM    2  N4  UNL     1     -33.036  15.157  -3.528  1.00 20.00    -0.274 NA
HETATM    3  S5  UNL     1     -34.689  13.332  -4.792  1.00 20.00    -0.055 SA
ENDROOT
BRANCH   2   4
HETATM    4  C2  UNL     1     -33.697  16.363  -3.026  1.00 20.00     0.165 C 
BRANCH   4   5
HETATM    5  C3  UNL     1     -34.820  15.981  -2.078  1.00 20.00     0.136 C 
HETATM    6 CL6  UNL     1     -34.607  16.742  -0.483  1.00 20.00    -0.129 Cl
ENDBRANCH   4   5
ENDBRANCH   2   4
TORSDOF 2
ENDMDL
MODEL 9
REMARK VINA RESULT:      -2.6     12.116     12.419
REMARK  2 active torsions:
REMARK  status: ('A' for Active; 'I' for Inactive)
REMARK    1  A    between atoms: C2_2  and  C3_3 
REMARK    2  A    between atoms: C2_2  and  N4_4 
ROOT
HETATM    1  C1  UNL     1     -34.251  14.504  -3.313  1.00 20.00     0.157 C 
HETATM    2  N4  UNL     1     -34.513  13.405  -3.632  1.00 20.00    -0.274 NA
HETATM    3  S5  UNL     1     -33.899  15.988  -2.852  1.00 20.00    -0.055 SA
ENDROOT
BRANCH   2   4
HETATM    4  C2  UNL     1     -34.452  13.150  -5.072  1.00 20.00     0.165 C 
BRANCH   4   5
HETATM    5  C3  UNL     1     -35.271  14.191  -5.815  1.00 20.00     0.136 C 
HETATM    6 CL6  UNL     1     -34.320  14.961  -7.108  1.00 20.00    -0.129 Cl
ENDBRANCH   4   5
ENDBRANCH   2   4
TORSDOF 2
ENDMDL
