MODEL 1
REMARK VINA RESULT:      -3.5      0.000      0.000
REMARK  0 active torsions:
REMARK  status: ('A' for Active; 'I' for Inactive)
ROOT
HETATM    1  C1  UNL     1     -33.660   6.618   5.405  1.00 20.00     0.134 C 
HETATM    2  C2  UNL     1     -34.601   5.352   3.587  1.00 20.00     0.134 C 
HETATM    3  C3  UNL     1     -34.242   5.599   6.380  1.00 20.00     0.183 C 
HETATM    4  C4  UNL     1     -35.161   4.362   4.605  1.00 20.00     0.183 C 
HETATM    5  N5  UNL     1     -33.384   5.981   4.113  1.00 20.00    -0.224 NA
HETATM    6  O6  UNL     1     -35.432   5.020   5.843  1.00 20.00    -0.389 OA
HETATM    7 CL7  UNL     1     -32.672   7.111   2.957  1.00 20.00    -0.022 Cl
ENDROOT
TORSDOF 0
ENDMDL
MODEL 2
REMARK VINA RESULT:      -3.5      1.926      2.430
REMARK  0 active torsions:
REMARK  status: ('A' for Active; 'I' for Inactive)
ROOT
HETATM    1  C1  UNL     1     -33.966   6.305   4.501  1.00 20.00     0.134 C 
HETATM    2  C2  UNL     1     -34.274   4.957   6.470  1.00 20.00     0.134 C 
HETATM    3  C3  UNL     1     -34.952   5.404   3.764  1.00 20.00     0.183 C 
HETATM    4  C4  UNL     1     -35.253   4.087   5.687  1.00 20.00     0.183 C 
HETATM    5  N5  UNL     1     -34.274   6.323   5.935  1.00 20.00    -0.224 NA
HETATM    6  O6  UNL     1     -34.913   4.081   4.300  1.00 20.00    -0.389 OA
HETATM    7 CL7  UNL     1     -33.182   7.384   6.832  1.00 20.00    -0.022 Cl
ENDROOT
TORSDOF 0
ENDMDL
MODEL 3
REMARK VINA RESULT:      -3.4      1.853      2.230
REMARK  0 active torsions:
REMARK  status: ('A' for Active; 'I' for Inactive)
ROOT
HETATM    1  C1  UNL     1     -34.749   5.283   6.364  1.00 20.00     0.134 C 
HETATM    2  C2  UNL     1     -34.073   6.593   4.462  1.00 20.00     0.134 C 
HETATM    3  C3  UNL     1     -35.056   4.123   5.421  1.00 20.00     0.183 C 
HETATM    4  C4  UNL     1     -34.396   5.403   3.564  1.00 20.00     0.183 C 
HETATM    5  N5  UNL     1     -33.690   6.126   5.798  1.00 20.00    -0.224 NA
HETATM    6  O6  UNL     1     -35.440   4.615   4.137  1.00 20.00    -0.389 OA
HETATM    7 CL7  UNL     1     -33.268   7.466   6.870  1.00 20.00    -0.022 Cl
ENDROOT
TORSDOF 0
ENDMDL
MODEL 4
REMARK VINA RESULT:      -3.4      0.491      1.859
REMARK  0 active torsions:
REMARK  status: ('A' for Active; 'I' for Inactive)
ROOT
HETATM    1  C1  UNL     1     -34.412   5.328   3.465  1.00 20.00     0.134 C 
HETATM    2  C2  UNL     1     -33.350   6.389   5.346  1.00 20.00     0.134 C 
HETATM    3  C3  UNL     1     -35.522   4.850   4.397  1.00 20.00     0.183 C 
HETATM    4  C4  UNL     1     -34.485   5.886   6.233  1.00 20.00     0.183 C 
HETATM    5  N5  UNL     1     -33.830   6.575   3.972  1.00 20.00    -0.224 NA
HETATM    6  O6  UNL     1     -35.015   4.664   5.719  1.00 20.00    -0.389 OA
HETATM    7 CL7  UNL     1     -32.562   7.193   2.908  1.00 20.00    -0.022 Cl
ENDROOT
TORSDOF 0
ENDMDL
MODEL 5
REMARK VINA RESULT:      -3.2     12.179     12.320
REMARK  0 active torsions:
REMARK  status: ('A' for Active; 'I' for Inactive)
ROOT
HETATM    1  C1  UNL     1     -33.428  14.244  -3.535  1.00 20.00     0.134 C 
HETATM    2  C2  UNL     1     -35.673  15.038  -3.187  1.00 20.00     0.134 C 
HETATM    3  C3  UNL     1     -33.963  13.281  -4.592  1.00 20.00     0.183 C 
HETATM    4  C4  UNL     1     -36.155  14.057  -4.252  1.00 20.00     0.183 C 
HETATM    5  N5  UNL     1     -34.286  15.431  -3.455  1.00 20.00    -0.224 NA
HETATM    6  O6  UNL     1     -35.308  12.908  -4.290  1.00 20.00    -0.389 OA
HETATM    7 CL7  UNL     1     -33.690  16.599  -2.270  1.00 20.00    -0.022 Cl
ENDROOT
TORSDOF 0
ENDMDL
MODEL 6
REMARK VINA RESULT:      -3.1     12.665     13.249
REMARK  0 active torsions:
REMARK  status: ('A' for Active; 'I' for Inactive)
ROOT
HETATM    1  C1  UNL     1     -34.446  14.889  -6.036  1.00 20.00     0.134 C 
HETATM    2  C2  UNL     1     -33.373  14.883  -3.881  1.00 20.00     0.134 C 
HETATM    3  C3  UNL     1     -35.193  13.620  -5.636  1.00 20.00     0.183 C 
HETATM    4  C4  UNL     1     -34.146  13.614  -3.532  1.00 20.00     0.183 C 
HETATM    5  N5  UNL     1     -34.133  15.686  -4.845  1.00 20.00    -0.224 NA
HETATM    6  O6  UNL     1     -34.418  12.856  -4.711  1.00 20.00    -0.389 OA
HETATM    7 CL7  UNL     1     -33.298  17.189  -5.256  1.00 20.00    -0.022 Cl
ENDROOT
TORSDOF 0
ENDMDL
MODEL 7
REMARK VINA RESULT:      -3.1     12.837     13.368
REMARK  0 active torsions:
REMARK  status: ('A' for Active; 'I' for Inactive)
ROOT
HETATM    1  C1  UNL     1     -34.610  14.787  -3.121  1.00 20.00     0.134 C 
HETATM    2  C2  UNL     1     -33.837  17.014  -3.603  1.00 20.00     0.134 C 
HETATM    3  C3  UNL     1     -33.996  14.319  -4.437  1.00 20.00     0.183 C 
HETATM    4  C4  UNL     1     -33.242  16.494  -4.908  1.00 20.00     0.183 C 
HETATM    5  N5  UNL     1     -33.870  15.942  -2.602  1.00 20.00    -0.224 NA
HETATM    6  O6  UNL     1     -33.996  15.381  -5.391  1.00 20.00    -0.389 OA
HETATM    7 CL7  UNL     1     -34.518  16.503  -1.056  1.00 20.00    -0.022 Cl
ENDROOT
TORSDOF 0
ENDMDL
MODEL 8
REMARK VINA RESULT:      -3.1     12.479     12.520
REMARK  0 active torsions:
REMARK  status: ('A' for Active; 'I' for Inactive)
ROOT
HETATM    1  C1  UNL     1     -34.184  15.402  -3.036  1.00 20.00     0.134 C 
HETATM    2  C2  UNL     1     -35.775  13.991  -4.163  1.00 20.00     0.134 C 
HETATM    3  C3  UNL     1     -33.058  14.598  -3.678  1.00 20.00     0.183 C 
HETATM    4  C4  UNL     1     -34.611  13.220  -4.778  1.00 20.00     0.183 C 
HETATM    5  N5  UNL     1     -35.374  15.376  -3.893  1.00 20.00    -0.224 NA
HETATM    6  O6  UNL     1     -33.477  13.253  -3.910  1.00 20.00    -0.389 OA
HETATM    7 CL7  UNL     1     -36.700  16.326  -3.213  1.00 20.00    -0.022 Cl
ENDROOT
TORSDOF 0
ENDMDL
MODEL 9
REMARK VINA RESULT:      -3.1      9.254      9.752
REMARK  0 active torsions:
REMARK  status: ('A' for Active; 'I' for Inactive)
ROOT
HETATM    1  C1  UNL     1     -41.437   7.131  -0.941  1.00 20.00     0.134 C 
HETATM    2  C2  UNL     1     -42.117   5.348  -2.408  1.00 20.00     0.134 C 
HETATM    3  C3  UNL     1     -40.689   6.109  -0.091  1.00 20.00     0.183 C 
HETATM    4  C4  UNL     1     -41.352   4.368  -1.523  1.00 20.00     0.183 C 
HETATM    5  N5  UNL     1     -41.501   6.677  -2.335  1.00 20.00    -0.224 NA
HETATM    6  O6  UNL     1     -41.324   4.833  -0.173  1.00 20.00    -0.389 OA
HETATM    7 CL7  UNL     1     -42.327   7.845  -3.373  1.00 20.00    -0.022 Cl
ENDROOT
TORSDOF 0
ENDMDL
