MODEL 1
REMARK VINA RESULT:      -3.6      0.000      0.000
REMARK  0 active torsions:
REMARK  status: ('A' for Active; 'I' for Inactive)
REMARK       I    between atoms: C2_2  and  N4_4 
ROOT
HETATM    1  C1  UNL     1     -33.194   6.311   3.635  1.00 20.00     0.166 C 
HETATM    2  C2  UNL     1     -34.215   5.701   5.473  1.00 20.00     0.240 C 
HETATM    3  C3  UNL     1     -35.096   4.630   6.031  1.00 20.00     0.119 C 
HETATM    4  N4  UNL     1     -33.884   5.513   4.149  1.00 20.00    -0.200 NA
HETATM    5  O5  UNL     1     -33.870   6.623   6.206  1.00 20.00    -0.272 OA
HETATM    6  S6  UNL     1     -32.258   7.376   2.907  1.00 20.00    -0.055 SA
ENDROOT
TORSDOF 0
ENDMDL
MODEL 2
REMARK VINA RESULT:      -3.4      1.484      1.484
REMARK  0 active torsions:
REMARK  status: ('A' for Active; 'I' for Inactive)
REMARK       I    between atoms: C2_2  and  N4_4 
ROOT
HETATM    1  C1  UNL     1     -32.913   6.613   3.812  1.00 20.00     0.166 C 
HETATM    2  C2  UNL     1     -34.590   5.384   4.498  1.00 20.00     0.240 C 
HETATM    3  C3  UNL     1     -35.075   4.607   5.679  1.00 20.00     0.119 C 
HETATM    4  N4  UNL     1     -33.364   5.983   4.694  1.00 20.00    -0.200 NA
HETATM    5  O5  UNL     1     -35.291   5.427   3.491  1.00 20.00    -0.272 OA
HETATM    6  S6  UNL     1     -32.270   7.476   2.637  1.00 20.00    -0.055 SA
ENDROOT
TORSDOF 0
ENDMDL
MODEL 3
REMARK VINA RESULT:      -3.2     12.098     12.314
REMARK  0 active torsions:
REMARK  status: ('A' for Active; 'I' for Inactive)
REMARK       I    between atoms: C2_2  and  N4_4 
ROOT
HETATM    1  C1  UNL     1     -36.580  14.815  -3.768  1.00 20.00     0.166 C 
HETATM    2  C2  UNL     1     -34.709  13.690  -3.926  1.00 20.00     0.240 C 
HETATM    3  C3  UNL     1     -33.240  13.805  -3.671  1.00 20.00     0.119 C 
HETATM    4  N4  UNL     1     -35.419  14.824  -3.598  1.00 20.00    -0.200 NA
HETATM    5  O5  UNL     1     -35.148  12.639  -4.384  1.00 20.00    -0.272 OA
HETATM    6  S6  UNL     1     -38.159  14.836  -3.986  1.00 20.00    -0.055 SA
ENDROOT
TORSDOF 0
ENDMDL
MODEL 4
REMARK VINA RESULT:      -3.2      2.628      3.578
REMARK  0 active torsions:
REMARK  status: ('A' for Active; 'I' for Inactive)
REMARK       I    between atoms: C2_2  and  N4_4 
ROOT
HETATM    1  C1  UNL     1     -34.216   5.854   4.606  1.00 20.00     0.166 C 
HETATM    2  C2  UNL     1     -32.653   6.591   3.261  1.00 20.00     0.240 C 
HETATM    3  C3  UNL     1     -32.245   7.798   2.479  1.00 20.00     0.119 C 
HETATM    4  N4  UNL     1     -33.826   6.757   3.965  1.00 20.00    -0.200 NA
HETATM    5  O5  UNL     1     -31.942   5.591   3.219  1.00 20.00    -0.272 OA
HETATM    6  S6  UNL     1     -34.774   4.650   5.487  1.00 20.00    -0.055 SA
ENDROOT
TORSDOF 0
ENDMDL
MODEL 5
REMARK VINA RESULT:      -2.8     12.173     12.229
REMARK  0 active torsions:
REMARK  status: ('A' for Active; 'I' for Inactive)
REMARK       I    between atoms: C2_2  and  N4_4 
ROOT
HETATM    1  C1  UNL     1     -34.635  15.830  -2.288  1.00 20.00     0.166 C 
HETATM    2  C2  UNL     1     -33.883  14.375  -3.742  1.00 20.00     0.240 C 
HETATM    3  C3  UNL     1     -34.344  13.350  -4.727  1.00 20.00     0.119 C 
HETATM    4  N4  UNL     1     -34.913  15.009  -3.080  1.00 20.00    -0.200 NA
HETATM    5  O5  UNL     1     -32.679  14.565  -3.606  1.00 20.00    -0.272 OA
HETATM    6  S6  UNL     1     -34.294  16.949  -1.207  1.00 20.00    -0.055 SA
ENDROOT
TORSDOF 0
ENDMDL
MODEL 6
REMARK VINA RESULT:      -2.7     12.177     12.263
REMARK  0 active torsions:
REMARK  status: ('A' for Active; 'I' for Inactive)
REMARK       I    between atoms: C2_2  and  N4_4 
ROOT
HETATM    1  C1  UNL     1     -34.379  14.322  -3.750  1.00 20.00     0.166 C 
HETATM    2  C2  UNL     1     -34.992  15.888  -2.349  1.00 20.00     0.240 C 
HETATM    3  C3  UNL     1     -34.516  16.655  -1.157  1.00 20.00     0.119 C 
HETATM    4  N4  UNL     1     -34.081  14.966  -2.815  1.00 20.00    -0.200 NA
HETATM    5  O5  UNL     1     -36.108  16.130  -2.799  1.00 20.00    -0.272 OA
HETATM    6  S6  UNL     1     -34.750  13.431  -5.017  1.00 20.00    -0.055 SA
ENDROOT
TORSDOF 0
ENDMDL
MODEL 7
REMARK VINA RESULT:      -2.7     10.592     10.690
REMARK  0 active torsions:
REMARK  status: ('A' for Active; 'I' for Inactive)
REMARK       I    between atoms: C2_2  and  N4_4 
ROOT
HETATM    1  C1  UNL     1     -42.281   4.003  -2.615  1.00 20.00     0.166 C 
HETATM    2  C2  UNL     1     -41.212   5.470  -1.391  1.00 20.00     0.240 C 
HETATM    3  C3  UNL     1     -41.169   6.930  -1.072  1.00 20.00     0.119 C 
HETATM    4  N4  UNL     1     -42.182   5.132  -2.310  1.00 20.00    -0.200 NA
HETATM    5  O5  UNL     1     -40.417   4.720  -0.833  1.00 20.00    -0.272 OA
HETATM    6  S6  UNL     1     -42.444   2.479  -3.051  1.00 20.00    -0.055 SA
ENDROOT
TORSDOF 0
ENDMDL
MODEL 8
REMARK VINA RESULT:      -2.7     10.905     10.958
REMARK  0 active torsions:
REMARK  status: ('A' for Active; 'I' for Inactive)
REMARK       I    between atoms: C2_2  and  N4_4 
ROOT
HETATM    1  C1  UNL     1     -41.993   7.279  -2.841  1.00 20.00     0.166 C 
HETATM    2  C2  UNL     1     -41.602   5.304  -1.979  1.00 20.00     0.240 C 
HETATM    3  C3  UNL     1     -40.772   4.613  -0.946  1.00 20.00     0.119 C 
HETATM    4  N4  UNL     1     -41.379   6.662  -2.053  1.00 20.00    -0.200 NA
HETATM    5  O5  UNL     1     -42.384   4.638  -2.651  1.00 20.00    -0.272 OA
HETATM    6  S6  UNL     1     -42.809   8.147  -3.899  1.00 20.00    -0.055 SA
ENDROOT
TORSDOF 0
ENDMDL
MODEL 9
REMARK VINA RESULT:      -2.6     12.359     12.406
REMARK  0 active torsions:
REMARK  status: ('A' for Active; 'I' for Inactive)
REMARK       I    between atoms: C2_2  and  N4_4 
ROOT
HETATM    1  C1  UNL     1     -35.250  14.608  -3.986  1.00 20.00     0.166 C 
HETATM    2  C2  UNL     1     -34.385  15.858  -2.411  1.00 20.00     0.240 C 
HETATM    3  C3  UNL     1     -34.721  16.514  -1.110  1.00 20.00     0.119 C 
HETATM    4  N4  UNL     1     -35.433  15.153  -2.963  1.00 20.00    -0.200 NA
HETATM    5  O5  UNL     1     -33.253  15.992  -2.865  1.00 20.00    -0.272 OA
HETATM    6  S6  UNL     1     -35.038  13.855  -5.374  1.00 20.00    -0.055 SA
ENDROOT
TORSDOF 0
ENDMDL
