MODEL 1
REMARK VINA RESULT:      -3.9      0.000      0.000
REMARK  1 active torsions:
REMARK  status: ('A' for Active; 'I' for Inactive)
REMARK    1  A    between atoms: C2_2  and  C7_7 
ROOT
HETATM    1  C1  UNL     1     -32.685   6.624   3.592  1.00 20.00    -0.110 C 
HETATM    2  C2  UNL     1     -33.512   6.003   4.204  1.00 20.00    -0.098 C 
HETATM    3  C3  UNL     1     -31.678   7.379   2.850  1.00 20.00     0.112 C 
ENDROOT
BRANCH   2   4
HETATM    4  C7  UNL     1     -34.533   5.238   4.955  1.00 20.00     0.013 C 
HETATM    5  C4  UNL     1     -34.663   5.818   6.371  1.00 20.00     0.028 C 
HETATM    6  C5  UNL     1     -34.105   3.766   5.041  1.00 20.00     0.028 C 
HETATM    7  C6  UNL     1     -35.883   5.339   4.232  1.00 20.00     0.028 C 
ENDBRANCH   2   4
TORSDOF 1
ENDMDL
MODEL 2
REMARK VINA RESULT:      -3.9      0.005      1.641
REMARK  1 active torsions:
REMARK  status: ('A' for Active; 'I' for Inactive)
REMARK    1  A    between atoms: C2_2  and  C7_7 
ROOT
HETATM    1  C1  UNL     1     -32.684   6.623   3.592  1.00 20.00    -0.110 C 
HETATM    2  C2  UNL     1     -33.513   6.002   4.201  1.00 20.00    -0.098 C 
HETATM    3  C3  UNL     1     -31.676   7.379   2.851  1.00 20.00     0.112 C 
ENDROOT
BRANCH   2   4
HETATM    4  C7  UNL     1     -34.534   5.238   4.951  1.00 20.00     0.013 C 
HETATM    5  C4  UNL     1     -35.884   5.346   4.227  1.00 20.00     0.028 C 
HETATM    6  C5  UNL     1     -34.665   5.816   6.368  1.00 20.00     0.028 C 
HETATM    7  C6  UNL     1     -34.112   3.765   5.035  1.00 20.00     0.028 C 
ENDBRANCH   2   4
TORSDOF 1
ENDMDL
MODEL 3
REMARK VINA RESULT:      -3.9      0.003      1.642
REMARK  1 active torsions:
REMARK  status: ('A' for Active; 'I' for Inactive)
REMARK    1  A    between atoms: C2_2  and  C7_7 
ROOT
HETATM    1  C1  UNL     1     -32.686   6.624   3.594  1.00 20.00    -0.110 C 
HETATM    2  C2  UNL     1     -33.513   6.001   4.205  1.00 20.00    -0.098 C 
HETATM    3  C3  UNL     1     -31.679   7.380   2.852  1.00 20.00     0.112 C 
ENDROOT
BRANCH   2   4
HETATM    4  C7  UNL     1     -34.532   5.237   4.957  1.00 20.00     0.013 C 
HETATM    5  C4  UNL     1     -34.106   3.764   5.040  1.00 20.00     0.028 C 
HETATM    6  C5  UNL     1     -35.883   5.340   4.234  1.00 20.00     0.028 C 
HETATM    7  C6  UNL     1     -34.663   5.814   6.373  1.00 20.00     0.028 C 
ENDBRANCH   2   4
TORSDOF 1
ENDMDL
MODEL 4
REMARK VINA RESULT:      -3.8     11.603     12.536
REMARK  1 active torsions:
REMARK  status: ('A' for Active; 'I' for Inactive)
REMARK    1  A    between atoms: C2_2  and  C7_7 
ROOT
HETATM    1  C1  UNL     1     -34.609  16.190  -1.642  1.00 20.00    -0.110 C 
HETATM    2  C2  UNL     1     -34.549  15.548  -2.655  1.00 20.00    -0.098 C 
HETATM    3  C3  UNL     1     -34.683  16.973  -0.410  1.00 20.00     0.112 C 
ENDROOT
BRANCH   2   4
HETATM    4  C7  UNL     1     -34.473  14.756  -3.903  1.00 20.00     0.013 C 
HETATM    5  C4  UNL     1     -33.393  13.674  -3.755  1.00 20.00     0.028 C 
HETATM    6  C5  UNL     1     -34.114  15.682  -5.074  1.00 20.00     0.028 C 
HETATM    7  C6  UNL     1     -35.831  14.093  -4.171  1.00 20.00     0.028 C 
ENDBRANCH   2   4
TORSDOF 1
ENDMDL
MODEL 5
REMARK VINA RESULT:      -3.8     11.602     12.565
REMARK  1 active torsions:
REMARK  status: ('A' for Active; 'I' for Inactive)
REMARK    1  A    between atoms: C2_2  and  C7_7 
ROOT
HETATM    1  C1  UNL     1     -34.608  16.190  -1.641  1.00 20.00    -0.110 C 
HETATM    2  C2  UNL     1     -34.546  15.547  -2.654  1.00 20.00    -0.098 C 
HETATM    3  C3  UNL     1     -34.683  16.972  -0.409  1.00 20.00     0.112 C 
ENDROOT
BRANCH   2   4
HETATM    4  C7  UNL     1     -34.471  14.756  -3.903  1.00 20.00     0.013 C 
HETATM    5  C4  UNL     1     -34.113  15.684  -5.073  1.00 20.00     0.028 C 
HETATM    6  C5  UNL     1     -35.832  14.096  -4.170  1.00 20.00     0.028 C 
HETATM    7  C6  UNL     1     -33.395  13.672  -3.757  1.00 20.00     0.028 C 
ENDBRANCH   2   4
TORSDOF 1
ENDMDL
MODEL 6
REMARK VINA RESULT:      -3.4      1.527      2.603
REMARK  1 active torsions:
REMARK  status: ('A' for Active; 'I' for Inactive)
REMARK    1  A    between atoms: C2_2  and  C7_7 
ROOT
HETATM    1  C1  UNL     1     -33.831   6.804   6.225  1.00 20.00    -0.110 C 
HETATM    2  C2  UNL     1     -34.225   6.120   5.319  1.00 20.00    -0.098 C 
HETATM    3  C3  UNL     1     -33.353   7.637   7.327  1.00 20.00     0.112 C 
ENDROOT
BRANCH   2   4
HETATM    4  C7  UNL     1     -34.708   5.277   4.203  1.00 20.00     0.013 C 
HETATM    5  C4  UNL     1     -34.870   3.830   4.690  1.00 20.00     0.028 C 
HETATM    6  C5  UNL     1     -33.689   5.320   3.054  1.00 20.00     0.028 C 
HETATM    7  C6  UNL     1     -36.060   5.809   3.709  1.00 20.00     0.028 C 
ENDBRANCH   2   4
TORSDOF 1
ENDMDL
MODEL 7
REMARK VINA RESULT:      -3.3      8.611     10.534
REMARK  1 active torsions:
REMARK  status: ('A' for Active; 'I' for Inactive)
REMARK    1  A    between atoms: C2_2  and  C7_7 
ROOT
HETATM    1  C1  UNL     1     -41.749   3.570  -2.520  1.00 20.00    -0.110 C 
HETATM    2  C2  UNL     1     -41.797   4.617  -1.933  1.00 20.00    -0.098 C 
HETATM    3  C3  UNL     1     -41.692   2.297  -3.236  1.00 20.00     0.112 C 
ENDROOT
BRANCH   2   4
HETATM    4  C7  UNL     1     -41.856   5.906  -1.208  1.00 20.00     0.013 C 
HETATM    5  C4  UNL     1     -43.202   6.019  -0.478  1.00 20.00     0.028 C 
HETATM    6  C5  UNL     1     -41.719   7.061  -2.211  1.00 20.00     0.028 C 
HETATM    7  C6  UNL     1     -40.710   5.973  -0.189  1.00 20.00     0.028 C 
ENDBRANCH   2   4
TORSDOF 1
ENDMDL
MODEL 8
REMARK VINA RESULT:      -3.3      8.548     10.423
REMARK  1 active torsions:
REMARK  status: ('A' for Active; 'I' for Inactive)
REMARK    1  A    between atoms: C2_2  and  C7_7 
ROOT
HETATM    1  C1  UNL     1     -41.738   3.655  -2.471  1.00 20.00    -0.110 C 
HETATM    2  C2  UNL     1     -41.786   4.692  -1.865  1.00 20.00    -0.098 C 
HETATM    3  C3  UNL     1     -41.680   2.395  -3.209  1.00 20.00     0.112 C 
ENDROOT
BRANCH   2   4
HETATM    4  C7  UNL     1     -41.846   5.967  -1.117  1.00 20.00     0.013 C 
HETATM    5  C4  UNL     1     -41.766   7.141  -2.104  1.00 20.00     0.028 C 
HETATM    6  C5  UNL     1     -40.665   6.040  -0.138  1.00 20.00     0.028 C 
HETATM    7  C6  UNL     1     -43.165   6.041  -0.336  1.00 20.00     0.028 C 
ENDBRANCH   2   4
TORSDOF 1
ENDMDL
MODEL 9
REMARK VINA RESULT:      -3.3      8.570     10.438
REMARK  1 active torsions:
REMARK  status: ('A' for Active; 'I' for Inactive)
REMARK    1  A    between atoms: C2_2  and  C7_7 
ROOT
HETATM    1  C1  UNL     1     -41.746   3.650  -2.486  1.00 20.00    -0.110 C 
HETATM    2  C2  UNL     1     -41.795   4.689  -1.884  1.00 20.00    -0.098 C 
HETATM    3  C3  UNL     1     -41.688   2.385  -3.216  1.00 20.00     0.112 C 
ENDROOT
BRANCH   2   4
HETATM    4  C7  UNL     1     -41.853   5.970  -1.145  1.00 20.00     0.013 C 
HETATM    5  C4  UNL     1     -40.675   6.045  -0.163  1.00 20.00     0.028 C 
HETATM    6  C5  UNL     1     -43.175   6.049  -0.368  1.00 20.00     0.028 C 
HETATM    7  C6  UNL     1     -41.771   7.137  -2.138  1.00 20.00     0.028 C 
ENDBRANCH   2   4
TORSDOF 1
ENDMDL
