MODEL 1
REMARK VINA RESULT:      -3.8      0.000      0.000
REMARK  2 active torsions:
REMARK  status: ('A' for Active; 'I' for Inactive)
REMARK    1  A    between atoms: C1_1  and  C3_3 
REMARK    2  A    between atoms: C2_2  and  C3_3 
ROOT
HETATM    1  C3  UNL     1     -33.902   5.580   4.911  1.00 20.00     0.139 C 
HETATM    2 CL6  UNL     1     -34.048   6.573   6.394  1.00 20.00    -0.120 Cl
ENDROOT
BRANCH   1   3
HETATM    3  C1  UNL     1     -35.241   4.929   4.600  1.00 20.00     0.244 C 
HETATM    4  F4  UNL     1     -35.178   3.597   4.865  1.00 20.00    -0.254 F 
ENDBRANCH   1   3
BRANCH   1   5
HETATM    5  C2  UNL     1     -33.416   6.454   3.766  1.00 20.00     0.244 C 
HETATM    6  F5  UNL     1     -32.262   5.934   3.265  1.00 20.00    -0.254 F 
ENDBRANCH   1   5
TORSDOF 2
ENDMDL
MODEL 2
REMARK VINA RESULT:      -3.7      2.125      2.751
REMARK  2 active torsions:
REMARK  status: ('A' for Active; 'I' for Inactive)
REMARK    1  A    between atoms: C1_1  and  C3_3 
REMARK    2  A    between atoms: C2_2  and  C3_3 
ROOT
HETATM    1  C3  UNL     1     -33.862   5.624   4.761  1.00 20.00     0.139 C 
HETATM    2 CL6  UNL     1     -33.225   6.686   3.467  1.00 20.00    -0.120 Cl
ENDROOT
BRANCH   1   3
HETATM    3  C1  UNL     1     -34.006   6.421   6.048  1.00 20.00     0.244 C 
HETATM    4  F4  UNL     1     -34.931   5.832   6.853  1.00 20.00    -0.254 F 
ENDBRANCH   1   3
BRANCH   1   5
HETATM    5  C2  UNL     1     -35.185   5.023   4.315  1.00 20.00     0.244 C 
HETATM    6  F5  UNL     1     -35.236   3.718   4.698  1.00 20.00    -0.254 F 
ENDBRANCH   1   5
TORSDOF 2
ENDMDL
MODEL 3
REMARK VINA RESULT:      -3.7      1.834      3.178
REMARK  2 active torsions:
REMARK  status: ('A' for Active; 'I' for Inactive)
REMARK    1  A    between atoms: C1_1  and  C3_3 
REMARK    2  A    between atoms: C2_2  and  C3_3 
ROOT
HETATM    1  C3  UNL     1     -33.881   5.687   4.572  1.00 20.00     0.139 C 
HETATM    2 CL6  UNL     1     -35.482   5.447   3.808  1.00 20.00    -0.120 Cl
ENDROOT
BRANCH   1   3
HETATM    3  C1  UNL     1     -33.002   6.527   3.659  1.00 20.00     0.244 C 
HETATM    4  F4  UNL     1     -31.921   5.803   3.265  1.00 20.00    -0.254 F 
ENDBRANCH   1   3
BRANCH   1   5
HETATM    5  C2  UNL     1     -34.064   6.335   5.935  1.00 20.00     0.244 C 
HETATM    6  F5  UNL     1     -34.919   5.580   6.677  1.00 20.00    -0.254 F 
ENDBRANCH   1   5
TORSDOF 2
ENDMDL
MODEL 4
REMARK VINA RESULT:      -3.7      2.365      2.459
REMARK  2 active torsions:
REMARK  status: ('A' for Active; 'I' for Inactive)
REMARK    1  A    between atoms: C1_1  and  C3_3 
REMARK    2  A    between atoms: C2_2  and  C3_3 
ROOT
HETATM    1  C3  UNL     1     -34.125   5.200   4.901  1.00 20.00     0.139 C 
HETATM    2 CL6  UNL     1     -35.116   4.133   5.943  1.00 20.00    -0.120 Cl
ENDROOT
BRANCH   1   3
HETATM    3  C1  UNL     1     -34.841   5.429   3.579  1.00 20.00     0.244 C 
HETATM    4  F4  UNL     1     -36.185   5.459   3.783  1.00 20.00    -0.254 F 
ENDBRANCH   1   3
BRANCH   1   5
HETATM    5  C2  UNL     1     -33.851   6.505   5.632  1.00 20.00     0.244 C 
HETATM    6  F5  UNL     1     -34.488   6.486   6.834  1.00 20.00    -0.254 F 
ENDBRANCH   1   5
TORSDOF 2
ENDMDL
MODEL 5
REMARK VINA RESULT:      -3.7      1.013      2.749
REMARK  2 active torsions:
REMARK  status: ('A' for Active; 'I' for Inactive)
REMARK    1  A    between atoms: C1_1  and  C3_3 
REMARK    2  A    between atoms: C2_2  and  C3_3 
ROOT
HETATM    1  C3  UNL     1     -34.504   5.948   4.810  1.00 20.00     0.139 C 
HETATM    2 CL6  UNL     1     -33.978   6.544   6.414  1.00 20.00    -0.120 Cl
ENDROOT
BRANCH   1   3
HETATM    3  C1  UNL     1     -33.343   6.026   3.832  1.00 20.00     0.244 C 
HETATM    4  F4  UNL     1     -33.712   5.495   2.635  1.00 20.00    -0.254 F 
ENDBRANCH   1   3
BRANCH   1   5
HETATM    5  C2  UNL     1     -35.035   4.530   4.949  1.00 20.00     0.244 C 
HETATM    6  F5  UNL     1     -35.317   4.284   6.258  1.00 20.00    -0.254 F 
ENDBRANCH   1   5
TORSDOF 2
ENDMDL
MODEL 6
REMARK VINA RESULT:      -3.6      2.154      2.343
REMARK  2 active torsions:
REMARK  status: ('A' for Active; 'I' for Inactive)
REMARK    1  A    between atoms: C1_1  and  C3_3 
REMARK    2  A    between atoms: C2_2  and  C3_3 
ROOT
HETATM    1  C3  UNL     1     -34.523   5.946   4.846  1.00 20.00     0.139 C 
HETATM    2 CL6  UNL     1     -33.022   6.189   3.901  1.00 20.00    -0.120 Cl
ENDROOT
BRANCH   1   3
HETATM    3  C1  UNL     1     -35.223   4.680   4.376  1.00 20.00     0.244 C 
HETATM    4  F4  UNL     1     -35.054   3.692   5.294  1.00 20.00    -0.254 F 
ENDBRANCH   1   3
BRANCH   1   5
HETATM    5  C2  UNL     1     -34.183   5.888   6.327  1.00 20.00     0.244 C 
HETATM    6  F5  UNL     1     -34.047   7.155   6.804  1.00 20.00    -0.254 F 
ENDBRANCH   1   5
TORSDOF 2
ENDMDL
MODEL 7
REMARK VINA RESULT:      -3.6      1.078      2.798
REMARK  2 active torsions:
REMARK  status: ('A' for Active; 'I' for Inactive)
REMARK    1  A    between atoms: C1_1  and  C3_3 
REMARK    2  A    between atoms: C2_2  and  C3_3 
ROOT
HETATM    1  C3  UNL     1     -34.000   6.501   4.196  1.00 20.00     0.139 C 
HETATM    2 CL6  UNL     1     -33.995   6.350   5.980  1.00 20.00    -0.120 Cl
ENDROOT
BRANCH   1   3
HETATM    3  C1  UNL     1     -32.570   6.605   3.690  1.00 20.00     0.244 C 
HETATM    4  F4  UNL     1     -32.342   5.647   2.752  1.00 20.00    -0.254 F 
ENDBRANCH   1   3
BRANCH   1   5
HETATM    5  C2  UNL     1     -34.730   5.312   3.592  1.00 20.00     0.244 C 
HETATM    6  F5  UNL     1     -35.880   5.094   4.286  1.00 20.00    -0.254 F 
ENDBRANCH   1   5
TORSDOF 2
ENDMDL
MODEL 8
REMARK VINA RESULT:      -3.6      2.384      2.504
REMARK  2 active torsions:
REMARK  status: ('A' for Active; 'I' for Inactive)
REMARK    1  A    between atoms: C1_1  and  C3_3 
REMARK    2  A    between atoms: C2_2  and  C3_3 
ROOT
HETATM    1  C3  UNL     1     -34.692   5.650   5.051  1.00 20.00     0.139 C 
HETATM    2 CL6  UNL     1     -35.102   3.923   4.816  1.00 20.00    -0.120 Cl
ENDROOT
BRANCH   1   3
HETATM    3  C1  UNL     1     -34.258   5.878   6.491  1.00 20.00     0.244 C 
HETATM    4  F4  UNL     1     -34.091   7.209   6.716  1.00 20.00    -0.254 F 
ENDBRANCH   1   3
BRANCH   1   5
HETATM    5  C2  UNL     1     -33.609   6.050   4.062  1.00 20.00     0.244 C 
HETATM    6  F5  UNL     1     -33.869   5.474   2.857  1.00 20.00    -0.254 F 
ENDBRANCH   1   5
TORSDOF 2
ENDMDL
MODEL 9
REMARK VINA RESULT:      -3.6      1.965      2.113
REMARK  2 active torsions:
REMARK  status: ('A' for Active; 'I' for Inactive)
REMARK    1  A    between atoms: C1_1  and  C3_3 
REMARK    2  A    between atoms: C2_2  and  C3_3 
ROOT
HETATM    1  C3  UNL     1     -34.340   6.113   4.561  1.00 20.00     0.139 C 
HETATM    2 CL6  UNL     1     -35.167   4.527   4.486  1.00 20.00    -0.120 Cl
ENDROOT
BRANCH   1   3
HETATM    3  C1  UNL     1     -33.920   6.401   5.993  1.00 20.00     0.244 C 
HETATM    4  F4  UNL     1     -34.838   5.889   6.855  1.00 20.00    -0.254 F 
ENDBRANCH   1   3
BRANCH   1   5
HETATM    5  C2  UNL     1     -33.152   6.107   3.612  1.00 20.00     0.244 C 
HETATM    6  F5  UNL     1     -32.201   6.960   4.081  1.00 20.00    -0.254 F 
ENDBRANCH   1   5
TORSDOF 2
ENDMDL
