MODEL 1
REMARK VINA RESULT:      -4.7      0.000      0.000
REMARK  2 active torsions:
REMARK  status: ('A' for Active; 'I' for Inactive)
REMARK    1  A    between atoms: C5_5  and  C7_7 
REMARK    2  A    between atoms: C6_6  and  O10_10 
ROOT
HETATM    1  C1  UNL     1     -33.575  14.039  -3.951  1.00 20.00     0.006 A 
HETATM    2  C2  UNL     1     -35.949  14.798  -4.304  1.00 20.00     0.006 A 
HETATM    3  C3  UNL     1     -33.330  15.136  -3.219  1.00 20.00    -0.008 A 
HETATM    4  C4  UNL     1     -35.710  15.896  -3.572  1.00 20.00    -0.008 A 
HETATM    5  C6  UNL     1     -34.909  13.748  -4.574  1.00 20.00     0.163 A 
HETATM    6  C7  UNL     1     -34.378  16.177  -2.924  1.00 20.00     0.044 A 
HETATM    7  C8  UNL     1     -34.544  16.360  -1.414  1.00 20.00     0.031 C 
ENDROOT
BRANCH   6   8
HETATM    8  C5  UNL     1     -33.879  17.450  -3.551  1.00 20.00     0.248 C 
HETATM    9  O9  UNL     1     -33.437  17.514  -4.693  1.00 20.00    -0.305 OA
ENDBRANCH   6   8
BRANCH   5  10
HETATM   10  O10 UNL     1     -35.366  12.494  -4.075  1.00 20.00    -0.388 OA
HETATM   11  H20 UNL     1     -34.624  12.102  -3.589  1.00 20.00     0.210 HD
ENDBRANCH   5  10
TORSDOF 2
ENDMDL
MODEL 2
REMARK VINA RESULT:      -4.6      1.819      3.602
REMARK  2 active torsions:
REMARK  status: ('A' for Active; 'I' for Inactive)
REMARK    1  A    between atoms: C5_5  and  C7_7 
REMARK    2  A    between atoms: C6_6  and  O10_10 
ROOT
HETATM    1  C1  UNL     1     -33.732  13.768  -3.794  1.00 20.00     0.006 A 
HETATM    2  C2  UNL     1     -33.763  16.234  -4.299  1.00 20.00     0.006 A 
HETATM    3  C3  UNL     1     -34.813  13.593  -4.568  1.00 20.00    -0.008 A 
HETATM    4  C4  UNL     1     -34.844  16.064  -5.074  1.00 20.00    -0.008 A 
HETATM    5  C6  UNL     1     -33.087  15.105  -3.573  1.00 20.00     0.163 A 
HETATM    6  C7  UNL     1     -35.477  14.718  -5.318  1.00 20.00     0.044 A 
HETATM    7  C8  UNL     1     -35.525  14.411  -6.816  1.00 20.00     0.031 C 
ENDROOT
BRANCH   6   8
HETATM    8  C5  UNL     1     -36.871  14.815  -4.761  1.00 20.00     0.248 C 
HETATM    9  O9  UNL     1     -37.288  14.102  -3.855  1.00 20.00    -0.305 OA
ENDBRANCH   6   8
BRANCH   5  10
HETATM   10  O10 UNL     1     -31.730  15.018  -4.000  1.00 20.00    -0.388 OA
HETATM   11  H20 UNL     1     -31.183  15.205  -3.221  1.00 20.00     0.210 HD
ENDBRANCH   5  10
TORSDOF 2
ENDMDL
MODEL 3
REMARK VINA RESULT:      -4.5      1.451      2.410
REMARK  2 active torsions:
REMARK  status: ('A' for Active; 'I' for Inactive)
REMARK    1  A    between atoms: C5_5  and  C7_7 
REMARK    2  A    between atoms: C6_6  and  O10_10 
ROOT
HETATM    1  C1  UNL     1     -35.755  14.483  -3.782  1.00 20.00     0.006 A 
HETATM    2  C2  UNL     1     -33.329  13.813  -3.765  1.00 20.00     0.006 A 
HETATM    3  C3  UNL     1     -35.409  15.751  -3.515  1.00 20.00    -0.008 A 
HETATM    4  C4  UNL     1     -32.977  15.080  -3.499  1.00 20.00    -0.008 A 
HETATM    5  C6  UNL     1     -34.755  13.375  -3.937  1.00 20.00     0.163 A 
HETATM    6  C7  UNL     1     -33.978  16.199  -3.369  1.00 20.00     0.044 A 
HETATM    7  C8  UNL     1     -33.662  17.320  -4.362  1.00 20.00     0.031 C 
ENDROOT
BRANCH   6   8
HETATM    8  C5  UNL     1     -33.848  16.703  -1.958  1.00 20.00     0.248 C 
HETATM    9  O9  UNL     1     -34.582  16.346  -1.042  1.00 20.00    -0.305 OA
ENDBRANCH   6   8
BRANCH   5  10
HETATM   10  O10 UNL     1     -34.920  12.807  -5.234  1.00 20.00    -0.388 OA
HETATM   11  H20 UNL     1     -35.200  13.529  -5.818  1.00 20.00     0.210 HD
ENDBRANCH   5  10
TORSDOF 2
ENDMDL
MODEL 4
REMARK VINA RESULT:      -4.2      1.341      3.709
REMARK  2 active torsions:
REMARK  status: ('A' for Active; 'I' for Inactive)
REMARK    1  A    between atoms: C5_5  and  C7_7 
REMARK    2  A    between atoms: C6_6  and  O10_10 
ROOT
HETATM    1  C1  UNL     1     -33.268  16.377  -4.412  1.00 20.00     0.006 A 
HETATM    2  C2  UNL     1     -34.851  15.690  -2.580  1.00 20.00     0.006 A 
HETATM    3  C3  UNL     1     -33.987  15.677  -5.301  1.00 20.00    -0.008 A 
HETATM    4  C4  UNL     1     -35.575  14.988  -3.465  1.00 20.00    -0.008 A 
HETATM    5  C6  UNL     1     -33.618  16.462  -2.956  1.00 20.00     0.163 A 
HETATM    6  C7  UNL     1     -35.240  14.924  -4.933  1.00 20.00     0.044 A 
HETATM    7  C8  UNL     1     -36.423  15.404  -5.776  1.00 20.00     0.031 C 
ENDROOT
BRANCH   6   8
HETATM    8  C5  UNL     1     -34.947  13.477  -5.223  1.00 20.00     0.248 C 
HETATM    9  O9  UNL     1     -34.965  12.599  -4.367  1.00 20.00    -0.305 OA
ENDBRANCH   6   8
BRANCH   5  10
HETATM   10  O10 UNL     1     -33.804  17.835  -2.624  1.00 20.00    -0.388 OA
HETATM   11  H20 UNL     1     -34.485  17.863  -1.933  1.00 20.00     0.210 HD
ENDBRANCH   5  10
TORSDOF 2
ENDMDL
MODEL 5
REMARK VINA RESULT:      -4.2      1.277      3.721
REMARK  2 active torsions:
REMARK  status: ('A' for Active; 'I' for Inactive)
REMARK    1  A    between atoms: C5_5  and  C7_7 
REMARK    2  A    between atoms: C6_6  and  O10_10 
ROOT
HETATM    1  C1  UNL     1     -34.051  16.118  -5.760  1.00 20.00     0.006 A 
HETATM    2  C2  UNL     1     -33.599  16.426  -3.303  1.00 20.00     0.006 A 
HETATM    3  C3  UNL     1     -34.927  15.143  -5.479  1.00 20.00    -0.008 A 
HETATM    4  C4  UNL     1     -34.475  15.451  -3.017  1.00 20.00    -0.008 A 
HETATM    5  C6  UNL     1     -33.290  16.868  -4.705  1.00 20.00     0.163 A 
HETATM    6  C7  UNL     1     -35.259  14.715  -4.073  1.00 20.00     0.044 A 
HETATM    7  C8  UNL     1     -36.761  14.843  -3.813  1.00 20.00     0.031 C 
ENDROOT
BRANCH   6   8
HETATM    8  C5  UNL     1     -34.833  13.276  -3.971  1.00 20.00     0.248 C 
HETATM    9  O9  UNL     1     -34.775  12.519  -4.933  1.00 20.00    -0.305 OA
ENDBRANCH   6   8
BRANCH   5  10
HETATM   10  O10 UNL     1     -33.595  18.253  -4.839  1.00 20.00    -0.388 OA
HETATM   11  H20 UNL     1     -34.273  18.453  -4.175  1.00 20.00     0.210 HD
ENDBRANCH   5  10
TORSDOF 2
ENDMDL
MODEL 6
REMARK VINA RESULT:      -4.2     11.410     12.387
REMARK  2 active torsions:
REMARK  status: ('A' for Active; 'I' for Inactive)
REMARK    1  A    between atoms: C5_5  and  C7_7 
REMARK    2  A    between atoms: C6_6  and  O10_10 
ROOT
HETATM    1  C1  UNL     1     -35.308   5.063   3.852  1.00 20.00     0.006 A 
HETATM    2  C2  UNL     1     -34.100   6.003   5.851  1.00 20.00     0.006 A 
HETATM    3  C3  UNL     1     -34.353   5.546   3.044  1.00 20.00    -0.008 A 
HETATM    4  C4  UNL     1     -33.141   6.488   5.047  1.00 20.00    -0.008 A 
HETATM    5  C6  UNL     1     -35.289   5.237   5.343  1.00 20.00     0.163 A 
HETATM    6  C7  UNL     1     -33.146   6.291   3.553  1.00 20.00     0.044 A 
HETATM    7  C8  UNL     1     -31.858   5.602   3.098  1.00 20.00     0.031 C 
ENDROOT
BRANCH   6   8
HETATM    8  C5  UNL     1     -33.236   7.670   2.959  1.00 20.00     0.248 C 
HETATM    9  O9  UNL     1     -32.344   8.177   2.287  1.00 20.00    -0.305 OA
ENDBRANCH   6   8
BRANCH   5  10
HETATM   10  O10 UNL     1     -35.304   3.944   5.940  1.00 20.00    -0.388 OA
HETATM   11  H20 UNL     1     -34.651   3.410   5.462  1.00 20.00     0.210 HD
ENDBRANCH   5  10
TORSDOF 2
ENDMDL
MODEL 7
REMARK VINA RESULT:      -4.1      1.497      2.392
REMARK  2 active torsions:
REMARK  status: ('A' for Active; 'I' for Inactive)
REMARK    1  A    between atoms: C5_5  and  C7_7 
REMARK    2  A    between atoms: C6_6  and  O10_10 
ROOT
HETATM    1  C1  UNL     1     -36.127  14.670  -5.348  1.00 20.00     0.006 A 
HETATM    2  C2  UNL     1     -36.100  15.548  -2.989  1.00 20.00     0.006 A 
HETATM    3  C3  UNL     1     -34.792  14.543  -5.319  1.00 20.00    -0.008 A 
HETATM    4  C4  UNL     1     -34.765  15.423  -2.954  1.00 20.00    -0.008 A 
HETATM    5  C6  UNL     1     -36.929  15.185  -4.188  1.00 20.00     0.163 A 
HETATM    6  C7  UNL     1     -33.961  14.881  -4.108  1.00 20.00     0.044 A 
HETATM    7  C8  UNL     1     -33.138  13.670  -3.666  1.00 20.00     0.031 C 
ENDROOT
BRANCH   6   8
HETATM    8  C5  UNL     1     -33.052  16.001  -4.535  1.00 20.00     0.248 C 
HETATM    9  O9  UNL     1     -33.376  16.865  -5.342  1.00 20.00    -0.305 OA
ENDBRANCH   6   8
BRANCH   5  10
HETATM   10  O10 UNL     1     -37.872  14.182  -3.822  1.00 20.00    -0.388 OA
HETATM   11  H20 UNL     1     -37.772  14.044  -2.867  1.00 20.00     0.210 HD
ENDBRANCH   5  10
TORSDOF 2
ENDMDL
MODEL 8
REMARK VINA RESULT:      -4.1      2.093      3.213
REMARK  2 active torsions:
REMARK  status: ('A' for Active; 'I' for Inactive)
REMARK    1  A    between atoms: C5_5  and  C7_7 
REMARK    2  A    between atoms: C6_6  and  O10_10 
ROOT
HETATM    1  C1  UNL     1     -34.840  13.432  -4.395  1.00 20.00     0.006 A 
HETATM    2  C2  UNL     1     -33.173  15.285  -4.040  1.00 20.00     0.006 A 
HETATM    3  C3  UNL     1     -35.371  14.104  -5.428  1.00 20.00    -0.008 A 
HETATM    4  C4  UNL     1     -33.700  15.961  -5.072  1.00 20.00    -0.008 A 
HETATM    5  C6  UNL     1     -33.684  13.946  -3.588  1.00 20.00     0.163 A 
HETATM    6  C7  UNL     1     -34.843  15.434  -5.901  1.00 20.00     0.044 A 
HETATM    7  C8  UNL     1     -34.448  15.361  -7.377  1.00 20.00     0.031 C 
ENDROOT
BRANCH   6   8
HETATM    8  C5  UNL     1     -35.970  16.412  -5.712  1.00 20.00     0.248 C 
HETATM    9  O9  UNL     1     -36.467  16.668  -4.620  1.00 20.00    -0.305 OA
ENDBRANCH   6   8
BRANCH   5  10
HETATM   10  O10 UNL     1     -32.631  12.990  -3.664  1.00 20.00    -0.388 OA
HETATM   11  H20 UNL     1     -32.864  12.272  -3.056  1.00 20.00     0.210 HD
ENDBRANCH   5  10
TORSDOF 2
ENDMDL
MODEL 9
REMARK VINA RESULT:      -4.1      2.112      3.203
REMARK  2 active torsions:
REMARK  status: ('A' for Active; 'I' for Inactive)
REMARK    1  A    between atoms: C5_5  and  C7_7 
REMARK    2  A    between atoms: C6_6  and  O10_10 
ROOT
HETATM    1  C1  UNL     1     -36.750  16.057  -4.643  1.00 20.00     0.006 A 
HETATM    2  C2  UNL     1     -35.397  14.053  -3.944  1.00 20.00     0.006 A 
HETATM    3  C3  UNL     1     -35.867  16.317  -5.618  1.00 20.00    -0.008 A 
HETATM    4  C4  UNL     1     -34.511  14.307  -4.919  1.00 20.00    -0.008 A 
HETATM    5  C6  UNL     1     -36.614  14.899  -3.699  1.00 20.00     0.163 A 
HETATM    6  C7  UNL     1     -34.660  15.455  -5.884  1.00 20.00     0.044 A 
HETATM    7  C8  UNL     1     -34.671  14.945  -7.327  1.00 20.00     0.031 C 
ENDROOT
BRANCH   6   8
HETATM    8  C5  UNL     1     -33.466  16.340  -5.655  1.00 20.00     0.248 C 
HETATM    9  O9  UNL     1     -32.755  16.272  -4.658  1.00 20.00    -0.305 OA
ENDBRANCH   6   8
BRANCH   5  10
HETATM   10  O10 UNL     1     -37.781  14.090  -3.819  1.00 20.00    -0.388 OA
HETATM   11  H20 UNL     1     -37.635  13.505  -4.579  1.00 20.00     0.210 HD
ENDBRANCH   5  10
TORSDOF 2
ENDMDL
