MODEL 1
REMARK VINA RESULT:      -4.3      0.000      0.000
REMARK  1 active torsions:
REMARK  status: ('A' for Active; 'I' for Inactive)
REMARK    1  A    between atoms: C1_1  and  C4_4 
ROOT
HETATM    1  C1  UNL     1     -34.153   5.702   4.110  1.00 20.00    -0.080 C 
HETATM    2  C2  UNL     1     -33.278   6.340   3.590  1.00 20.00    -0.106 C 
HETATM    3  C5  UNL     1     -32.215   7.118   2.957  1.00 20.00     0.112 C 
ENDROOT
BRANCH   1   4
HETATM    4  C4  UNL     1     -35.181   4.942   4.727  1.00 20.00     0.054 C 
HETATM    5  C3  UNL     1     -34.972   4.260   5.857  1.00 20.00     0.020 C 
ENDBRANCH   1   4
TORSDOF 1
ENDMDL
MODEL 2
REMARK VINA RESULT:      -3.9      0.661      3.552
REMARK  1 active torsions:
REMARK  status: ('A' for Active; 'I' for Inactive)
REMARK    1  A    between atoms: C1_1  and  C4_4 
ROOT
HETATM    1  C1  UNL     1     -33.677   5.882   4.109  1.00 20.00    -0.080 C 
HETATM    2  C2  UNL     1     -34.296   5.341   4.984  1.00 20.00    -0.106 C 
HETATM    3  C5  UNL     1     -35.050   4.683   6.049  1.00 20.00     0.112 C 
ENDROOT
BRANCH   1   4
HETATM    4  C4  UNL     1     -32.942   6.516   3.073  1.00 20.00     0.054 C 
HETATM    5  C3  UNL     1     -31.868   7.269   3.328  1.00 20.00     0.020 C 
ENDBRANCH   1   4
TORSDOF 1
ENDMDL
MODEL 3
REMARK VINA RESULT:      -3.9      0.707      3.769
REMARK  1 active torsions:
REMARK  status: ('A' for Active; 'I' for Inactive)
REMARK    1  A    between atoms: C1_1  and  C4_4 
ROOT
HETATM    1  C1  UNL     1     -33.150   6.340   3.687  1.00 20.00    -0.080 C 
HETATM    2  C2  UNL     1     -34.101   5.714   4.070  1.00 20.00    -0.106 C 
HETATM    3  C5  UNL     1     -35.260   4.954   4.536  1.00 20.00     0.112 C 
ENDROOT
BRANCH   1   4
HETATM    4  C4  UNL     1     -32.022   7.072   3.234  1.00 20.00     0.054 C 
HETATM    5  C3  UNL     1     -32.115   7.979   2.257  1.00 20.00     0.020 C 
ENDBRANCH   1   4
TORSDOF 1
ENDMDL
MODEL 4
REMARK VINA RESULT:      -3.7      0.842      1.034
REMARK  1 active torsions:
REMARK  status: ('A' for Active; 'I' for Inactive)
REMARK    1  A    between atoms: C1_1  and  C4_4 
ROOT
HETATM    1  C1  UNL     1     -33.446   6.254   4.106  1.00 20.00    -0.080 C 
HETATM    2  C2  UNL     1     -32.815   6.921   3.332  1.00 20.00    -0.106 C 
HETATM    3  C5  UNL     1     -32.045   7.732   2.390  1.00 20.00     0.112 C 
ENDROOT
BRANCH   1   4
HETATM    4  C4  UNL     1     -34.197   5.472   5.022  1.00 20.00     0.054 C 
HETATM    5  C3  UNL     1     -35.292   4.805   4.647  1.00 20.00     0.020 C 
ENDBRANCH   1   4
TORSDOF 1
ENDMDL
MODEL 5
REMARK VINA RESULT:      -3.5      1.299      2.444
REMARK  1 active torsions:
REMARK  status: ('A' for Active; 'I' for Inactive)
REMARK    1  A    between atoms: C1_1  and  C4_4 
ROOT
HETATM    1  C1  UNL     1     -32.624   7.066   2.963  1.00 20.00    -0.080 C 
HETATM    2  C2  UNL     1     -32.226   7.855   2.151  1.00 20.00    -0.106 C 
HETATM    3  C5  UNL     1     -31.741   8.815   1.160  1.00 20.00     0.112 C 
ENDROOT
BRANCH   1   4
HETATM    4  C4  UNL     1     -33.093   6.138   3.930  1.00 20.00     0.054 C 
HETATM    5  C3  UNL     1     -34.373   5.756   3.978  1.00 20.00     0.020 C 
ENDBRANCH   1   4
TORSDOF 1
ENDMDL
MODEL 6
REMARK VINA RESULT:      -3.4      2.506      2.701
REMARK  1 active torsions:
REMARK  status: ('A' for Active; 'I' for Inactive)
REMARK    1  A    between atoms: C1_1  and  C4_4 
ROOT
HETATM    1  C1  UNL     1     -34.472   5.497   6.259  1.00 20.00    -0.080 C 
HETATM    2  C2  UNL     1     -33.946   6.511   6.628  1.00 20.00    -0.106 C 
HETATM    3  C5  UNL     1     -33.303   7.745   7.076  1.00 20.00     0.112 C 
ENDROOT
BRANCH   1   4
HETATM    4  C4  UNL     1     -35.100   4.299   5.828  1.00 20.00     0.054 C 
HETATM    5  C3  UNL     1     -35.117   3.934   4.542  1.00 20.00     0.020 C 
ENDBRANCH   1   4
TORSDOF 1
ENDMDL
MODEL 7
REMARK VINA RESULT:      -3.2      1.923      2.353
REMARK  1 active torsions:
REMARK  status: ('A' for Active; 'I' for Inactive)
REMARK    1  A    between atoms: C1_1  and  C4_4 
ROOT
HETATM    1  C1  UNL     1     -34.275   5.806   5.012  1.00 20.00    -0.080 C 
HETATM    2  C2  UNL     1     -34.314   5.549   3.840  1.00 20.00    -0.106 C 
HETATM    3  C5  UNL     1     -34.364   5.236   2.413  1.00 20.00     0.112 C 
ENDROOT
BRANCH   1   4
HETATM    4  C4  UNL     1     -34.222   6.114   6.397  1.00 20.00     0.054 C 
HETATM    5  C3  UNL     1     -33.599   7.205   6.853  1.00 20.00     0.020 C 
ENDBRANCH   1   4
TORSDOF 1
ENDMDL
MODEL 8
REMARK VINA RESULT:      -3.1     11.679     12.146
REMARK  1 active torsions:
REMARK  status: ('A' for Active; 'I' for Inactive)
REMARK    1  A    between atoms: C1_1  and  C4_4 
ROOT
HETATM    1  C1  UNL     1     -34.400  15.429  -2.761  1.00 20.00    -0.080 C 
HETATM    2  C2  UNL     1     -34.673  14.490  -3.458  1.00 20.00    -0.106 C 
HETATM    3  C5  UNL     1     -35.008  13.347  -4.307  1.00 20.00     0.112 C 
ENDROOT
BRANCH   1   4
HETATM    4  C4  UNL     1     -34.069  16.535  -1.936  1.00 20.00     0.054 C 
HETATM    5  C3  UNL     1     -34.612  16.700  -0.727  1.00 20.00     0.020 C 
ENDBRANCH   1   4
TORSDOF 1
ENDMDL
MODEL 9
REMARK VINA RESULT:      -3.0     11.494     12.195
REMARK  1 active torsions:
REMARK  status: ('A' for Active; 'I' for Inactive)
REMARK    1  A    between atoms: C1_1  and  C4_4 
ROOT
HETATM    1  C1  UNL     1     -34.303  15.919  -2.170  1.00 20.00    -0.080 C 
HETATM    2  C2  UNL     1     -34.564  16.506  -1.155  1.00 20.00    -0.106 C 
HETATM    3  C5  UNL     1     -34.883  17.221   0.080  1.00 20.00     0.112 C 
ENDROOT
BRANCH   1   4
HETATM    4  C4  UNL     1     -33.990  15.221  -3.365  1.00 20.00     0.054 C 
HETATM    5  C3  UNL     1     -34.307  13.933  -3.533  1.00 20.00     0.020 C 
ENDBRANCH   1   4
TORSDOF 1
ENDMDL
