MODEL 1
REMARK VINA RESULT:      -5.7      0.000      0.000
REMARK  0 active torsions:
REMARK  status: ('A' for Active; 'I' for Inactive)
ROOT
HETATM    1  C1  UNL     1     -35.182   4.718   5.986  1.00 20.00     0.000 C 
HETATM    2  C2  UNL     1     -33.965   5.549   6.392  1.00 20.00     0.001 C 
HETATM    3  C3  UNL     1     -35.071   4.236   4.538  1.00 20.00     0.001 C 
HETATM    4  C4  UNL     1     -33.740   6.717   5.435  1.00 20.00     0.009 C 
HETATM    5  C5  UNL     1     -34.848   5.402   3.576  1.00 20.00     0.009 C 
HETATM    6  C6  UNL     1     -32.298   5.884   3.441  1.00 20.00     0.010 A 
HETATM    7  C7  UNL     1     -33.007   7.126   2.984  1.00 20.00     0.010 A 
HETATM    8  C8  UNL     1     -33.657   6.226   4.009  1.00 20.00    -0.040 A 
ENDROOT
TORSDOF 0
ENDMDL
MODEL 2
REMARK VINA RESULT:      -5.0      0.922      3.402
REMARK  0 active torsions:
REMARK  status: ('A' for Active; 'I' for Inactive)
ROOT
HETATM    1  C1  UNL     1     -33.305   6.509   2.875  1.00 20.00     0.000 C 
HETATM    2  C2  UNL     1     -34.249   5.311   2.768  1.00 20.00     0.001 C 
HETATM    3  C3  UNL     1     -32.608   6.551   4.235  1.00 20.00     0.001 C 
HETATM    4  C4  UNL     1     -35.262   5.294   3.911  1.00 20.00     0.009 C 
HETATM    5  C5  UNL     1     -33.617   6.536   5.382  1.00 20.00     0.009 C 
HETATM    6  C6  UNL     1     -34.198   4.066   5.939  1.00 20.00     0.010 A 
HETATM    7  C7  UNL     1     -35.317   4.913   6.473  1.00 20.00     0.010 A 
HETATM    8  C8  UNL     1     -34.558   5.361   5.246  1.00 20.00    -0.040 A 
ENDROOT
TORSDOF 0
ENDMDL
MODEL 3
REMARK VINA RESULT:      -4.5      1.054      2.372
REMARK  0 active torsions:
REMARK  status: ('A' for Active; 'I' for Inactive)
ROOT
HETATM    1  C1  UNL     1     -34.257   5.189   6.824  1.00 20.00     0.000 C 
HETATM    2  C2  UNL     1     -35.244   4.291   6.078  1.00 20.00     0.001 C 
HETATM    3  C3  UNL     1     -34.021   6.502   6.076  1.00 20.00     0.001 C 
HETATM    4  C4  UNL     1     -34.792   4.037   4.641  1.00 20.00     0.009 C 
HETATM    5  C5  UNL     1     -33.567   6.253   4.639  1.00 20.00     0.009 C 
HETATM    6  C6  UNL     1     -35.674   5.970   3.145  1.00 20.00     0.010 A 
HETATM    7  C7  UNL     1     -34.526   5.334   2.414  1.00 20.00     0.010 A 
HETATM    8  C8  UNL     1     -34.540   5.343   3.925  1.00 20.00    -0.040 A 
ENDROOT
TORSDOF 0
ENDMDL
MODEL 4
REMARK VINA RESULT:      -4.4      0.683      2.034
REMARK  0 active torsions:
REMARK  status: ('A' for Active; 'I' for Inactive)
ROOT
HETATM    1  C1  UNL     1     -35.113   4.843   5.952  1.00 20.00     0.000 C 
HETATM    2  C2  UNL     1     -35.421   4.797   4.455  1.00 20.00     0.001 C 
HETATM    3  C3  UNL     1     -34.382   6.131   6.333  1.00 20.00     0.001 C 
HETATM    4  C4  UNL     1     -34.157   4.985   3.618  1.00 20.00     0.009 C 
HETATM    5  C5  UNL     1     -33.116   6.323   5.499  1.00 20.00     0.009 C 
HETATM    6  C6  UNL     1     -33.757   7.531   3.290  1.00 20.00     0.010 A 
HETATM    7  C7  UNL     1     -32.443   6.844   3.052  1.00 20.00     0.010 A 
HETATM    8  C8  UNL     1     -33.435   6.249   4.023  1.00 20.00    -0.040 A 
ENDROOT
TORSDOF 0
ENDMDL
MODEL 5
REMARK VINA RESULT:      -4.2     11.609     12.639
REMARK  0 active torsions:
REMARK  status: ('A' for Active; 'I' for Inactive)
ROOT
HETATM    1  C1  UNL     1     -34.556  13.376  -4.595  1.00 20.00     0.000 C 
HETATM    2  C2  UNL     1     -35.784  14.152  -4.118  1.00 20.00     0.001 C 
HETATM    3  C3  UNL     1     -33.337  13.666  -3.718  1.00 20.00     0.001 C 
HETATM    4  C4  UNL     1     -35.502  15.651  -4.038  1.00 20.00     0.009 C 
HETATM    5  C5  UNL     1     -33.050  15.164  -3.636  1.00 20.00     0.009 C 
HETATM    6  C6  UNL     1     -34.473  16.174  -1.710  1.00 20.00     0.010 A 
HETATM    7  C7  UNL     1     -34.099  17.306  -2.623  1.00 20.00     0.010 A 
HETATM    8  C8  UNL     1     -34.282  15.917  -3.188  1.00 20.00    -0.040 A 
ENDROOT
TORSDOF 0
ENDMDL
MODEL 6
REMARK VINA RESULT:      -4.1      8.807     10.278
REMARK  0 active torsions:
REMARK  status: ('A' for Active; 'I' for Inactive)
ROOT
HETATM    1  C1  UNL     1     -41.150   7.186  -0.825  1.00 20.00     0.000 C 
HETATM    2  C2  UNL     1     -40.817   5.894  -0.079  1.00 20.00     0.001 C 
HETATM    3  C3  UNL     1     -42.402   7.026  -1.688  1.00 20.00     0.001 C 
HETATM    4  C4  UNL     1     -40.682   4.713  -1.038  1.00 20.00     0.009 C 
HETATM    5  C5  UNL     1     -42.271   5.847  -2.650  1.00 20.00     0.009 C 
HETATM    6  C6  UNL     1     -43.039   3.689  -1.422  1.00 20.00     0.010 A 
HETATM    7  C7  UNL     1     -42.177   3.258  -2.574  1.00 20.00     0.010 A 
HETATM    8  C8  UNL     1     -41.917   4.584  -1.898  1.00 20.00    -0.040 A 
ENDROOT
TORSDOF 0
ENDMDL
MODEL 7
REMARK VINA RESULT:      -4.0     11.621     13.191
REMARK  0 active torsions:
REMARK  status: ('A' for Active; 'I' for Inactive)
ROOT
HETATM    1  C1  UNL     1     -33.758  17.576  -3.574  1.00 20.00     0.000 C 
HETATM    2  C2  UNL     1     -33.368  16.829  -4.849  1.00 20.00     0.001 C 
HETATM    3  C3  UNL     1     -33.859  16.628  -2.378  1.00 20.00     0.001 C 
HETATM    4  C4  UNL     1     -34.326  15.674  -5.136  1.00 20.00     0.009 C 
HETATM    5  C5  UNL     1     -34.817  15.472  -2.660  1.00 20.00     0.009 C 
HETATM    6  C6  UNL     1     -33.498  13.575  -3.848  1.00 20.00     0.010 A 
HETATM    7  C7  UNL     1     -34.952  13.360  -4.155  1.00 20.00     0.010 A 
HETATM    8  C8  UNL     1     -34.431  14.761  -3.938  1.00 20.00    -0.040 A 
ENDROOT
TORSDOF 0
ENDMDL
MODEL 8
REMARK VINA RESULT:      -3.9     11.756     13.636
REMARK  0 active torsions:
REMARK  status: ('A' for Active; 'I' for Inactive)
ROOT
HETATM    1  C1  UNL     1     -33.074  15.087  -3.613  1.00 20.00     0.000 C 
HETATM    2  C2  UNL     1     -34.141  13.993  -3.628  1.00 20.00     0.001 C 
HETATM    3  C3  UNL     1     -33.464  16.259  -4.515  1.00 20.00     0.001 C 
HETATM    4  C4  UNL     1     -34.440  13.522  -5.050  1.00 20.00     0.009 C 
HETATM    5  C5  UNL     1     -33.763  15.794  -5.940  1.00 20.00     0.009 C 
HETATM    6  C6  UNL     1     -36.257  15.076  -6.068  1.00 20.00     0.010 A 
HETATM    7  C7  UNL     1     -35.548  14.415  -7.215  1.00 20.00     0.010 A 
HETATM    8  C8  UNL     1     -34.800  14.694  -5.932  1.00 20.00    -0.040 A 
ENDROOT
TORSDOF 0
ENDMDL
MODEL 9
REMARK VINA RESULT:      -3.9      8.862     10.403
REMARK  0 active torsions:
REMARK  status: ('A' for Active; 'I' for Inactive)
ROOT
HETATM    1  C1  UNL     1     -41.209   7.155  -0.888  1.00 20.00     0.000 C 
HETATM    2  C2  UNL     1     -41.737   6.899  -2.300  1.00 20.00     0.001 C 
HETATM    3  C3  UNL     1     -40.687   5.869  -0.246  1.00 20.00     0.001 C 
HETATM    4  C4  UNL     1     -42.801   5.803  -2.310  1.00 20.00     0.009 C 
HETATM    5  C5  UNL     1     -41.749   4.769  -0.252  1.00 20.00     0.009 C 
HETATM    6  C6  UNL     1     -41.612   3.502  -2.516  1.00 20.00     0.010 A 
HETATM    7  C7  UNL     1     -42.978   3.244  -1.948  1.00 20.00     0.010 A 
HETATM    8  C8  UNL     1     -42.277   4.549  -1.651  1.00 20.00    -0.040 A 
ENDROOT
TORSDOF 0
ENDMDL
