MODEL 1
REMARK VINA RESULT:      -5.1      0.000      0.000
REMARK  0 active torsions:
REMARK  status: ('A' for Active; 'I' for Inactive)
ROOT
HETATM    1  C1  UNL     1     -34.444  13.651  -5.245  1.00 20.00    -0.025 C 
HETATM    2  C2  UNL     1     -35.277  13.340  -4.240  1.00 20.00    -0.025 C 
HETATM    3  C3  UNL     1     -33.527  17.173  -4.022  1.00 20.00    -0.024 A 
HETATM    4  C4  UNL     1     -34.231  17.690  -3.011  1.00 20.00    -0.025 A 
HETATM    5  C5  UNL     1     -35.883  15.433  -4.986  1.00 20.00     0.018 C 
HETATM    6  C6  UNL     1     -34.418  15.160  -5.351  1.00 20.00     0.016 C 
HETATM    7  C7  UNL     1     -35.806  14.641  -3.676  1.00 20.00     0.014 C 
HETATM    8  C8  UNL     1     -33.657  15.689  -4.109  1.00 20.00     0.021 A 
HETATM    9  C9  UNL     1     -34.992  16.657  -2.236  1.00 20.00     0.009 A 
HETATM   10  C10 UNL     1     -34.627  15.326  -2.928  1.00 20.00     0.009 A 
HETATM   11  C11 UNL     1     -34.585  16.662  -0.765  1.00 20.00     0.014 C 
ENDROOT
TORSDOF 0
ENDMDL
MODEL 2
REMARK VINA RESULT:      -4.9      1.124      3.799
REMARK  0 active torsions:
REMARK  status: ('A' for Active; 'I' for Inactive)
ROOT
HETATM    1  C1  UNL     1     -33.857  17.243  -2.278  1.00 20.00    -0.025 C 
HETATM    2  C2  UNL     1     -34.547  17.850  -3.256  1.00 20.00    -0.025 C 
HETATM    3  C3  UNL     1     -33.697  13.768  -3.901  1.00 20.00    -0.024 A 
HETATM    4  C4  UNL     1     -34.447  13.545  -4.984  1.00 20.00    -0.025 A 
HETATM    5  C5  UNL     1     -35.646  15.881  -2.786  1.00 20.00     0.018 C 
HETATM    6  C6  UNL     1     -34.177  15.767  -2.356  1.00 20.00     0.016 C 
HETATM    7  C7  UNL     1     -35.326  16.778  -3.988  1.00 20.00     0.014 C 
HETATM    8  C8  UNL     1     -33.494  15.222  -3.636  1.00 20.00     0.021 A 
HETATM    9  C9  UNL     1     -34.915  14.806  -5.645  1.00 20.00     0.009 A 
HETATM   10  C10 UNL     1     -34.295  15.930  -4.786  1.00 20.00     0.009 A 
HETATM   11  C11 UNL     1     -34.445  14.876  -7.094  1.00 20.00     0.014 C 
ENDROOT
TORSDOF 0
ENDMDL
MODEL 3
REMARK VINA RESULT:      -4.9      0.975      2.403
REMARK  0 active torsions:
REMARK  status: ('A' for Active; 'I' for Inactive)
ROOT
HETATM    1  C1  UNL     1     -34.792  14.087  -4.629  1.00 20.00    -0.025 C 
HETATM    2  C2  UNL     1     -34.303  15.004  -5.478  1.00 20.00    -0.025 C 
HETATM    3  C3  UNL     1     -34.629  16.245  -1.458  1.00 20.00    -0.024 A 
HETATM    4  C4  UNL     1     -33.974  17.407  -1.523  1.00 20.00    -0.025 A 
HETATM    5  C5  UNL     1     -32.893  14.958  -3.658  1.00 20.00     0.018 C 
HETATM    6  C6  UNL     1     -34.276  14.434  -3.250  1.00 20.00     0.016 C 
HETATM    7  C7  UNL     1     -33.461  15.964  -4.665  1.00 20.00     0.014 C 
HETATM    8  C8  UNL     1     -35.007  15.727  -2.806  1.00 20.00     0.021 A 
HETATM    9  C9  UNL     1     -33.761  17.886  -2.928  1.00 20.00     0.009 A 
HETATM   10  C10 UNL     1     -34.440  16.805  -3.797  1.00 20.00     0.009 A 
HETATM   11  C11 UNL     1     -34.387  19.261  -3.141  1.00 20.00     0.014 C 
ENDROOT
TORSDOF 0
ENDMDL
MODEL 4
REMARK VINA RESULT:      -4.8      1.135      3.544
REMARK  0 active torsions:
REMARK  status: ('A' for Active; 'I' for Inactive)
ROOT
HETATM    1  C1  UNL     1     -34.720  18.099  -2.832  1.00 20.00    -0.025 C 
HETATM    2  C2  UNL     1     -35.910  17.487  -2.938  1.00 20.00    -0.025 C 
HETATM    3  C3  UNL     1     -32.542  15.034  -3.609  1.00 20.00    -0.024 A 
HETATM    4  C4  UNL     1     -33.135  13.837  -3.651  1.00 20.00    -0.025 A 
HETATM    5  C5  UNL     1     -34.591  16.158  -1.597  1.00 20.00     0.018 C 
HETATM    6  C6  UNL     1     -33.700  17.036  -2.486  1.00 20.00     0.016 C 
HETATM    7  C7  UNL     1     -35.683  16.016  -2.663  1.00 20.00     0.014 C 
HETATM    8  C8  UNL     1     -33.515  16.157  -3.749  1.00 20.00     0.021 A 
HETATM    9  C9  UNL     1     -34.624  13.922  -3.802  1.00 20.00     0.009 A 
HETATM   10  C10 UNL     1     -34.905  15.439  -3.879  1.00 20.00     0.009 A 
HETATM   11  C11 UNL     1     -35.093  13.194  -5.057  1.00 20.00     0.014 C 
ENDROOT
TORSDOF 0
ENDMDL
MODEL 5
REMARK VINA RESULT:      -4.8      1.262      3.473
REMARK  0 active torsions:
REMARK  status: ('A' for Active; 'I' for Inactive)
ROOT
HETATM    1  C1  UNL     1     -33.632  16.192  -2.701  1.00 20.00    -0.025 C 
HETATM    2  C2  UNL     1     -34.847  15.728  -2.372  1.00 20.00    -0.025 C 
HETATM    3  C3  UNL     1     -33.910  15.605  -6.485  1.00 20.00    -0.024 A 
HETATM    4  C4  UNL     1     -34.943  14.888  -6.935  1.00 20.00    -0.025 A 
HETATM    5  C5  UNL     1     -33.885  14.161  -3.760  1.00 20.00     0.018 C 
HETATM    6  C6  UNL     1     -33.238  15.532  -4.004  1.00 20.00     0.016 C 
HETATM    7  C7  UNL     1     -35.265  14.757  -3.456  1.00 20.00     0.014 C 
HETATM    8  C8  UNL     1     -34.140  16.137  -5.110  1.00 20.00     0.021 A 
HETATM    9  C9  UNL     1     -36.060  14.776  -5.940  1.00 20.00     0.009 A 
HETATM   10  C10 UNL     1     -35.565  15.598  -4.730  1.00 20.00     0.009 A 
HETATM   11  C11 UNL     1     -37.361  15.333  -6.509  1.00 20.00     0.014 C 
ENDROOT
TORSDOF 0
ENDMDL
MODEL 6
REMARK VINA RESULT:      -4.8      1.484      2.930
REMARK  0 active torsions:
REMARK  status: ('A' for Active; 'I' for Inactive)
ROOT
HETATM    1  C1  UNL     1     -36.332  15.274  -7.293  1.00 20.00    -0.025 C 
HETATM    2  C2  UNL     1     -36.138  16.496  -6.774  1.00 20.00    -0.025 C 
HETATM    3  C3  UNL     1     -34.442  13.307  -4.591  1.00 20.00    -0.024 A 
HETATM    4  C4  UNL     1     -33.715  13.995  -3.706  1.00 20.00    -0.025 A 
HETATM    5  C5  UNL     1     -34.090  15.443  -6.787  1.00 20.00     0.018 C 
HETATM    6  C6  UNL     1     -35.208  14.392  -6.793  1.00 20.00     0.016 C 
HETATM    7  C7  UNL     1     -34.886  16.429  -5.925  1.00 20.00     0.014 C 
HETATM    8  C8  UNL     1     -35.457  14.157  -5.281  1.00 20.00     0.021 A 
HETATM    9  C9  UNL     1     -34.081  15.448  -3.647  1.00 20.00     0.009 A 
HETATM   10  C10 UNL     1     -35.233  15.584  -4.666  1.00 20.00     0.009 A 
HETATM   11  C11 UNL     1     -34.518  15.848  -2.241  1.00 20.00     0.014 C 
ENDROOT
TORSDOF 0
ENDMDL
MODEL 7
REMARK VINA RESULT:      -4.6      1.598      3.497
REMARK  0 active torsions:
REMARK  status: ('A' for Active; 'I' for Inactive)
ROOT
HETATM    1  C1  UNL     1     -33.354  13.679  -3.799  1.00 20.00    -0.025 C 
HETATM    2  C2  UNL     1     -32.906  14.924  -3.571  1.00 20.00    -0.025 C 
HETATM    3  C3  UNL     1     -35.833  14.573  -6.590  1.00 20.00    -0.024 A 
HETATM    4  C4  UNL     1     -36.094  15.865  -6.809  1.00 20.00    -0.025 A 
HETATM    5  C5  UNL     1     -35.206  15.037  -3.607  1.00 20.00     0.018 C 
HETATM    6  C6  UNL     1     -34.739  13.805  -4.394  1.00 20.00     0.016 C 
HETATM    7  C7  UNL     1     -33.993  15.880  -4.015  1.00 20.00     0.014 C 
HETATM    8  C8  UNL     1     -34.567  14.367  -5.828  1.00 20.00     0.021 A 
HETATM    9  C9  UNL     1     -35.067  16.781  -6.214  1.00 20.00     0.009 A 
HETATM   10  C10 UNL     1     -34.042  15.824  -5.569  1.00 20.00     0.009 A 
HETATM   11  C11 UNL     1     -34.428  17.660  -7.284  1.00 20.00     0.014 C 
ENDROOT
TORSDOF 0
ENDMDL
MODEL 8
REMARK VINA RESULT:      -4.6      1.315      3.732
REMARK  0 active torsions:
REMARK  status: ('A' for Active; 'I' for Inactive)
ROOT
HETATM    1  C1  UNL     1     -35.736  17.804  -1.106  1.00 20.00    -0.025 C 
HETATM    2  C2  UNL     1     -34.773  17.063  -0.535  1.00 20.00    -0.025 C 
HETATM    3  C3  UNL     1     -35.241  16.538  -4.696  1.00 20.00    -0.024 A 
HETATM    4  C4  UNL     1     -34.164  15.792  -4.956  1.00 20.00    -0.025 A 
HETATM    5  C5  UNL     1     -33.843  18.046  -2.399  1.00 20.00     0.018 C 
HETATM    6  C6  UNL     1     -35.367  17.969  -2.564  1.00 20.00     0.016 C 
HETATM    7  C7  UNL     1     -33.763  16.733  -1.613  1.00 20.00     0.014 C 
HETATM    8  C8  UNL     1     -35.562  16.588  -3.239  1.00 20.00     0.021 A 
HETATM    9  C9  UNL     1     -33.535  15.216  -3.723  1.00 20.00     0.009 A 
HETATM   10  C10 UNL     1     -34.439  15.714  -2.575  1.00 20.00     0.009 A 
HETATM   11  C11 UNL     1     -33.489  13.693  -3.788  1.00 20.00     0.014 C 
ENDROOT
TORSDOF 0
ENDMDL
MODEL 9
REMARK VINA RESULT:      -4.5      1.344      2.054
REMARK  0 active torsions:
REMARK  status: ('A' for Active; 'I' for Inactive)
ROOT
HETATM    1  C1  UNL     1     -33.467  13.661  -3.839  1.00 20.00    -0.025 C 
HETATM    2  C2  UNL     1     -34.498  13.615  -4.696  1.00 20.00    -0.025 C 
HETATM    3  C3  UNL     1     -34.454  16.932  -2.088  1.00 20.00    -0.024 A 
HETATM    4  C4  UNL     1     -35.439  17.659  -2.624  1.00 20.00    -0.025 A 
HETATM    5  C5  UNL     1     -33.628  15.744  -4.811  1.00 20.00     0.018 C 
HETATM    6  C6  UNL     1     -33.265  15.112  -3.461  1.00 20.00     0.016 C 
HETATM    7  C7  UNL     1     -34.985  15.035  -4.890  1.00 20.00     0.014 C 
HETATM    8  C8  UNL     1     -34.463  15.518  -2.566  1.00 20.00     0.021 A 
HETATM    9  C9  UNL     1     -36.286  16.883  -3.587  1.00 20.00     0.009 A 
HETATM   10  C10 UNL     1     -35.675  15.465  -3.563  1.00 20.00     0.009 A 
HETATM   11  C11 UNL     1     -37.748  16.877  -3.153  1.00 20.00     0.014 C 
ENDROOT
TORSDOF 0
ENDMDL
