MODEL 1
REMARK VINA RESULT:      -4.1      0.000      0.000
REMARK  5 active torsions:
REMARK  status: ('A' for Active; 'I' for Inactive)
REMARK    1  A    between atoms: C1_1  and  C6_6 
REMARK    2  A    between atoms: C2_2  and  C7_7 
REMARK    3  A    between atoms: C2_2  and  C8_8 
REMARK    4  A    between atoms: C7_7  and  C9_9 
REMARK    5  A    between atoms: C8_8  and  C10_10 
ROOT
HETATM    1  C1  UNL     1     -34.123  17.138  -4.190  1.00 20.00    -0.024 C 
HETATM    2  C2  UNL     1     -33.842  16.118  -3.355  1.00 20.00    -0.084 C 
ENDROOT
BRANCH   2   3
HETATM    3  C7  UNL     1     -34.513  16.047  -1.997  1.00 20.00     0.033 C 
BRANCH   3   4
HETATM    4  C9  UNL     1     -34.013  17.136  -1.044  1.00 20.00    -0.000 C 
HETATM    5  C4  UNL     1     -34.907  17.253   0.180  1.00 20.00     0.005 C 
ENDBRANCH   3   4
ENDBRANCH   2   3
BRANCH   2   6
HETATM    6  C8  UNL     1     -32.877  14.999  -3.684  1.00 20.00     0.033 C 
BRANCH   6   7
HETATM    7  C10 UNL     1     -33.565  13.633  -3.688  1.00 20.00    -0.000 C 
HETATM    8  C5  UNL     1     -34.508  13.491  -4.873  1.00 20.00     0.005 C 
ENDBRANCH   6   7
ENDBRANCH   2   6
BRANCH   1   9
HETATM    9  C6  UNL     1     -33.532  17.396  -5.547  1.00 20.00     0.023 C 
HETATM   10  C3  UNL     1     -34.380  16.775  -6.646  1.00 20.00     0.009 C 
ENDBRANCH   1   9
TORSDOF 5
ENDMDL
MODEL 2
REMARK VINA RESULT:      -4.1      0.867      2.699
REMARK  5 active torsions:
REMARK  status: ('A' for Active; 'I' for Inactive)
REMARK    1  A    between atoms: C1_1  and  C6_6 
REMARK    2  A    between atoms: C2_2  and  C7_7 
REMARK    3  A    between atoms: C2_2  and  C8_8 
REMARK    4  A    between atoms: C7_7  and  C9_9 
REMARK    5  A    between atoms: C8_8  and  C10_10 
ROOT
HETATM    1  C1  UNL     1     -33.847  14.741  -3.115  1.00 20.00    -0.024 C 
HETATM    2  C2  UNL     1     -33.674  16.051  -3.386  1.00 20.00    -0.084 C 
ENDROOT
BRANCH   2   3
HETATM    3  C7  UNL     1     -33.901  17.083  -2.300  1.00 20.00     0.033 C 
BRANCH   3   4
HETATM    4  C9  UNL     1     -34.668  16.511  -1.104  1.00 20.00    -0.000 C 
HETATM    5  C4  UNL     1     -34.613  17.451   0.090  1.00 20.00     0.005 C 
ENDBRANCH   3   4
ENDBRANCH   2   3
BRANCH   2   6
HETATM    6  C8  UNL     1     -33.252  16.583  -4.738  1.00 20.00     0.033 C 
BRANCH   6   7
HETATM    7  C10 UNL     1     -34.450  16.811  -5.663  1.00 20.00    -0.000 C 
HETATM    8  C5  UNL     1     -34.326  15.995  -6.941  1.00 20.00     0.005 C 
ENDBRANCH   6   7
ENDBRANCH   2   6
BRANCH   1   9
HETATM    9  C6  UNL     1     -33.708  13.587  -4.065  1.00 20.00     0.023 C 
HETATM   10  C3  UNL     1     -35.056  13.175  -4.636  1.00 20.00     0.009 C 
ENDBRANCH   1   9
TORSDOF 5
ENDMDL
MODEL 3
REMARK VINA RESULT:      -4.1      1.453      4.101
REMARK  5 active torsions:
REMARK  status: ('A' for Active; 'I' for Inactive)
REMARK    1  A    between atoms: C1_1  and  C6_6 
REMARK    2  A    between atoms: C2_2  and  C7_7 
REMARK    3  A    between atoms: C2_2  and  C8_8 
REMARK    4  A    between atoms: C7_7  and  C9_9 
REMARK    5  A    between atoms: C8_8  and  C10_10 
ROOT
HETATM    1  C1  UNL     1     -34.813  15.834  -2.061  1.00 20.00    -0.024 C 
HETATM    2  C2  UNL     1     -34.362  15.222  -3.174  1.00 20.00    -0.084 C 
ENDROOT
BRANCH   2   3
HETATM    3  C7  UNL     1     -35.189  14.131  -3.825  1.00 20.00     0.033 C 
BRANCH   3   4
HETATM    4  C9  UNL     1     -36.653  14.541  -4.007  1.00 20.00    -0.000 C 
HETATM    5  C4  UNL     1     -36.854  15.317  -5.300  1.00 20.00     0.005 C 
ENDBRANCH   3   4
ENDBRANCH   2   3
BRANCH   2   6
HETATM    6  C8  UNL     1     -33.048  15.557  -3.848  1.00 20.00     0.033 C 
BRANCH   6   7
HETATM    7  C10 UNL     1     -33.256  16.286  -5.177  1.00 20.00    -0.000 C 
HETATM    8  C5  UNL     1     -33.567  17.759  -4.958  1.00 20.00     0.005 C 
ENDBRANCH   6   7
ENDBRANCH   2   6
BRANCH   1   9
HETATM    9  C6  UNL     1     -34.120  16.899  -1.261  1.00 20.00     0.023 C 
HETATM   10  C3  UNL     1     -34.858  17.184   0.037  1.00 20.00     0.009 C 
ENDBRANCH   1   9
TORSDOF 5
ENDMDL
MODEL 4
REMARK VINA RESULT:      -4.1      1.074      3.941
REMARK  5 active torsions:
REMARK  status: ('A' for Active; 'I' for Inactive)
REMARK    1  A    between atoms: C1_1  and  C6_6 
REMARK    2  A    between atoms: C2_2  and  C7_7 
REMARK    3  A    between atoms: C2_2  and  C8_8 
REMARK    4  A    between atoms: C7_7  and  C9_9 
REMARK    5  A    between atoms: C8_8  and  C10_10 
ROOT
HETATM    1  C1  UNL     1     -33.963  16.541  -2.504  1.00 20.00    -0.024 C 
HETATM    2  C2  UNL     1     -33.717  15.596  -3.434  1.00 20.00    -0.084 C 
ENDROOT
BRANCH   2   3
HETATM    3  C7  UNL     1     -32.986  15.964  -4.710  1.00 20.00     0.033 C 
BRANCH   3   4
HETATM    4  C9  UNL     1     -33.696  17.075  -5.487  1.00 20.00    -0.000 C 
HETATM    5  C4  UNL     1     -34.406  16.526  -6.715  1.00 20.00     0.005 C 
ENDBRANCH   3   4
ENDBRANCH   2   3
BRANCH   2   6
HETATM    6  C8  UNL     1     -34.126  14.146  -3.292  1.00 20.00     0.033 C 
BRANCH   6   7
HETATM    7  C10 UNL     1     -35.163  13.738  -4.341  1.00 20.00    -0.000 C 
HETATM    8  C5  UNL     1     -36.495  14.433  -4.103  1.00 20.00     0.005 C 
ENDBRANCH   6   7
ENDBRANCH   2   6
BRANCH   1   9
HETATM    9  C6  UNL     1     -34.703  16.374  -1.208  1.00 20.00     0.023 C 
HETATM   10  C3  UNL     1     -34.329  17.462  -0.214  1.00 20.00     0.009 C 
ENDBRANCH   1   9
TORSDOF 5
ENDMDL
MODEL 5
REMARK VINA RESULT:      -4.1     11.226     13.202
REMARK  5 active torsions:
REMARK  status: ('A' for Active; 'I' for Inactive)
REMARK    1  A    between atoms: C1_1  and  C6_6 
REMARK    2  A    between atoms: C2_2  and  C7_7 
REMARK    3  A    between atoms: C2_2  and  C8_8 
REMARK    4  A    between atoms: C7_7  and  C9_9 
REMARK    5  A    between atoms: C8_8  and  C10_10 
ROOT
HETATM    1  C1  UNL     1     -33.297   6.697   5.181  1.00 20.00    -0.024 C 
HETATM    2  C2  UNL     1     -33.748   6.134   4.041  1.00 20.00    -0.084 C 
ENDROOT
BRANCH   2   3
HETATM    3  C7  UNL     1     -32.908   6.200   2.782  1.00 20.00     0.033 C 
BRANCH   3   4
HETATM    4  C9  UNL     1     -31.847   7.302   2.848  1.00 20.00    -0.000 C 
HETATM    5  C4  UNL     1     -32.120   8.396   1.827  1.00 20.00     0.005 C 
ENDBRANCH   3   4
ENDBRANCH   2   3
BRANCH   2   6
HETATM    6  C8  UNL     1     -35.074   5.413   3.924  1.00 20.00     0.033 C 
BRANCH   6   7
HETATM    7  C10 UNL     1     -34.996   3.981   4.457  1.00 20.00    -0.000 C 
HETATM    8  C5  UNL     1     -35.205   3.939   5.963  1.00 20.00     0.005 C 
ENDBRANCH   6   7
ENDBRANCH   2   6
BRANCH   1   9
HETATM    9  C6  UNL     1     -34.002   6.765   6.505  1.00 20.00     0.023 C 
HETATM   10  C3  UNL     1     -33.362   7.799   7.419  1.00 20.00     0.009 C 
ENDBRANCH   1   9
TORSDOF 5
ENDMDL
MODEL 6
REMARK VINA RESULT:      -4.0      0.585      4.164
REMARK  5 active torsions:
REMARK  status: ('A' for Active; 'I' for Inactive)
REMARK    1  A    between atoms: C1_1  and  C6_6 
REMARK    2  A    between atoms: C2_2  and  C7_7 
REMARK    3  A    between atoms: C2_2  and  C8_8 
REMARK    4  A    between atoms: C7_7  and  C9_9 
REMARK    5  A    between atoms: C8_8  and  C10_10 
ROOT
HETATM    1  C1  UNL     1     -34.416  16.041  -2.075  1.00 20.00    -0.024 C 
HETATM    2  C2  UNL     1     -33.709  16.103  -3.221  1.00 20.00    -0.084 C 
ENDROOT
BRANCH   2   3
HETATM    3  C7  UNL     1     -32.989  14.871  -3.732  1.00 20.00     0.033 C 
BRANCH   3   4
HETATM    4  C9  UNL     1     -33.858  13.613  -3.650  1.00 20.00    -0.000 C 
HETATM    5  C4  UNL     1     -34.650  13.403  -4.931  1.00 20.00     0.005 C 
ENDBRANCH   3   4
ENDBRANCH   2   3
BRANCH   2   6
HETATM    6  C8  UNL     1     -33.581  17.352  -4.066  1.00 20.00     0.033 C 
BRANCH   6   7
HETATM    7  C10 UNL     1     -33.755  17.055  -5.557  1.00 20.00    -0.000 C 
HETATM    8  C5  UNL     1     -35.224  16.935  -5.930  1.00 20.00     0.005 C 
ENDBRANCH   6   7
ENDBRANCH   2   6
BRANCH   1   9
HETATM    9  C6  UNL     1     -35.156  17.158  -1.398  1.00 20.00     0.023 C 
HETATM   10  C3  UNL     1     -34.858  17.196   0.093  1.00 20.00     0.009 C 
ENDBRANCH   1   9
TORSDOF 5
ENDMDL
MODEL 7
REMARK VINA RESULT:      -3.9      0.817      3.418
REMARK  5 active torsions:
REMARK  status: ('A' for Active; 'I' for Inactive)
REMARK    1  A    between atoms: C1_1  and  C6_6 
REMARK    2  A    between atoms: C2_2  and  C7_7 
REMARK    3  A    between atoms: C2_2  and  C8_8 
REMARK    4  A    between atoms: C7_7  and  C9_9 
REMARK    5  A    between atoms: C8_8  and  C10_10 
ROOT
HETATM    1  C1  UNL     1     -33.272  16.549  -5.151  1.00 20.00    -0.024 C 
HETATM    2  C2  UNL     1     -33.639  16.116  -3.928  1.00 20.00    -0.084 C 
ENDROOT
BRANCH   2   3
HETATM    3  C7  UNL     1     -33.267  14.717  -3.478  1.00 20.00     0.033 C 
BRANCH   3   4
HETATM    4  C9  UNL     1     -33.892  13.636  -4.365  1.00 20.00    -0.000 C 
HETATM    5  C4  UNL     1     -35.402  13.583  -4.193  1.00 20.00     0.005 C 
ENDBRANCH   3   4
ENDBRANCH   2   3
BRANCH   2   6
HETATM    6  C8  UNL     1     -34.418  16.953  -2.936  1.00 20.00     0.033 C 
BRANCH   6   7
HETATM    7  C10 UNL     1     -34.695  16.192  -1.638  1.00 20.00    -0.000 C 
HETATM    8  C5  UNL     1     -34.500  17.083  -0.421  1.00 20.00     0.005 C 
ENDBRANCH   6   7
ENDBRANCH   2   6
BRANCH   1   9
HETATM    9  C6  UNL     1     -33.582  17.878  -5.779  1.00 20.00     0.023 C 
HETATM   10  C3  UNL     1     -34.432  17.714  -7.029  1.00 20.00     0.009 C 
ENDBRANCH   1   9
TORSDOF 5
ENDMDL
MODEL 8
REMARK VINA RESULT:      -3.8     11.018     13.118
REMARK  5 active torsions:
REMARK  status: ('A' for Active; 'I' for Inactive)
REMARK    1  A    between atoms: C1_1  and  C6_6 
REMARK    2  A    between atoms: C2_2  and  C7_7 
REMARK    3  A    between atoms: C2_2  and  C8_8 
REMARK    4  A    between atoms: C7_7  and  C9_9 
REMARK    5  A    between atoms: C8_8  and  C10_10 
ROOT
HETATM    1  C1  UNL     1     -34.308   5.103   3.614  1.00 20.00    -0.024 C 
HETATM    2  C2  UNL     1     -33.478   6.148   3.802  1.00 20.00    -0.084 C 
ENDROOT
BRANCH   2   3
HETATM    3  C7  UNL     1     -32.262   6.317   2.913  1.00 20.00     0.033 C 
BRANCH   3   4
HETATM    4  C9  UNL     1     -31.721   7.749   2.932  1.00 20.00    -0.000 C 
HETATM    5  C4  UNL     1     -32.068   8.489   1.650  1.00 20.00     0.005 C 
ENDBRANCH   3   4
ENDBRANCH   2   3
BRANCH   2   6
HETATM    6  C8  UNL     1     -33.679   7.204   4.868  1.00 20.00     0.033 C 
BRANCH   6   7
HETATM    7  C10 UNL     1     -33.324   6.683   6.263  1.00 20.00    -0.000 C 
HETATM    8  C5  UNL     1     -33.613   7.725   7.332  1.00 20.00     0.005 C 
ENDBRANCH   6   7
ENDBRANCH   2   6
BRANCH   1   9
HETATM    9  C6  UNL     1     -35.530   4.753   4.414  1.00 20.00     0.023 C 
HETATM   10  C3  UNL     1     -35.167   3.963   5.661  1.00 20.00     0.009 C 
ENDBRANCH   1   9
TORSDOF 5
ENDMDL
MODEL 9
REMARK VINA RESULT:      -3.8      1.493      2.227
REMARK  5 active torsions:
REMARK  status: ('A' for Active; 'I' for Inactive)
REMARK    1  A    between atoms: C1_1  and  C6_6 
REMARK    2  A    between atoms: C2_2  and  C7_7 
REMARK    3  A    between atoms: C2_2  and  C8_8 
REMARK    4  A    between atoms: C7_7  and  C9_9 
REMARK    5  A    between atoms: C8_8  and  C10_10 
ROOT
HETATM    1  C1  UNL     1     -35.813  16.446  -2.826  1.00 20.00    -0.024 C 
HETATM    2  C2  UNL     1     -34.468  16.516  -2.762  1.00 20.00    -0.084 C 
ENDROOT
BRANCH   2   3
HETATM    3  C7  UNL     1     -33.794  16.937  -1.472  1.00 20.00     0.033 C 
BRANCH   3   4
HETATM    4  C9  UNL     1     -34.763  16.950  -0.286  1.00 20.00    -0.000 C 
HETATM    5  C4  UNL     1     -34.397  18.034   0.715  1.00 20.00     0.005 C 
ENDBRANCH   3   4
ENDBRANCH   2   3
BRANCH   2   6
HETATM    6  C8  UNL     1     -33.552  16.189  -3.921  1.00 20.00     0.033 C 
BRANCH   6   7
HETATM    7  C10 UNL     1     -32.722  14.930  -3.658  1.00 20.00    -0.000 C 
HETATM    8  C5  UNL     1     -33.553  13.670  -3.849  1.00 20.00     0.005 C 
ENDBRANCH   6   7
ENDBRANCH   2   6
BRANCH   1   9
HETATM    9  C6  UNL     1     -36.653  16.090  -4.019  1.00 20.00     0.023 C 
HETATM   10  C3  UNL     1     -37.145  14.654  -3.940  1.00 20.00     0.009 C 
ENDBRANCH   1   9
TORSDOF 5
ENDMDL
