MODEL 1
REMARK VINA RESULT:      -4.5      0.000      0.000
REMARK  3 active torsions:
REMARK  status: ('A' for Active; 'I' for Inactive)
REMARK    1  A    between atoms: C5_5  and  C6_6 
REMARK    2  A    between atoms: C5_5  and  N8_8 
REMARK    3  A    between atoms: C6_6  and  N9_9 
ROOT
HETATM    1  C1  UNL     1     -32.007   8.222   2.199  1.00 20.00     0.157 C 
HETATM    2  N8  UNL     1     -31.837   7.608   3.185  1.00 20.00    -0.274 NA
HETATM    3  S10 UNL     1     -32.229   9.081   0.876  1.00 20.00    -0.055 SA
ENDROOT
BRANCH   2   4
HETATM    4  C5  UNL     1     -32.164   6.183   3.087  1.00 20.00     0.172 C 
BRANCH   4   5
HETATM    5  C6  UNL     1     -33.677   5.993   3.116  1.00 20.00     0.172 C 
BRANCH   5   6
HETATM    6  N9  UNL     1     -34.177   5.579   4.423  1.00 20.00    -0.280 N 
HETATM    7  C4  UNL     1     -34.941   4.480   4.686  1.00 20.00     0.113 A 
HETATM    8  C2  UNL     1     -35.168   4.495   6.039  1.00 20.00     0.040 A 
HETATM    9  C3  UNL     1     -34.496   5.644   6.496  1.00 20.00     0.140 A 
HETATM   10  N7  UNL     1     -33.889   6.312   5.511  1.00 20.00    -0.185 NA
ENDBRANCH   5   6
ENDBRANCH   4   5
ENDBRANCH   2   4
TORSDOF 3
ENDMDL
MODEL 2
REMARK VINA RESULT:      -3.8     11.207     12.997
REMARK  3 active torsions:
REMARK  status: ('A' for Active; 'I' for Inactive)
REMARK    1  A    between atoms: C5_5  and  C6_6 
REMARK    2  A    between atoms: C5_5  and  N8_8 
REMARK    3  A    between atoms: C6_6  and  N9_9 
ROOT
HETATM    1  C1  UNL     1     -34.920  13.578  -5.609  1.00 20.00     0.157 C 
HETATM    2  N8  UNL     1     -34.639  12.962  -4.649  1.00 20.00    -0.274 NA
HETATM    3  S10 UNL     1     -35.305  14.387  -6.926  1.00 20.00    -0.055 SA
ENDROOT
BRANCH   2   4
HETATM    4  C5  UNL     1     -34.270  13.771  -3.484  1.00 20.00     0.172 C 
BRANCH   4   5
HETATM    5  C6  UNL     1     -33.039  14.612  -3.803  1.00 20.00     0.172 C 
BRANCH   5   6
HETATM    6  N9  UNL     1     -33.331  16.038  -3.905  1.00 20.00    -0.280 N 
HETATM    7  C4  UNL     1     -33.865  16.827  -2.929  1.00 20.00     0.113 A 
HETATM    8  C2  UNL     1     -33.958  18.085  -3.470  1.00 20.00     0.040 A 
HETATM    9  C3  UNL     1     -33.452  17.944  -4.776  1.00 20.00     0.140 A 
HETATM   10  N7  UNL     1     -33.068  16.694  -5.048  1.00 20.00    -0.185 NA
ENDBRANCH   5   6
ENDBRANCH   4   5
ENDBRANCH   2   4
TORSDOF 3
ENDMDL
MODEL 3
REMARK VINA RESULT:      -3.8     11.391     12.202
REMARK  3 active torsions:
REMARK  status: ('A' for Active; 'I' for Inactive)
REMARK    1  A    between atoms: C5_5  and  C6_6 
REMARK    2  A    between atoms: C5_5  and  N8_8 
REMARK    3  A    between atoms: C6_6  and  N9_9 
ROOT
HETATM    1  C1  UNL     1     -34.756  16.747  -0.730  1.00 20.00     0.157 C 
HETATM    2  N8  UNL     1     -34.635  16.086  -1.693  1.00 20.00    -0.274 NA
HETATM    3  S10 UNL     1     -34.940  17.624   0.587  1.00 20.00    -0.055 SA
ENDROOT
BRANCH   2   4
HETATM    4  C5  UNL     1     -33.754  16.648  -2.720  1.00 20.00     0.172 C 
BRANCH   4   5
HETATM    5  C6  UNL     1     -32.971  15.532  -3.402  1.00 20.00     0.172 C 
BRANCH   5   6
HETATM    6  N9  UNL     1     -33.793  14.712  -4.286  1.00 20.00    -0.280 N 
HETATM    7  C4  UNL     1     -34.418  15.127  -5.425  1.00 20.00     0.113 A 
HETATM    8  C2  UNL     1     -35.067  14.024  -5.920  1.00 20.00     0.040 A 
HETATM    9  C3  UNL     1     -34.767  12.999  -5.005  1.00 20.00     0.140 A 
HETATM   10  N7  UNL     1     -33.989  13.414  -4.002  1.00 20.00    -0.185 NA
ENDBRANCH   5   6
ENDBRANCH   4   5
ENDBRANCH   2   4
TORSDOF 3
ENDMDL
MODEL 4
REMARK VINA RESULT:      -3.7     11.437     12.212
REMARK  3 active torsions:
REMARK  status: ('A' for Active; 'I' for Inactive)
REMARK    1  A    between atoms: C5_5  and  C6_6 
REMARK    2  A    between atoms: C5_5  and  N8_8 
REMARK    3  A    between atoms: C6_6  and  N9_9 
ROOT
HETATM    1  C1  UNL     1     -33.854  17.608  -0.492  1.00 20.00     0.157 C 
HETATM    2  N8  UNL     1     -34.552  16.672  -0.612  1.00 20.00    -0.274 NA
HETATM    3  S10 UNL     1     -32.906  18.874  -0.300  1.00 20.00    -0.055 SA
ENDROOT
BRANCH   2   4
HETATM    4  C5  UNL     1     -34.947  16.370  -1.991  1.00 20.00     0.172 C 
BRANCH   4   5
HETATM    5  C6  UNL     1     -33.766  15.779  -2.752  1.00 20.00     0.172 C 
BRANCH   5   6
HETATM    6  N9  UNL     1     -34.172  14.906  -3.849  1.00 20.00    -0.280 N 
HETATM    7  C4  UNL     1     -34.480  15.294  -5.120  1.00 20.00     0.113 A 
HETATM    8  C2  UNL     1     -34.799  14.144  -5.797  1.00 20.00     0.040 A 
HETATM    9  C3  UNL     1     -34.649  13.120  -4.843  1.00 20.00     0.140 A 
HETATM   10  N7  UNL     1     -34.266  13.581  -3.649  1.00 20.00    -0.185 NA
ENDBRANCH   5   6
ENDBRANCH   4   5
ENDBRANCH   2   4
TORSDOF 3
ENDMDL
MODEL 5
REMARK VINA RESULT:      -3.5     11.332     12.262
REMARK  3 active torsions:
REMARK  status: ('A' for Active; 'I' for Inactive)
REMARK    1  A    between atoms: C5_5  and  C6_6 
REMARK    2  A    between atoms: C5_5  and  N8_8 
REMARK    3  A    between atoms: C6_6  and  N9_9 
ROOT
HETATM    1  C1  UNL     1     -33.846  15.856  -2.759  1.00 20.00     0.157 C 
HETATM    2  N8  UNL     1     -33.428  15.279  -3.692  1.00 20.00    -0.274 NA
HETATM    3  S10 UNL     1     -34.400  16.663  -1.503  1.00 20.00    -0.055 SA
ENDROOT
BRANCH   2   4
HETATM    4  C5  UNL     1     -33.784  13.859  -3.750  1.00 20.00     0.172 C 
BRANCH   4   5
HETATM    5  C6  UNL     1     -34.684  13.596  -4.952  1.00 20.00     0.172 C 
BRANCH   5   6
HETATM    6  N9  UNL     1     -35.974  14.273  -4.860  1.00 20.00    -0.280 N 
HETATM    7  C4  UNL     1     -36.468  15.195  -5.736  1.00 20.00     0.113 A 
HETATM    8  C2  UNL     1     -37.702  15.551  -5.250  1.00 20.00     0.040 A 
HETATM    9  C3  UNL     1     -37.854  14.784  -4.080  1.00 20.00     0.140 A 
HETATM   10  N7  UNL     1     -36.800  14.001  -3.836  1.00 20.00    -0.185 NA
ENDBRANCH   5   6
ENDBRANCH   4   5
ENDBRANCH   2   4
TORSDOF 3
ENDMDL
MODEL 6
REMARK VINA RESULT:      -3.5     11.672     12.764
REMARK  3 active torsions:
REMARK  status: ('A' for Active; 'I' for Inactive)
REMARK    1  A    between atoms: C5_5  and  C6_6 
REMARK    2  A    between atoms: C5_5  and  N8_8 
REMARK    3  A    between atoms: C6_6  and  N9_9 
ROOT
HETATM    1  C1  UNL     1     -34.022  17.671  -2.061  1.00 20.00     0.157 C 
HETATM    2  N8  UNL     1     -33.637  18.234  -3.016  1.00 20.00    -0.274 NA
HETATM    3  S10 UNL     1     -34.530  16.928  -0.746  1.00 20.00    -0.055 SA
ENDROOT
BRANCH   2   4
HETATM    4  C5  UNL     1     -34.026  17.622  -4.290  1.00 20.00     0.172 C 
BRANCH   4   5
HETATM    5  C6  UNL     1     -33.162  16.396  -4.564  1.00 20.00     0.172 C 
BRANCH   5   6
HETATM    6  N9  UNL     1     -33.936  15.165  -4.681  1.00 20.00    -0.280 N 
HETATM    7  C4  UNL     1     -34.245  14.304  -3.669  1.00 20.00     0.113 A 
HETATM    8  C2  UNL     1     -34.981  13.297  -4.242  1.00 20.00     0.040 A 
HETATM    9  C3  UNL     1     -35.058  13.649  -5.603  1.00 20.00     0.140 A 
HETATM   10  N7  UNL     1     -34.420  14.790  -5.877  1.00 20.00    -0.185 NA
ENDBRANCH   5   6
ENDBRANCH   4   5
ENDBRANCH   2   4
TORSDOF 3
ENDMDL
MODEL 7
REMARK VINA RESULT:      -3.4     11.664     12.572
REMARK  3 active torsions:
REMARK  status: ('A' for Active; 'I' for Inactive)
REMARK    1  A    between atoms: C5_5  and  C6_6 
REMARK    2  A    between atoms: C5_5  and  N8_8 
REMARK    3  A    between atoms: C6_6  and  N9_9 
ROOT
HETATM    1  C1  UNL     1     -39.060  15.136  -3.360  1.00 20.00     0.157 C 
HETATM    2  N8  UNL     1     -38.249  14.364  -3.716  1.00 20.00    -0.274 NA
HETATM    3  S10 UNL     1     -40.171  16.162  -2.861  1.00 20.00    -0.055 SA
ENDROOT
BRANCH   2   4
HETATM    4  C5  UNL     1     -37.276  14.890  -4.677  1.00 20.00     0.172 C 
BRANCH   4   5
HETATM    5  C6  UNL     1     -36.260  15.771  -3.959  1.00 20.00     0.172 C 
BRANCH   5   6
HETATM    6  N9  UNL     1     -34.943  15.151  -3.848  1.00 20.00    -0.280 N 
HETATM    7  C4  UNL     1     -34.675  13.814  -3.849  1.00 20.00     0.113 A 
HETATM    8  C2  UNL     1     -33.313  13.703  -3.726  1.00 20.00     0.040 A 
HETATM    9  C3  UNL     1     -32.856  15.032  -3.660  1.00 20.00     0.140 A 
HETATM   10  N7  UNL     1     -33.849  15.923  -3.734  1.00 20.00    -0.185 NA
ENDBRANCH   5   6
ENDBRANCH   4   5
ENDBRANCH   2   4
TORSDOF 3
ENDMDL
MODEL 8
REMARK VINA RESULT:      -3.4     10.453     11.342
REMARK  3 active torsions:
REMARK  status: ('A' for Active; 'I' for Inactive)
REMARK    1  A    between atoms: C5_5  and  C6_6 
REMARK    2  A    between atoms: C5_5  and  N8_8 
REMARK    3  A    between atoms: C6_6  and  N9_9 
ROOT
HETATM    1  C1  UNL     1     -41.704   1.251  -3.706  1.00 20.00     0.157 C 
HETATM    2  N8  UNL     1     -41.469   2.366  -3.425  1.00 20.00    -0.274 NA
HETATM    3  S10 UNL     1     -41.997  -0.263  -4.104  1.00 20.00    -0.055 SA
ENDROOT
BRANCH   2   4
HETATM    4  C5  UNL     1     -42.477   3.014  -2.580  1.00 20.00     0.172 C 
BRANCH   4   5
HETATM    5  C6  UNL     1     -42.580   4.493  -2.933  1.00 20.00     0.172 C 
BRANCH   5   6
HETATM    6  N9  UNL     1     -41.877   5.357  -1.989  1.00 20.00    -0.280 N 
HETATM    7  C4  UNL     1     -41.842   6.720  -2.012  1.00 20.00     0.113 A 
HETATM    8  C2  UNL     1     -41.069   7.095  -0.941  1.00 20.00     0.040 A 
HETATM    9  C3  UNL     1     -40.690   5.880  -0.340  1.00 20.00     0.140 A 
HETATM   10  N7  UNL     1     -41.181   4.814  -0.977  1.00 20.00    -0.185 NA
ENDBRANCH   5   6
ENDBRANCH   4   5
ENDBRANCH   2   4
TORSDOF 3
ENDMDL
MODEL 9
REMARK VINA RESULT:      -3.4     11.730     12.781
REMARK  3 active torsions:
REMARK  status: ('A' for Active; 'I' for Inactive)
REMARK    1  A    between atoms: C5_5  and  C6_6 
REMARK    2  A    between atoms: C5_5  and  N8_8 
REMARK    3  A    between atoms: C6_6  and  N9_9 
ROOT
HETATM    1  C1  UNL     1     -33.569  17.967  -5.593  1.00 20.00     0.157 C 
HETATM    2  N8  UNL     1     -33.198  17.238  -4.750  1.00 20.00    -0.274 NA
HETATM    3  S10 UNL     1     -34.055  18.941  -6.755  1.00 20.00    -0.055 SA
ENDROOT
BRANCH   2   4
HETATM    4  C5  UNL     1     -33.766  17.490  -3.423  1.00 20.00     0.172 C 
BRANCH   4   5
HETATM    5  C6  UNL     1     -33.808  16.196  -2.619  1.00 20.00     0.172 C 
BRANCH   5   6
HETATM    6  N9  UNL     1     -34.546  15.129  -3.289  1.00 20.00    -0.280 N 
HETATM    7  C4  UNL     1     -34.039  13.936  -3.711  1.00 20.00     0.113 A 
HETATM    8  C2  UNL     1     -35.090  13.259  -4.277  1.00 20.00     0.040 A 
HETATM    9  C3  UNL     1     -36.184  14.135  -4.144  1.00 20.00     0.140 A 
HETATM   10  N7  UNL     1     -35.857  15.281  -3.540  1.00 20.00    -0.185 NA
ENDBRANCH   5   6
ENDBRANCH   4   5
ENDBRANCH   2   4
TORSDOF 3
ENDMDL
