MODEL 1
REMARK VINA RESULT:      -5.0      0.000      0.000
REMARK  2 active torsions:
REMARK  status: ('A' for Active; 'I' for Inactive)
REMARK    1  A    between atoms: C2_2  and  C3_3 
REMARK    2  A    between atoms: C4_4  and  C5_5 
ROOT
HETATM    1  C3  UNL     1     -34.371   5.558   3.717  1.00 20.00    -0.001 C 
HETATM    2  C4  UNL     1     -33.217   6.230   3.841  1.00 20.00    -0.000 C 
ENDROOT
BRANCH   2   3
HETATM    3  C5  UNL     1     -32.483   6.752   2.710  1.00 20.00    -0.004 C 
HETATM    4  C6  UNL     1     -32.438   8.057   2.402  1.00 20.00    -0.031 C 
HETATM    5  C7  UNL     1     -31.682   8.607   1.238  1.00 20.00     0.036 C 
ENDBRANCH   2   3
BRANCH   1   6
HETATM    6  C2  UNL     1     -35.105   5.038   4.848  1.00 20.00    -0.010 C 
HETATM    7  C1  UNL     1     -34.689   5.159   6.113  1.00 20.00     0.011 C 
ENDBRANCH   1   6
TORSDOF 2
ENDMDL
MODEL 2
REMARK VINA RESULT:      -4.8      0.697      4.716
REMARK  2 active torsions:
REMARK  status: ('A' for Active; 'I' for Inactive)
REMARK    1  A    between atoms: C2_2  and  C3_3 
REMARK    2  A    between atoms: C4_4  and  C5_5 
ROOT
HETATM    1  C3  UNL     1     -32.256   7.663   2.841  1.00 20.00    -0.001 C 
HETATM    2  C4  UNL     1     -33.048   6.584   2.927  1.00 20.00    -0.000 C 
ENDROOT
BRANCH   2   3
HETATM    3  C5  UNL     1     -33.421   5.979   4.186  1.00 20.00    -0.004 C 
HETATM    4  C6  UNL     1     -34.608   5.389   4.393  1.00 20.00    -0.031 C 
HETATM    5  C7  UNL     1     -35.006   4.760   5.688  1.00 20.00     0.036 C 
ENDBRANCH   2   3
BRANCH   1   6
HETATM    6  C2  UNL     1     -31.883   8.269   1.582  1.00 20.00    -0.010 C 
HETATM    7  C1  UNL     1     -32.316   9.471   1.188  1.00 20.00     0.011 C 
ENDBRANCH   1   6
TORSDOF 2
ENDMDL
MODEL 3
REMARK VINA RESULT:      -3.8     10.761     11.453
REMARK  2 active torsions:
REMARK  status: ('A' for Active; 'I' for Inactive)
REMARK    1  A    between atoms: C2_2  and  C3_3 
REMARK    2  A    between atoms: C4_4  and  C5_5 
ROOT
HETATM    1  C3  UNL     1     -34.702  16.277  -1.428  1.00 20.00    -0.001 C 
HETATM    2  C4  UNL     1     -33.766  16.288  -2.388  1.00 20.00    -0.000 C 
ENDROOT
BRANCH   2   3
HETATM    3  C5  UNL     1     -33.810  15.418  -3.543  1.00 20.00    -0.004 C 
HETATM    4  C6  UNL     1     -34.366  14.198  -3.521  1.00 20.00    -0.031 C 
HETATM    5  C7  UNL     1     -34.419  13.291  -4.706  1.00 20.00     0.036 C 
ENDBRANCH   2   3
BRANCH   1   6
HETATM    6  C2  UNL     1     -34.657  17.147  -0.275  1.00 20.00    -0.010 C 
HETATM    7  C1  UNL     1     -33.710  18.072  -0.088  1.00 20.00     0.011 C 
ENDBRANCH   1   6
TORSDOF 2
ENDMDL
MODEL 4
REMARK VINA RESULT:      -3.8     10.905     11.480
REMARK  2 active torsions:
REMARK  status: ('A' for Active; 'I' for Inactive)
REMARK    1  A    between atoms: C2_2  and  C3_3 
REMARK    2  A    between atoms: C4_4  and  C5_5 
ROOT
HETATM    1  C3  UNL     1     -34.190  14.792  -3.103  1.00 20.00    -0.001 C 
HETATM    2  C4  UNL     1     -33.567  15.968  -2.934  1.00 20.00    -0.000 C 
ENDROOT
BRANCH   2   3
HETATM    3  C5  UNL     1     -33.871  16.872  -1.847  1.00 20.00    -0.004 C 
HETATM    4  C6  UNL     1     -34.662  16.541  -0.817  1.00 20.00    -0.031 C 
HETATM    5  C7  UNL     1     -34.984  17.465   0.312  1.00 20.00     0.036 C 
ENDBRANCH   2   3
BRANCH   1   6
HETATM    6  C2  UNL     1     -33.885  13.888  -4.189  1.00 20.00    -0.010 C 
HETATM    7  C1  UNL     1     -34.819  13.223  -4.876  1.00 20.00     0.011 C 
ENDBRANCH   1   6
TORSDOF 2
ENDMDL
MODEL 5
REMARK VINA RESULT:      -3.6      9.527     10.697
REMARK  2 active torsions:
REMARK  status: ('A' for Active; 'I' for Inactive)
REMARK    1  A    between atoms: C2_2  and  C3_3 
REMARK    2  A    between atoms: C4_4  and  C5_5 
ROOT
HETATM    1  C3  UNL     1     -40.963   4.535  -1.122  1.00 20.00    -0.001 C 
HETATM    2  C4  UNL     1     -41.878   4.369  -2.087  1.00 20.00    -0.000 C 
ENDROOT
BRANCH   2   3
HETATM    3  C5  UNL     1     -42.179   3.082  -2.675  1.00 20.00    -0.004 C 
HETATM    4  C6  UNL     1     -41.290   2.374  -3.387  1.00 20.00    -0.031 C 
HETATM    5  C7  UNL     1     -41.588   1.044  -3.998  1.00 20.00     0.036 C 
ENDBRANCH   2   3
BRANCH   1   6
HETATM    6  C2  UNL     1     -40.663   5.821  -0.534  1.00 20.00    -0.010 C 
HETATM    7  C1  UNL     1     -41.088   6.980  -1.046  1.00 20.00     0.011 C 
ENDBRANCH   1   6
TORSDOF 2
ENDMDL
MODEL 6
REMARK VINA RESULT:      -3.5     10.560     11.608
REMARK  2 active torsions:
REMARK  status: ('A' for Active; 'I' for Inactive)
REMARK    1  A    between atoms: C2_2  and  C3_3 
REMARK    2  A    between atoms: C4_4  and  C5_5 
ROOT
HETATM    1  C3  UNL     1     -34.781  15.748  -2.171  1.00 20.00    -0.001 C 
HETATM    2  C4  UNL     1     -33.961  16.752  -1.828  1.00 20.00    -0.000 C 
ENDROOT
BRANCH   2   3
HETATM    3  C5  UNL     1     -34.014  17.408  -0.540  1.00 20.00    -0.004 C 
HETATM    4  C6  UNL     1     -35.035  17.261   0.317  1.00 20.00    -0.031 C 
HETATM    5  C7  UNL     1     -35.101  17.932   1.650  1.00 20.00     0.036 C 
ENDBRANCH   2   3
BRANCH   1   6
HETATM    6  C2  UNL     1     -34.727  15.092  -3.458  1.00 20.00    -0.010 C 
HETATM    7  C1  UNL     1     -34.346  13.821  -3.620  1.00 20.00     0.011 C 
ENDBRANCH   1   6
TORSDOF 2
ENDMDL
MODEL 7
REMARK VINA RESULT:      -3.5     11.337     12.391
REMARK  2 active torsions:
REMARK  status: ('A' for Active; 'I' for Inactive)
REMARK    1  A    between atoms: C2_2  and  C3_3 
REMARK    2  A    between atoms: C4_4  and  C5_5 
ROOT
HETATM    1  C3  UNL     1     -33.001  18.306  -0.777  1.00 20.00    -0.001 C 
HETATM    2  C4  UNL     1     -34.013  17.599  -0.254  1.00 20.00    -0.000 C 
ENDROOT
BRANCH   2   3
HETATM    3  C5  UNL     1     -34.782  16.641  -1.017  1.00 20.00    -0.004 C 
HETATM    4  C6  UNL     1     -34.438  16.239  -2.249  1.00 20.00    -0.031 C 
HETATM    5  C7  UNL     1     -35.224  15.250  -3.047  1.00 20.00     0.036 C 
ENDBRANCH   2   3
BRANCH   1   6
HETATM    6  C2  UNL     1     -32.232  19.263  -0.014  1.00 20.00    -0.010 C 
HETATM    7  C1  UNL     1     -31.804  19.035   1.232  1.00 20.00     0.011 C 
ENDBRANCH   1   6
TORSDOF 2
ENDMDL
MODEL 8
REMARK VINA RESULT:      -3.5     11.258     11.849
REMARK  2 active torsions:
REMARK  status: ('A' for Active; 'I' for Inactive)
REMARK    1  A    between atoms: C2_2  and  C3_3 
REMARK    2  A    between atoms: C4_4  and  C5_5 
ROOT
HETATM    1  C3  UNL     1     -34.621  16.811  -0.723  1.00 20.00    -0.001 C 
HETATM    2  C4  UNL     1     -34.049  16.478  -1.890  1.00 20.00    -0.000 C 
ENDROOT
BRANCH   2   3
HETATM    3  C5  UNL     1     -34.579  15.455  -2.764  1.00 20.00    -0.004 C 
HETATM    4  C6  UNL     1     -35.862  15.413  -3.152  1.00 20.00    -0.031 C 
HETATM    5  C7  UNL     1     -36.421  14.362  -4.055  1.00 20.00     0.036 C 
ENDBRANCH   2   3
BRANCH   1   6
HETATM    6  C2  UNL     1     -34.092  17.835   0.149  1.00 20.00    -0.010 C 
HETATM    7  C1  UNL     1     -32.982  18.529  -0.121  1.00 20.00     0.011 C 
ENDBRANCH   1   6
TORSDOF 2
ENDMDL
MODEL 9
REMARK VINA RESULT:      -3.4      9.573     10.478
REMARK  2 active torsions:
REMARK  status: ('A' for Active; 'I' for Inactive)
REMARK    1  A    between atoms: C2_2  and  C3_3 
REMARK    2  A    between atoms: C4_4  and  C5_5 
ROOT
HETATM    1  C3  UNL     1     -42.094   3.534  -2.519  1.00 20.00    -0.001 C 
HETATM    2  C4  UNL     1     -41.041   3.921  -1.783  1.00 20.00    -0.000 C 
ENDROOT
BRANCH   2   3
HETATM    3  C5  UNL     1     -40.976   5.201  -1.113  1.00 20.00    -0.004 C 
HETATM    4  C6  UNL     1     -41.482   6.328  -1.634  1.00 20.00    -0.031 C 
HETATM    5  C7  UNL     1     -41.421   7.656  -0.951  1.00 20.00     0.036 C 
ENDBRANCH   2   3
BRANCH   1   6
HETATM    6  C2  UNL     1     -42.159   2.254  -3.188  1.00 20.00    -0.010 C 
HETATM    7  C1  UNL     1     -41.176   1.776  -3.957  1.00 20.00     0.011 C 
ENDBRANCH   1   6
TORSDOF 2
ENDMDL
