MODEL 1
REMARK VINA RESULT:      -3.9      0.000      0.000
REMARK  4 active torsions:
REMARK  status: ('A' for Active; 'I' for Inactive)
REMARK    1  A    between atoms: C4_4  and  C7_7 
REMARK    2  A    between atoms: C5_5  and  C8_8 
REMARK    3  A    between atoms: C6_6  and  C8_8 
REMARK    4  A    between atoms: C7_7  and  C8_8 
ROOT
HETATM    1  C8  UNL     1     -33.651  15.579  -3.660  1.00 20.00     0.036 C 
HETATM    2 CL9  UNL     1     -32.287  14.394  -3.476  1.00 20.00    -0.119 Cl
ENDROOT
BRANCH   1   3
HETATM    3  C5  UNL     1     -33.412  16.340  -4.987  1.00 20.00     0.021 C 
HETATM    4  C2  UNL     1     -33.588  17.852  -4.903  1.00 20.00     0.007 C 
ENDBRANCH   1   3
BRANCH   1   5
HETATM    5  C6  UNL     1     -34.983  14.779  -3.653  1.00 20.00     0.021 C 
HETATM    6  C3  UNL     1     -34.925  13.370  -4.234  1.00 20.00     0.007 C 
ENDBRANCH   1   5
BRANCH   1   7
HETATM    7  C7  UNL     1     -33.649  16.511  -2.416  1.00 20.00     0.025 C 
BRANCH   7   8
HETATM    8  C4  UNL     1     -34.791  16.303  -1.413  1.00 20.00    -0.003 C 
HETATM    9  C1  UNL     1     -34.617  17.192  -0.190  1.00 20.00     0.005 C 
ENDBRANCH   7   8
ENDBRANCH   1   7
TORSDOF 4
ENDMDL
MODEL 2
REMARK VINA RESULT:      -3.8      1.083      1.193
REMARK  4 active torsions:
REMARK  status: ('A' for Active; 'I' for Inactive)
REMARK    1  A    between atoms: C4_4  and  C7_7 
REMARK    2  A    between atoms: C5_5  and  C8_8 
REMARK    3  A    between atoms: C6_6  and  C8_8 
REMARK    4  A    between atoms: C7_7  and  C8_8 
ROOT
HETATM    1  C8  UNL     1     -34.173  15.158  -3.891  1.00 20.00     0.036 C 
HETATM    2 CL9  UNL     1     -33.219  13.621  -3.730  1.00 20.00    -0.119 Cl
ENDROOT
BRANCH   1   3
HETATM    3  C5  UNL     1     -33.212  16.227  -4.468  1.00 20.00     0.021 C 
HETATM    4  C2  UNL     1     -33.748  16.990  -5.675  1.00 20.00     0.007 C 
ENDBRANCH   1   3
BRANCH   1   5
HETATM    5  C6  UNL     1     -35.386  14.873  -4.817  1.00 20.00     0.021 C 
HETATM    6  C3  UNL     1     -36.697  14.520  -4.121  1.00 20.00     0.007 C 
ENDBRANCH   1   5
BRANCH   1   7
HETATM    7  C7  UNL     1     -34.723  15.532  -2.486  1.00 20.00     0.025 C 
BRANCH   7   8
HETATM    8  C4  UNL     1     -34.019  16.691  -1.769  1.00 20.00    -0.003 C 
HETATM    9  C1  UNL     1     -34.648  16.961  -0.410  1.00 20.00     0.005 C 
ENDBRANCH   7   8
ENDBRANCH   1   7
TORSDOF 4
ENDMDL
MODEL 3
REMARK VINA RESULT:      -3.8      1.390      2.872
REMARK  4 active torsions:
REMARK  status: ('A' for Active; 'I' for Inactive)
REMARK    1  A    between atoms: C4_4  and  C7_7 
REMARK    2  A    between atoms: C5_5  and  C8_8 
REMARK    3  A    between atoms: C6_6  and  C8_8 
REMARK    4  A    between atoms: C7_7  and  C8_8 
ROOT
HETATM    1  C8  UNL     1     -34.008  15.606  -3.864  1.00 20.00     0.036 C 
HETATM    2 CL9  UNL     1     -35.787  15.788  -4.182  1.00 20.00    -0.119 Cl
ENDROOT
BRANCH   1   3
HETATM    3  C5  UNL     1     -33.705  14.088  -3.852  1.00 20.00     0.021 C 
HETATM    4  C2  UNL     1     -34.697  13.227  -4.626  1.00 20.00     0.007 C 
ENDBRANCH   1   3
BRANCH   1   5
HETATM    5  C6  UNL     1     -33.243  16.367  -4.980  1.00 20.00     0.021 C 
HETATM    6  C3  UNL     1     -33.543  17.858  -5.107  1.00 20.00     0.007 C 
ENDBRANCH   1   5
BRANCH   1   7
HETATM    7  C7  UNL     1     -33.689  16.300  -2.510  1.00 20.00     0.025 C 
BRANCH   7   8
HETATM    8  C4  UNL     1     -34.797  16.255  -1.449  1.00 20.00    -0.003 C 
HETATM    9  C1  UNL     1     -34.503  17.216  -0.306  1.00 20.00     0.005 C 
ENDBRANCH   7   8
ENDBRANCH   1   7
TORSDOF 4
ENDMDL
MODEL 4
REMARK VINA RESULT:      -3.8     11.606     12.806
REMARK  4 active torsions:
REMARK  status: ('A' for Active; 'I' for Inactive)
REMARK    1  A    between atoms: C4_4  and  C7_7 
REMARK    2  A    between atoms: C5_5  and  C8_8 
REMARK    3  A    between atoms: C6_6  and  C8_8 
REMARK    4  A    between atoms: C7_7  and  C8_8 
ROOT
HETATM    1  C8  UNL     1     -34.107   5.826   4.384  1.00 20.00     0.036 C 
HETATM    2 CL9  UNL     1     -35.694   5.708   3.509  1.00 20.00    -0.119 Cl
ENDROOT
BRANCH   1   3
HETATM    3  C5  UNL     1     -34.156   7.118   5.236  1.00 20.00     0.021 C 
HETATM    4  C2  UNL     1     -33.661   6.964   6.670  1.00 20.00     0.007 C 
ENDBRANCH   1   3
BRANCH   1   5
HETATM    5  C6  UNL     1     -33.939   4.543   5.243  1.00 20.00     0.021 C 
HETATM    6  C3  UNL     1     -35.216   3.958   5.839  1.00 20.00     0.007 C 
ENDBRANCH   1   5
BRANCH   1   7
HETATM    7  C7  UNL     1     -32.973   5.841   3.322  1.00 20.00     0.025 C 
BRANCH   7   8
HETATM    8  C4  UNL     1     -31.977   7.004   3.413  1.00 20.00    -0.003 C 
HETATM    9  C1  UNL     1     -32.130   7.952   2.232  1.00 20.00     0.005 C 
ENDBRANCH   7   8
ENDBRANCH   1   7
TORSDOF 4
ENDMDL
MODEL 5
REMARK VINA RESULT:      -3.7      1.807      3.716
REMARK  4 active torsions:
REMARK  status: ('A' for Active; 'I' for Inactive)
REMARK    1  A    between atoms: C4_4  and  C7_7 
REMARK    2  A    between atoms: C5_5  and  C8_8 
REMARK    3  A    between atoms: C6_6  and  C8_8 
REMARK    4  A    between atoms: C7_7  and  C8_8 
ROOT
HETATM    1  C8  UNL     1     -34.270  16.060  -3.474  1.00 20.00     0.036 C 
HETATM    2 CL9  UNL     1     -35.825  16.922  -3.840  1.00 20.00    -0.119 Cl
ENDROOT
BRANCH   1   3
HETATM    3  C5  UNL     1     -33.721  16.658  -2.156  1.00 20.00     0.021 C 
HETATM    4  C2  UNL     1     -34.668  16.565  -0.964  1.00 20.00     0.007 C 
ENDBRANCH   1   3
BRANCH   1   5
HETATM    5  C6  UNL     1     -34.580  14.541  -3.366  1.00 20.00     0.021 C 
HETATM    6  C3  UNL     1     -33.455  13.593  -3.770  1.00 20.00     0.007 C 
ENDBRANCH   1   5
BRANCH   1   7
HETATM    7  C7  UNL     1     -33.311  16.265  -4.680  1.00 20.00     0.025 C 
BRANCH   7   8
HETATM    8  C4  UNL     1     -33.960  16.732  -5.989  1.00 20.00    -0.003 C 
HETATM    9  C1  UNL     1     -34.213  15.559  -6.926  1.00 20.00     0.005 C 
ENDBRANCH   7   8
ENDBRANCH   1   7
TORSDOF 4
ENDMDL
MODEL 6
REMARK VINA RESULT:      -3.7      0.976      3.820
REMARK  4 active torsions:
REMARK  status: ('A' for Active; 'I' for Inactive)
REMARK    1  A    between atoms: C4_4  and  C7_7 
REMARK    2  A    between atoms: C5_5  and  C8_8 
REMARK    3  A    between atoms: C6_6  and  C8_8 
REMARK    4  A    between atoms: C7_7  and  C8_8 
ROOT
HETATM    1  C8  UNL     1     -33.739  15.587  -3.639  1.00 20.00     0.036 C 
HETATM    2 CL9  UNL     1     -32.414  14.356  -3.476  1.00 20.00    -0.119 Cl
ENDROOT
BRANCH   1   3
HETATM    3  C5  UNL     1     -35.076  14.807  -3.687  1.00 20.00     0.021 C 
HETATM    4  C2  UNL     1     -34.961  13.359  -4.149  1.00 20.00     0.007 C 
ENDBRANCH   1   3
BRANCH   1   5
HETATM    5  C6  UNL     1     -33.646  16.553  -2.427  1.00 20.00     0.021 C 
HETATM    6  C3  UNL     1     -34.699  16.371  -1.338  1.00 20.00     0.007 C 
ENDBRANCH   1   5
BRANCH   1   7
HETATM    7  C7  UNL     1     -33.471  16.413  -4.928  1.00 20.00     0.025 C 
BRANCH   7   8
HETATM    8  C4  UNL     1     -34.624  16.485  -5.938  1.00 20.00    -0.003 C 
HETATM    9  C1  UNL     1     -34.342  15.617  -7.156  1.00 20.00     0.005 C 
ENDBRANCH   7   8
ENDBRANCH   1   7
TORSDOF 4
ENDMDL
MODEL 7
REMARK VINA RESULT:      -3.7      1.762      3.507
REMARK  4 active torsions:
REMARK  status: ('A' for Active; 'I' for Inactive)
REMARK    1  A    between atoms: C4_4  and  C7_7 
REMARK    2  A    between atoms: C5_5  and  C8_8 
REMARK    3  A    between atoms: C6_6  and  C8_8 
REMARK    4  A    between atoms: C7_7  and  C8_8 
ROOT
HETATM    1  C8  UNL     1     -34.370  16.440  -3.352  1.00 20.00     0.036 C 
HETATM    2 CL9  UNL     1     -35.675  17.634  -3.761  1.00 20.00    -0.119 Cl
ENDROOT
BRANCH   1   3
HETATM    3  C5  UNL     1     -33.337  16.488  -4.505  1.00 20.00     0.021 C 
HETATM    4  C2  UNL     1     -33.912  16.850  -5.870  1.00 20.00     0.007 C 
ENDBRANCH   1   3
BRANCH   1   5
HETATM    5  C6  UNL     1     -33.763  16.845  -1.981  1.00 20.00     0.021 C 
HETATM    6  C3  UNL     1     -34.645  16.610  -0.758  1.00 20.00     0.007 C 
ENDBRANCH   1   5
BRANCH   1   7
HETATM    7  C7  UNL     1     -35.031  15.043  -3.186  1.00 20.00     0.025 C 
BRANCH   7   8
HETATM    8  C4  UNL     1     -34.178  13.837  -3.601  1.00 20.00    -0.003 C 
HETATM    9  C1  UNL     1     -34.761  13.145  -4.824  1.00 20.00     0.005 C 
ENDBRANCH   7   8
ENDBRANCH   1   7
TORSDOF 4
ENDMDL
MODEL 8
REMARK VINA RESULT:      -3.7      1.426      1.568
REMARK  4 active torsions:
REMARK  status: ('A' for Active; 'I' for Inactive)
REMARK    1  A    between atoms: C4_4  and  C7_7 
REMARK    2  A    between atoms: C5_5  and  C8_8 
REMARK    3  A    between atoms: C6_6  and  C8_8 
REMARK    4  A    between atoms: C7_7  and  C8_8 
ROOT
HETATM    1  C8  UNL     1     -34.133  15.688  -3.848  1.00 20.00     0.036 C 
HETATM    2 CL9  UNL     1     -33.123  16.434  -5.161  1.00 20.00    -0.119 Cl
ENDROOT
BRANCH   1   3
HETATM    3  C5  UNL     1     -35.613  15.982  -4.196  1.00 20.00     0.021 C 
HETATM    4  C2  UNL     1     -35.830  16.737  -5.503  1.00 20.00     0.007 C 
ENDBRANCH   1   3
BRANCH   1   5
HETATM    5  C6  UNL     1     -33.812  14.168  -3.805  1.00 20.00     0.021 C 
HETATM    6  C3  UNL     1     -34.907  13.234  -4.312  1.00 20.00     0.007 C 
ENDBRANCH   1   5
BRANCH   1   7
HETATM    7  C7  UNL     1     -33.692  16.307  -2.492  1.00 20.00     0.025 C 
BRANCH   7   8
HETATM    8  C4  UNL     1     -34.755  16.337  -1.386  1.00 20.00    -0.003 C 
HETATM    9  C1  UNL     1     -34.387  17.336  -0.298  1.00 20.00     0.005 C 
ENDBRANCH   7   8
ENDBRANCH   1   7
TORSDOF 4
ENDMDL
MODEL 9
REMARK VINA RESULT:      -3.7      1.695      4.108
REMARK  4 active torsions:
REMARK  status: ('A' for Active; 'I' for Inactive)
REMARK    1  A    between atoms: C4_4  and  C7_7 
REMARK    2  A    between atoms: C5_5  and  C8_8 
REMARK    3  A    between atoms: C6_6  and  C8_8 
REMARK    4  A    between atoms: C7_7  and  C8_8 
ROOT
HETATM    1  C8  UNL     1     -34.449  15.312  -3.958  1.00 20.00     0.036 C 
HETATM    2 CL9  UNL     1     -33.858  13.620  -3.661  1.00 20.00    -0.119 Cl
ENDROOT
BRANCH   1   3
HETATM    3  C5  UNL     1     -35.179  15.767  -2.670  1.00 20.00     0.021 C 
HETATM    4  C2  UNL     1     -34.291  16.445  -1.632  1.00 20.00     0.007 C 
ENDBRANCH   1   3
BRANCH   1   5
HETATM    5  C6  UNL     1     -33.218  16.195  -4.299  1.00 20.00     0.021 C 
HETATM    6  C3  UNL     1     -33.485  17.412  -5.179  1.00 20.00     0.007 C 
ENDBRANCH   1   5
BRANCH   1   7
HETATM    7  C7  UNL     1     -35.376  15.285  -5.205  1.00 20.00     0.025 C 
BRANCH   7   8
HETATM    8  C4  UNL     1     -35.081  14.196  -6.244  1.00 20.00    -0.003 C 
HETATM    9  C1  UNL     1     -34.859  14.799  -7.624  1.00 20.00     0.005 C 
ENDBRANCH   7   8
ENDBRANCH   1   7
TORSDOF 4
ENDMDL
