MODEL 1
REMARK VINA RESULT:      -5.2      0.000      0.000
REMARK  0 active torsions:
REMARK  status: ('A' for Active; 'I' for Inactive)
ROOT
HETATM    1  C1  UNL     1     -33.174  16.266  -4.552  1.00 20.00     0.009 C 
HETATM    2  C2  UNL     1     -35.667  16.497  -4.701  1.00 20.00     0.009 C 
HETATM    3  C3  UNL     1     -34.610  15.681  -2.579  1.00 20.00     0.009 C 
HETATM    4  C4  UNL     1     -34.497  14.686  -5.981  1.00 20.00     0.048 C 
HETATM    5  C5  UNL     1     -33.438  13.871  -3.859  1.00 20.00     0.048 C 
HETATM    6  C6  UNL     1     -35.931  14.102  -4.009  1.00 20.00     0.048 C 
HETATM    7  C7  UNL     1     -34.392  16.138  -5.486  1.00 20.00    -0.011 C 
HETATM    8  C8  UNL     1     -33.326  15.317  -3.349  1.00 20.00    -0.011 C 
HETATM    9  C9  UNL     1     -35.836  15.549  -3.499  1.00 20.00    -0.011 C 
HETATM   10  C10 UNL     1     -34.656  13.741  -4.783  1.00 20.00     0.104 C 
HETATM   11  F11 UNL     1     -34.748  12.464  -5.229  1.00 20.00    -0.243 F 
ENDROOT
TORSDOF 0
ENDMDL
MODEL 2
REMARK VINA RESULT:      -5.2      0.020      2.274
REMARK  0 active torsions:
REMARK  status: ('A' for Active; 'I' for Inactive)
ROOT
HETATM    1  C1  UNL     1     -34.605  15.678  -2.558  1.00 20.00     0.009 C 
HETATM    2  C2  UNL     1     -33.173  16.262  -4.532  1.00 20.00     0.009 C 
HETATM    3  C3  UNL     1     -35.665  16.503  -4.679  1.00 20.00     0.009 C 
HETATM    4  C4  UNL     1     -33.445  13.866  -3.845  1.00 20.00     0.048 C 
HETATM    5  C5  UNL     1     -35.937  14.108  -3.990  1.00 20.00     0.048 C 
HETATM    6  C6  UNL     1     -34.503  14.691  -5.963  1.00 20.00     0.048 C 
HETATM    7  C7  UNL     1     -33.326  15.310  -3.331  1.00 20.00    -0.011 C 
HETATM    8  C8  UNL     1     -35.835  15.553  -3.477  1.00 20.00    -0.011 C 
HETATM    9  C9  UNL     1     -34.392  16.141  -5.465  1.00 20.00    -0.011 C 
HETATM   10  C10 UNL     1     -34.665  13.744  -4.767  1.00 20.00     0.104 C 
HETATM   11  F11 UNL     1     -34.762  12.468  -5.215  1.00 20.00    -0.243 F 
ENDROOT
TORSDOF 0
ENDMDL
MODEL 3
REMARK VINA RESULT:      -5.2      0.022      2.275
REMARK  0 active torsions:
REMARK  status: ('A' for Active; 'I' for Inactive)
ROOT
HETATM    1  C1  UNL     1     -35.661  16.520  -4.682  1.00 20.00     0.009 C 
HETATM    2  C2  UNL     1     -34.600  15.685  -2.569  1.00 20.00     0.009 C 
HETATM    3  C3  UNL     1     -33.168  16.266  -4.545  1.00 20.00     0.009 C 
HETATM    4  C4  UNL     1     -35.941  14.123  -4.000  1.00 20.00     0.048 C 
HETATM    5  C5  UNL     1     -34.511  14.705  -5.976  1.00 20.00     0.048 C 
HETATM    6  C6  UNL     1     -33.450  13.871  -3.862  1.00 20.00     0.048 C 
HETATM    7  C7  UNL     1     -35.833  15.568  -3.484  1.00 20.00    -0.011 C 
HETATM    8  C8  UNL     1     -34.392  16.153  -5.474  1.00 20.00    -0.011 C 
HETATM    9  C9  UNL     1     -33.323  15.313  -3.346  1.00 20.00    -0.011 C 
HETATM   10  C10 UNL     1     -34.673  13.756  -4.782  1.00 20.00     0.104 C 
HETATM   11  F11 UNL     1     -34.778  12.481  -5.232  1.00 20.00    -0.243 F 
ENDROOT
TORSDOF 0
ENDMDL
MODEL 4
REMARK VINA RESULT:      -5.1      1.382      2.645
REMARK  0 active torsions:
REMARK  status: ('A' for Active; 'I' for Inactive)
ROOT
HETATM    1  C1  UNL     1     -34.618  15.613  -2.620  1.00 20.00     0.009 C 
HETATM    2  C2  UNL     1     -35.940  13.997  -4.009  1.00 20.00     0.009 C 
HETATM    3  C3  UNL     1     -33.448  13.764  -3.849  1.00 20.00     0.009 C 
HETATM    4  C4  UNL     1     -35.670  16.372  -4.765  1.00 20.00     0.048 C 
HETATM    5  C5  UNL     1     -33.178  16.140  -4.604  1.00 20.00     0.048 C 
HETATM    6  C6  UNL     1     -34.502  14.524  -5.993  1.00 20.00     0.048 C 
HETATM    7  C7  UNL     1     -35.843  15.460  -3.539  1.00 20.00    -0.011 C 
HETATM    8  C8  UNL     1     -33.334  15.226  -3.378  1.00 20.00    -0.011 C 
HETATM    9  C9  UNL     1     -34.666  13.599  -4.777  1.00 20.00    -0.011 C 
HETATM   10  C10 UNL     1     -34.396  15.982  -5.525  1.00 20.00     0.104 C 
HETATM   11  F11 UNL     1     -34.251  16.790  -6.604  1.00 20.00    -0.243 F 
ENDROOT
TORSDOF 0
ENDMDL
MODEL 5
REMARK VINA RESULT:      -5.1      1.382      2.644
REMARK  0 active torsions:
REMARK  status: ('A' for Active; 'I' for Inactive)
ROOT
HETATM    1  C1  UNL     1     -33.435  13.767  -3.850  1.00 20.00     0.009 C 
HETATM    2  C2  UNL     1     -34.604  15.617  -2.625  1.00 20.00     0.009 C 
HETATM    3  C3  UNL     1     -35.929  13.998  -4.008  1.00 20.00     0.009 C 
HETATM    4  C4  UNL     1     -33.168  16.140  -4.613  1.00 20.00     0.048 C 
HETATM    5  C5  UNL     1     -34.493  14.520  -5.995  1.00 20.00     0.048 C 
HETATM    6  C6  UNL     1     -35.660  16.370  -4.770  1.00 20.00     0.048 C 
HETATM    7  C7  UNL     1     -33.321  15.230  -3.384  1.00 20.00    -0.011 C 
HETATM    8  C8  UNL     1     -34.655  13.599  -4.775  1.00 20.00    -0.011 C 
HETATM    9  C9  UNL     1     -35.831  15.462  -3.542  1.00 20.00    -0.011 C 
HETATM   10  C10 UNL     1     -34.387  15.978  -5.532  1.00 20.00     0.104 C 
HETATM   11  F11 UNL     1     -34.244  16.784  -6.612  1.00 20.00    -0.243 F 
ENDROOT
TORSDOF 0
ENDMDL
MODEL 6
REMARK VINA RESULT:      -5.1      1.378      2.962
REMARK  0 active torsions:
REMARK  status: ('A' for Active; 'I' for Inactive)
ROOT
HETATM    1  C1  UNL     1     -35.961  14.040  -3.991  1.00 20.00     0.009 C 
HETATM    2  C2  UNL     1     -33.474  13.754  -3.842  1.00 20.00     0.009 C 
HETATM    3  C3  UNL     1     -34.593  15.643  -2.629  1.00 20.00     0.009 C 
HETATM    4  C4  UNL     1     -34.523  14.512  -5.990  1.00 20.00     0.048 C 
HETATM    5  C5  UNL     1     -35.642  16.400  -4.776  1.00 20.00     0.048 C 
HETATM    6  C6  UNL     1     -33.155  16.113  -4.628  1.00 20.00     0.048 C 
HETATM    7  C7  UNL     1     -34.701  13.605  -4.761  1.00 20.00    -0.011 C 
HETATM    8  C8  UNL     1     -35.828  15.507  -3.540  1.00 20.00    -0.011 C 
HETATM    9  C9  UNL     1     -33.323  15.218  -3.390  1.00 20.00    -0.011 C 
HETATM   10  C10 UNL     1     -34.382  15.972  -5.539  1.00 20.00     0.104 C 
HETATM   11  F11 UNL     1     -34.225  16.764  -6.629  1.00 20.00    -0.243 F 
ENDROOT
TORSDOF 0
ENDMDL
MODEL 7
REMARK VINA RESULT:      -5.0      1.402      2.688
REMARK  0 active torsions:
REMARK  status: ('A' for Active; 'I' for Inactive)
ROOT
HETATM    1  C1  UNL     1     -33.475  13.758  -3.871  1.00 20.00     0.009 C 
HETATM    2  C2  UNL     1     -34.459  14.530  -6.045  1.00 20.00     0.009 C 
HETATM    3  C3  UNL     1     -33.151  16.130  -4.624  1.00 20.00     0.009 C 
HETATM    4  C4  UNL     1     -35.957  14.026  -4.099  1.00 20.00     0.048 C 
HETATM    5  C5  UNL     1     -34.649  15.625  -2.678  1.00 20.00     0.048 C 
HETATM    6  C6  UNL     1     -35.633  16.395  -4.852  1.00 20.00     0.048 C 
HETATM    7  C7  UNL     1     -34.670  13.608  -4.829  1.00 20.00    -0.011 C 
HETATM    8  C8  UNL     1     -33.353  15.219  -3.398  1.00 20.00    -0.011 C 
HETATM    9  C9  UNL     1     -34.345  15.996  -5.587  1.00 20.00    -0.011 C 
HETATM   10  C10 UNL     1     -35.839  15.483  -3.635  1.00 20.00     0.104 C 
HETATM   11  F11 UNL     1     -36.978  15.843  -2.992  1.00 20.00    -0.243 F 
ENDROOT
TORSDOF 0
ENDMDL
MODEL 8
REMARK VINA RESULT:      -5.0      1.409      2.976
REMARK  0 active torsions:
REMARK  status: ('A' for Active; 'I' for Inactive)
ROOT
HETATM    1  C1  UNL     1     -33.148  16.132  -4.617  1.00 20.00     0.009 C 
HETATM    2  C2  UNL     1     -33.495  13.765  -3.864  1.00 20.00     0.009 C 
HETATM    3  C3  UNL     1     -34.467  14.541  -6.042  1.00 20.00     0.009 C 
HETATM    4  C4  UNL     1     -34.657  15.642  -2.676  1.00 20.00     0.048 C 
HETATM    5  C5  UNL     1     -35.628  16.419  -4.853  1.00 20.00     0.048 C 
HETATM    6  C6  UNL     1     -35.974  14.052  -4.099  1.00 20.00     0.048 C 
HETATM    7  C7  UNL     1     -33.362  15.225  -3.392  1.00 20.00    -0.011 C 
HETATM    8  C8  UNL     1     -34.340  16.007  -5.584  1.00 20.00    -0.011 C 
HETATM    9  C9  UNL     1     -34.689  13.623  -4.826  1.00 20.00    -0.011 C 
HETATM   10  C10 UNL     1     -35.846  15.510  -3.637  1.00 20.00     0.104 C 
HETATM   11  F11 UNL     1     -36.983  15.880  -2.997  1.00 20.00    -0.243 F 
ENDROOT
TORSDOF 0
ENDMDL
MODEL 9
REMARK VINA RESULT:      -5.0      1.409      2.672
REMARK  0 active torsions:
REMARK  status: ('A' for Active; 'I' for Inactive)
ROOT
HETATM    1  C1  UNL     1     -34.475  14.542  -6.049  1.00 20.00     0.009 C 
HETATM    2  C2  UNL     1     -33.152  16.128  -4.628  1.00 20.00     0.009 C 
HETATM    3  C3  UNL     1     -33.496  13.761  -3.873  1.00 20.00     0.009 C 
HETATM    4  C4  UNL     1     -35.632  16.418  -4.853  1.00 20.00     0.048 C 
HETATM    5  C5  UNL     1     -35.977  14.051  -4.101  1.00 20.00     0.048 C 
HETATM    6  C6  UNL     1     -34.653  15.638  -2.681  1.00 20.00     0.048 C 
HETATM    7  C7  UNL     1     -34.347  16.006  -5.591  1.00 20.00    -0.011 C 
HETATM    8  C8  UNL     1     -34.694  13.623  -4.832  1.00 20.00    -0.011 C 
HETATM    9  C9  UNL     1     -33.361  15.221  -3.401  1.00 20.00    -0.011 C 
HETATM   10  C10 UNL     1     -35.846  15.508  -3.637  1.00 20.00     0.104 C 
HETATM   11  F11 UNL     1     -36.980  15.878  -2.994  1.00 20.00    -0.243 F 
ENDROOT
TORSDOF 0
ENDMDL
