MODEL 1
REMARK VINA RESULT:      -4.0      0.000      0.000
REMARK  1 active torsions:
REMARK  status: ('A' for Active; 'I' for Inactive)
REMARK    1  A    between atoms: C1_1  and  C5_5 
ROOT
HETATM    1  C2  UNL     1     -34.412   5.762   6.079  1.00 20.00     0.040 C 
HETATM    2  C3  UNL     1     -34.496   4.252   5.994  1.00 20.00     0.168 C 
HETATM    3  C4  UNL     1     -35.341   5.119   3.999  1.00 20.00     0.179 C 
HETATM    4  C5  UNL     1     -34.481   6.188   4.635  1.00 20.00     0.073 C 
HETATM    5  O7  UNL     1     -35.242   3.941   4.814  1.00 20.00    -0.390 OA
ENDROOT
BRANCH   4   6
HETATM    6  C1  UNL     1     -33.086   6.153   4.033  1.00 20.00     0.237 C 
HETATM    7  O6  UNL     1     -32.829   6.548   2.901  1.00 20.00    -0.306 OA
ENDBRANCH   4   6
TORSDOF 1
ENDMDL
MODEL 2
REMARK VINA RESULT:      -3.5      0.905      3.051
REMARK  1 active torsions:
REMARK  status: ('A' for Active; 'I' for Inactive)
REMARK    1  A    between atoms: C1_1  and  C5_5 
ROOT
HETATM    1  C2  UNL     1     -35.266   5.548   3.671  1.00 20.00     0.040 C 
HETATM    2  C3  UNL     1     -33.995   5.388   2.863  1.00 20.00     0.168 C 
HETATM    3  C4  UNL     1     -33.441   6.505   4.836  1.00 20.00     0.179 C 
HETATM    4  C5  UNL     1     -34.753   5.790   5.067  1.00 20.00     0.073 C 
HETATM    5  O7  UNL     1     -32.982   6.156   3.521  1.00 20.00    -0.390 OA
ENDROOT
BRANCH   4   6
HETATM    6  C1  UNL     1     -34.499   4.455   5.748  1.00 20.00     0.237 C 
HETATM    7  O6  UNL     1     -35.049   3.411   5.415  1.00 20.00    -0.306 OA
ENDBRANCH   4   6
TORSDOF 1
ENDMDL
MODEL 3
REMARK VINA RESULT:      -3.4     12.006     13.074
REMARK  1 active torsions:
REMARK  status: ('A' for Active; 'I' for Inactive)
REMARK    1  A    between atoms: C1_1  and  C5_5 
ROOT
HETATM    1  C2  UNL     1     -35.101  15.787  -2.853  1.00 20.00     0.040 C 
HETATM    2  C3  UNL     1     -34.572  16.769  -3.877  1.00 20.00     0.168 C 
HETATM    3  C4  UNL     1     -33.050  15.006  -3.738  1.00 20.00     0.179 C 
HETATM    4  C5  UNL     1     -34.373  14.513  -3.194  1.00 20.00     0.073 C 
HETATM    5  O7  UNL     1     -33.250  16.343  -4.220  1.00 20.00    -0.390 OA
ENDROOT
BRANCH   4   6
HETATM    6  C1  UNL     1     -35.133  13.774  -4.282  1.00 20.00     0.237 C 
HETATM    7  O6  UNL     1     -34.900  12.613  -4.601  1.00 20.00    -0.306 OA
ENDBRANCH   4   6
TORSDOF 1
ENDMDL
MODEL 4
REMARK VINA RESULT:      -3.4      1.705      2.448
REMARK  1 active torsions:
REMARK  status: ('A' for Active; 'I' for Inactive)
REMARK    1  A    between atoms: C1_1  and  C5_5 
ROOT
HETATM    1  C2  UNL     1     -33.733   5.765   4.111  1.00 20.00     0.040 C 
HETATM    2  C3  UNL     1     -35.178   5.577   3.700  1.00 20.00     0.168 C 
HETATM    3  C4  UNL     1     -34.820   4.301   5.620  1.00 20.00     0.179 C 
HETATM    4  C5  UNL     1     -33.736   5.354   5.561  1.00 20.00     0.073 C 
HETATM    5  O7  UNL     1     -35.716   4.538   4.523  1.00 20.00    -0.390 OA
ENDROOT
BRANCH   4   6
HETATM    6  C1  UNL     1     -34.126   6.544   6.421  1.00 20.00     0.237 C 
HETATM    7  O6  UNL     1     -33.313   7.326   6.901  1.00 20.00    -0.306 OA
ENDBRANCH   4   6
TORSDOF 1
ENDMDL
MODEL 5
REMARK VINA RESULT:      -3.3     12.158     12.900
REMARK  1 active torsions:
REMARK  status: ('A' for Active; 'I' for Inactive)
REMARK    1  A    between atoms: C1_1  and  C5_5 
ROOT
HETATM    1  C2  UNL     1     -33.728  13.820  -3.786  1.00 20.00     0.040 C 
HETATM    2  C3  UNL     1     -34.851  13.286  -4.651  1.00 20.00     0.168 C 
HETATM    3  C4  UNL     1     -35.732  14.993  -3.326  1.00 20.00     0.179 C 
HETATM    4  C5  UNL     1     -34.231  15.179  -3.377  1.00 20.00     0.073 C 
HETATM    5  O7  UNL     1     -36.061  13.891  -4.185  1.00 20.00    -0.390 OA
ENDROOT
BRANCH   4   6
HETATM    6  C1  UNL     1     -33.875  16.193  -4.451  1.00 20.00     0.237 C 
HETATM    7  O6  UNL     1     -32.738  16.346  -4.885  1.00 20.00    -0.306 OA
ENDBRANCH   4   6
TORSDOF 1
ENDMDL
MODEL 6
REMARK VINA RESULT:      -3.2     11.867     12.739
REMARK  1 active torsions:
REMARK  status: ('A' for Active; 'I' for Inactive)
REMARK    1  A    between atoms: C1_1  and  C5_5 
ROOT
HETATM    1  C2  UNL     1     -33.586  15.840  -3.039  1.00 20.00     0.040 C 
HETATM    2  C3  UNL     1     -34.782  15.915  -2.113  1.00 20.00     0.168 C 
HETATM    3  C4  UNL     1     -35.578  15.461  -4.259  1.00 20.00     0.179 C 
HETATM    4  C5  UNL     1     -34.117  15.071  -4.220  1.00 20.00     0.073 C 
HETATM    5  O7  UNL     1     -35.951  15.878  -2.937  1.00 20.00    -0.390 OA
ENDROOT
BRANCH   4   6
HETATM    6  C1  UNL     1     -33.989  13.581  -3.949  1.00 20.00     0.237 C 
HETATM    7  O6  UNL     1     -34.872  12.770  -4.204  1.00 20.00    -0.306 OA
ENDBRANCH   4   6
TORSDOF 1
ENDMDL
MODEL 7
REMARK VINA RESULT:      -3.2     12.135     13.165
REMARK  1 active torsions:
REMARK  status: ('A' for Active; 'I' for Inactive)
REMARK    1  A    between atoms: C1_1  and  C5_5 
ROOT
HETATM    1  C2  UNL     1     -33.965  13.729  -3.720  1.00 20.00     0.040 C 
HETATM    2  C3  UNL     1     -33.243  15.061  -3.701  1.00 20.00     0.168 C 
HETATM    3  C4  UNL     1     -34.591  15.016  -5.606  1.00 20.00     0.179 C 
HETATM    4  C5  UNL     1     -35.132  13.988  -4.637  1.00 20.00     0.073 C 
HETATM    5  O7  UNL     1     -33.508  15.697  -4.955  1.00 20.00    -0.390 OA
ENDROOT
BRANCH   4   6
HETATM    6  C1  UNL     1     -36.277  14.587  -3.837  1.00 20.00     0.237 C 
HETATM    7  O6  UNL     1     -37.407  14.110  -3.814  1.00 20.00    -0.306 OA
ENDBRANCH   4   6
TORSDOF 1
ENDMDL
MODEL 8
REMARK VINA RESULT:      -3.2     11.869     12.851
REMARK  1 active torsions:
REMARK  status: ('A' for Active; 'I' for Inactive)
REMARK    1  A    between atoms: C1_1  and  C5_5 
ROOT
HETATM    1  C2  UNL     1     -34.329  15.024  -5.473  1.00 20.00     0.040 C 
HETATM    2  C3  UNL     1     -35.084  13.714  -5.562  1.00 20.00     0.168 C 
HETATM    3  C4  UNL     1     -33.571  13.536  -3.795  1.00 20.00     0.179 C 
HETATM    4  C5  UNL     1     -33.787  15.008  -4.067  1.00 20.00     0.073 C 
HETATM    5  O7  UNL     1     -34.446  12.801  -4.663  1.00 20.00    -0.390 OA
ENDROOT
BRANCH   4   6
HETATM    6  C1  UNL     1     -34.837  15.559  -3.116  1.00 20.00     0.237 C 
HETATM    7  O6  UNL     1     -34.605  15.847  -1.947  1.00 20.00    -0.306 OA
ENDBRANCH   4   6
TORSDOF 1
ENDMDL
MODEL 9
REMARK VINA RESULT:      -3.2      8.534      9.513
REMARK  1 active torsions:
REMARK  status: ('A' for Active; 'I' for Inactive)
REMARK    1  A    between atoms: C1_1  and  C5_5 
ROOT
HETATM    1  C2  UNL     1     -40.733   6.101   0.069  1.00 20.00     0.040 C 
HETATM    2  C3  UNL     1     -41.150   6.937  -1.124  1.00 20.00     0.168 C 
HETATM    3  C4  UNL     1     -41.465   4.695  -1.689  1.00 20.00     0.179 C 
HETATM    4  C5  UNL     1     -41.425   4.786  -0.180  1.00 20.00     0.073 C 
HETATM    5  O7  UNL     1     -41.386   6.032  -2.207  1.00 20.00    -0.390 OA
ENDROOT
BRANCH   4   6
HETATM    6  C1  UNL     1     -42.840   4.849   0.370  1.00 20.00     0.237 C 
HETATM    7  O6  UNL     1     -43.152   5.504   1.358  1.00 20.00    -0.306 OA
ENDBRANCH   4   6
TORSDOF 1
ENDMDL
