MODEL 1
REMARK VINA RESULT:      -3.7      0.000      0.000
REMARK  2 active torsions:
REMARK  status: ('A' for Active; 'I' for Inactive)
REMARK    1  A    between atoms: C5_5  and  C6_6 
REMARK    2  A    between atoms: C5_5  and  N7_7 
ROOT
HETATM    1  C1  UNL     1     -32.296   7.319   2.944  1.00 20.00     0.157 C 
HETATM    2  N7  UNL     1     -32.477   6.548   3.809  1.00 20.00    -0.275 NA
HETATM    3  S8  UNL     1     -32.030   8.383   1.787  1.00 20.00    -0.055 SA
ENDROOT
BRANCH   2   4
HETATM    4  C5  UNL     1     -33.397   5.456   3.477  1.00 20.00     0.158 C 
BRANCH   4   5
HETATM    5  C6  UNL     1     -34.541   5.361   4.508  1.00 20.00    -0.033 C 
HETATM    6  C2  UNL     1     -34.726   3.910   4.984  1.00 20.00     0.016 C 
HETATM    7  C3  UNL     1     -35.844   5.830   3.834  1.00 20.00     0.016 C 
HETATM    8  C4  UNL     1     -34.260   6.265   5.720  1.00 20.00     0.016 C 
ENDBRANCH   4   5
ENDBRANCH   2   4
TORSDOF 2
ENDMDL
MODEL 2
REMARK VINA RESULT:      -3.7      0.033      1.535
REMARK  2 active torsions:
REMARK  status: ('A' for Active; 'I' for Inactive)
REMARK    1  A    between atoms: C5_5  and  C6_6 
REMARK    2  A    between atoms: C5_5  and  N7_7 
ROOT
HETATM    1  C1  UNL     1     -32.293   7.335   2.940  1.00 20.00     0.157 C 
HETATM    2  N7  UNL     1     -32.477   6.588   3.826  1.00 20.00    -0.275 NA
HETATM    3  S8  UNL     1     -32.022   8.367   1.757  1.00 20.00    -0.055 SA
ENDROOT
BRANCH   2   4
HETATM    4  C5  UNL     1     -33.367   5.467   3.510  1.00 20.00     0.158 C 
BRANCH   4   5
HETATM    5  C6  UNL     1     -34.539   5.388   4.510  1.00 20.00    -0.033 C 
HETATM    6  C2  UNL     1     -34.264   6.269   5.741  1.00 20.00     0.016 C 
HETATM    7  C3  UNL     1     -34.688   3.927   4.972  1.00 20.00     0.016 C 
HETATM    8  C4  UNL     1     -35.853   5.832   3.847  1.00 20.00     0.016 C 
ENDBRANCH   4   5
ENDBRANCH   2   4
TORSDOF 2
ENDMDL
MODEL 3
REMARK VINA RESULT:      -3.4     11.336     11.963
REMARK  2 active torsions:
REMARK  status: ('A' for Active; 'I' for Inactive)
REMARK    1  A    between atoms: C5_5  and  C6_6 
REMARK    2  A    between atoms: C5_5  and  N7_7 
ROOT
HETATM    1  C1  UNL     1     -34.378  16.708  -1.247  1.00 20.00     0.157 C 
HETATM    2  N7  UNL     1     -33.987  16.235  -2.247  1.00 20.00    -0.275 NA
HETATM    3  S8  UNL     1     -34.880  17.364   0.116  1.00 20.00    -0.055 SA
ENDROOT
BRANCH   2   4
HETATM    4  C5  UNL     1     -34.966  15.410  -2.961  1.00 20.00     0.158 C 
BRANCH   4   5
HETATM    5  C6  UNL     1     -34.282  14.542  -4.037  1.00 20.00    -0.033 C 
HETATM    6  C2  UNL     1     -32.870  14.131  -3.589  1.00 20.00     0.016 C 
HETATM    7  C3  UNL     1     -34.168  15.370  -5.331  1.00 20.00     0.016 C 
HETATM    8  C4  UNL     1     -35.114  13.282  -4.330  1.00 20.00     0.016 C 
ENDBRANCH   4   5
ENDBRANCH   2   4
TORSDOF 2
ENDMDL
MODEL 4
REMARK VINA RESULT:      -3.4     11.333     11.979
REMARK  2 active torsions:
REMARK  status: ('A' for Active; 'I' for Inactive)
REMARK    1  A    between atoms: C5_5  and  C6_6 
REMARK    2  A    between atoms: C5_5  and  N7_7 
ROOT
HETATM    1  C1  UNL     1     -34.387  16.713  -1.217  1.00 20.00     0.157 C 
HETATM    2  N7  UNL     1     -33.989  16.244  -2.216  1.00 20.00    -0.275 NA
HETATM    3  S8  UNL     1     -34.898  17.364   0.145  1.00 20.00    -0.055 SA
ENDROOT
BRANCH   2   4
HETATM    4  C5  UNL     1     -34.965  15.429  -2.944  1.00 20.00     0.158 C 
BRANCH   4   5
HETATM    5  C6  UNL     1     -34.280  14.587  -4.040  1.00 20.00    -0.033 C 
HETATM    6  C2  UNL     1     -34.192  15.377  -5.358  1.00 20.00     0.016 C 
HETATM    7  C3  UNL     1     -35.121  13.320  -4.279  1.00 20.00     0.016 C 
HETATM    8  C4  UNL     1     -32.867  14.166  -3.601  1.00 20.00     0.016 C 
ENDBRANCH   4   5
ENDBRANCH   2   4
TORSDOF 2
ENDMDL
MODEL 5
REMARK VINA RESULT:      -3.4     11.341     11.971
REMARK  2 active torsions:
REMARK  status: ('A' for Active; 'I' for Inactive)
REMARK    1  A    between atoms: C5_5  and  C6_6 
REMARK    2  A    between atoms: C5_5  and  N7_7 
ROOT
HETATM    1  C1  UNL     1     -34.354  16.708  -1.276  1.00 20.00     0.157 C 
HETATM    2  N7  UNL     1     -33.990  16.244  -2.290  1.00 20.00    -0.275 NA
HETATM    3  S8  UNL     1     -34.820  17.355   0.103  1.00 20.00    -0.055 SA
ENDROOT
BRANCH   2   4
HETATM    4  C5  UNL     1     -34.950  15.341  -2.933  1.00 20.00     0.158 C 
BRANCH   4   5
HETATM    5  C6  UNL     1     -34.279  14.529  -4.060  1.00 20.00    -0.033 C 
HETATM    6  C2  UNL     1     -35.096  13.265  -4.380  1.00 20.00     0.016 C 
HETATM    7  C3  UNL     1     -32.877  14.104  -3.587  1.00 20.00     0.016 C 
HETATM    8  C4  UNL     1     -34.133  15.380  -5.332  1.00 20.00     0.016 C 
ENDBRANCH   4   5
ENDBRANCH   2   4
TORSDOF 2
ENDMDL
MODEL 6
REMARK VINA RESULT:      -3.2     11.559     12.400
REMARK  2 active torsions:
REMARK  status: ('A' for Active; 'I' for Inactive)
REMARK    1  A    between atoms: C5_5  and  C6_6 
REMARK    2  A    between atoms: C5_5  and  N7_7 
ROOT
HETATM    1  C1  UNL     1     -38.040  14.753  -3.930  1.00 20.00     0.157 C 
HETATM    2  N7  UNL     1     -36.984  14.773  -3.419  1.00 20.00    -0.275 NA
HETATM    3  S8  UNL     1     -39.486  14.743  -4.599  1.00 20.00    -0.055 SA
ENDROOT
BRANCH   2   4
HETATM    4  C5  UNL     1     -35.922  14.102  -4.176  1.00 20.00     0.158 C 
BRANCH   4   5
HETATM    5  C6  UNL     1     -34.550  14.751  -3.901  1.00 20.00    -0.033 C 
HETATM    6  C2  UNL     1     -34.589  15.581  -2.607  1.00 20.00     0.016 C 
HETATM    7  C3  UNL     1     -34.207  15.684  -5.077  1.00 20.00     0.016 C 
HETATM    8  C4  UNL     1     -33.454  13.678  -3.787  1.00 20.00     0.016 C 
ENDBRANCH   4   5
ENDBRANCH   2   4
TORSDOF 2
ENDMDL
MODEL 7
REMARK VINA RESULT:      -3.2     11.555     12.425
REMARK  2 active torsions:
REMARK  status: ('A' for Active; 'I' for Inactive)
REMARK    1  A    between atoms: C5_5  and  C6_6 
REMARK    2  A    between atoms: C5_5  and  N7_7 
ROOT
HETATM    1  C1  UNL     1     -38.047  14.743  -3.938  1.00 20.00     0.157 C 
HETATM    2  N7  UNL     1     -36.990  14.766  -3.430  1.00 20.00    -0.275 NA
HETATM    3  S8  UNL     1     -39.494  14.729  -4.604  1.00 20.00    -0.055 SA
ENDROOT
BRANCH   2   4
HETATM    4  C5  UNL     1     -35.926  14.107  -4.193  1.00 20.00     0.158 C 
BRANCH   4   5
HETATM    5  C6  UNL     1     -34.559  14.772  -3.930  1.00 20.00    -0.033 C 
HETATM    6  C2  UNL     1     -34.167  15.692  -5.099  1.00 20.00     0.016 C 
HETATM    7  C3  UNL     1     -33.496  13.665  -3.794  1.00 20.00     0.016 C 
HETATM    8  C4  UNL     1     -34.592  15.587  -2.626  1.00 20.00     0.016 C 
ENDBRANCH   4   5
ENDBRANCH   2   4
TORSDOF 2
ENDMDL
MODEL 8
REMARK VINA RESULT:      -3.2     11.559     12.392
REMARK  2 active torsions:
REMARK  status: ('A' for Active; 'I' for Inactive)
REMARK    1  A    between atoms: C5_5  and  C6_6 
REMARK    2  A    between atoms: C5_5  and  N7_7 
ROOT
HETATM    1  C1  UNL     1     -38.030  14.748  -3.930  1.00 20.00     0.157 C 
HETATM    2  N7  UNL     1     -36.972  14.776  -3.424  1.00 20.00    -0.275 NA
HETATM    3  S8  UNL     1     -39.479  14.728  -4.591  1.00 20.00    -0.055 SA
ENDROOT
BRANCH   2   4
HETATM    4  C5  UNL     1     -35.913  14.094  -4.175  1.00 20.00     0.158 C 
BRANCH   4   5
HETATM    5  C6  UNL     1     -34.541  14.754  -3.926  1.00 20.00    -0.033 C 
HETATM    6  C2  UNL     1     -33.443  13.687  -3.779  1.00 20.00     0.016 C 
HETATM    7  C3  UNL     1     -34.620  15.565  -2.620  1.00 20.00     0.016 C 
HETATM    8  C4  UNL     1     -34.178  15.707  -5.077  1.00 20.00     0.016 C 
ENDBRANCH   4   5
ENDBRANCH   2   4
TORSDOF 2
ENDMDL
MODEL 9
REMARK VINA RESULT:      -3.2      9.141     10.369
REMARK  2 active torsions:
REMARK  status: ('A' for Active; 'I' for Inactive)
REMARK    1  A    between atoms: C5_5  and  C6_6 
REMARK    2  A    between atoms: C5_5  and  N7_7 
ROOT
HETATM    1  C1  UNL     1     -41.547   3.238  -2.591  1.00 20.00     0.157 C 
HETATM    2  N7  UNL     1     -41.275   4.111  -1.856  1.00 20.00    -0.275 NA
HETATM    3  S8  UNL     1     -41.896   2.033  -3.574  1.00 20.00    -0.055 SA
ENDROOT
BRANCH   2   4
HETATM    4  C5  UNL     1     -42.002   5.362  -2.091  1.00 20.00     0.158 C 
BRANCH   4   5
HETATM    5  C6  UNL     1     -41.963   6.270  -0.845  1.00 20.00    -0.033 C 
HETATM    6  C2  UNL     1     -42.030   7.753  -1.248  1.00 20.00     0.016 C 
HETATM    7  C3  UNL     1     -40.639   6.020  -0.100  1.00 20.00     0.016 C 
HETATM    8  C4  UNL     1     -43.130   5.944   0.103  1.00 20.00     0.016 C 
ENDBRANCH   4   5
ENDBRANCH   2   4
TORSDOF 2
ENDMDL
