MODEL 1
REMARK VINA RESULT:      -5.0      0.000      0.000
REMARK  1 active torsions:
REMARK  status: ('A' for Active; 'I' for Inactive)
REMARK    1  A    between atoms: C5_5  and  C10_10 
ROOT
HETATM    1  C1  UNL     1     -33.766  17.642  -3.340  1.00 20.00     0.011 C 
HETATM    2  C2  UNL     1     -34.826  15.817  -1.943  1.00 20.00     0.011 C 
HETATM    3  C3  UNL     1     -33.408  16.672  -4.470  1.00 20.00     0.079 C 
HETATM    4  C4  UNL     1     -34.942  15.059  -3.269  1.00 20.00     0.079 C 
HETATM    5  C5  UNL     1     -33.798  16.962  -1.969  1.00 20.00    -0.007 C 
HETATM    6  C6  UNL     1     -33.708  15.219  -4.133  1.00 20.00     0.243 C 
HETATM    7  F11 UNL     1     -33.853  14.511  -5.281  1.00 20.00    -0.206 F 
HETATM    8  F12 UNL     1     -32.642  14.676  -3.485  1.00 20.00    -0.206 F 
ENDROOT
BRANCH   5   9
HETATM    9  C10 UNL     1     -34.085  17.970  -0.858  1.00 20.00    -0.048 C 
HETATM   10  C7  UNL     1     -34.893  19.150  -1.423  1.00 20.00     0.015 C 
HETATM   11  C8  UNL     1     -32.761  18.496  -0.279  1.00 20.00     0.015 C 
HETATM   12  C9  UNL     1     -34.894  17.294   0.262  1.00 20.00     0.015 C 
ENDBRANCH   5   9
TORSDOF 1
ENDMDL
MODEL 2
REMARK VINA RESULT:      -5.0      1.623      2.693
REMARK  1 active torsions:
REMARK  status: ('A' for Active; 'I' for Inactive)
REMARK    1  A    between atoms: C5_5  and  C10_10 
ROOT
HETATM    1  C1  UNL     1     -35.917  15.155  -3.171  1.00 20.00     0.011 C 
HETATM    2  C2  UNL     1     -33.393  15.344  -3.167  1.00 20.00     0.011 C 
HETATM    3  C3  UNL     1     -35.906  14.056  -4.238  1.00 20.00     0.079 C 
HETATM    4  C4  UNL     1     -33.423  13.938  -3.773  1.00 20.00     0.079 C 
HETATM    5  C5  UNL     1     -34.724  16.106  -3.296  1.00 20.00    -0.007 C 
HETATM    6  C6  UNL     1     -34.522  13.779  -4.804  1.00 20.00     0.243 C 
HETATM    7  F11 UNL     1     -34.489  12.527  -5.324  1.00 20.00    -0.206 F 
HETATM    8  F12 UNL     1     -34.280  14.627  -5.841  1.00 20.00    -0.206 F 
ENDROOT
BRANCH   5   9
HETATM    9  C10 UNL     1     -34.805  17.232  -2.266  1.00 20.00    -0.048 C 
HETATM   10  C7  UNL     1     -34.583  16.662  -0.855  1.00 20.00     0.015 C 
HETATM   11  C8  UNL     1     -36.189  17.897  -2.331  1.00 20.00     0.015 C 
HETATM   12  C9  UNL     1     -33.723  18.285  -2.562  1.00 20.00     0.015 C 
ENDBRANCH   5   9
TORSDOF 1
ENDMDL
MODEL 3
REMARK VINA RESULT:      -5.0      0.103      1.251
REMARK  1 active torsions:
REMARK  status: ('A' for Active; 'I' for Inactive)
REMARK    1  A    between atoms: C5_5  and  C10_10 
ROOT
HETATM    1  C1  UNL     1     -33.667  17.652  -3.343  1.00 20.00     0.011 C 
HETATM    2  C2  UNL     1     -34.792  15.888  -1.918  1.00 20.00     0.011 C 
HETATM    3  C3  UNL     1     -33.349  16.652  -4.459  1.00 20.00     0.079 C 
HETATM    4  C4  UNL     1     -34.940  15.115  -3.232  1.00 20.00     0.079 C 
HETATM    5  C5  UNL     1     -33.722  16.993  -1.962  1.00 20.00    -0.007 C 
HETATM    6  C6  UNL     1     -33.702  15.216  -4.101  1.00 20.00     0.243 C 
HETATM    7  F11 UNL     1     -33.876  14.498  -5.237  1.00 20.00    -0.206 F 
HETATM    8  F12 UNL     1     -32.656  14.644  -3.447  1.00 20.00    -0.206 F 
ENDROOT
BRANCH   5   9
HETATM    9  C10 UNL     1     -33.968  18.027  -0.865  1.00 20.00    -0.048 C 
HETATM   10  C7  UNL     1     -34.793  17.396   0.269  1.00 20.00     0.015 C 
HETATM   11  C8  UNL     1     -34.738  19.226  -1.445  1.00 20.00     0.015 C 
HETATM   12  C9  UNL     1     -32.623  18.516  -0.300  1.00 20.00     0.015 C 
ENDBRANCH   5   9
TORSDOF 1
ENDMDL
MODEL 4
REMARK VINA RESULT:      -4.9      1.310      2.002
REMARK  1 active torsions:
REMARK  status: ('A' for Active; 'I' for Inactive)
REMARK    1  A    between atoms: C5_5  and  C10_10 
ROOT
HETATM    1  C1  UNL     1     -33.428  16.257  -3.320  1.00 20.00     0.011 C 
HETATM    2  C2  UNL     1     -35.849  15.604  -2.975  1.00 20.00     0.011 C 
HETATM    3  C3  UNL     1     -33.110  14.962  -4.073  1.00 20.00     0.079 C 
HETATM    4  C4  UNL     1     -35.619  14.654  -4.154  1.00 20.00     0.079 C 
HETATM    5  C5  UNL     1     -34.552  16.080  -2.296  1.00 20.00    -0.007 C 
HETATM    6  C6  UNL     1     -34.267  13.974  -4.089  1.00 20.00     0.243 C 
HETATM    7  F11 UNL     1     -34.125  13.129  -5.140  1.00 20.00    -0.206 F 
HETATM    8  F12 UNL     1     -34.215  13.201  -2.971  1.00 20.00    -0.206 F 
ENDROOT
BRANCH   5   9
HETATM    9  C10 UNL     1     -34.794  17.369  -1.512  1.00 20.00    -0.048 C 
HETATM   10  C7  UNL     1     -34.790  17.068  -0.003  1.00 20.00     0.015 C 
HETATM   11  C8  UNL     1     -36.155  17.968  -1.904  1.00 20.00     0.015 C 
HETATM   12  C9  UNL     1     -33.683  18.385  -1.827  1.00 20.00     0.015 C 
ENDBRANCH   5   9
TORSDOF 1
ENDMDL
MODEL 5
REMARK VINA RESULT:      -4.8     12.286     13.420
REMARK  1 active torsions:
REMARK  status: ('A' for Active; 'I' for Inactive)
REMARK    1  A    between atoms: C5_5  and  C10_10 
ROOT
HETATM    1  C1  UNL     1     -34.665   5.569   3.672  1.00 20.00     0.011 C 
HETATM    2  C2  UNL     1     -33.413   6.593   5.620  1.00 20.00     0.011 C 
HETATM    3  C3  UNL     1     -35.362   4.540   4.566  1.00 20.00     0.079 C 
HETATM    4  C4  UNL     1     -34.505   5.952   6.481  1.00 20.00     0.079 C 
HETATM    5  C5  UNL     1     -33.293   5.982   4.212  1.00 20.00    -0.007 C 
HETATM    6  C6  UNL     1     -34.871   4.560   6.006  1.00 20.00     0.243 C 
HETATM    7  F11 UNL     1     -35.822   4.031   6.815  1.00 20.00    -0.206 F 
HETATM    8  F12 UNL     1     -33.782   3.753   6.122  1.00 20.00    -0.206 F 
ENDROOT
BRANCH   5   9
HETATM    9  C10 UNL     1     -32.594   6.952   3.261  1.00 20.00    -0.048 C 
HETATM   10  C7  UNL     1     -33.573   8.060   2.835  1.00 20.00     0.015 C 
HETATM   11  C8  UNL     1     -32.111   6.197   2.011  1.00 20.00     0.015 C 
HETATM   12  C9  UNL     1     -31.385   7.591   3.966  1.00 20.00     0.015 C 
ENDBRANCH   5   9
TORSDOF 1
ENDMDL
MODEL 6
REMARK VINA RESULT:      -4.8      2.417      4.567
REMARK  1 active torsions:
REMARK  status: ('A' for Active; 'I' for Inactive)
REMARK    1  A    between atoms: C5_5  and  C10_10 
ROOT
HETATM    1  C1  UNL     1     -34.784  16.249  -1.433  1.00 20.00     0.011 C 
HETATM    2  C2  UNL     1     -33.700  18.070  -2.817  1.00 20.00     0.011 C 
HETATM    3  C3  UNL     1     -34.708  17.079  -0.148  1.00 20.00     0.079 C 
HETATM    4  C4  UNL     1     -34.146  19.004  -1.689  1.00 20.00     0.079 C 
HETATM    5  C5  UNL     1     -33.659  16.585  -2.416  1.00 20.00    -0.007 C 
HETATM    6  C6  UNL     1     -33.950  18.387  -0.319  1.00 20.00     0.243 C 
HETATM    7  F11 UNL     1     -34.338  19.263   0.641  1.00 20.00    -0.206 F 
HETATM    8  F12 UNL     1     -32.623  18.169  -0.119  1.00 20.00    -0.206 F 
ENDROOT
BRANCH   5   9
HETATM    9  C10 UNL     1     -33.720  15.689  -3.652  1.00 20.00    -0.048 C 
HETATM   10  C7  UNL     1     -35.092  14.998  -3.726  1.00 20.00     0.015 C 
HETATM   11  C8  UNL     1     -32.618  14.619  -3.573  1.00 20.00     0.015 C 
HETATM   12  C9  UNL     1     -33.512  16.537  -4.919  1.00 20.00     0.015 C 
ENDBRANCH   5   9
TORSDOF 1
ENDMDL
MODEL 7
REMARK VINA RESULT:      -4.6      3.096      4.210
REMARK  1 active torsions:
REMARK  status: ('A' for Active; 'I' for Inactive)
REMARK    1  A    between atoms: C5_5  and  C10_10 
ROOT
HETATM    1  C1  UNL     1     -34.666  16.083  -5.391  1.00 20.00     0.011 C 
HETATM    2  C2  UNL     1     -35.478  14.139  -3.988  1.00 20.00     0.011 C 
HETATM    3  C3  UNL     1     -33.264  16.038  -4.774  1.00 20.00     0.079 C 
HETATM    4  C4  UNL     1     -33.991  13.804  -3.837  1.00 20.00     0.079 C 
HETATM    5  C5  UNL     1     -35.748  15.590  -4.427  1.00 20.00    -0.007 C 
HETATM    6  C6  UNL     1     -33.141  15.042  -3.632  1.00 20.00     0.243 C 
HETATM    7  F11 UNL     1     -31.841  14.688  -3.480  1.00 20.00    -0.206 F 
HETATM    8  F12 UNL     1     -33.508  15.642  -2.468  1.00 20.00    -0.206 F 
ENDROOT
BRANCH   5   9
HETATM    9  C10 UNL     1     -37.139  15.717  -5.046  1.00 20.00    -0.048 C 
HETATM   10  C7  UNL     1     -38.132  14.825  -4.282  1.00 20.00     0.015 C 
HETATM   11  C8  UNL     1     -37.094  15.276  -6.519  1.00 20.00     0.015 C 
HETATM   12  C9  UNL     1     -37.610  17.179  -4.969  1.00 20.00     0.015 C 
ENDBRANCH   5   9
TORSDOF 1
ENDMDL
MODEL 8
REMARK VINA RESULT:      -4.6      2.549      4.590
REMARK  1 active torsions:
REMARK  status: ('A' for Active; 'I' for Inactive)
REMARK    1  A    between atoms: C5_5  and  C10_10 
ROOT
HETATM    1  C1  UNL     1     -36.146  17.045  -2.643  1.00 20.00     0.011 C 
HETATM    2  C2  UNL     1     -33.765  16.233  -2.362  1.00 20.00     0.011 C 
HETATM    3  C3  UNL     1     -36.086  17.888  -1.366  1.00 20.00     0.079 C 
HETATM    4  C4  UNL     1     -33.595  17.464  -1.467  1.00 20.00     0.079 C 
HETATM    5  C5  UNL     1     -35.231  15.819  -2.580  1.00 20.00    -0.007 C 
HETATM    6  C6  UNL     1     -34.799  17.699  -0.577  1.00 20.00     0.243 C 
HETATM    7  F11 UNL     1     -34.587  18.783   0.209  1.00 20.00    -0.206 F 
HETATM    8  F12 UNL     1     -34.938  16.640   0.266  1.00 20.00    -0.206 F 
ENDROOT
BRANCH   5   9
HETATM    9  C10 UNL     1     -35.369  14.961  -3.836  1.00 20.00    -0.048 C 
HETATM   10  C7  UNL     1     -36.835  14.528  -4.012  1.00 20.00     0.015 C 
HETATM   11  C8  UNL     1     -34.485  13.710  -3.711  1.00 20.00     0.015 C 
HETATM   12  C9  UNL     1     -34.931  15.770  -5.069  1.00 20.00     0.015 C 
ENDBRANCH   5   9
TORSDOF 1
ENDMDL
MODEL 9
REMARK VINA RESULT:      -4.5      1.462      1.791
REMARK  1 active torsions:
REMARK  status: ('A' for Active; 'I' for Inactive)
REMARK    1  A    between atoms: C5_5  and  C10_10 
ROOT
HETATM    1  C1  UNL     1     -34.394  16.665  -4.577  1.00 20.00     0.011 C 
HETATM    2  C2  UNL     1     -35.857  15.186  -3.134  1.00 20.00     0.011 C 
HETATM    3  C3  UNL     1     -34.175  15.560  -5.615  1.00 20.00     0.079 C 
HETATM    4  C4  UNL     1     -36.051  14.364  -4.412  1.00 20.00     0.079 C 
HETATM    5  C5  UNL     1     -34.626  16.109  -3.169  1.00 20.00    -0.007 C 
HETATM    6  C6  UNL     1     -34.767  14.221  -5.204  1.00 20.00     0.243 C 
HETATM    7  F11 UNL     1     -34.989  13.467  -6.309  1.00 20.00    -0.206 F 
HETATM    8  F12 UNL     1     -33.861  13.537  -4.455  1.00 20.00    -0.206 F 
ENDROOT
BRANCH   5   9
HETATM    9  C10 UNL     1     -34.767  17.236  -2.147  1.00 20.00    -0.048 C 
HETATM   10  C7  UNL     1     -36.149  17.897  -2.288  1.00 20.00     0.015 C 
HETATM   11  C8  UNL     1     -33.675  18.292  -2.384  1.00 20.00     0.015 C 
HETATM   12  C9  UNL     1     -34.623  16.668  -0.724  1.00 20.00     0.015 C 
ENDBRANCH   5   9
TORSDOF 1
ENDMDL
