MODEL 1
REMARK VINA RESULT:      -4.6      0.000      0.000
REMARK  3 active torsions:
REMARK  status: ('A' for Active; 'I' for Inactive)
REMARK    1  A    between atoms: C4_4  and  C5_5 
REMARK    2  A    between atoms: C4_4  and  C6_6 
REMARK    3  A    between atoms: C5_5  and  N7_7 
ROOT
HETATM    1  C1  UNL     1     -32.137   7.977   2.374  1.00 20.00     0.157 C 
HETATM    2  N7  UNL     1     -32.115   7.205   3.261  1.00 20.00    -0.276 NA
HETATM    3  S8  UNL     1     -32.147   9.037   1.187  1.00 20.00    -0.055 SA
ENDROOT
BRANCH   2   4
HETATM    4  C5  UNL     1     -32.947   6.017   3.066  1.00 20.00     0.151 C 
BRANCH   4   5
HETATM    5  C4  UNL     1     -34.182   6.093   3.959  1.00 20.00     0.026 C 
BRANCH   5   6
HETATM    6  C6  UNL     1     -34.013   5.468   5.357  1.00 20.00    -0.021 C 
HETATM    7  C2  UNL     1     -34.006   6.572   6.419  1.00 20.00     0.009 C 
HETATM    8  C3  UNL     1     -35.110   4.452   5.680  1.00 20.00     0.009 C 
ENDBRANCH   5   6
ENDBRANCH   4   5
ENDBRANCH   2   4
TORSDOF 3
ENDMDL
MODEL 2
REMARK VINA RESULT:      -4.5      0.675      1.410
REMARK  3 active torsions:
REMARK  status: ('A' for Active; 'I' for Inactive)
REMARK    1  A    between atoms: C4_4  and  C5_5 
REMARK    2  A    between atoms: C4_4  and  C6_6 
REMARK    3  A    between atoms: C5_5  and  N7_7 
ROOT
HETATM    1  C1  UNL     1     -32.213   7.813   2.246  1.00 20.00     0.157 C 
HETATM    2  N7  UNL     1     -32.199   6.771   2.788  1.00 20.00    -0.276 NA
HETATM    3  S8  UNL     1     -32.217   9.215   1.492  1.00 20.00    -0.055 SA
ENDROOT
BRANCH   2   4
HETATM    4  C5  UNL     1     -32.963   6.712   4.035  1.00 20.00     0.151 C 
BRANCH   4   5
HETATM    5  C4  UNL     1     -34.139   5.752   3.881  1.00 20.00     0.026 C 
BRANCH   5   6
HETATM    6  C6  UNL     1     -34.886   5.423   5.189  1.00 20.00    -0.021 C 
HETATM    7  C2  UNL     1     -34.925   3.906   5.393  1.00 20.00     0.009 C 
HETATM    8  C3  UNL     1     -34.249   6.090   6.409  1.00 20.00     0.009 C 
ENDBRANCH   5   6
ENDBRANCH   4   5
ENDBRANCH   2   4
TORSDOF 3
ENDMDL
MODEL 3
REMARK VINA RESULT:      -3.7     11.005     11.844
REMARK  3 active torsions:
REMARK  status: ('A' for Active; 'I' for Inactive)
REMARK    1  A    between atoms: C4_4  and  C5_5 
REMARK    2  A    between atoms: C4_4  and  C6_6 
REMARK    3  A    between atoms: C5_5  and  N7_7 
ROOT
HETATM    1  C1  UNL     1     -34.967  13.612  -5.601  1.00 20.00     0.157 C 
HETATM    2  N7  UNL     1     -34.699  12.958  -4.662  1.00 20.00    -0.276 NA
HETATM    3  S8  UNL     1     -35.344  14.477  -6.883  1.00 20.00    -0.055 SA
ENDROOT
BRANCH   2   4
HETATM    4  C5  UNL     1     -33.924  13.647  -3.630  1.00 20.00     0.151 C 
BRANCH   4   5
HETATM    5  C4  UNL     1     -34.727  14.818  -3.070  1.00 20.00     0.026 C 
BRANCH   5   6
HETATM    6  C6  UNL     1     -33.882  15.995  -2.546  1.00 20.00    -0.021 C 
HETATM    7  C2  UNL     1     -33.750  17.061  -3.638  1.00 20.00     0.009 C 
HETATM    8  C3  UNL     1     -34.473  16.624  -1.284  1.00 20.00     0.009 C 
ENDBRANCH   5   6
ENDBRANCH   4   5
ENDBRANCH   2   4
TORSDOF 3
ENDMDL
MODEL 4
REMARK VINA RESULT:      -3.6     11.166     11.976
REMARK  3 active torsions:
REMARK  status: ('A' for Active; 'I' for Inactive)
REMARK    1  A    between atoms: C4_4  and  C5_5 
REMARK    2  A    between atoms: C4_4  and  C6_6 
REMARK    3  A    between atoms: C5_5  and  N7_7 
ROOT
HETATM    1  C1  UNL     1     -36.388  14.061  -4.110  1.00 20.00     0.157 C 
HETATM    2  N7  UNL     1     -35.650  13.177  -4.346  1.00 20.00    -0.276 NA
HETATM    3  S8  UNL     1     -37.406  15.239  -3.781  1.00 20.00    -0.055 SA
ENDROOT
BRANCH   2   4
HETATM    4  C5  UNL     1     -34.351  13.585  -4.885  1.00 20.00     0.151 C 
BRANCH   4   5
HETATM    5  C4  UNL     1     -33.404  13.945  -3.744  1.00 20.00     0.026 C 
BRANCH   5   6
HETATM    6  C6  UNL     1     -33.034  15.438  -3.652  1.00 20.00    -0.021 C 
HETATM    7  C2  UNL     1     -33.337  16.127  -4.986  1.00 20.00     0.009 C 
HETATM    8  C3  UNL     1     -33.775  16.155  -2.523  1.00 20.00     0.009 C 
ENDBRANCH   5   6
ENDBRANCH   4   5
ENDBRANCH   2   4
TORSDOF 3
ENDMDL
MODEL 5
REMARK VINA RESULT:      -3.6      2.720      4.783
REMARK  3 active torsions:
REMARK  status: ('A' for Active; 'I' for Inactive)
REMARK    1  A    between atoms: C4_4  and  C5_5 
REMARK    2  A    between atoms: C4_4  and  C6_6 
REMARK    3  A    between atoms: C5_5  and  N7_7 
ROOT
HETATM    1  C1  UNL     1     -34.227   5.756   4.561  1.00 20.00     0.157 C 
HETATM    2  N7  UNL     1     -33.848   6.589   3.823  1.00 20.00    -0.276 NA
HETATM    3  S8  UNL     1     -34.764   4.641   5.562  1.00 20.00    -0.055 SA
ENDROOT
BRANCH   2   4
HETATM    4  C5  UNL     1     -32.494   6.388   3.307  1.00 20.00     0.151 C 
BRANCH   4   5
HETATM    5  C4  UNL     1     -31.845   7.735   3.005  1.00 20.00     0.026 C 
BRANCH   5   6
HETATM    6  C6  UNL     1     -32.425   8.477   1.784  1.00 20.00    -0.021 C 
HETATM    7  C2  UNL     1     -32.735   9.928   2.162  1.00 20.00     0.009 C 
HETATM    8  C3  UNL     1     -31.481   8.450   0.581  1.00 20.00     0.009 C 
ENDBRANCH   5   6
ENDBRANCH   4   5
ENDBRANCH   2   4
TORSDOF 3
ENDMDL
MODEL 6
REMARK VINA RESULT:      -3.4      3.139      4.498
REMARK  3 active torsions:
REMARK  status: ('A' for Active; 'I' for Inactive)
REMARK    1  A    between atoms: C4_4  and  C5_5 
REMARK    2  A    between atoms: C4_4  and  C6_6 
REMARK    3  A    between atoms: C5_5  and  N7_7 
ROOT
HETATM    1  C1  UNL     1     -35.066   4.968   4.751  1.00 20.00     0.157 C 
HETATM    2  N7  UNL     1     -35.201   5.206   3.608  1.00 20.00    -0.276 NA
HETATM    3  S8  UNL     1     -34.910   4.640   6.300  1.00 20.00    -0.055 SA
ENDROOT
BRANCH   2   4
HETATM    4  C5  UNL     1     -33.975   5.591   2.908  1.00 20.00     0.151 C 
BRANCH   4   5
HETATM    5  C4  UNL     1     -33.364   6.824   3.567  1.00 20.00     0.026 C 
BRANCH   5   6
HETATM    6  C6  UNL     1     -31.971   7.221   3.039  1.00 20.00    -0.021 C 
HETATM    7  C2  UNL     1     -32.121   8.237   1.903  1.00 20.00     0.009 C 
HETATM    8  C3  UNL     1     -31.075   7.802   4.133  1.00 20.00     0.009 C 
ENDBRANCH   5   6
ENDBRANCH   4   5
ENDBRANCH   2   4
TORSDOF 3
ENDMDL
MODEL 7
REMARK VINA RESULT:      -3.4     11.335     11.776
REMARK  3 active torsions:
REMARK  status: ('A' for Active; 'I' for Inactive)
REMARK    1  A    between atoms: C4_4  and  C5_5 
REMARK    2  A    between atoms: C4_4  and  C6_6 
REMARK    3  A    between atoms: C5_5  and  N7_7 
ROOT
HETATM    1  C1  UNL     1     -33.760  14.453  -4.029  1.00 20.00     0.157 C 
HETATM    2  N7  UNL     1     -33.045  15.234  -3.519  1.00 20.00    -0.276 NA
HETATM    3  S8  UNL     1     -34.706  13.378  -4.724  1.00 20.00    -0.055 SA
ENDROOT
BRANCH   2   4
HETATM    4  C5  UNL     1     -33.708  16.433  -3.004  1.00 20.00     0.151 C 
BRANCH   4   5
HETATM    5  C4  UNL     1     -34.636  16.061  -1.852  1.00 20.00     0.026 C 
BRANCH   5   6
HETATM    6  C6  UNL     1     -34.624  17.043  -0.664  1.00 20.00    -0.021 C 
HETATM    7  C2  UNL     1     -33.346  17.885  -0.704  1.00 20.00     0.009 C 
HETATM    8  C3  UNL     1     -35.846  17.963  -0.653  1.00 20.00     0.009 C 
ENDBRANCH   5   6
ENDBRANCH   4   5
ENDBRANCH   2   4
TORSDOF 3
ENDMDL
MODEL 8
REMARK VINA RESULT:      -3.3     11.053     11.815
REMARK  3 active torsions:
REMARK  status: ('A' for Active; 'I' for Inactive)
REMARK    1  A    between atoms: C4_4  and  C5_5 
REMARK    2  A    between atoms: C4_4  and  C6_6 
REMARK    3  A    between atoms: C5_5  and  N7_7 
ROOT
HETATM    1  C1  UNL     1     -33.987  16.542  -2.392  1.00 20.00     0.157 C 
HETATM    2  N7  UNL     1     -33.576  16.409  -3.485  1.00 20.00    -0.276 NA
HETATM    3  S8  UNL     1     -34.548  16.749  -0.916  1.00 20.00    -0.055 SA
ENDROOT
BRANCH   2   4
HETATM    4  C5  UNL     1     -33.171  15.046  -3.831  1.00 20.00     0.151 C 
BRANCH   4   5
HETATM    5  C4  UNL     1     -34.233  14.053  -3.367  1.00 20.00     0.026 C 
BRANCH   5   6
HETATM    6  C6  UNL     1     -35.301  13.703  -4.421  1.00 20.00    -0.021 C 
HETATM    7  C2  UNL     1     -36.612  14.421  -4.086  1.00 20.00     0.009 C 
HETATM    8  C3  UNL     1     -34.863  14.069  -5.840  1.00 20.00     0.009 C 
ENDBRANCH   5   6
ENDBRANCH   4   5
ENDBRANCH   2   4
TORSDOF 3
ENDMDL
MODEL 9
REMARK VINA RESULT:      -3.3      2.995      4.392
REMARK  3 active torsions:
REMARK  status: ('A' for Active; 'I' for Inactive)
REMARK    1  A    between atoms: C4_4  and  C5_5 
REMARK    2  A    between atoms: C4_4  and  C6_6 
REMARK    3  A    between atoms: C5_5  and  N7_7 
ROOT
HETATM    1  C1  UNL     1     -34.762   5.258   4.733  1.00 20.00     0.157 C 
HETATM    2  N7  UNL     1     -34.672   5.987   3.816  1.00 20.00    -0.276 NA
HETATM    3  S8  UNL     1     -34.900   4.289   5.988  1.00 20.00    -0.055 SA
ENDROOT
BRANCH   2   4
HETATM    4  C5  UNL     1     -33.844   5.495   2.714  1.00 20.00     0.151 C 
BRANCH   4   5
HETATM    5  C4  UNL     1     -32.412   5.998   2.874  1.00 20.00     0.026 C 
BRANCH   5   6
HETATM    6  C6  UNL     1     -32.274   7.523   3.049  1.00 20.00    -0.021 C 
HETATM    7  C2  UNL     1     -31.175   7.827   4.072  1.00 20.00     0.009 C 
HETATM    8  C3  UNL     1     -31.963   8.237   1.733  1.00 20.00     0.009 C 
ENDBRANCH   5   6
ENDBRANCH   4   5
ENDBRANCH   2   4
TORSDOF 3
ENDMDL
