MODEL 1
REMARK VINA RESULT:      -4.8      0.000      0.000
REMARK  1 active torsions:
REMARK  status: ('A' for Active; 'I' for Inactive)
REMARK    1  A    between atoms: C2_2  and  C3_3 
ROOT
HETATM    1  C1  UNL     1     -32.794   6.750   4.069  1.00 20.00    -0.019 C 
HETATM    2  C2  UNL     1     -33.892   6.018   4.333  1.00 20.00    -0.004 C 
HETATM    3  C4  UNL     1     -32.247   7.121   2.725  1.00 20.00     0.036 C 
HETATM    4  C5  UNL     1     -34.779   5.391   3.292  1.00 20.00     0.053 C 
ENDROOT
BRANCH   2   5
HETATM    5  C3  UNL     1     -34.321   5.762   5.765  1.00 20.00     0.247 C 
HETATM    6  O6  UNL     1     -34.073   6.629   6.604  1.00 20.00    -0.274 OA
HETATM    7 CL7  UNL     1     -35.154   4.275   6.190  1.00 20.00    -0.039 Cl
ENDBRANCH   2   5
TORSDOF 1
ENDMDL
MODEL 2
REMARK VINA RESULT:      -4.6      1.603      1.974
REMARK  1 active torsions:
REMARK  status: ('A' for Active; 'I' for Inactive)
REMARK    1  A    between atoms: C2_2  and  C3_3 
ROOT
HETATM    1  C1  UNL     1     -33.095   6.384   3.567  1.00 20.00    -0.019 C 
HETATM    2  C2  UNL     1     -33.828   6.151   4.671  1.00 20.00    -0.004 C 
HETATM    3  C4  UNL     1     -31.908   7.287   3.435  1.00 20.00     0.036 C 
HETATM    4  C5  UNL     1     -33.601   6.803   6.009  1.00 20.00     0.053 C 
ENDROOT
BRANCH   2   5
HETATM    5  C3  UNL     1     -34.988   5.175   4.634  1.00 20.00     0.247 C 
HETATM    6  O6  UNL     1     -35.855   5.345   3.776  1.00 20.00    -0.274 OA
HETATM    7 CL7  UNL     1     -35.068   3.846   5.780  1.00 20.00    -0.039 Cl
ENDBRANCH   2   5
TORSDOF 1
ENDMDL
MODEL 3
REMARK VINA RESULT:      -4.5      1.504      1.504
REMARK  1 active torsions:
REMARK  status: ('A' for Active; 'I' for Inactive)
REMARK    1  A    between atoms: C2_2  and  C3_3 
ROOT
HETATM    1  C1  UNL     1     -32.810   6.562   3.999  1.00 20.00    -0.019 C 
HETATM    2  C2  UNL     1     -33.960   6.041   4.465  1.00 20.00    -0.004 C 
HETATM    3  C4  UNL     1     -32.370   6.669   2.571  1.00 20.00     0.036 C 
HETATM    4  C5  UNL     1     -35.033   5.422   3.610  1.00 20.00     0.053 C 
ENDROOT
BRANCH   2   5
HETATM    5  C3  UNL     1     -34.259   6.040   5.952  1.00 20.00     0.247 C 
HETATM    6  O6  UNL     1     -34.955   5.127   6.398  1.00 20.00    -0.274 OA
HETATM    7 CL7  UNL     1     -33.615   7.304   6.987  1.00 20.00    -0.039 Cl
ENDBRANCH   2   5
TORSDOF 1
ENDMDL
MODEL 4
REMARK VINA RESULT:      -4.4      1.550      1.550
REMARK  1 active torsions:
REMARK  status: ('A' for Active; 'I' for Inactive)
REMARK    1  A    between atoms: C2_2  and  C3_3 
ROOT
HETATM    1  C1  UNL     1     -32.936   6.484   4.002  1.00 20.00    -0.019 C 
HETATM    2  C2  UNL     1     -33.976   5.645   3.842  1.00 20.00    -0.004 C 
HETATM    3  C4  UNL     1     -32.195   7.232   2.937  1.00 20.00     0.036 C 
HETATM    4  C5  UNL     1     -34.581   5.268   2.516  1.00 20.00     0.053 C 
ENDROOT
BRANCH   2   5
HETATM    5  C3  UNL     1     -34.631   4.991   5.043  1.00 20.00     0.247 C 
HETATM    6  O6  UNL     1     -35.171   3.896   4.879  1.00 20.00    -0.274 OA
HETATM    7 CL7  UNL     1     -34.599   5.781   6.611  1.00 20.00    -0.039 Cl
ENDBRANCH   2   5
TORSDOF 1
ENDMDL
MODEL 5
REMARK VINA RESULT:      -4.2      2.702      3.794
REMARK  1 active torsions:
REMARK  status: ('A' for Active; 'I' for Inactive)
REMARK    1  A    between atoms: C2_2  and  C3_3 
ROOT
HETATM    1  C1  UNL     1     -34.701   4.663   5.198  1.00 20.00    -0.019 C 
HETATM    2  C2  UNL     1     -33.981   5.778   4.971  1.00 20.00    -0.004 C 
HETATM    3  C4  UNL     1     -35.341   4.238   6.483  1.00 20.00     0.036 C 
HETATM    4  C5  UNL     1     -33.652   6.817   6.010  1.00 20.00     0.053 C 
ENDROOT
BRANCH   2   5
HETATM    5  C3  UNL     1     -33.427   6.069   3.590  1.00 20.00     0.247 C 
HETATM    6  O6  UNL     1     -33.980   5.541   2.625  1.00 20.00    -0.274 OA
HETATM    7 CL7  UNL     1     -32.046   7.137   3.395  1.00 20.00    -0.039 Cl
ENDBRANCH   2   5
TORSDOF 1
ENDMDL
MODEL 6
REMARK VINA RESULT:      -4.1      1.853      2.646
REMARK  1 active torsions:
REMARK  status: ('A' for Active; 'I' for Inactive)
REMARK    1  A    between atoms: C2_2  and  C3_3 
ROOT
HETATM    1  C1  UNL     1     -34.010   6.565   6.285  1.00 20.00    -0.019 C 
HETATM    2  C2  UNL     1     -33.946   6.183   4.996  1.00 20.00    -0.004 C 
HETATM    3  C4  UNL     1     -33.148   7.572   6.981  1.00 20.00     0.036 C 
HETATM    4  C5  UNL     1     -32.944   6.693   3.995  1.00 20.00     0.053 C 
ENDROOT
BRANCH   2   5
HETATM    5  C3  UNL     1     -34.924   5.163   4.445  1.00 20.00     0.247 C 
HETATM    6  O6  UNL     1     -35.592   5.480   3.460  1.00 20.00    -0.274 OA
HETATM    7 CL7  UNL     1     -35.076   3.583   5.196  1.00 20.00    -0.039 Cl
ENDBRANCH   2   5
TORSDOF 1
ENDMDL
MODEL 7
REMARK VINA RESULT:      -4.0      2.875      3.574
REMARK  1 active torsions:
REMARK  status: ('A' for Active; 'I' for Inactive)
REMARK    1  A    between atoms: C2_2  and  C3_3 
ROOT
HETATM    1  C1  UNL     1     -33.580   6.273   5.461  1.00 20.00    -0.019 C 
HETATM    2  C2  UNL     1     -33.749   6.063   4.142  1.00 20.00    -0.004 C 
HETATM    3  C4  UNL     1     -34.547   5.968   6.563  1.00 20.00     0.036 C 
HETATM    4  C5  UNL     1     -34.992   5.497   3.512  1.00 20.00     0.053 C 
ENDROOT
BRANCH   2   5
HETATM    5  C3  UNL     1     -32.645   6.407   3.161  1.00 20.00     0.247 C 
HETATM    6  O6  UNL     1     -31.897   5.499   2.795  1.00 20.00    -0.274 OA
HETATM    7 CL7  UNL     1     -32.462   8.050   2.569  1.00 20.00    -0.039 Cl
ENDBRANCH   2   5
TORSDOF 1
ENDMDL
MODEL 8
REMARK VINA RESULT:      -4.0      2.886      3.454
REMARK  1 active torsions:
REMARK  status: ('A' for Active; 'I' for Inactive)
REMARK    1  A    between atoms: C2_2  and  C3_3 
ROOT
HETATM    1  C1  UNL     1     -33.690   6.597   5.442  1.00 20.00    -0.019 C 
HETATM    2  C2  UNL     1     -34.141   5.786   4.468  1.00 20.00    -0.004 C 
HETATM    3  C4  UNL     1     -34.128   6.635   6.873  1.00 20.00     0.036 C 
HETATM    4  C5  UNL     1     -35.227   4.757   4.639  1.00 20.00     0.053 C 
ENDROOT
BRANCH   2   5
HETATM    5  C3  UNL     1     -33.561   5.863   3.069  1.00 20.00     0.247 C 
HETATM    6  O6  UNL     1     -34.045   5.132   2.204  1.00 20.00    -0.274 OA
HETATM    7 CL7  UNL     1     -32.248   6.974   2.714  1.00 20.00    -0.039 Cl
ENDBRANCH   2   5
TORSDOF 1
ENDMDL
MODEL 9
REMARK VINA RESULT:      -4.0     12.409     12.567
REMARK  1 active torsions:
REMARK  status: ('A' for Active; 'I' for Inactive)
REMARK    1  A    between atoms: C2_2  and  C3_3 
ROOT
HETATM    1  C1  UNL     1     -34.947  15.317  -2.835  1.00 20.00    -0.019 C 
HETATM    2  C2  UNL     1     -34.123  14.652  -3.666  1.00 20.00    -0.004 C 
HETATM    3  C4  UNL     1     -34.565  16.259  -1.735  1.00 20.00     0.036 C 
HETATM    4  C5  UNL     1     -32.620  14.710  -3.617  1.00 20.00     0.053 C 
ENDROOT
BRANCH   2   5
HETATM    5  C3  UNL     1     -34.685  13.755  -4.752  1.00 20.00     0.247 C 
HETATM    6  O6  UNL     1     -35.045  12.621  -4.433  1.00 20.00    -0.274 OA
HETATM    7 CL7  UNL     1     -34.818  14.337  -6.404  1.00 20.00    -0.039 Cl
ENDBRANCH   2   5
TORSDOF 1
ENDMDL
