MODEL 1
REMARK VINA RESULT:      -5.1      0.000      0.000
REMARK  1 active torsions:
REMARK  status: ('A' for Active; 'I' for Inactive)
REMARK    1  A    between atoms: C1_1  and  C3_3 
ROOT
HETATM    1  C2  UNL     1     -33.368  14.990  -3.355  1.00 20.00     0.110 C 
HETATM    2  C3  UNL     1     -34.273  15.168  -4.607  1.00 20.00     0.110 C 
HETATM    3  C4  UNL     1     -34.184  16.079  -2.634  1.00 20.00     0.310 C 
HETATM    4  C5  UNL     1     -35.323  15.834  -3.656  1.00 20.00     0.323 C 
HETATM    5  C6  UNL     1     -33.689  16.135  -5.641  1.00 20.00     0.031 C 
HETATM    6  F8  UNL     1     -33.645  17.319  -2.659  1.00 20.00    -0.200 F 
HETATM    7  F9  UNL     1     -34.496  15.819  -1.345  1.00 20.00    -0.200 F 
HETATM    8  F10 UNL     1     -36.307  15.014  -3.217  1.00 20.00    -0.198 F 
HETATM    9  F11 UNL     1     -35.931  16.946  -4.128  1.00 20.00    -0.198 F 
ENDROOT
BRANCH   2  10
HETATM   10  C1  UNL     1     -34.737  13.851  -5.288  1.00 20.00     0.233 C 
HETATM   11  O7  UNL     1     -34.668  12.769  -4.712  1.00 20.00    -0.279 OA
HETATM   12 CL12 UNL     1     -35.336  14.120  -6.897  1.00 20.00    -0.043 Cl
ENDBRANCH   2  10
TORSDOF 1
ENDMDL
MODEL 2
REMARK VINA RESULT:      -4.8      2.039      2.450
REMARK  1 active torsions:
REMARK  status: ('A' for Active; 'I' for Inactive)
REMARK    1  A    between atoms: C1_1  and  C3_3 
ROOT
HETATM    1  C2  UNL     1     -33.230  16.096  -4.904  1.00 20.00     0.110 C 
HETATM    2  C3  UNL     1     -34.659  15.526  -5.132  1.00 20.00     0.110 C 
HETATM    3  C4  UNL     1     -33.104  15.225  -3.641  1.00 20.00     0.310 C 
HETATM    4  C5  UNL     1     -34.249  14.340  -4.196  1.00 20.00     0.323 C 
HETATM    5  C6  UNL     1     -35.762  16.411  -4.544  1.00 20.00     0.031 C 
HETATM    6  F8  UNL     1     -33.375  15.852  -2.474  1.00 20.00    -0.200 F 
HETATM    7  F9  UNL     1     -31.916  14.600  -3.478  1.00 20.00    -0.200 F 
HETATM    8  F10 UNL     1     -33.835  13.218  -4.832  1.00 20.00    -0.198 F 
HETATM    9  F11 UNL     1     -35.174  13.950  -3.291  1.00 20.00    -0.198 F 
ENDROOT
BRANCH   2  10
HETATM   10  C1  UNL     1     -34.993  15.129  -6.597  1.00 20.00     0.233 C 
HETATM   11  O7  UNL     1     -34.114  14.962  -7.436  1.00 20.00    -0.279 OA
HETATM   12 CL12 UNL     1     -36.703  14.965  -6.857  1.00 20.00    -0.043 Cl
ENDBRANCH   2  10
TORSDOF 1
ENDMDL
MODEL 3
REMARK VINA RESULT:      -4.7      1.290      2.310
REMARK  1 active torsions:
REMARK  status: ('A' for Active; 'I' for Inactive)
REMARK    1  A    between atoms: C1_1  and  C3_3 
ROOT
HETATM    1  C2  UNL     1     -35.167  16.423  -4.971  1.00 20.00     0.110 C 
HETATM    2  C3  UNL     1     -35.429  15.134  -4.141  1.00 20.00     0.110 C 
HETATM    3  C4  UNL     1     -34.485  17.053  -3.743  1.00 20.00     0.310 C 
HETATM    4  C5  UNL     1     -34.300  15.623  -3.173  1.00 20.00     0.323 C 
HETATM    5  C6  UNL     1     -36.816  15.105  -3.493  1.00 20.00     0.031 C 
HETATM    6  F8  UNL     1     -35.266  17.871  -3.002  1.00 20.00    -0.200 F 
HETATM    7  F9  UNL     1     -33.341  17.730  -3.992  1.00 20.00    -0.200 F 
HETATM    8  F10 UNL     1     -33.077  15.084  -3.392  1.00 20.00    -0.198 F 
HETATM    9  F11 UNL     1     -34.550  15.486  -1.852  1.00 20.00    -0.198 F 
ENDROOT
BRANCH   2  10
HETATM   10  C1  UNL     1     -35.137  13.797  -4.877  1.00 20.00     0.233 C 
HETATM   11  O7  UNL     1     -34.988  12.743  -4.266  1.00 20.00    -0.279 OA
HETATM   12 CL12 UNL     1     -35.056  14.002  -6.601  1.00 20.00    -0.043 Cl
ENDBRANCH   2  10
TORSDOF 1
ENDMDL
MODEL 4
REMARK VINA RESULT:      -4.6      2.742      3.868
REMARK  1 active torsions:
REMARK  status: ('A' for Active; 'I' for Inactive)
REMARK    1  A    between atoms: C1_1  and  C3_3 
ROOT
HETATM    1  C2  UNL     1     -34.463  13.818  -5.281  1.00 20.00     0.110 C 
HETATM    2  C3  UNL     1     -34.609  15.038  -4.328  1.00 20.00     0.110 C 
HETATM    3  C4  UNL     1     -35.015  14.677  -6.434  1.00 20.00     0.310 C 
HETATM    4  C5  UNL     1     -34.641  15.935  -5.610  1.00 20.00     0.323 C 
HETATM    5  C6  UNL     1     -35.927  15.042  -3.548  1.00 20.00     0.031 C 
HETATM    6  F8  UNL     1     -36.334  14.527  -6.690  1.00 20.00    -0.200 F 
HETATM    7  F9  UNL     1     -34.374  14.548  -7.617  1.00 20.00    -0.200 F 
HETATM    8  F10 UNL     1     -33.459  16.500  -5.950  1.00 20.00    -0.198 F 
HETATM    9  F11 UNL     1     -35.558  16.928  -5.616  1.00 20.00    -0.198 F 
ENDROOT
BRANCH   2  10
HETATM   10  C1  UNL     1     -33.406  15.286  -3.376  1.00 20.00     0.233 C 
HETATM   11  O7  UNL     1     -32.330  14.718  -3.533  1.00 20.00    -0.279 OA
HETATM   12 CL12 UNL     1     -33.789  16.427  -2.121  1.00 20.00    -0.043 Cl
ENDBRANCH   2  10
TORSDOF 1
ENDMDL
MODEL 5
REMARK VINA RESULT:      -4.6      3.139      3.811
REMARK  1 active torsions:
REMARK  status: ('A' for Active; 'I' for Inactive)
REMARK    1  A    between atoms: C1_1  and  C3_3 
ROOT
HETATM    1  C2  UNL     1     -34.914  14.382  -3.227  1.00 20.00     0.110 C 
HETATM    2  C3  UNL     1     -34.991  15.770  -3.926  1.00 20.00     0.110 C 
HETATM    3  C4  UNL     1     -34.006  13.880  -4.365  1.00 20.00     0.310 C 
HETATM    4  C5  UNL     1     -33.695  15.360  -4.705  1.00 20.00     0.323 C 
HETATM    5  C6  UNL     1     -36.219  15.925  -4.828  1.00 20.00     0.031 C 
HETATM    6  F8  UNL     1     -34.630  13.184  -5.341  1.00 20.00    -0.200 F 
HETATM    7  F9  UNL     1     -32.943  13.139  -3.980  1.00 20.00    -0.200 F 
HETATM    8  F10 UNL     1     -32.536  15.827  -4.183  1.00 20.00    -0.198 F 
HETATM    9  F11 UNL     1     -33.674  15.663  -6.022  1.00 20.00    -0.198 F 
ENDROOT
BRANCH   2  10
HETATM   10  C1  UNL     1     -34.838  16.998  -2.988  1.00 20.00     0.233 C 
HETATM   11  O7  UNL     1     -34.962  18.147  -3.402  1.00 20.00    -0.279 OA
HETATM   12 CL12 UNL     1     -34.487  16.532  -1.351  1.00 20.00    -0.043 Cl
ENDBRANCH   2  10
TORSDOF 1
ENDMDL
MODEL 6
REMARK VINA RESULT:      -4.6      1.859      2.090
REMARK  1 active torsions:
REMARK  status: ('A' for Active; 'I' for Inactive)
REMARK    1  A    between atoms: C1_1  and  C3_3 
ROOT
HETATM    1  C2  UNL     1     -34.560  14.333  -3.384  1.00 20.00     0.110 C 
HETATM    2  C3  UNL     1     -35.286  14.878  -4.647  1.00 20.00     0.110 C 
HETATM    3  C4  UNL     1     -33.642  15.570  -3.402  1.00 20.00     0.310 C 
HETATM    4  C5  UNL     1     -34.701  16.283  -4.280  1.00 20.00     0.323 C 
HETATM    5  C6  UNL     1     -34.729  14.310  -5.956  1.00 20.00     0.031 C 
HETATM    6  F8  UNL     1     -32.436  15.389  -3.987  1.00 20.00    -0.200 F 
HETATM    7  F9  UNL     1     -33.407  16.141  -2.199  1.00 20.00    -0.200 F 
HETATM    8  F10 UNL     1     -35.541  17.099  -3.599  1.00 20.00    -0.198 F 
HETATM    9  F11 UNL     1     -34.211  17.009  -5.309  1.00 20.00    -0.198 F 
ENDROOT
BRANCH   2  10
HETATM   10  C1  UNL     1     -36.836  14.778  -4.620  1.00 20.00     0.233 C 
HETATM   11  O7  UNL     1     -37.427  14.145  -3.750  1.00 20.00    -0.279 OA
HETATM   12 CL12 UNL     1     -37.572  15.649  -5.931  1.00 20.00    -0.043 Cl
ENDBRANCH   2  10
TORSDOF 1
ENDMDL
MODEL 7
REMARK VINA RESULT:      -4.6      2.724      3.446
REMARK  1 active torsions:
REMARK  status: ('A' for Active; 'I' for Inactive)
REMARK    1  A    between atoms: C1_1  and  C3_3 
ROOT
HETATM    1  C2  UNL     1     -35.825  15.960  -4.082  1.00 20.00     0.110 C 
HETATM    2  C3  UNL     1     -34.459  15.380  -4.549  1.00 20.00     0.110 C 
HETATM    3  C4  UNL     1     -36.535  14.756  -4.728  1.00 20.00     0.310 C 
HETATM    4  C5  UNL     1     -35.183  13.999  -4.689  1.00 20.00     0.323 C 
HETATM    5  C6  UNL     1     -33.983  15.956  -5.885  1.00 20.00     0.031 C 
HETATM    6  F8  UNL     1     -37.037  14.974  -5.965  1.00 20.00    -0.200 F 
HETATM    7  F9  UNL     1     -37.530  14.204  -3.998  1.00 20.00    -0.200 F 
HETATM    8  F10 UNL     1     -35.038  13.161  -3.635  1.00 20.00    -0.198 F 
HETATM    9  F11 UNL     1     -34.885  13.282  -5.795  1.00 20.00    -0.198 F 
ENDROOT
BRANCH   2  10
HETATM   10  C1  UNL     1     -33.320  15.426  -3.493  1.00 20.00     0.233 C 
HETATM   11  O7  UNL     1     -32.279  14.792  -3.638  1.00 20.00    -0.279 OA
HETATM   12 CL12 UNL     1     -33.715  16.453  -2.148  1.00 20.00    -0.043 Cl
ENDBRANCH   2  10
TORSDOF 1
ENDMDL
MODEL 8
REMARK VINA RESULT:      -4.6      2.524      3.351
REMARK  1 active torsions:
REMARK  status: ('A' for Active; 'I' for Inactive)
REMARK    1  A    between atoms: C1_1  and  C3_3 
ROOT
HETATM    1  C2  UNL     1     -35.303  16.461  -5.354  1.00 20.00     0.110 C 
HETATM    2  C3  UNL     1     -35.718  15.280  -4.430  1.00 20.00     0.110 C 
HETATM    3  C4  UNL     1     -34.016  15.699  -5.718  1.00 20.00     0.310 C 
HETATM    4  C5  UNL     1     -34.708  14.398  -5.237  1.00 20.00     0.323 C 
HETATM    5  C6  UNL     1     -35.313  15.486  -2.968  1.00 20.00     0.031 C 
HETATM    6  F8  UNL     1     -32.913  16.055  -5.021  1.00 20.00    -0.200 F 
HETATM    7  F9  UNL     1     -33.672  15.723  -7.025  1.00 20.00    -0.200 F 
HETATM    8  F10 UNL     1     -35.255  13.652  -6.227  1.00 20.00    -0.198 F 
HETATM    9  F11 UNL     1     -33.936  13.562  -4.509  1.00 20.00    -0.198 F 
ENDROOT
BRANCH   2  10
HETATM   10  C1  UNL     1     -37.207  14.846  -4.533  1.00 20.00     0.233 C 
HETATM   11  O7  UNL     1     -37.739  14.157  -3.668  1.00 20.00    -0.279 OA
HETATM   12 CL12 UNL     1     -37.966  15.445  -5.977  1.00 20.00    -0.043 Cl
ENDBRANCH   2  10
TORSDOF 1
ENDMDL
MODEL 9
REMARK VINA RESULT:      -4.6      1.849      2.607
REMARK  1 active torsions:
REMARK  status: ('A' for Active; 'I' for Inactive)
REMARK    1  A    between atoms: C1_1  and  C3_3 
ROOT
HETATM    1  C2  UNL     1     -34.905  16.816  -3.650  1.00 20.00     0.110 C 
HETATM    2  C3  UNL     1     -34.903  15.484  -4.453  1.00 20.00     0.110 C 
HETATM    3  C4  UNL     1     -34.229  16.086  -2.475  1.00 20.00     0.310 C 
HETATM    4  C5  UNL     1     -33.786  14.988  -3.475  1.00 20.00     0.323 C 
HETATM    5  C6  UNL     1     -36.213  14.701  -4.328  1.00 20.00     0.031 C 
HETATM    6  F8  UNL     1     -35.061  15.670  -1.494  1.00 20.00    -0.200 F 
HETATM    7  F9  UNL     1     -33.224  16.759  -1.870  1.00 20.00    -0.200 F 
HETATM    8  F10 UNL     1     -32.518  15.120  -3.931  1.00 20.00    -0.198 F 
HETATM    9  F11 UNL     1     -33.905  13.716  -3.033  1.00 20.00    -0.198 F 
ENDROOT
BRANCH   2  10
HETATM   10  C1  UNL     1     -34.474  15.604  -5.942  1.00 20.00     0.233 C 
HETATM   11  O7  UNL     1     -34.425  14.625  -6.680  1.00 20.00    -0.279 OA
HETATM   12 CL12 UNL     1     -34.095  17.241  -6.384  1.00 20.00    -0.043 Cl
ENDBRANCH   2  10
TORSDOF 1
ENDMDL
