MODEL 1
REMARK VINA RESULT:      -4.4      0.000      0.000
REMARK  0 active torsions:
REMARK  status: ('A' for Active; 'I' for Inactive)
ROOT
HETATM    1  C1  UNL     1     -33.210   5.824   4.355  1.00 20.00     0.027 A 
HETATM    2  C2  UNL     1     -34.059   6.681   5.259  1.00 20.00     0.027 A 
HETATM    3  C3  UNL     1     -34.635   5.412   4.664  1.00 20.00     0.120 A 
HETATM    4  C4  UNL     1     -32.791   6.341   3.021  1.00 20.00     0.014 C 
HETATM    5  C5  UNL     1     -33.707   6.810   6.702  1.00 20.00     0.014 C 
HETATM    6 CL6  UNL     1     -35.892   5.584   3.441  1.00 20.00    -0.101 Cl
HETATM    7 CL7  UNL     1     -34.866   3.986   5.676  1.00 20.00    -0.101 Cl
ENDROOT
TORSDOF 0
ENDMDL
MODEL 2
REMARK VINA RESULT:      -4.4      0.011      2.699
REMARK  0 active torsions:
REMARK  status: ('A' for Active; 'I' for Inactive)
ROOT
HETATM    1  C1  UNL     1     -34.062   6.688   5.263  1.00 20.00     0.027 A 
HETATM    2  C2  UNL     1     -33.209   5.836   4.358  1.00 20.00     0.027 A 
HETATM    3  C3  UNL     1     -34.631   5.415   4.669  1.00 20.00     0.120 A 
HETATM    4  C4  UNL     1     -33.711   6.818   6.707  1.00 20.00     0.014 C 
HETATM    5  C5  UNL     1     -32.794   6.358   3.024  1.00 20.00     0.014 C 
HETATM    6 CL6  UNL     1     -34.855   3.989   5.680  1.00 20.00    -0.101 Cl
HETATM    7 CL7  UNL     1     -35.891   5.583   3.447  1.00 20.00    -0.101 Cl
ENDROOT
TORSDOF 0
ENDMDL
MODEL 3
REMARK VINA RESULT:      -3.9      2.172      3.288
REMARK  0 active torsions:
REMARK  status: ('A' for Active; 'I' for Inactive)
ROOT
HETATM    1  C1  UNL     1     -34.409   4.654   4.848  1.00 20.00     0.027 A 
HETATM    2  C2  UNL     1     -35.269   5.786   4.349  1.00 20.00     0.027 A 
HETATM    3  C3  UNL     1     -33.895   6.078   4.917  1.00 20.00     0.120 A 
HETATM    4  C4  UNL     1     -34.823   3.886   6.057  1.00 20.00     0.014 C 
HETATM    5  C5  UNL     1     -35.582   5.895   2.895  1.00 20.00     0.014 C 
HETATM    6 CL6  UNL     1     -33.816   6.917   6.466  1.00 20.00    -0.101 Cl
HETATM    7 CL7  UNL     1     -32.567   6.515   3.842  1.00 20.00    -0.101 Cl
ENDROOT
TORSDOF 0
ENDMDL
MODEL 4
REMARK VINA RESULT:      -3.8      2.181      2.676
REMARK  0 active torsions:
REMARK  status: ('A' for Active; 'I' for Inactive)
ROOT
HETATM    1  C1  UNL     1     -35.240   5.793   4.319  1.00 20.00     0.027 A 
HETATM    2  C2  UNL     1     -34.377   4.672   4.838  1.00 20.00     0.027 A 
HETATM    3  C3  UNL     1     -33.875   6.101   4.900  1.00 20.00     0.120 A 
HETATM    4  C4  UNL     1     -35.537   5.887   2.861  1.00 20.00     0.014 C 
HETATM    5  C5  UNL     1     -34.799   3.910   6.048  1.00 20.00     0.014 C 
HETATM    6 CL6  UNL     1     -32.539   6.541   3.838  1.00 20.00    -0.101 Cl
HETATM    7 CL7  UNL     1     -33.824   6.953   6.443  1.00 20.00    -0.101 Cl
ENDROOT
TORSDOF 0
ENDMDL
MODEL 5
REMARK VINA RESULT:      -3.6     12.635     13.266
REMARK  0 active torsions:
REMARK  status: ('A' for Active; 'I' for Inactive)
ROOT
HETATM    1  C1  UNL     1     -33.882  15.991  -2.507  1.00 20.00     0.027 A 
HETATM    2  C2  UNL     1     -34.407  14.832  -3.316  1.00 20.00     0.027 A 
HETATM    3  C3  UNL     1     -34.397  16.225  -3.913  1.00 20.00     0.120 A 
HETATM    4  C4  UNL     1     -34.620  16.441  -1.292  1.00 20.00     0.014 C 
HETATM    5  C5  UNL     1     -33.475  13.756  -3.759  1.00 20.00     0.014 C 
HETATM    6 CL6  UNL     1     -35.953  17.012  -4.167  1.00 20.00    -0.101 Cl
HETATM    7 CL7  UNL     1     -33.214  16.648  -5.150  1.00 20.00    -0.101 Cl
ENDROOT
TORSDOF 0
ENDMDL
MODEL 6
REMARK VINA RESULT:      -3.6     12.638     13.146
REMARK  0 active torsions:
REMARK  status: ('A' for Active; 'I' for Inactive)
ROOT
HETATM    1  C1  UNL     1     -34.403  14.842  -3.308  1.00 20.00     0.027 A 
HETATM    2  C2  UNL     1     -33.885  16.005  -2.501  1.00 20.00     0.027 A 
HETATM    3  C3  UNL     1     -34.400  16.234  -3.908  1.00 20.00     0.120 A 
HETATM    4  C4  UNL     1     -33.465  13.771  -3.751  1.00 20.00     0.014 C 
HETATM    5  C5  UNL     1     -34.626  16.453  -1.287  1.00 20.00     0.014 C 
HETATM    6 CL6  UNL     1     -33.221  16.663  -5.146  1.00 20.00    -0.101 Cl
HETATM    7 CL7  UNL     1     -35.963  17.011  -4.162  1.00 20.00    -0.101 Cl
ENDROOT
TORSDOF 0
ENDMDL
MODEL 7
REMARK VINA RESULT:      -3.4     12.084     12.738
REMARK  0 active torsions:
REMARK  status: ('A' for Active; 'I' for Inactive)
ROOT
HETATM    1  C1  UNL     1     -34.918  16.103  -4.079  1.00 20.00     0.027 A 
HETATM    2  C2  UNL     1     -35.083  15.624  -2.659  1.00 20.00     0.027 A 
HETATM    3  C3  UNL     1     -34.294  14.791  -3.649  1.00 20.00     0.120 A 
HETATM    4  C4  UNL     1     -36.105  16.175  -4.980  1.00 20.00     0.014 C 
HETATM    5  C5  UNL     1     -34.440  16.377  -1.545  1.00 20.00     0.014 C 
HETATM    6 CL6  UNL     1     -35.000  13.262  -4.170  1.00 20.00    -0.101 Cl
HETATM    7 CL7  UNL     1     -32.535  14.724  -3.546  1.00 20.00    -0.101 Cl
ENDROOT
TORSDOF 0
ENDMDL
MODEL 8
REMARK VINA RESULT:      -3.4     12.051     12.855
REMARK  0 active torsions:
REMARK  status: ('A' for Active; 'I' for Inactive)
ROOT
HETATM    1  C1  UNL     1     -34.747  15.517  -2.334  1.00 20.00     0.027 A 
HETATM    2  C2  UNL     1     -35.667  15.744  -3.506  1.00 20.00     0.027 A 
HETATM    3  C3  UNL     1     -34.266  15.216  -3.739  1.00 20.00     0.120 A 
HETATM    4  C4  UNL     1     -34.252  16.680  -1.543  1.00 20.00     0.014 C 
HETATM    5  C5  UNL     1     -36.886  14.900  -3.665  1.00 20.00     0.014 C 
HETATM    6 CL6  UNL     1     -33.113  16.289  -4.529  1.00 20.00    -0.101 Cl
HETATM    7 CL7  UNL     1     -34.019  13.523  -4.167  1.00 20.00    -0.101 Cl
ENDROOT
TORSDOF 0
ENDMDL
MODEL 9
REMARK VINA RESULT:      -3.4     12.125     13.214
REMARK  0 active torsions:
REMARK  status: ('A' for Active; 'I' for Inactive)
ROOT
HETATM    1  C1  UNL     1     -33.391  16.300  -4.328  1.00 20.00     0.027 A 
HETATM    2  C2  UNL     1     -34.646  15.943  -3.573  1.00 20.00     0.027 A 
HETATM    3  C3  UNL     1     -33.945  14.892  -4.409  1.00 20.00     0.120 A 
HETATM    4  C4  UNL     1     -33.459  17.261  -5.467  1.00 20.00     0.014 C 
HETATM    5  C5  UNL     1     -34.635  15.929  -2.082  1.00 20.00     0.014 C 
HETATM    6 CL6  UNL     1     -34.757  14.342  -5.874  1.00 20.00    -0.101 Cl
HETATM    7 CL7  UNL     1     -33.020  13.610  -3.626  1.00 20.00    -0.101 Cl
ENDROOT
TORSDOF 0
ENDMDL
