MODEL 1
REMARK VINA RESULT:      -5.5      0.000      0.000
REMARK  6 active torsions:
REMARK  status: ('A' for Active; 'I' for Inactive)
REMARK    1  A    between atoms: C1_1  and  C4_4 
REMARK    2  A    between atoms: C4_4  and  C5_5 
REMARK    3  A    between atoms: C5_5  and  C6_6 
REMARK    4  A    between atoms: C6_6  and  C7_7 
REMARK    5  A    between atoms: C7_7  and  C8_8 
REMARK    6  A    between atoms: C8_8  and  C9_9 
ROOT
HETATM    1  C6  UNL     1     -32.311   6.172   3.172  1.00 20.00     0.000 C 
ENDROOT
BRANCH   1   2
HETATM    2  C5  UNL     1     -32.133   7.670   2.909  1.00 20.00     0.008 C 
BRANCH   2   3
HETATM    3  C4  UNL     1     -31.757   7.939   1.453  1.00 20.00     0.096 C 
BRANCH   3   4
HETATM    4  C1  UNL     1     -32.465   9.158   0.889  1.00 20.00     0.218 C 
HETATM    5  O10 UNL     1     -32.793   9.257  -0.288  1.00 20.00    -0.280 OA
HETATM    6 CL11 UNL     1     -32.738  10.362   2.118  1.00 20.00    -0.044 Cl
ENDBRANCH   3   4
ENDBRANCH   2   3
ENDBRANCH   1   2
BRANCH   1   7
HETATM    7  C7  UNL     1     -33.722   5.710   2.804  1.00 20.00     0.000 C 
BRANCH   7   8
HETATM    8  C8  UNL     1     -34.711   5.771   3.974  1.00 20.00     0.004 C 
BRANCH   8   9
HETATM    9  C9  UNL     1     -34.165   5.313   5.340  1.00 20.00    -0.023 C 
HETATM   10  C2  UNL     1     -34.120   6.449   6.362  1.00 20.00     0.009 C 
HETATM   11  C3  UNL     1     -35.023   4.165   5.880  1.00 20.00     0.009 C 
ENDBRANCH   8   9
ENDBRANCH   7   8
ENDBRANCH   1   7
TORSDOF 6
ENDMDL
MODEL 2
REMARK VINA RESULT:      -5.4      1.145      1.145
REMARK  6 active torsions:
REMARK  status: ('A' for Active; 'I' for Inactive)
REMARK    1  A    between atoms: C1_1  and  C4_4 
REMARK    2  A    between atoms: C4_4  and  C5_5 
REMARK    3  A    between atoms: C5_5  and  C6_6 
REMARK    4  A    between atoms: C6_6  and  C7_7 
REMARK    5  A    between atoms: C7_7  and  C8_8 
REMARK    6  A    between atoms: C8_8  and  C9_9 
ROOT
HETATM    1  C6  UNL     1     -32.315   6.094   3.231  1.00 20.00     0.000 C 
ENDROOT
BRANCH   1   2
HETATM    2  C5  UNL     1     -32.071   7.603   3.148  1.00 20.00     0.008 C 
BRANCH   2   3
HETATM    3  C4  UNL     1     -31.658   8.023   1.739  1.00 20.00     0.096 C 
BRANCH   3   4
HETATM    4  C1  UNL     1     -32.418   9.246   1.255  1.00 20.00     0.218 C 
HETATM    5  O10 UNL     1     -32.631  10.225   1.963  1.00 20.00    -0.280 OA
HETATM    6 CL11 UNL     1     -32.929   9.066  -0.401  1.00 20.00    -0.044 Cl
ENDBRANCH   3   4
ENDBRANCH   2   3
ENDBRANCH   1   2
BRANCH   1   7
HETATM    7  C7  UNL     1     -33.746   5.742   2.819  1.00 20.00     0.000 C 
BRANCH   7   8
HETATM    8  C8  UNL     1     -34.740   5.760   3.986  1.00 20.00     0.004 C 
BRANCH   8   9
HETATM    9  C9  UNL     1     -34.188   5.298   5.348  1.00 20.00    -0.023 C 
HETATM   10  C2  UNL     1     -34.119   6.436   6.367  1.00 20.00     0.009 C 
HETATM   11  C3  UNL     1     -35.057   4.163   5.899  1.00 20.00     0.009 C 
ENDBRANCH   8   9
ENDBRANCH   7   8
ENDBRANCH   1   7
TORSDOF 6
ENDMDL
MODEL 3
REMARK VINA RESULT:      -5.1      3.274      5.632
REMARK  6 active torsions:
REMARK  status: ('A' for Active; 'I' for Inactive)
REMARK    1  A    between atoms: C1_1  and  C4_4 
REMARK    2  A    between atoms: C4_4  and  C5_5 
REMARK    3  A    between atoms: C5_5  and  C6_6 
REMARK    4  A    between atoms: C6_6  and  C7_7 
REMARK    5  A    between atoms: C7_7  and  C8_8 
REMARK    6  A    between atoms: C8_8  and  C9_9 
ROOT
HETATM    1  C6  UNL     1     -32.569   6.033   3.393  1.00 20.00     0.000 C 
ENDROOT
BRANCH   1   2
HETATM    2  C5  UNL     1     -33.852   5.391   2.857  1.00 20.00     0.008 C 
BRANCH   2   3
HETATM    3  C4  UNL     1     -35.028   5.624   3.805  1.00 20.00     0.096 C 
BRANCH   3   4
HETATM    4  C1  UNL     1     -34.932   4.778   5.062  1.00 20.00     0.218 C 
HETATM    5  O10 UNL     1     -35.108   3.564   5.067  1.00 20.00    -0.280 OA
HETATM    6 CL11 UNL     1     -34.549   5.749   6.457  1.00 20.00    -0.044 Cl
ENDBRANCH   3   4
ENDBRANCH   2   3
ENDBRANCH   1   2
BRANCH   1   7
HETATM    7  C7  UNL     1     -32.505   7.520   3.039  1.00 20.00     0.000 C 
BRANCH   7   8
HETATM    8  C8  UNL     1     -31.737   7.808   1.744  1.00 20.00     0.004 C 
BRANCH   8   9
HETATM    9  C9  UNL     1     -32.032   9.163   1.074  1.00 20.00    -0.023 C 
HETATM   10  C2  UNL     1     -32.811   9.011  -0.233  1.00 20.00     0.009 C 
HETATM   11  C3  UNL     1     -32.814  10.058   2.041  1.00 20.00     0.009 C 
ENDBRANCH   8   9
ENDBRANCH   7   8
ENDBRANCH   1   7
TORSDOF 6
ENDMDL
MODEL 4
REMARK VINA RESULT:      -4.8      3.270      5.608
REMARK  6 active torsions:
REMARK  status: ('A' for Active; 'I' for Inactive)
REMARK    1  A    between atoms: C1_1  and  C4_4 
REMARK    2  A    between atoms: C4_4  and  C5_5 
REMARK    3  A    between atoms: C5_5  and  C6_6 
REMARK    4  A    between atoms: C6_6  and  C7_7 
REMARK    5  A    between atoms: C7_7  and  C8_8 
REMARK    6  A    between atoms: C8_8  and  C9_9 
ROOT
HETATM    1  C6  UNL     1     -32.305   6.079   3.302  1.00 20.00     0.000 C 
ENDROOT
BRANCH   1   2
HETATM    2  C5  UNL     1     -33.748   5.621   3.073  1.00 20.00     0.008 C 
BRANCH   2   3
HETATM    3  C4  UNL     1     -34.693   6.218   4.114  1.00 20.00     0.096 C 
BRANCH   3   4
HETATM    4  C1  UNL     1     -34.447   5.659   5.505  1.00 20.00     0.218 C 
HETATM    5  O10 UNL     1     -34.003   6.333   6.428  1.00 20.00    -0.280 OA
HETATM    6 CL11 UNL     1     -34.874   3.973   5.600  1.00 20.00    -0.044 Cl
ENDBRANCH   3   4
ENDBRANCH   2   3
ENDBRANCH   1   2
BRANCH   1   7
HETATM    7  C7  UNL     1     -32.145   7.571   3.008  1.00 20.00     0.000 C 
BRANCH   7   8
HETATM    8  C8  UNL     1     -31.638   7.865   1.591  1.00 20.00     0.004 C 
BRANCH   8   9
HETATM    9  C9  UNL     1     -32.057   9.222   0.994  1.00 20.00    -0.023 C 
HETATM   10  C2  UNL     1     -32.930   9.067  -0.252  1.00 20.00     0.009 C 
HETATM   11  C3  UNL     1     -32.804  10.042   2.050  1.00 20.00     0.009 C 
ENDBRANCH   8   9
ENDBRANCH   7   8
ENDBRANCH   1   7
TORSDOF 6
ENDMDL
MODEL 5
REMARK VINA RESULT:      -4.6     10.369     11.331
REMARK  6 active torsions:
REMARK  status: ('A' for Active; 'I' for Inactive)
REMARK    1  A    between atoms: C1_1  and  C4_4 
REMARK    2  A    between atoms: C4_4  and  C5_5 
REMARK    3  A    between atoms: C5_5  and  C6_6 
REMARK    4  A    between atoms: C6_6  and  C7_7 
REMARK    5  A    between atoms: C7_7  and  C8_8 
REMARK    6  A    between atoms: C8_8  and  C9_9 
ROOT
HETATM    1  C6  UNL     1     -35.000  15.887  -2.411  1.00 20.00     0.000 C 
ENDROOT
BRANCH   1   2
HETATM    2  C5  UNL     1     -33.792  15.669  -3.325  1.00 20.00     0.008 C 
BRANCH   2   3
HETATM    3  C4  UNL     1     -33.541  14.182  -3.571  1.00 20.00     0.096 C 
BRANCH   3   4
HETATM    4  C1  UNL     1     -34.375  13.637  -4.717  1.00 20.00     0.218 C 
HETATM    5  O10 UNL     1     -34.933  12.546  -4.679  1.00 20.00    -0.280 OA
HETATM    6 CL11 UNL     1     -34.425  14.751  -6.056  1.00 20.00    -0.044 Cl
ENDBRANCH   3   4
ENDBRANCH   2   3
ENDBRANCH   1   2
BRANCH   1   7
HETATM    7  C7  UNL     1     -34.577  16.481  -1.067  1.00 20.00     0.000 C 
BRANCH   7   8
HETATM    8  C8  UNL     1     -33.494  17.559  -1.188  1.00 20.00     0.004 C 
BRANCH   8   9
HETATM    9  C9  UNL     1     -33.472  18.620  -0.071  1.00 20.00    -0.023 C 
HETATM   10  C2  UNL     1     -34.279  18.193   1.156  1.00 20.00     0.009 C 
HETATM   11  C3  UNL     1     -32.024  18.910   0.337  1.00 20.00     0.009 C 
ENDBRANCH   8   9
ENDBRANCH   7   8
ENDBRANCH   1   7
TORSDOF 6
ENDMDL
MODEL 6
REMARK VINA RESULT:      -4.4     10.777     11.629
REMARK  6 active torsions:
REMARK  status: ('A' for Active; 'I' for Inactive)
REMARK    1  A    between atoms: C1_1  and  C4_4 
REMARK    2  A    between atoms: C4_4  and  C5_5 
REMARK    3  A    between atoms: C5_5  and  C6_6 
REMARK    4  A    between atoms: C6_6  and  C7_7 
REMARK    5  A    between atoms: C7_7  and  C8_8 
REMARK    6  A    between atoms: C8_8  and  C9_9 
ROOT
HETATM    1  C6  UNL     1     -33.345  16.365  -5.056  1.00 20.00     0.000 C 
ENDROOT
BRANCH   1   2
HETATM    2  C5  UNL     1     -34.641  15.921  -5.738  1.00 20.00     0.008 C 
BRANCH   2   3
HETATM    3  C4  UNL     1     -34.676  14.406  -5.935  1.00 20.00     0.096 C 
BRANCH   3   4
HETATM    4  C1  UNL     1     -35.268  13.682  -4.739  1.00 20.00     0.218 C 
HETATM    5  O10 UNL     1     -34.741  12.704  -4.221  1.00 20.00    -0.280 OA
HETATM    6 CL11 UNL     1     -36.760  14.418  -4.222  1.00 20.00    -0.044 Cl
ENDBRANCH   3   4
ENDBRANCH   2   3
ENDBRANCH   1   2
BRANCH   1   7
HETATM    7  C7  UNL     1     -33.632  17.089  -3.739  1.00 20.00     0.000 C 
BRANCH   7   8
HETATM    8  C8  UNL     1     -33.785  16.143  -2.542  1.00 20.00     0.004 C 
BRANCH   8   9
HETATM    9  C9  UNL     1     -34.932  16.470  -1.568  1.00 20.00    -0.023 C 
HETATM   10  C2  UNL     1     -34.445  17.199  -0.315  1.00 20.00     0.009 C 
HETATM   11  C3  UNL     1     -35.990  17.317  -2.282  1.00 20.00     0.009 C 
ENDBRANCH   8   9
ENDBRANCH   7   8
ENDBRANCH   1   7
TORSDOF 6
ENDMDL
MODEL 7
REMARK VINA RESULT:      -4.3     10.706     11.577
REMARK  6 active torsions:
REMARK  status: ('A' for Active; 'I' for Inactive)
REMARK    1  A    between atoms: C1_1  and  C4_4 
REMARK    2  A    between atoms: C4_4  and  C5_5 
REMARK    3  A    between atoms: C5_5  and  C6_6 
REMARK    4  A    between atoms: C6_6  and  C7_7 
REMARK    5  A    between atoms: C7_7  and  C8_8 
REMARK    6  A    between atoms: C8_8  and  C9_9 
ROOT
HETATM    1  C6  UNL     1     -34.570  16.660  -0.941  1.00 20.00     0.000 C 
ENDROOT
BRANCH   1   2
HETATM    2  C5  UNL     1     -33.525  17.773  -0.827  1.00 20.00     0.008 C 
BRANCH   2   3
HETATM    3  C4  UNL     1     -33.466  18.337   0.592  1.00 20.00     0.096 C 
BRANCH   3   4
HETATM    4  C1  UNL     1     -32.079  18.835   0.958  1.00 20.00     0.218 C 
HETATM    5  O10 UNL     1     -31.276  19.250   0.128  1.00 20.00    -0.280 OA
HETATM    6 CL11 UNL     1     -31.798  18.736   2.674  1.00 20.00    -0.044 Cl
ENDBRANCH   3   4
ENDBRANCH   2   3
ENDBRANCH   1   2
BRANCH   1   7
HETATM    7  C7  UNL     1     -35.117  16.559  -2.366  1.00 20.00     0.000 C 
BRANCH   7   8
HETATM    8  C8  UNL     1     -35.245  15.118  -2.872  1.00 20.00     0.004 C 
BRANCH   8   9
HETATM    9  C9  UNL     1     -33.971  14.504  -3.484  1.00 20.00    -0.023 C 
HETATM   10  C2  UNL     1     -34.282  13.421  -4.517  1.00 20.00     0.009 C 
HETATM   11  C3  UNL     1     -33.125  15.606  -4.129  1.00 20.00     0.009 C 
ENDBRANCH   8   9
ENDBRANCH   7   8
ENDBRANCH   1   7
TORSDOF 6
ENDMDL
MODEL 8
REMARK VINA RESULT:      -4.3     10.338     11.142
REMARK  6 active torsions:
REMARK  status: ('A' for Active; 'I' for Inactive)
REMARK    1  A    between atoms: C1_1  and  C4_4 
REMARK    2  A    between atoms: C4_4  and  C5_5 
REMARK    3  A    between atoms: C5_5  and  C6_6 
REMARK    4  A    between atoms: C6_6  and  C7_7 
REMARK    5  A    between atoms: C7_7  and  C8_8 
REMARK    6  A    between atoms: C8_8  and  C9_9 
ROOT
HETATM    1  C6  UNL     1     -34.197  16.915  -3.341  1.00 20.00     0.000 C 
ENDROOT
BRANCH   1   2
HETATM    2  C5  UNL     1     -33.758  15.814  -4.310  1.00 20.00     0.008 C 
BRANCH   2   3
HETATM    3  C4  UNL     1     -33.840  14.435  -3.659  1.00 20.00     0.096 C 
BRANCH   3   4
HETATM    4  C1  UNL     1     -34.971  13.595  -4.226  1.00 20.00     0.218 C 
HETATM    5  O10 UNL     1     -34.789  12.528  -4.803  1.00 20.00    -0.280 OA
HETATM    6 CL11 UNL     1     -36.521  14.341  -3.947  1.00 20.00    -0.044 Cl
ENDBRANCH   3   4
ENDBRANCH   2   3
ENDBRANCH   1   2
BRANCH   1   7
HETATM    7  C7  UNL     1     -33.660  16.658  -1.932  1.00 20.00     0.000 C 
BRANCH   7   8
HETATM    8  C8  UNL     1     -34.747  16.668  -0.851  1.00 20.00     0.004 C 
BRANCH   8   9
HETATM    9  C9  UNL     1     -34.741  17.881   0.099  1.00 20.00    -0.023 C 
HETATM   10  C2  UNL     1     -35.310  17.546   1.478  1.00 20.00     0.009 C 
HETATM   11  C3  UNL     1     -33.312  18.414   0.245  1.00 20.00     0.009 C 
ENDBRANCH   8   9
ENDBRANCH   7   8
ENDBRANCH   1   7
TORSDOF 6
ENDMDL
MODEL 9
REMARK VINA RESULT:      -4.3     10.280     12.612
REMARK  6 active torsions:
REMARK  status: ('A' for Active; 'I' for Inactive)
REMARK    1  A    between atoms: C1_1  and  C4_4 
REMARK    2  A    between atoms: C4_4  and  C5_5 
REMARK    3  A    between atoms: C5_5  and  C6_6 
REMARK    4  A    between atoms: C6_6  and  C7_7 
REMARK    5  A    between atoms: C7_7  and  C8_8 
REMARK    6  A    between atoms: C8_8  and  C9_9 
ROOT
HETATM    1  C6  UNL     1     -33.706  16.808  -3.453  1.00 20.00     0.000 C 
ENDROOT
BRANCH   1   2
HETATM    2  C5  UNL     1     -34.495  15.630  -2.874  1.00 20.00     0.008 C 
BRANCH   2   3
HETATM    3  C4  UNL     1     -34.009  14.300  -3.448  1.00 20.00     0.096 C 
BRANCH   3   4
HETATM    4  C1  UNL     1     -35.118  13.532  -4.144  1.00 20.00     0.218 C 
HETATM    5  O10 UNL     1     -34.925  12.491  -4.763  1.00 20.00    -0.280 OA
HETATM    6 CL11 UNL     1     -36.661  14.317  -3.945  1.00 20.00    -0.044 Cl
ENDBRANCH   3   4
ENDBRANCH   2   3
ENDBRANCH   1   2
BRANCH   1   7
HETATM    7  C7  UNL     1     -33.229  16.509  -4.875  1.00 20.00     0.000 C 
BRANCH   7   8
HETATM    8  C8  UNL     1     -33.891  17.391  -5.941  1.00 20.00     0.004 C 
BRANCH   8   9
HETATM    9  C9  UNL     1     -34.751  16.654  -6.984  1.00 20.00    -0.023 C 
HETATM   10  C2  UNL     1     -34.321  15.200  -7.175  1.00 20.00     0.009 C 
HETATM   11  C3  UNL     1     -36.225  16.708  -6.569  1.00 20.00     0.009 C 
ENDBRANCH   8   9
ENDBRANCH   7   8
ENDBRANCH   1   7
TORSDOF 6
ENDMDL
