MODEL 1
REMARK VINA RESULT:      -3.9      0.000      0.000
REMARK  0 active torsions:
REMARK  status: ('A' for Active; 'I' for Inactive)
ROOT
HETATM    1  C1  UNL     1     -33.959  15.303  -3.190  1.00 20.00     0.048 C 
HETATM    2  C2  UNL     1     -36.174  16.093  -2.955  1.00 20.00     0.177 C 
HETATM    3  C3  UNL     1     -34.748  16.454  -2.564  1.00 20.00    -0.023 C 
HETATM    4  C4  UNL     1     -34.822  14.836  -4.373  1.00 20.00     0.054 C 
HETATM    5  C5  UNL     1     -34.342  17.803  -3.180  1.00 20.00     0.017 C 
HETATM    6  C6  UNL     1     -34.571  16.522  -1.047  1.00 20.00     0.017 C 
HETATM    7  C7  UNL     1     -35.100  13.332  -4.300  1.00 20.00     0.045 C 
HETATM    8  C8  UNL     1     -34.198  15.178  -5.724  1.00 20.00     0.045 C 
HETATM    9  O9  UNL     1     -36.082  15.527  -4.269  1.00 20.00    -0.380 OA
ENDROOT
TORSDOF 0
ENDMDL
MODEL 2
REMARK VINA RESULT:      -3.9      1.188      3.397
REMARK  0 active torsions:
REMARK  status: ('A' for Active; 'I' for Inactive)
ROOT
HETATM    1  C1  UNL     1     -35.548  15.416  -3.118  1.00 20.00     0.048 C 
HETATM    2  C2  UNL     1     -33.262  15.140  -3.646  1.00 20.00     0.177 C 
HETATM    3  C3  UNL     1     -34.644  14.768  -4.166  1.00 20.00    -0.023 C 
HETATM    4  C4  UNL     1     -34.725  16.589  -2.562  1.00 20.00     0.054 C 
HETATM    5  C5  UNL     1     -34.881  15.379  -5.557  1.00 20.00     0.017 C 
HETATM    6  C6  UNL     1     -34.837  13.254  -4.244  1.00 20.00     0.017 C 
HETATM    7  C7  UNL     1     -34.623  16.525  -1.035  1.00 20.00     0.045 C 
HETATM    8  C8  UNL     1     -35.283  17.947  -2.982  1.00 20.00     0.045 C 
HETATM    9  O9  UNL     1     -33.396  16.460  -3.103  1.00 20.00    -0.380 OA
ENDROOT
TORSDOF 0
ENDMDL
MODEL 3
REMARK VINA RESULT:      -3.8      1.347      2.107
REMARK  0 active torsions:
REMARK  status: ('A' for Active; 'I' for Inactive)
ROOT
HETATM    1  C1  UNL     1     -35.423  15.195  -3.532  1.00 20.00     0.048 C 
HETATM    2  C2  UNL     1     -34.120  17.147  -3.805  1.00 20.00     0.177 C 
HETATM    3  C3  UNL     1     -35.131  16.531  -2.848  1.00 20.00    -0.023 C 
HETATM    4  C4  UNL     1     -34.150  14.880  -4.335  1.00 20.00     0.054 C 
HETATM    5  C5  UNL     1     -34.506  16.320  -1.460  1.00 20.00     0.017 C 
HETATM    6  C6  UNL     1     -36.384  17.396  -2.707  1.00 20.00     0.017 C 
HETATM    7  C7  UNL     1     -34.472  14.606  -5.806  1.00 20.00     0.045 C 
HETATM    8  C8  UNL     1     -33.365  13.707  -3.753  1.00 20.00     0.045 C 
HETATM    9  O9  UNL     1     -33.317  16.055  -4.273  1.00 20.00    -0.380 OA
ENDROOT
TORSDOF 0
ENDMDL
MODEL 4
REMARK VINA RESULT:      -3.8      1.505      3.355
REMARK  0 active torsions:
REMARK  status: ('A' for Active; 'I' for Inactive)
ROOT
HETATM    1  C1  UNL     1     -33.331  16.157  -5.062  1.00 20.00     0.048 C 
HETATM    2  C2  UNL     1     -35.686  16.174  -5.256  1.00 20.00     0.177 C 
HETATM    3  C3  UNL     1     -34.433  16.260  -6.117  1.00 20.00    -0.023 C 
HETATM    4  C4  UNL     1     -33.969  15.371  -3.905  1.00 20.00     0.054 C 
HETATM    5  C5  UNL     1     -34.371  15.080  -7.101  1.00 20.00     0.017 C 
HETATM    6  C6  UNL     1     -34.367  17.571  -6.900  1.00 20.00     0.017 C 
HETATM    7  C7  UNL     1     -33.837  16.126  -2.579  1.00 20.00     0.045 C 
HETATM    8  C8  UNL     1     -33.385  13.968  -3.758  1.00 20.00     0.045 C 
HETATM    9  O9  UNL     1     -35.372  15.246  -4.209  1.00 20.00    -0.380 OA
ENDROOT
TORSDOF 0
ENDMDL
MODEL 5
REMARK VINA RESULT:      -3.8      1.722      2.852
REMARK  0 active torsions:
REMARK  status: ('A' for Active; 'I' for Inactive)
ROOT
HETATM    1  C1  UNL     1     -35.374  15.412  -4.836  1.00 20.00     0.048 C 
HETATM    2  C2  UNL     1     -33.303  16.385  -4.248  1.00 20.00     0.177 C 
HETATM    3  C3  UNL     1     -34.283  15.324  -3.769  1.00 20.00    -0.023 C 
HETATM    4  C4  UNL     1     -34.653  15.935  -6.089  1.00 20.00     0.054 C 
HETATM    5  C5  UNL     1     -33.621  13.936  -3.766  1.00 20.00     0.017 C 
HETATM    6  C6  UNL     1     -34.815  15.628  -2.368  1.00 20.00     0.017 C 
HETATM    7  C7  UNL     1     -35.346  17.179  -6.653  1.00 20.00     0.045 C 
HETATM    8  C8  UNL     1     -34.534  14.874  -7.182  1.00 20.00     0.045 C 
HETATM    9  O9  UNL     1     -33.324  16.312  -5.679  1.00 20.00    -0.380 OA
ENDROOT
TORSDOF 0
ENDMDL
MODEL 6
REMARK VINA RESULT:      -3.8      1.489      2.552
REMARK  0 active torsions:
REMARK  status: ('A' for Active; 'I' for Inactive)
ROOT
HETATM    1  C1  UNL     1     -34.233  15.568  -5.126  1.00 20.00     0.048 C 
HETATM    2  C2  UNL     1     -34.628  13.535  -3.989  1.00 20.00     0.177 C 
HETATM    3  C3  UNL     1     -33.930  14.874  -3.798  1.00 20.00    -0.023 C 
HETATM    4  C4  UNL     1     -35.546  14.931  -5.610  1.00 20.00     0.054 C 
HETATM    5  C5  UNL     1     -34.546  15.643  -2.617  1.00 20.00     0.017 C 
HETATM    6  C6  UNL     1     -32.429  14.707  -3.559  1.00 20.00     0.017 C 
HETATM    7  C7  UNL     1     -35.408  14.381  -7.032  1.00 20.00     0.045 C 
HETATM    8  C8  UNL     1     -36.725  15.899  -5.545  1.00 20.00     0.045 C 
HETATM    9  O9  UNL     1     -35.821  13.824  -4.729  1.00 20.00    -0.380 OA
ENDROOT
TORSDOF 0
ENDMDL
MODEL 7
REMARK VINA RESULT:      -3.8      1.544      3.302
REMARK  0 active torsions:
REMARK  status: ('A' for Active; 'I' for Inactive)
ROOT
HETATM    1  C1  UNL     1     -34.908  16.092  -4.601  1.00 20.00     0.048 C 
HETATM    2  C2  UNL     1     -36.032  14.043  -4.260  1.00 20.00     0.177 C 
HETATM    3  C3  UNL     1     -35.739  15.056  -5.358  1.00 20.00    -0.023 C 
HETATM    4  C4  UNL     1     -34.250  15.306  -3.456  1.00 20.00     0.054 C 
HETATM    5  C5  UNL     1     -34.923  14.410  -6.489  1.00 20.00     0.017 C 
HETATM    6  C6  UNL     1     -37.020  15.653  -5.941  1.00 20.00     0.017 C 
HETATM    7  C7  UNL     1     -34.533  15.957  -2.099  1.00 20.00     0.045 C 
HETATM    8  C8  UNL     1     -32.744  15.145  -3.645  1.00 20.00     0.045 C 
HETATM    9  O9  UNL     1     -34.848  13.995  -3.454  1.00 20.00    -0.380 OA
ENDROOT
TORSDOF 0
ENDMDL
MODEL 8
REMARK VINA RESULT:      -3.7      1.149      3.468
REMARK  0 active torsions:
REMARK  status: ('A' for Active; 'I' for Inactive)
ROOT
HETATM    1  C1  UNL     1     -34.501  16.066  -4.250  1.00 20.00     0.048 C 
HETATM    2  C2  UNL     1     -36.251  14.484  -4.374  1.00 20.00     0.177 C 
HETATM    3  C3  UNL     1     -34.802  14.672  -4.800  1.00 20.00    -0.023 C 
HETATM    4  C4  UNL     1     -35.456  16.231  -3.057  1.00 20.00     0.054 C 
HETATM    5  C5  UNL     1     -33.903  13.611  -4.145  1.00 20.00     0.017 C 
HETATM    6  C6  UNL     1     -34.639  14.599  -6.319  1.00 20.00     0.017 C 
HETATM    7  C7  UNL     1     -36.287  17.511  -3.180  1.00 20.00     0.045 C 
HETATM    8  C8  UNL     1     -34.725  16.220  -1.716  1.00 20.00     0.045 C 
HETATM    9  O9  UNL     1     -36.359  15.108  -3.088  1.00 20.00    -0.380 OA
ENDROOT
TORSDOF 0
ENDMDL
MODEL 9
REMARK VINA RESULT:      -3.6      1.712      3.674
REMARK  0 active torsions:
REMARK  status: ('A' for Active; 'I' for Inactive)
ROOT
HETATM    1  C1  UNL     1     -35.282  14.180  -5.113  1.00 20.00     0.048 C 
HETATM    2  C2  UNL     1     -33.955  15.813  -6.187  1.00 20.00     0.177 C 
HETATM    3  C3  UNL     1     -35.327  15.161  -6.284  1.00 20.00    -0.023 C 
HETATM    4  C4  UNL     1     -34.292  14.805  -4.116  1.00 20.00     0.054 C 
HETATM    5  C5  UNL     1     -36.438  16.206  -6.089  1.00 20.00     0.017 C 
HETATM    6  C6  UNL     1     -35.531  14.456  -7.625  1.00 20.00     0.017 C 
HETATM    7  C7  UNL     1     -33.186  13.818  -3.735  1.00 20.00     0.045 C 
HETATM    8  C8  UNL     1     -34.980  15.320  -2.853  1.00 20.00     0.045 C 
HETATM    9  O9  UNL     1     -33.679  15.925  -4.785  1.00 20.00    -0.380 OA
ENDROOT
TORSDOF 0
ENDMDL
