MODEL 1
REMARK VINA RESULT:      -4.9      0.000      0.000
REMARK  1 active torsions:
REMARK  status: ('A' for Active; 'I' for Inactive)
REMARK    1  A    between atoms: C1_1  and  C6_6 
ROOT
HETATM    1  C2  UNL     1     -33.550  16.988  -2.135  1.00 20.00     0.005 C 
HETATM    2  C3  UNL     1     -34.803  16.319  -1.550  1.00 20.00     0.006 C 
HETATM    3  C4  UNL     1     -33.293  15.121  -3.791  1.00 20.00     0.020 C 
HETATM    4  C5  UNL     1     -35.128  16.635  -3.880  1.00 20.00     0.010 C 
HETATM    5  C6  UNL     1     -34.513  14.430  -3.158  1.00 20.00     0.091 C 
HETATM    6  C7  UNL     1     -33.622  16.617  -3.628  1.00 20.00    -0.013 C 
HETATM    7  C8  UNL     1     -35.421  15.618  -2.773  1.00 20.00     0.000 C 
ENDROOT
BRANCH   5   8
HETATM    8  C1  UNL     1     -35.233  13.538  -4.151  1.00 20.00     0.177 C 
HETATM    9  O9  UNL     1     -34.493  12.744  -4.796  1.00 20.00    -0.648 OA
HETATM   10  O10 UNL     1     -36.483  13.706  -4.205  1.00 20.00    -0.648 OA
ENDBRANCH   5   8
TORSDOF 1
ENDMDL
MODEL 2
REMARK VINA RESULT:      -4.8      1.576      2.306
REMARK  1 active torsions:
REMARK  status: ('A' for Active; 'I' for Inactive)
REMARK    1  A    between atoms: C1_1  and  C6_6 
ROOT
HETATM    1  C2  UNL     1     -34.488  17.615  -4.922  1.00 20.00     0.005 C 
HETATM    2  C3  UNL     1     -35.757  16.750  -4.861  1.00 20.00     0.006 C 
HETATM    3  C4  UNL     1     -33.116  15.712  -4.031  1.00 20.00     0.020 C 
HETATM    4  C5  UNL     1     -34.135  15.626  -6.180  1.00 20.00     0.010 C 
HETATM    5  C6  UNL     1     -34.403  14.877  -3.916  1.00 20.00     0.091 C 
HETATM    6  C7  UNL     1     -33.387  16.593  -5.265  1.00 20.00    -0.013 C 
HETATM    7  C8  UNL     1     -35.222  15.335  -5.142  1.00 20.00     0.000 C 
ENDROOT
BRANCH   5   8
HETATM    8  C1  UNL     1     -34.119  13.390  -4.018  1.00 20.00     0.177 C 
HETATM    9  O9  UNL     1     -35.104  12.675  -4.352  1.00 20.00    -0.648 OA
HETATM   10  O10 UNL     1     -32.929  13.058  -3.754  1.00 20.00    -0.648 OA
ENDBRANCH   5   8
TORSDOF 1
ENDMDL
MODEL 3
REMARK VINA RESULT:      -4.8      1.555      2.088
REMARK  1 active torsions:
REMARK  status: ('A' for Active; 'I' for Inactive)
REMARK    1  A    between atoms: C1_1  and  C6_6 
ROOT
HETATM    1  C2  UNL     1     -34.410  17.643  -4.807  1.00 20.00     0.005 C 
HETATM    2  C3  UNL     1     -35.694  16.801  -4.770  1.00 20.00     0.006 C 
HETATM    3  C4  UNL     1     -33.072  15.692  -3.972  1.00 20.00     0.020 C 
HETATM    4  C5  UNL     1     -34.093  15.687  -6.123  1.00 20.00     0.010 C 
HETATM    5  C6  UNL     1     -34.373  14.876  -3.881  1.00 20.00     0.091 C 
HETATM    6  C7  UNL     1     -33.328  16.613  -5.181  1.00 20.00    -0.013 C 
HETATM    7  C8  UNL     1     -35.185  15.384  -5.092  1.00 20.00     0.000 C 
ENDROOT
BRANCH   5   8
HETATM    8  C1  UNL     1     -34.116  13.388  -4.027  1.00 20.00     0.177 C 
HETATM    9  O9  UNL     1     -32.938  13.018  -3.765  1.00 20.00    -0.648 OA
HETATM   10  O10 UNL     1     -35.116  12.711  -4.394  1.00 20.00    -0.648 OA
ENDBRANCH   5   8
TORSDOF 1
ENDMDL
MODEL 4
REMARK VINA RESULT:      -4.7      1.142      2.173
REMARK  1 active torsions:
REMARK  status: ('A' for Active; 'I' for Inactive)
REMARK    1  A    between atoms: C1_1  and  C6_6 
ROOT
HETATM    1  C2  UNL     1     -35.216  17.650  -3.431  1.00 20.00     0.005 C 
HETATM    2  C3  UNL     1     -33.732  17.283  -3.580  1.00 20.00     0.006 C 
HETATM    3  C4  UNL     1     -35.886  15.314  -4.054  1.00 20.00     0.020 C 
HETATM    4  C5  UNL     1     -34.732  15.792  -2.028  1.00 20.00     0.010 C 
HETATM    5  C6  UNL     1     -34.400  14.974  -4.259  1.00 20.00     0.091 C 
HETATM    6  C7  UNL     1     -35.848  16.345  -2.910  1.00 20.00    -0.013 C 
HETATM    7  C8  UNL     1     -33.701  15.802  -3.160  1.00 20.00     0.000 C 
ENDROOT
BRANCH   5   8
HETATM    8  C1  UNL     1     -34.125  13.498  -4.039  1.00 20.00     0.177 C 
HETATM    9  O9  UNL     1     -35.089  12.726  -4.302  1.00 20.00    -0.648 OA
HETATM   10  O10 UNL     1     -32.964  13.232  -3.619  1.00 20.00    -0.648 OA
ENDBRANCH   5   8
TORSDOF 1
ENDMDL
MODEL 5
REMARK VINA RESULT:      -4.7      1.164      2.053
REMARK  1 active torsions:
REMARK  status: ('A' for Active; 'I' for Inactive)
REMARK    1  A    between atoms: C1_1  and  C6_6 
ROOT
HETATM    1  C2  UNL     1     -35.158  17.597  -3.780  1.00 20.00     0.005 C 
HETATM    2  C3  UNL     1     -33.672  17.219  -3.887  1.00 20.00     0.006 C 
HETATM    3  C4  UNL     1     -35.824  15.233  -4.295  1.00 20.00     0.020 C 
HETATM    4  C5  UNL     1     -34.700  15.809  -2.278  1.00 20.00     0.010 C 
HETATM    5  C6  UNL     1     -34.336  14.881  -4.461  1.00 20.00     0.091 C 
HETATM    6  C7  UNL     1     -35.800  16.321  -3.204  1.00 20.00    -0.013 C 
HETATM    7  C8  UNL     1     -33.652  15.762  -3.393  1.00 20.00     0.000 C 
ENDROOT
BRANCH   5   8
HETATM    8  C1  UNL     1     -34.068  13.417  -4.163  1.00 20.00     0.177 C 
HETATM    9  O9  UNL     1     -32.905  13.156  -3.749  1.00 20.00    -0.648 OA
HETATM   10  O10 UNL     1     -35.047  12.647  -4.371  1.00 20.00    -0.648 OA
ENDBRANCH   5   8
TORSDOF 1
ENDMDL
MODEL 6
REMARK VINA RESULT:      -4.5      1.206      2.099
REMARK  1 active torsions:
REMARK  status: ('A' for Active; 'I' for Inactive)
REMARK    1  A    between atoms: C1_1  and  C6_6 
ROOT
HETATM    1  C2  UNL     1     -33.860  17.317  -3.030  1.00 20.00     0.005 C 
HETATM    2  C3  UNL     1     -33.717  17.281  -4.560  1.00 20.00     0.006 C 
HETATM    3  C4  UNL     1     -35.109  15.141  -3.068  1.00 20.00     0.020 C 
HETATM    4  C5  UNL     1     -32.809  15.279  -3.665  1.00 20.00     0.010 C 
HETATM    5  C6  UNL     1     -35.014  15.147  -4.604  1.00 20.00     0.091 C 
HETATM    6  C7  UNL     1     -33.798  15.828  -2.640  1.00 20.00    -0.013 C 
HETATM    7  C8  UNL     1     -33.627  15.774  -4.861  1.00 20.00     0.000 C 
ENDROOT
BRANCH   5   8
HETATM    8  C1  UNL     1     -35.054  13.742  -5.175  1.00 20.00     0.177 C 
HETATM    9  O9  UNL     1     -35.083  12.814  -4.319  1.00 20.00    -0.648 OA
HETATM   10  O10 UNL     1     -35.050  13.682  -6.436  1.00 20.00    -0.648 OA
ENDBRANCH   5   8
TORSDOF 1
ENDMDL
MODEL 7
REMARK VINA RESULT:      -4.3      2.427      3.528
REMARK  1 active torsions:
REMARK  status: ('A' for Active; 'I' for Inactive)
REMARK    1  A    between atoms: C1_1  and  C6_6 
ROOT
HETATM    1  C2  UNL     1     -34.709  13.346  -4.618  1.00 20.00     0.005 C 
HETATM    2  C3  UNL     1     -33.447  13.639  -3.792  1.00 20.00     0.006 C 
HETATM    3  C4  UNL     1     -35.959  15.150  -3.402  1.00 20.00     0.020 C 
HETATM    4  C5  UNL     1     -34.141  15.644  -4.857  1.00 20.00     0.010 C 
HETATM    5  C6  UNL     1     -34.709  15.393  -2.539  1.00 20.00     0.091 C 
HETATM    6  C7  UNL     1     -35.363  14.734  -4.760  1.00 20.00    -0.013 C 
HETATM    7  C8  UNL     1     -33.551  15.153  -3.532  1.00 20.00     0.000 C 
ENDROOT
BRANCH   5   8
HETATM    8  C1  UNL     1     -34.651  16.819  -2.022  1.00 20.00     0.177 C 
HETATM    9  O9  UNL     1     -33.587  17.130  -1.418  1.00 20.00    -0.648 OA
HETATM   10  O10 UNL     1     -35.678  17.512  -2.263  1.00 20.00    -0.648 OA
ENDBRANCH   5   8
TORSDOF 1
ENDMDL
MODEL 8
REMARK VINA RESULT:      -4.3      1.803      2.830
REMARK  1 active torsions:
REMARK  status: ('A' for Active; 'I' for Inactive)
REMARK    1  A    between atoms: C1_1  and  C6_6 
ROOT
HETATM    1  C2  UNL     1     -33.101  15.481  -3.925  1.00 20.00     0.005 C 
HETATM    2  C3  UNL     1     -33.677  15.884  -5.292  1.00 20.00     0.006 C 
HETATM    3  C4  UNL     1     -35.413  15.080  -3.037  1.00 20.00     0.020 C 
HETATM    4  C5  UNL     1     -34.468  13.714  -4.743  1.00 20.00     0.010 C 
HETATM    5  C6  UNL     1     -35.981  15.543  -4.390  1.00 20.00     0.091 C 
HETATM    6  C7  UNL     1     -34.087  14.403  -3.435  1.00 20.00    -0.013 C 
HETATM    7  C8  UNL     1     -34.942  15.013  -5.401  1.00 20.00     0.000 C 
ENDROOT
BRANCH   5   8
HETATM    8  C1  UNL     1     -37.334  14.920  -4.674  1.00 20.00     0.177 C 
HETATM    9  O9  UNL     1     -37.787  15.124  -5.835  1.00 20.00    -0.648 OA
HETATM   10  O10 UNL     1     -37.835  14.278  -3.709  1.00 20.00    -0.648 OA
ENDBRANCH   5   8
TORSDOF 1
ENDMDL
MODEL 9
REMARK VINA RESULT:      -4.2      2.300      3.562
REMARK  1 active torsions:
REMARK  status: ('A' for Active; 'I' for Inactive)
REMARK    1  A    between atoms: C1_1  and  C6_6 
ROOT
HETATM    1  C2  UNL     1     -34.867  16.620  -7.503  1.00 20.00     0.005 C 
HETATM    2  C3  UNL     1     -34.442  15.147  -7.613  1.00 20.00     0.006 C 
HETATM    3  C4  UNL     1     -36.241  16.100  -5.469  1.00 20.00     0.020 C 
HETATM    4  C5  UNL     1     -33.866  15.945  -5.453  1.00 20.00     0.010 C 
HETATM    5  C6  UNL     1     -35.858  14.618  -5.625  1.00 20.00     0.091 C 
HETATM    6  C7  UNL     1     -34.988  16.834  -5.983  1.00 20.00    -0.013 C 
HETATM    7  C8  UNL     1     -34.406  14.690  -6.144  1.00 20.00     0.000 C 
ENDROOT
BRANCH   5   8
HETATM    8  C1  UNL     1     -35.891  13.886  -4.297  1.00 20.00     0.177 C 
HETATM    9  O9  UNL     1     -36.639  14.397  -3.419  1.00 20.00    -0.648 OA
HETATM   10  O10 UNL     1     -35.161  12.857  -4.241  1.00 20.00    -0.648 OA
ENDBRANCH   5   8
TORSDOF 1
ENDMDL
