MODEL 1
REMARK VINA RESULT:      -4.7      0.000      0.000
REMARK  2 active torsions:
REMARK  status: ('A' for Active; 'I' for Inactive)
REMARK    1  A    between atoms: C1_1  and  C2_2 
REMARK    2  A    between atoms: C1_1  and  C3_3 
ROOT
HETATM    1  C3  UNL     1     -34.928   5.169   3.891  1.00 20.00     0.390 C 
HETATM    2  F5  UNL     1     -34.349   4.973   2.685  1.00 20.00    -0.171 F 
HETATM    3  F6  UNL     1     -35.079   3.961   4.473  1.00 20.00    -0.171 F 
HETATM    4  F7  UNL     1     -36.157   5.685   3.675  1.00 20.00    -0.171 F 
ENDROOT
BRANCH   1   5
HETATM    5  C1  UNL     1     -34.082   6.090   4.742  1.00 20.00     0.148 C 
BRANCH   5   6
HETATM    6  C2  UNL     1     -34.356   5.914   6.225  1.00 20.00     0.230 C 
HETATM    7  F4  UNL     1     -34.061   7.071   6.876  1.00 20.00    -0.255 F 
ENDBRANCH   5   6
ENDBRANCH   1   5
TORSDOF 2
ENDMDL
MODEL 2
REMARK VINA RESULT:      -4.6      1.254      1.878
REMARK  2 active torsions:
REMARK  status: ('A' for Active; 'I' for Inactive)
REMARK    1  A    between atoms: C1_1  and  C2_2 
REMARK    2  A    between atoms: C1_1  and  C3_3 
ROOT
HETATM    1  C3  UNL     1     -35.001   5.458   3.778  1.00 20.00     0.390 C 
HETATM    2  F5  UNL     1     -36.238   5.832   3.379  1.00 20.00    -0.171 F 
HETATM    3  F6  UNL     1     -34.356   6.565   4.201  1.00 20.00    -0.171 F 
HETATM    4  F7  UNL     1     -34.350   4.982   2.695  1.00 20.00    -0.171 F 
ENDROOT
BRANCH   1   5
HETATM    5  C1  UNL     1     -35.090   4.418   4.874  1.00 20.00     0.148 C 
BRANCH   5   6
HETATM    6  C2  UNL     1     -34.322   4.829   6.117  1.00 20.00     0.230 C 
HETATM    7  F4  UNL     1     -35.040   5.760   6.801  1.00 20.00    -0.255 F 
ENDBRANCH   5   6
ENDBRANCH   1   5
TORSDOF 2
ENDMDL
MODEL 3
REMARK VINA RESULT:      -4.6      1.249      1.608
REMARK  2 active torsions:
REMARK  status: ('A' for Active; 'I' for Inactive)
REMARK    1  A    between atoms: C1_1  and  C2_2 
REMARK    2  A    between atoms: C1_1  and  C3_3 
ROOT
HETATM    1  C3  UNL     1     -35.001   5.459   3.788  1.00 20.00     0.390 C 
HETATM    2  F5  UNL     1     -34.333   4.980   2.715  1.00 20.00    -0.171 F 
HETATM    3  F6  UNL     1     -36.233   5.823   3.375  1.00 20.00    -0.171 F 
HETATM    4  F7  UNL     1     -34.356   6.568   4.210  1.00 20.00    -0.171 F 
ENDROOT
BRANCH   1   5
HETATM    5  C1  UNL     1     -35.072   4.411   4.878  1.00 20.00     0.148 C 
BRANCH   5   6
HETATM    6  C2  UNL     1     -34.314   4.828   6.125  1.00 20.00     0.230 C 
HETATM    7  F4  UNL     1     -35.037   5.763   6.799  1.00 20.00    -0.255 F 
ENDBRANCH   5   6
ENDBRANCH   1   5
TORSDOF 2
ENDMDL
MODEL 4
REMARK VINA RESULT:      -4.6      1.252      1.577
REMARK  2 active torsions:
REMARK  status: ('A' for Active; 'I' for Inactive)
REMARK    1  A    between atoms: C1_1  and  C2_2 
REMARK    2  A    between atoms: C1_1  and  C3_3 
ROOT
HETATM    1  C3  UNL     1     -35.011   5.449   3.771  1.00 20.00     0.390 C 
HETATM    2  F5  UNL     1     -34.366   6.556   4.203  1.00 20.00    -0.171 F 
HETATM    3  F6  UNL     1     -34.328   4.964   2.713  1.00 20.00    -0.171 F 
HETATM    4  F7  UNL     1     -36.233   5.830   3.341  1.00 20.00    -0.171 F 
ENDROOT
BRANCH   1   5
HETATM    5  C1  UNL     1     -35.107   4.425   4.881  1.00 20.00     0.148 C 
BRANCH   5   6
HETATM    6  C2  UNL     1     -34.319   4.836   6.112  1.00 20.00     0.230 C 
HETATM    7  F4  UNL     1     -35.032   5.759   6.814  1.00 20.00    -0.255 F 
ENDBRANCH   5   6
ENDBRANCH   1   5
TORSDOF 2
ENDMDL
MODEL 5
REMARK VINA RESULT:      -4.5      1.454      3.135
REMARK  2 active torsions:
REMARK  status: ('A' for Active; 'I' for Inactive)
REMARK    1  A    between atoms: C1_1  and  C2_2 
REMARK    2  A    between atoms: C1_1  and  C3_3 
ROOT
HETATM    1  C3  UNL     1     -34.793   4.771   5.958  1.00 20.00     0.390 C 
HETATM    2  F5  UNL     1     -33.746   3.918   5.986  1.00 20.00    -0.171 F 
HETATM    3  F6  UNL     1     -34.395   5.927   6.530  1.00 20.00    -0.171 F 
HETATM    4  F7  UNL     1     -35.773   4.242   6.723  1.00 20.00    -0.171 F 
ENDROOT
BRANCH   1   5
HETATM    5  C1  UNL     1     -35.259   4.992   4.535  1.00 20.00     0.148 C 
BRANCH   5   6
HETATM    6  C2  UNL     1     -34.242   5.759   3.710  1.00 20.00     0.230 C 
HETATM    7  F4  UNL     1     -34.146   5.193   2.477  1.00 20.00    -0.255 F 
ENDBRANCH   5   6
ENDBRANCH   1   5
TORSDOF 2
ENDMDL
MODEL 6
REMARK VINA RESULT:      -4.5      1.456      3.206
REMARK  2 active torsions:
REMARK  status: ('A' for Active; 'I' for Inactive)
REMARK    1  A    between atoms: C1_1  and  C2_2 
REMARK    2  A    between atoms: C1_1  and  C3_3 
ROOT
HETATM    1  C3  UNL     1     -34.787   4.766   5.951  1.00 20.00     0.390 C 
HETATM    2  F5  UNL     1     -34.397   5.930   6.516  1.00 20.00    -0.171 F 
HETATM    3  F6  UNL     1     -35.770   4.248   6.717  1.00 20.00    -0.171 F 
HETATM    4  F7  UNL     1     -33.736   3.920   5.990  1.00 20.00    -0.171 F 
ENDROOT
BRANCH   1   5
HETATM    5  C1  UNL     1     -35.259   4.998   4.532  1.00 20.00     0.148 C 
BRANCH   5   6
HETATM    6  C2  UNL     1     -34.238   5.757   3.704  1.00 20.00     0.230 C 
HETATM    7  F4  UNL     1     -34.155   5.195   2.468  1.00 20.00    -0.255 F 
ENDBRANCH   5   6
ENDBRANCH   1   5
TORSDOF 2
ENDMDL
MODEL 7
REMARK VINA RESULT:      -4.5      1.457      3.178
REMARK  2 active torsions:
REMARK  status: ('A' for Active; 'I' for Inactive)
REMARK    1  A    between atoms: C1_1  and  C2_2 
REMARK    2  A    between atoms: C1_1  and  C3_3 
ROOT
HETATM    1  C3  UNL     1     -34.778   4.778   5.951  1.00 20.00     0.390 C 
HETATM    2  F5  UNL     1     -35.775   4.269   6.708  1.00 20.00    -0.171 F 
HETATM    3  F6  UNL     1     -33.738   3.919   6.012  1.00 20.00    -0.171 F 
HETATM    4  F7  UNL     1     -34.391   5.943   6.514  1.00 20.00    -0.171 F 
ENDROOT
BRANCH   1   5
HETATM    5  C1  UNL     1     -35.244   4.979   4.526  1.00 20.00     0.148 C 
BRANCH   5   6
HETATM    6  C2  UNL     1     -34.236   5.752   3.695  1.00 20.00     0.230 C 
HETATM    7  F4  UNL     1     -34.158   5.200   2.455  1.00 20.00    -0.255 F 
ENDBRANCH   5   6
ENDBRANCH   1   5
TORSDOF 2
ENDMDL
MODEL 8
REMARK VINA RESULT:      -4.5      1.547      2.662
REMARK  2 active torsions:
REMARK  status: ('A' for Active; 'I' for Inactive)
REMARK    1  A    between atoms: C1_1  and  C2_2 
REMARK    2  A    between atoms: C1_1  and  C3_3 
ROOT
HETATM    1  C3  UNL     1     -34.687   5.213   5.614  1.00 20.00     0.390 C 
HETATM    2  F5  UNL     1     -34.022   4.051   5.800  1.00 20.00    -0.171 F 
HETATM    3  F6  UNL     1     -35.166   5.608   6.812  1.00 20.00    -0.171 F 
HETATM    4  F7  UNL     1     -35.739   4.957   4.807  1.00 20.00    -0.171 F 
ENDROOT
BRANCH   1   5
HETATM    5  C1  UNL     1     -33.771   6.258   5.015  1.00 20.00     0.148 C 
BRANCH   5   6
HETATM    6  C2  UNL     1     -33.523   6.024   3.536  1.00 20.00     0.230 C 
HETATM    7  F4  UNL     1     -32.189   5.858   3.325  1.00 20.00    -0.255 F 
ENDBRANCH   5   6
ENDBRANCH   1   5
TORSDOF 2
ENDMDL
MODEL 9
REMARK VINA RESULT:      -4.5      1.511      1.982
REMARK  2 active torsions:
REMARK  status: ('A' for Active; 'I' for Inactive)
REMARK    1  A    between atoms: C1_1  and  C2_2 
REMARK    2  A    between atoms: C1_1  and  C3_3 
ROOT
HETATM    1  C3  UNL     1     -34.242   5.706   3.774  1.00 20.00     0.390 C 
HETATM    2  F5  UNL     1     -34.284   5.296   2.486  1.00 20.00    -0.171 F 
HETATM    3  F6  UNL     1     -34.564   7.016   3.796  1.00 20.00    -0.171 F 
HETATM    4  F7  UNL     1     -32.967   5.581   4.201  1.00 20.00    -0.171 F 
ENDROOT
BRANCH   1   5
HETATM    5  C1  UNL     1     -35.193   4.889   4.621  1.00 20.00     0.148 C 
BRANCH   5   6
HETATM    6  C2  UNL     1     -34.704   4.736   6.049  1.00 20.00     0.230 C 
HETATM    7  F4  UNL     1     -34.768   5.942   6.677  1.00 20.00    -0.255 F 
ENDBRANCH   5   6
ENDBRANCH   1   5
TORSDOF 2
ENDMDL
