MODEL 1
REMARK VINA RESULT:      -4.4      0.000      0.000
REMARK  5 active torsions:
REMARK  status: ('A' for Active; 'I' for Inactive)
REMARK    1  A    between atoms: C1_1  and  C8_8 
REMARK    2  A    between atoms: C4_4  and  C6_6 
REMARK    3  A    between atoms: C5_5  and  C7_7 
REMARK    4  A    between atoms: C6_6  and  C8_8 
REMARK    5  A    between atoms: C7_7  and  C8_8 
ROOT
HETATM    1  C8  UNL     1     -34.211  14.568  -3.203  1.00 20.00     0.072 C 
ENDROOT
BRANCH   1   2
HETATM    2  C1  UNL     1     -35.179  13.729  -4.037  1.00 20.00     0.223 C 
HETATM    3  O9  UNL     1     -34.820  12.707  -4.617  1.00 20.00    -0.279 OA
HETATM    4 CL10 UNL     1     -36.791  14.385  -4.060  1.00 20.00    -0.043 Cl
ENDBRANCH   1   2
BRANCH   1   5
HETATM    5  C6  UNL     1     -33.191  15.259  -4.131  1.00 20.00     0.013 C 
BRANCH   5   6
HETATM    6  C4  UNL     1     -33.803  15.997  -5.328  1.00 20.00    -0.004 C 
HETATM    7  C2  UNL     1     -33.519  17.491  -5.331  1.00 20.00     0.005 C 
ENDBRANCH   5   6
ENDBRANCH   1   5
BRANCH   1   8
HETATM    8  C7  UNL     1     -34.999  15.631  -2.410  1.00 20.00     0.013 C 
BRANCH   8   9
HETATM    9  C5  UNL     1     -34.133  16.625  -1.626  1.00 20.00    -0.004 C 
HETATM   10  C3  UNL     1     -34.726  17.020  -0.282  1.00 20.00     0.005 C 
ENDBRANCH   8   9
ENDBRANCH   1   8
TORSDOF 5
ENDMDL
MODEL 2
REMARK VINA RESULT:      -4.3      1.724      3.671
REMARK  5 active torsions:
REMARK  status: ('A' for Active; 'I' for Inactive)
REMARK    1  A    between atoms: C1_1  and  C8_8 
REMARK    2  A    between atoms: C4_4  and  C6_6 
REMARK    3  A    between atoms: C5_5  and  C7_7 
REMARK    4  A    between atoms: C6_6  and  C8_8 
REMARK    5  A    between atoms: C7_7  and  C8_8 
ROOT
HETATM    1  C8  UNL     1     -35.112  14.957  -3.572  1.00 20.00     0.072 C 
ENDROOT
BRANCH   1   2
HETATM    2  C1  UNL     1     -34.450  13.614  -3.880  1.00 20.00     0.223 C 
HETATM    3  O9  UNL     1     -35.084  12.667  -4.340  1.00 20.00    -0.279 OA
HETATM    4 CL10 UNL     1     -32.750  13.601  -3.506  1.00 20.00    -0.043 Cl
ENDBRANCH   1   2
BRANCH   1   5
HETATM    5  C6  UNL     1     -34.143  15.838  -2.757  1.00 20.00     0.013 C 
BRANCH   5   6
HETATM    6  C4  UNL     1     -34.707  16.360  -1.429  1.00 20.00    -0.004 C 
HETATM    7  C2  UNL     1     -33.855  17.447  -0.793  1.00 20.00     0.005 C 
ENDBRANCH   5   6
ENDBRANCH   1   5
BRANCH   1   8
HETATM    8  C7  UNL     1     -35.479  15.668  -4.891  1.00 20.00     0.013 C 
BRANCH   8   9
HETATM    9  C5  UNL     1     -34.303  15.903  -5.847  1.00 20.00    -0.004 C 
HETATM   10  C3  UNL     1     -34.429  15.149  -7.162  1.00 20.00     0.005 C 
ENDBRANCH   8   9
ENDBRANCH   1   8
TORSDOF 5
ENDMDL
MODEL 3
REMARK VINA RESULT:      -4.2      1.198      1.365
REMARK  5 active torsions:
REMARK  status: ('A' for Active; 'I' for Inactive)
REMARK    1  A    between atoms: C1_1  and  C8_8 
REMARK    2  A    between atoms: C4_4  and  C6_6 
REMARK    3  A    between atoms: C5_5  and  C7_7 
REMARK    4  A    between atoms: C6_6  and  C8_8 
REMARK    5  A    between atoms: C7_7  and  C8_8 
ROOT
HETATM    1  C8  UNL     1     -33.544  15.288  -3.318  1.00 20.00     0.072 C 
ENDROOT
BRANCH   1   2
HETATM    2  C1  UNL     1     -33.825  13.842  -3.727  1.00 20.00     0.223 C 
HETATM    3  O9  UNL     1     -32.934  12.998  -3.782  1.00 20.00    -0.279 OA
HETATM    4 CL10 UNL     1     -35.503  13.560  -4.092  1.00 20.00    -0.043 Cl
ENDBRANCH   1   2
BRANCH   1   5
HETATM    5  C6  UNL     1     -33.092  16.097  -4.551  1.00 20.00     0.013 C 
BRANCH   5   6
HETATM    6  C4  UNL     1     -34.232  16.682  -5.394  1.00 20.00    -0.004 C 
HETATM    7  C2  UNL     1     -34.340  16.070  -6.782  1.00 20.00     0.005 C 
ENDBRANCH   5   6
ENDBRANCH   1   5
BRANCH   1   8
HETATM    8  C7  UNL     1     -34.821  15.916  -2.722  1.00 20.00     0.013 C 
BRANCH   8   9
HETATM    9  C5  UNL     1     -34.689  16.393  -1.271  1.00 20.00    -0.004 C 
HETATM   10  C3  UNL     1     -33.663  17.499  -1.085  1.00 20.00     0.005 C 
ENDBRANCH   8   9
ENDBRANCH   1   8
TORSDOF 5
ENDMDL
MODEL 4
REMARK VINA RESULT:      -4.2      2.090      3.941
REMARK  5 active torsions:
REMARK  status: ('A' for Active; 'I' for Inactive)
REMARK    1  A    between atoms: C1_1  and  C8_8 
REMARK    2  A    between atoms: C4_4  and  C6_6 
REMARK    3  A    between atoms: C5_5  and  C7_7 
REMARK    4  A    between atoms: C6_6  and  C8_8 
REMARK    5  A    between atoms: C7_7  and  C8_8 
ROOT
HETATM    1  C8  UNL     1     -33.566  15.887  -3.037  1.00 20.00     0.072 C 
ENDROOT
BRANCH   1   2
HETATM    2  C1  UNL     1     -33.725  16.776  -4.270  1.00 20.00     0.223 C 
HETATM    3  O9  UNL     1     -32.916  16.757  -5.194  1.00 20.00    -0.279 OA
HETATM    4 CL10 UNL     1     -35.144  17.782  -4.196  1.00 20.00    -0.043 Cl
ENDBRANCH   1   2
BRANCH   1   5
HETATM    5  C6  UNL     1     -34.834  15.981  -2.164  1.00 20.00     0.013 C 
BRANCH   5   6
HETATM    6  C4  UNL     1     -34.619  16.601  -0.777  1.00 20.00    -0.004 C 
HETATM    7  C2  UNL     1     -33.619  17.747  -0.772  1.00 20.00     0.005 C 
ENDBRANCH   5   6
ENDBRANCH   1   5
BRANCH   1   8
HETATM    8  C7  UNL     1     -33.342  14.426  -3.477  1.00 20.00     0.013 C 
BRANCH   8   9
HETATM    9  C5  UNL     1     -34.623  13.640  -3.783  1.00 20.00    -0.004 C 
HETATM   10  C3  UNL     1     -34.831  13.367  -5.265  1.00 20.00     0.005 C 
ENDBRANCH   8   9
ENDBRANCH   1   8
TORSDOF 5
ENDMDL
MODEL 5
REMARK VINA RESULT:      -4.1      2.354      3.117
REMARK  5 active torsions:
REMARK  status: ('A' for Active; 'I' for Inactive)
REMARK    1  A    between atoms: C1_1  and  C8_8 
REMARK    2  A    between atoms: C4_4  and  C6_6 
REMARK    3  A    between atoms: C5_5  and  C7_7 
REMARK    4  A    between atoms: C6_6  and  C8_8 
REMARK    5  A    between atoms: C7_7  and  C8_8 
ROOT
HETATM    1  C8  UNL     1     -33.940  16.109  -3.757  1.00 20.00     0.072 C 
ENDROOT
BRANCH   1   2
HETATM    2  C1  UNL     1     -33.686  16.991  -4.979  1.00 20.00     0.223 C 
HETATM    3  O9  UNL     1     -33.307  18.155  -4.874  1.00 20.00    -0.279 OA
HETATM    4 CL10 UNL     1     -33.993  16.164  -6.480  1.00 20.00    -0.043 Cl
ENDBRANCH   1   2
BRANCH   1   5
HETATM    5  C6  UNL     1     -32.873  14.998  -3.688  1.00 20.00     0.013 C 
BRANCH   5   6
HETATM    6  C4  UNL     1     -33.423  13.568  -3.755  1.00 20.00    -0.004 C 
HETATM    7  C2  UNL     1     -34.897  13.500  -4.124  1.00 20.00     0.005 C 
ENDBRANCH   5   6
ENDBRANCH   1   5
BRANCH   1   8
HETATM    8  C7  UNL     1     -33.883  16.968  -2.477  1.00 20.00     0.013 C 
BRANCH   8   9
HETATM    9  C5  UNL     1     -34.607  16.370  -1.264  1.00 20.00    -0.004 C 
HETATM   10  C3  UNL     1     -34.633  17.293  -0.056  1.00 20.00     0.005 C 
ENDBRANCH   8   9
ENDBRANCH   1   8
TORSDOF 5
ENDMDL
MODEL 6
REMARK VINA RESULT:      -4.1      2.115      3.380
REMARK  5 active torsions:
REMARK  status: ('A' for Active; 'I' for Inactive)
REMARK    1  A    between atoms: C1_1  and  C8_8 
REMARK    2  A    between atoms: C4_4  and  C6_6 
REMARK    3  A    between atoms: C5_5  and  C7_7 
REMARK    4  A    between atoms: C6_6  and  C8_8 
REMARK    5  A    between atoms: C7_7  and  C8_8 
ROOT
HETATM    1  C8  UNL     1     -35.199  14.917  -3.269  1.00 20.00     0.072 C 
ENDROOT
BRANCH   1   2
HETATM    2  C1  UNL     1     -34.503  13.659  -3.789  1.00 20.00     0.223 C 
HETATM    3  O9  UNL     1     -35.130  12.732  -4.297  1.00 20.00    -0.279 OA
HETATM    4 CL10 UNL     1     -32.776  13.709  -3.575  1.00 20.00    -0.043 Cl
ENDBRANCH   1   2
BRANCH   1   5
HETATM    5  C6  UNL     1     -34.176  15.809  -2.535  1.00 20.00     0.013 C 
BRANCH   5   6
HETATM    6  C4  UNL     1     -34.684  16.435  -1.230  1.00 20.00    -0.004 C 
HETATM    7  C2  UNL     1     -33.833  17.596  -0.741  1.00 20.00     0.005 C 
ENDBRANCH   5   6
ENDBRANCH   1   5
BRANCH   1   8
HETATM    8  C7  UNL     1     -35.816  15.694  -4.450  1.00 20.00     0.013 C 
BRANCH   8   9
HETATM    9  C5  UNL     1     -37.310  16.011  -4.304  1.00 20.00    -0.004 C 
HETATM   10  C3  UNL     1     -38.160  14.794  -3.972  1.00 20.00     0.005 C 
ENDBRANCH   8   9
ENDBRANCH   1   8
TORSDOF 5
ENDMDL
MODEL 7
REMARK VINA RESULT:      -4.0     11.090     11.805
REMARK  5 active torsions:
REMARK  status: ('A' for Active; 'I' for Inactive)
REMARK    1  A    between atoms: C1_1  and  C8_8 
REMARK    2  A    between atoms: C4_4  and  C6_6 
REMARK    3  A    between atoms: C5_5  and  C7_7 
REMARK    4  A    between atoms: C6_6  and  C8_8 
REMARK    5  A    between atoms: C7_7  and  C8_8 
ROOT
HETATM    1  C8  UNL     1     -33.304   5.781   3.978  1.00 20.00     0.072 C 
ENDROOT
BRANCH   1   2
HETATM    2  C1  UNL     1     -34.346   5.431   2.916  1.00 20.00     0.223 C 
HETATM    3  O9  UNL     1     -34.033   4.932   1.838  1.00 20.00    -0.279 OA
HETATM    4 CL10 UNL     1     -35.969   5.818   3.413  1.00 20.00    -0.043 Cl
ENDBRANCH   1   2
BRANCH   1   5
HETATM    5  C6  UNL     1     -32.129   6.535   3.322  1.00 20.00     0.013 C 
BRANCH   5   6
HETATM    6  C4  UNL     1     -32.459   7.954   2.843  1.00 20.00    -0.004 C 
HETATM    7  C2  UNL     1     -31.879   8.286   1.477  1.00 20.00     0.005 C 
ENDBRANCH   5   6
ENDBRANCH   1   5
BRANCH   1   8
HETATM    8  C7  UNL     1     -33.949   6.665   5.066  1.00 20.00     0.013 C 
BRANCH   8   9
HETATM    9  C5  UNL     1     -34.138   5.982   6.426  1.00 20.00    -0.004 C 
HETATM   10  C3  UNL     1     -34.753   4.594   6.329  1.00 20.00     0.005 C 
ENDBRANCH   8   9
ENDBRANCH   1   8
TORSDOF 5
ENDMDL
MODEL 8
REMARK VINA RESULT:      -4.0     11.428     12.536
REMARK  5 active torsions:
REMARK  status: ('A' for Active; 'I' for Inactive)
REMARK    1  A    between atoms: C1_1  and  C8_8 
REMARK    2  A    between atoms: C4_4  and  C6_6 
REMARK    3  A    between atoms: C5_5  and  C7_7 
REMARK    4  A    between atoms: C6_6  and  C8_8 
REMARK    5  A    between atoms: C7_7  and  C8_8 
ROOT
HETATM    1  C8  UNL     1     -33.953   6.594   4.114  1.00 20.00     0.072 C 
ENDROOT
BRANCH   1   2
HETATM    2  C1  UNL     1     -34.929   5.725   3.321  1.00 20.00     0.223 C 
HETATM    3  O9  UNL     1     -36.129   5.689   3.584  1.00 20.00    -0.279 OA
HETATM    4 CL10 UNL     1     -34.150   4.827   2.049  1.00 20.00    -0.043 Cl
ENDBRANCH   1   2
BRANCH   1   5
HETATM    5  C6  UNL     1     -34.111   6.307   5.621  1.00 20.00     0.013 C 
BRANCH   5   6
HETATM    6  C4  UNL     1     -33.938   4.836   6.020  1.00 20.00    -0.004 C 
HETATM    7  C2  UNL     1     -35.239   4.154   6.411  1.00 20.00     0.005 C 
ENDBRANCH   5   6
ENDBRANCH   1   5
BRANCH   1   8
HETATM    8  C7  UNL     1     -32.508   6.285   3.673  1.00 20.00     0.013 C 
BRANCH   8   9
HETATM    9  C5  UNL     1     -31.664   7.516   3.319  1.00 20.00    -0.004 C 
HETATM   10  C3  UNL     1     -32.098   8.202   2.033  1.00 20.00     0.005 C 
ENDBRANCH   8   9
ENDBRANCH   1   8
TORSDOF 5
ENDMDL
MODEL 9
REMARK VINA RESULT:      -4.0      2.592      3.604
REMARK  5 active torsions:
REMARK  status: ('A' for Active; 'I' for Inactive)
REMARK    1  A    between atoms: C1_1  and  C8_8 
REMARK    2  A    between atoms: C4_4  and  C6_6 
REMARK    3  A    between atoms: C5_5  and  C7_7 
REMARK    4  A    between atoms: C6_6  and  C8_8 
REMARK    5  A    between atoms: C7_7  and  C8_8 
ROOT
HETATM    1  C8  UNL     1     -33.847  16.110  -3.965  1.00 20.00     0.072 C 
ENDROOT
BRANCH   1   2
HETATM    2  C1  UNL     1     -33.934  17.076  -2.783  1.00 20.00     0.223 C 
HETATM    3  O9  UNL     1     -33.605  18.256  -2.883  1.00 20.00    -0.279 OA
HETATM    4 CL10 UNL     1     -34.533  16.316  -1.336  1.00 20.00    -0.043 Cl
ENDBRANCH   1   2
BRANCH   1   5
HETATM    5  C6  UNL     1     -33.359  16.866  -5.218  1.00 20.00     0.013 C 
BRANCH   5   6
HETATM    6  C4  UNL     1     -34.288  16.768  -6.434  1.00 20.00    -0.004 C 
HETATM    7  C2  UNL     1     -34.296  15.393  -7.084  1.00 20.00     0.005 C 
ENDBRANCH   5   6
ENDBRANCH   1   5
BRANCH   1   8
HETATM    8  C7  UNL     1     -32.867  14.967  -3.630  1.00 20.00     0.013 C 
BRANCH   8   9
HETATM    9  C5  UNL     1     -33.448  13.555  -3.771  1.00 20.00    -0.004 C 
HETATM   10  C3  UNL     1     -34.950  13.536  -4.006  1.00 20.00     0.005 C 
ENDBRANCH   8   9
ENDBRANCH   1   8
TORSDOF 5
ENDMDL
