MODEL 1
REMARK VINA RESULT:      -4.7      0.000      0.000
REMARK  1 active torsions:
REMARK  status: ('A' for Active; 'I' for Inactive)
REMARK    1  A    between atoms: C3_3  and  C4_4 
ROOT
HETATM    1  C1  UNL     1     -34.289   5.177   5.618  1.00 20.00     0.197 C 
HETATM    2  C2  UNL     1     -35.169   4.791   4.461  1.00 20.00     0.197 C 
HETATM    3  C3  UNL     1     -33.926   6.580   3.877  1.00 20.00     0.369 C 
HETATM    4  O5  UNL     1     -33.901   6.515   5.310  1.00 20.00    -0.351 OA
HETATM    5  O6  UNL     1     -34.513   5.387   3.344  1.00 20.00    -0.351 OA
ENDROOT
BRANCH   3   6
HETATM    6  C4  UNL     1     -32.515   6.730   3.343  1.00 20.00     0.437 C 
HETATM    7  F7  UNL     1     -31.727   7.330   4.253  1.00 20.00    -0.166 F 
HETATM    8  F8  UNL     1     -31.990   5.524   3.055  1.00 20.00    -0.166 F 
HETATM    9  F9  UNL     1     -32.513   7.474   2.221  1.00 20.00    -0.166 F 
ENDBRANCH   3   6
TORSDOF 1
ENDMDL
MODEL 2
REMARK VINA RESULT:      -4.7      0.006      1.261
REMARK  1 active torsions:
REMARK  status: ('A' for Active; 'I' for Inactive)
REMARK    1  A    between atoms: C3_3  and  C4_4 
ROOT
HETATM    1  C1  UNL     1     -34.293   5.182   5.619  1.00 20.00     0.197 C 
HETATM    2  C2  UNL     1     -35.174   4.794   4.464  1.00 20.00     0.197 C 
HETATM    3  C3  UNL     1     -33.928   6.579   3.874  1.00 20.00     0.369 C 
HETATM    4  O5  UNL     1     -33.903   6.518   5.307  1.00 20.00    -0.351 OA
HETATM    5  O6  UNL     1     -34.518   5.386   3.345  1.00 20.00    -0.351 OA
ENDROOT
BRANCH   3   6
HETATM    6  C4  UNL     1     -32.517   6.725   3.338  1.00 20.00     0.437 C 
HETATM    7  F7  UNL     1     -31.995   5.521   3.048  1.00 20.00    -0.166 F 
HETATM    8  F8  UNL     1     -32.515   7.472   2.217  1.00 20.00    -0.166 F 
HETATM    9  F9  UNL     1     -31.728   7.324   4.249  1.00 20.00    -0.166 F 
ENDBRANCH   3   6
TORSDOF 1
ENDMDL
MODEL 3
REMARK VINA RESULT:      -4.5      2.778      3.707
REMARK  1 active torsions:
REMARK  status: ('A' for Active; 'I' for Inactive)
REMARK    1  A    between atoms: C3_3  and  C4_4 
ROOT
HETATM    1  C1  UNL     1     -33.994   5.455   2.859  1.00 20.00     0.197 C 
HETATM    2  C2  UNL     1     -33.195   6.509   3.575  1.00 20.00     0.197 C 
HETATM    3  C3  UNL     1     -34.762   5.692   4.976  1.00 20.00     0.369 C 
HETATM    4  O5  UNL     1     -35.175   5.337   3.649  1.00 20.00    -0.351 OA
HETATM    5  O6  UNL     1     -33.427   6.212   4.950  1.00 20.00    -0.351 OA
ENDROOT
BRANCH   3   6
HETATM    6  C4  UNL     1     -34.811   4.473   5.876  1.00 20.00     0.437 C 
HETATM    7  F7  UNL     1     -35.803   4.591   6.777  1.00 20.00    -0.166 F 
HETATM    8  F8  UNL     1     -35.027   3.360   5.149  1.00 20.00    -0.166 F 
HETATM    9  F9  UNL     1     -33.649   4.329   6.538  1.00 20.00    -0.166 F 
ENDBRANCH   3   6
TORSDOF 1
ENDMDL
MODEL 4
REMARK VINA RESULT:      -4.5      2.783      3.784
REMARK  1 active torsions:
REMARK  status: ('A' for Active; 'I' for Inactive)
REMARK    1  A    between atoms: C3_3  and  C4_4 
ROOT
HETATM    1  C1  UNL     1     -34.001   5.448   2.862  1.00 20.00     0.197 C 
HETATM    2  C2  UNL     1     -33.202   6.505   3.574  1.00 20.00     0.197 C 
HETATM    3  C3  UNL     1     -34.766   5.692   4.980  1.00 20.00     0.369 C 
HETATM    4  O5  UNL     1     -35.181   5.332   3.655  1.00 20.00    -0.351 OA
HETATM    5  O6  UNL     1     -33.432   6.212   4.950  1.00 20.00    -0.351 OA
ENDROOT
BRANCH   3   6
HETATM    6  C4  UNL     1     -34.814   4.475   5.884  1.00 20.00     0.437 C 
HETATM    7  F7  UNL     1     -35.018   3.359   5.162  1.00 20.00    -0.166 F 
HETATM    8  F8  UNL     1     -33.655   4.342   6.555  1.00 20.00    -0.166 F 
HETATM    9  F9  UNL     1     -35.813   4.592   6.778  1.00 20.00    -0.166 F 
ENDBRANCH   3   6
TORSDOF 1
ENDMDL
MODEL 5
REMARK VINA RESULT:      -3.9     11.502     12.542
REMARK  1 active torsions:
REMARK  status: ('A' for Active; 'I' for Inactive)
REMARK    1  A    between atoms: C3_3  and  C4_4 
ROOT
HETATM    1  C1  UNL     1     -34.866  17.158  -4.441  1.00 20.00     0.197 C 
HETATM    2  C2  UNL     1     -33.490  17.482  -4.956  1.00 20.00     0.197 C 
HETATM    3  C3  UNL     1     -33.375  15.653  -3.641  1.00 20.00     0.369 C 
HETATM    4  O5  UNL     1     -34.613  16.305  -3.327  1.00 20.00    -0.351 OA
HETATM    5  O6  UNL     1     -32.791  16.249  -4.806  1.00 20.00    -0.351 OA
ENDROOT
BRANCH   3   6
HETATM    6  C4  UNL     1     -33.618  14.178  -3.895  1.00 20.00     0.437 C 
HETATM    7  F7  UNL     1     -32.516  13.462  -3.610  1.00 20.00    -0.166 F 
HETATM    8  F8  UNL     1     -34.628  13.729  -3.127  1.00 20.00    -0.166 F 
HETATM    9  F9  UNL     1     -33.940  13.970  -5.185  1.00 20.00    -0.166 F 
ENDBRANCH   3   6
TORSDOF 1
ENDMDL
MODEL 6
REMARK VINA RESULT:      -3.8     11.404     12.460
REMARK  1 active torsions:
REMARK  status: ('A' for Active; 'I' for Inactive)
REMARK    1  A    between atoms: C3_3  and  C4_4 
ROOT
HETATM    1  C1  UNL     1     -34.693  17.226  -3.907  1.00 20.00     0.197 C 
HETATM    2  C2  UNL     1     -33.476  17.499  -4.748  1.00 20.00     0.197 C 
HETATM    3  C3  UNL     1     -33.172  15.573  -3.615  1.00 20.00     0.369 C 
HETATM    4  O5  UNL     1     -34.230  16.277  -2.949  1.00 20.00    -0.351 OA
HETATM    5  O6  UNL     1     -32.865  16.216  -4.858  1.00 20.00    -0.351 OA
ENDROOT
BRANCH   3   6
HETATM    6  C4  UNL     1     -33.593  14.140  -3.877  1.00 20.00     0.437 C 
HETATM    7  F7  UNL     1     -34.642  13.807  -3.106  1.00 20.00    -0.166 F 
HETATM    8  F8  UNL     1     -33.945  13.982  -5.167  1.00 20.00    -0.166 F 
HETATM    9  F9  UNL     1     -32.580  13.296  -3.607  1.00 20.00    -0.166 F 
ENDBRANCH   3   6
TORSDOF 1
ENDMDL
MODEL 7
REMARK VINA RESULT:      -3.8     11.356     12.133
REMARK  1 active torsions:
REMARK  status: ('A' for Active; 'I' for Inactive)
REMARK    1  A    between atoms: C3_3  and  C4_4 
ROOT
HETATM    1  C1  UNL     1     -35.703  15.032  -5.518  1.00 20.00     0.197 C 
HETATM    2  C2  UNL     1     -36.289  14.351  -4.312  1.00 20.00     0.197 C 
HETATM    3  C3  UNL     1     -34.039  14.213  -4.218  1.00 20.00     0.369 C 
HETATM    4  O5  UNL     1     -34.374  14.519  -5.579  1.00 20.00    -0.351 OA
HETATM    5  O6  UNL     1     -35.202  14.338  -3.389  1.00 20.00    -0.351 OA
ENDROOT
BRANCH   3   6
HETATM    6  C4  UNL     1     -32.964  15.161  -3.725  1.00 20.00     0.437 C 
HETATM    7  F7  UNL     1     -32.659  16.063  -4.675  1.00 20.00    -0.166 F 
HETATM    8  F8  UNL     1     -33.385  15.822  -2.630  1.00 20.00    -0.166 F 
HETATM    9  F9  UNL     1     -31.847  14.481  -3.408  1.00 20.00    -0.166 F 
ENDBRANCH   3   6
TORSDOF 1
ENDMDL
MODEL 8
REMARK VINA RESULT:      -3.8      9.360     10.142
REMARK  1 active torsions:
REMARK  status: ('A' for Active; 'I' for Inactive)
REMARK    1  A    between atoms: C3_3  and  C4_4 
ROOT
HETATM    1  C1  UNL     1     -42.246   7.067  -2.727  1.00 20.00     0.197 C 
HETATM    2  C2  UNL     1     -42.896   5.758  -3.082  1.00 20.00     0.197 C 
HETATM    3  C3  UNL     1     -41.377   5.409  -1.452  1.00 20.00     0.369 C 
HETATM    4  O5  UNL     1     -41.056   6.674  -2.046  1.00 20.00    -0.351 OA
HETATM    5  O6  UNL     1     -42.647   4.952  -1.933  1.00 20.00    -0.351 OA
ENDROOT
BRANCH   3   6
HETATM    6  C4  UNL     1     -41.429   5.546   0.058  1.00 20.00     0.437 C 
HETATM    7  F7  UNL     1     -42.545   6.194   0.435  1.00 20.00    -0.166 F 
HETATM    8  F8  UNL     1     -41.423   4.332   0.640  1.00 20.00    -0.166 F 
HETATM    9  F9  UNL     1     -40.363   6.236   0.503  1.00 20.00    -0.166 F 
ENDBRANCH   3   6
TORSDOF 1
ENDMDL
MODEL 9
REMARK VINA RESULT:      -3.8     11.741     12.747
REMARK  1 active torsions:
REMARK  status: ('A' for Active; 'I' for Inactive)
REMARK    1  A    between atoms: C3_3  and  C4_4 
ROOT
HETATM    1  C1  UNL     1     -33.631  17.646  -4.529  1.00 20.00     0.197 C 
HETATM    2  C2  UNL     1     -35.042  17.321  -4.938  1.00 20.00     0.197 C 
HETATM    3  C3  UNL     1     -33.819  15.426  -4.939  1.00 20.00     0.369 C 
HETATM    4  O5  UNL     1     -32.886  16.515  -4.977  1.00 20.00    -0.351 OA
HETATM    5  O6  UNL     1     -35.138  15.922  -4.682  1.00 20.00    -0.351 OA
ENDROOT
BRANCH   3   6
HETATM    6  C4  UNL     1     -33.426  14.447  -3.850  1.00 20.00     0.437 C 
HETATM    7  F7  UNL     1     -34.200  14.613  -2.764  1.00 20.00    -0.166 F 
HETATM    8  F8  UNL     1     -33.568  13.180  -4.284  1.00 20.00    -0.166 F 
HETATM    9  F9  UNL     1     -32.143  14.633  -3.492  1.00 20.00    -0.166 F 
ENDBRANCH   3   6
TORSDOF 1
ENDMDL
