MODEL 1
REMARK VINA RESULT:      -4.6      0.000      0.000
REMARK  3 active torsions:
REMARK  status: ('A' for Active; 'I' for Inactive)
REMARK    1  A    between atoms: C3_3  and  C4_4 
REMARK    2  A    between atoms: C4_4  and  C6_6 
REMARK    3  A    between atoms: C5_5  and  C6_6 
ROOT
HETATM    1  C2  UNL     1     -33.765   6.531   5.548  1.00 20.00     0.011 C 
HETATM    2  C6  UNL     1     -34.373   6.068   4.219  1.00 20.00    -0.005 C 
ENDROOT
BRANCH   2   3
HETATM    3  C4  UNL     1     -33.272   5.990   3.141  1.00 20.00     0.005 C 
BRANCH   3   4
HETATM    4  C3  UNL     1     -32.124   6.978   3.365  1.00 20.00    -0.004 C 
HETATM    5  C1  UNL     1     -32.058   8.012   2.252  1.00 20.00     0.005 C 
ENDBRANCH   3   4
ENDBRANCH   2   3
BRANCH   2   6
HETATM    6  C5  UNL     1     -35.181   4.772   4.394  1.00 20.00     0.119 C 
HETATM    7 CL7  UNL     1     -35.046   4.061   6.020  1.00 20.00    -0.130 Cl
ENDBRANCH   2   6
TORSDOF 3
ENDMDL
MODEL 2
REMARK VINA RESULT:      -4.5      1.668      2.321
REMARK  3 active torsions:
REMARK  status: ('A' for Active; 'I' for Inactive)
REMARK    1  A    between atoms: C3_3  and  C4_4 
REMARK    2  A    between atoms: C4_4  and  C6_6 
REMARK    3  A    between atoms: C5_5  and  C6_6 
ROOT
HETATM    1  C2  UNL     1     -35.154   3.931   5.124  1.00 20.00     0.011 C 
HETATM    2  C6  UNL     1     -34.242   5.160   5.218  1.00 20.00    -0.005 C 
ENDROOT
BRANCH   2   3
HETATM    3  C4  UNL     1     -34.396   6.021   3.946  1.00 20.00     0.005 C 
BRANCH   3   4
HETATM    4  C3  UNL     1     -33.196   5.937   3.001  1.00 20.00    -0.004 C 
HETATM    5  C1  UNL     1     -32.120   6.942   3.380  1.00 20.00     0.005 C 
ENDBRANCH   3   4
ENDBRANCH   2   3
BRANCH   2   6
HETATM    6  C5  UNL     1     -34.466   5.925   6.532  1.00 20.00     0.119 C 
HETATM    7 CL7  UNL     1     -33.355   7.297   6.757  1.00 20.00    -0.130 Cl
ENDBRANCH   2   6
TORSDOF 3
ENDMDL
MODEL 3
REMARK VINA RESULT:      -4.2      1.470      1.883
REMARK  3 active torsions:
REMARK  status: ('A' for Active; 'I' for Inactive)
REMARK    1  A    between atoms: C3_3  and  C4_4 
REMARK    2  A    between atoms: C4_4  and  C6_6 
REMARK    3  A    between atoms: C5_5  and  C6_6 
ROOT
HETATM    1  C2  UNL     1     -35.681   5.277   3.867  1.00 20.00     0.011 C 
HETATM    2  C6  UNL     1     -34.318   5.501   4.533  1.00 20.00    -0.005 C 
ENDROOT
BRANCH   2   3
HETATM    3  C4  UNL     1     -33.660   6.773   3.959  1.00 20.00     0.005 C 
BRANCH   3   4
HETATM    4  C3  UNL     1     -32.384   6.496   3.160  1.00 20.00    -0.004 C 
HETATM    5  C1  UNL     1     -31.991   7.695   2.311  1.00 20.00     0.005 C 
ENDBRANCH   3   4
ENDBRANCH   2   3
BRANCH   2   6
HETATM    6  C5  UNL     1     -34.433   5.482   6.065  1.00 20.00     0.119 C 
HETATM    7 CL7  UNL     1     -33.891   6.990   6.840  1.00 20.00    -0.130 Cl
ENDBRANCH   2   6
TORSDOF 3
ENDMDL
MODEL 4
REMARK VINA RESULT:      -4.2      2.625      4.226
REMARK  3 active torsions:
REMARK  status: ('A' for Active; 'I' for Inactive)
REMARK    1  A    between atoms: C3_3  and  C4_4 
REMARK    2  A    between atoms: C4_4  and  C6_6 
REMARK    3  A    between atoms: C5_5  and  C6_6 
ROOT
HETATM    1  C2  UNL     1     -34.074   5.371   2.654  1.00 20.00     0.011 C 
HETATM    2  C6  UNL     1     -33.645   6.510   3.587  1.00 20.00    -0.005 C 
ENDROOT
BRANCH   2   3
HETATM    3  C4  UNL     1     -33.985   6.143   5.047  1.00 20.00     0.005 C 
BRANCH   3   4
HETATM    4  C3  UNL     1     -35.131   5.136   5.175  1.00 20.00    -0.004 C 
HETATM    5  C1  UNL     1     -34.736   3.955   6.049  1.00 20.00     0.005 C 
ENDBRANCH   3   4
ENDBRANCH   2   3
BRANCH   2   6
HETATM    6  C5  UNL     1     -32.176   6.900   3.358  1.00 20.00     0.119 C 
HETATM    7 CL7  UNL     1     -31.950   8.092   2.055  1.00 20.00    -0.130 Cl
ENDBRANCH   2   6
TORSDOF 3
ENDMDL
MODEL 5
REMARK VINA RESULT:      -4.1      0.947      1.617
REMARK  3 active torsions:
REMARK  status: ('A' for Active; 'I' for Inactive)
REMARK    1  A    between atoms: C3_3  and  C4_4 
REMARK    2  A    between atoms: C4_4  and  C6_6 
REMARK    3  A    between atoms: C5_5  and  C6_6 
ROOT
HETATM    1  C2  UNL     1     -35.194   5.436   3.534  1.00 20.00     0.011 C 
HETATM    2  C6  UNL     1     -33.752   5.605   4.029  1.00 20.00    -0.005 C 
ENDROOT
BRANCH   2   3
HETATM    3  C4  UNL     1     -32.853   6.069   2.863  1.00 20.00     0.005 C 
BRANCH   3   4
HETATM    4  C3  UNL     1     -32.024   7.313   3.187  1.00 20.00    -0.004 C 
HETATM    5  C1  UNL     1     -32.037   8.304   2.033  1.00 20.00     0.005 C 
ENDBRANCH   3   4
ENDBRANCH   2   3
BRANCH   2   6
HETATM    6  C5  UNL     1     -33.688   6.503   5.275  1.00 20.00     0.119 C 
HETATM    7 CL7  UNL     1     -34.571   5.845   6.674  1.00 20.00    -0.130 Cl
ENDBRANCH   2   6
TORSDOF 3
ENDMDL
MODEL 6
REMARK VINA RESULT:      -4.1      2.327      3.591
REMARK  3 active torsions:
REMARK  status: ('A' for Active; 'I' for Inactive)
REMARK    1  A    between atoms: C3_3  and  C4_4 
REMARK    2  A    between atoms: C4_4  and  C6_6 
REMARK    3  A    between atoms: C5_5  and  C6_6 
ROOT
HETATM    1  C2  UNL     1     -36.079   5.941   3.248  1.00 20.00     0.011 C 
HETATM    2  C6  UNL     1     -34.743   5.726   3.968  1.00 20.00    -0.005 C 
ENDROOT
BRANCH   2   3
HETATM    3  C4  UNL     1     -34.888   4.596   5.008  1.00 20.00     0.005 C 
BRANCH   3   4
HETATM    4  C3  UNL     1     -34.574   5.036   6.440  1.00 20.00    -0.004 C 
HETATM    5  C1  UNL     1     -34.054   6.465   6.479  1.00 20.00     0.005 C 
ENDBRANCH   3   4
ENDBRANCH   2   3
BRANCH   2   6
HETATM    6  C5  UNL     1     -33.593   5.524   2.968  1.00 20.00     0.119 C 
HETATM    7 CL7  UNL     1     -32.214   6.617   3.237  1.00 20.00    -0.130 Cl
ENDBRANCH   2   6
TORSDOF 3
ENDMDL
MODEL 7
REMARK VINA RESULT:      -3.8      1.706      3.387
REMARK  3 active torsions:
REMARK  status: ('A' for Active; 'I' for Inactive)
REMARK    1  A    between atoms: C3_3  and  C4_4 
REMARK    2  A    between atoms: C4_4  and  C6_6 
REMARK    3  A    between atoms: C5_5  and  C6_6 
ROOT
HETATM    1  C2  UNL     1     -32.251   6.627   3.446  1.00 20.00     0.011 C 
HETATM    2  C6  UNL     1     -33.409   5.778   3.983  1.00 20.00    -0.005 C 
ENDROOT
BRANCH   2   3
HETATM    3  C4  UNL     1     -34.035   6.469   5.213  1.00 20.00     0.005 C 
BRANCH   3   4
HETATM    4  C3  UNL     1     -34.194   5.544   6.421  1.00 20.00    -0.004 C 
HETATM    5  C1  UNL     1     -34.919   4.260   6.044  1.00 20.00     0.005 C 
ENDBRANCH   3   4
ENDBRANCH   2   3
BRANCH   2   6
HETATM    6  C5  UNL     1     -34.412   5.431   2.872  1.00 20.00     0.119 C 
HETATM    7 CL7  UNL     1     -36.097   5.834   3.280  1.00 20.00    -0.130 Cl
ENDBRANCH   2   6
TORSDOF 3
ENDMDL
MODEL 8
REMARK VINA RESULT:      -3.7      2.411      3.989
REMARK  3 active torsions:
REMARK  status: ('A' for Active; 'I' for Inactive)
REMARK    1  A    between atoms: C3_3  and  C4_4 
REMARK    2  A    between atoms: C4_4  and  C6_6 
REMARK    3  A    between atoms: C5_5  and  C6_6 
ROOT
HETATM    1  C2  UNL     1     -33.900   5.142   2.300  1.00 20.00     0.011 C 
HETATM    2  C6  UNL     1     -34.435   5.978   3.468  1.00 20.00    -0.005 C 
ENDROOT
BRANCH   2   3
HETATM    3  C4  UNL     1     -35.499   5.172   4.242  1.00 20.00     0.005 C 
BRANCH   3   4
HETATM    4  C3  UNL     1     -34.906   4.126   5.188  1.00 20.00    -0.004 C 
HETATM    5  C1  UNL     1     -34.987   4.580   6.638  1.00 20.00     0.005 C 
ENDBRANCH   3   4
ENDBRANCH   2   3
BRANCH   2   6
HETATM    6  C5  UNL     1     -33.291   6.519   4.341  1.00 20.00     0.119 C 
HETATM    7 CL7  UNL     1     -31.897   7.108   3.405  1.00 20.00    -0.130 Cl
ENDBRANCH   2   6
TORSDOF 3
ENDMDL
MODEL 9
REMARK VINA RESULT:      -3.5      2.609      3.285
REMARK  3 active torsions:
REMARK  status: ('A' for Active; 'I' for Inactive)
REMARK    1  A    between atoms: C3_3  and  C4_4 
REMARK    2  A    between atoms: C4_4  and  C6_6 
REMARK    3  A    between atoms: C5_5  and  C6_6 
ROOT
HETATM    1  C2  UNL     1     -34.617   3.490   4.939  1.00 20.00     0.011 C 
HETATM    2  C6  UNL     1     -35.313   4.842   5.137  1.00 20.00    -0.005 C 
ENDROOT
BRANCH   2   3
HETATM    3  C4  UNL     1     -34.696   5.574   6.347  1.00 20.00     0.005 C 
BRANCH   3   4
HETATM    4  C3  UNL     1     -33.673   6.644   5.960  1.00 20.00    -0.004 C 
HETATM    5  C1  UNL     1     -33.360   7.561   7.132  1.00 20.00     0.005 C 
ENDBRANCH   3   4
ENDBRANCH   2   3
BRANCH   2   6
HETATM    6  C5  UNL     1     -35.323   5.663   3.837  1.00 20.00     0.119 C 
HETATM    7 CL7  UNL     1     -34.008   5.238   2.716  1.00 20.00    -0.130 Cl
ENDBRANCH   2   6
TORSDOF 3
ENDMDL
