MODEL 1
REMARK VINA RESULT:      -4.7      0.000      0.000
REMARK  2 active torsions:
REMARK  status: ('A' for Active; 'I' for Inactive)
REMARK    1  A    between atoms: C5_5  and  C6_6 
REMARK    2  A    between atoms: C6_6  and  N7_7 
ROOT
HETATM    1  C1  UNL     1     -32.340   7.212   2.865  1.00 20.00     0.158 C 
HETATM    2  N7  UNL     1     -32.527   6.323   3.606  1.00 20.00    -0.270 NA
HETATM    3  S8  UNL     1     -32.051   8.409   1.854  1.00 20.00    -0.055 SA
ENDROOT
BRANCH   2   4
HETATM    4  C6  UNL     1     -33.898   6.239   4.127  1.00 20.00     0.109 C 
HETATM    5  C4  UNL     1     -34.713   5.363   3.182  1.00 20.00     0.035 C 
BRANCH   4   6
HETATM    6  C5  UNL     1     -33.887   5.722   5.582  1.00 20.00     0.002 C 
HETATM    7  C2  UNL     1     -35.041   4.744   5.826  1.00 20.00     0.011 C 
HETATM    8  C3  UNL     1     -33.920   6.836   6.633  1.00 20.00     0.011 C 
ENDBRANCH   4   6
ENDBRANCH   2   4
TORSDOF 2
ENDMDL
MODEL 2
REMARK VINA RESULT:      -4.4      0.462      1.326
REMARK  2 active torsions:
REMARK  status: ('A' for Active; 'I' for Inactive)
REMARK    1  A    between atoms: C5_5  and  C6_6 
REMARK    2  A    between atoms: C6_6  and  N7_7 
ROOT
HETATM    1  C1  UNL     1     -32.445   7.256   3.135  1.00 20.00     0.158 C 
HETATM    2  N7  UNL     1     -32.769   6.548   4.012  1.00 20.00    -0.270 NA
HETATM    3  S8  UNL     1     -31.972   8.215   1.954  1.00 20.00    -0.055 SA
ENDROOT
BRANCH   2   4
HETATM    4  C6  UNL     1     -34.204   6.238   4.052  1.00 20.00     0.109 C 
HETATM    5  C4  UNL     1     -34.485   5.151   3.021  1.00 20.00     0.035 C 
BRANCH   4   6
HETATM    6  C5  UNL     1     -34.626   5.845   5.484  1.00 20.00     0.002 C 
HETATM    7  C2  UNL     1     -33.820   6.625   6.528  1.00 20.00     0.011 C 
HETATM    8  C3  UNL     1     -34.524   4.343   5.767  1.00 20.00     0.011 C 
ENDBRANCH   4   6
ENDBRANCH   2   4
TORSDOF 2
ENDMDL
MODEL 3
REMARK VINA RESULT:      -3.5      1.057      1.953
REMARK  2 active torsions:
REMARK  status: ('A' for Active; 'I' for Inactive)
REMARK    1  A    between atoms: C5_5  and  C6_6 
REMARK    2  A    between atoms: C6_6  and  N7_7 
ROOT
HETATM    1  C1  UNL     1     -33.089   7.075   3.384  1.00 20.00     0.158 C 
HETATM    2  N7  UNL     1     -34.001   6.652   3.988  1.00 20.00    -0.270 NA
HETATM    3  S8  UNL     1     -31.873   7.662   2.539  1.00 20.00    -0.055 SA
ENDROOT
BRANCH   2   4
HETATM    4  C6  UNL     1     -33.641   5.933   5.218  1.00 20.00     0.109 C 
HETATM    5  C4  UNL     1     -33.793   6.893   6.392  1.00 20.00     0.035 C 
BRANCH   4   6
HETATM    6  C5  UNL     1     -34.496   4.655   5.359  1.00 20.00     0.002 C 
HETATM    7  C2  UNL     1     -35.533   4.560   4.235  1.00 20.00     0.011 C 
HETATM    8  C3  UNL     1     -35.192   4.526   6.718  1.00 20.00     0.011 C 
ENDBRANCH   4   6
ENDBRANCH   2   4
TORSDOF 2
ENDMDL
MODEL 4
REMARK VINA RESULT:      -3.4     11.531     12.209
REMARK  2 active torsions:
REMARK  status: ('A' for Active; 'I' for Inactive)
REMARK    1  A    between atoms: C5_5  and  C6_6 
REMARK    2  A    between atoms: C6_6  and  N7_7 
ROOT
HETATM    1  C1  UNL     1     -33.726  14.303  -4.048  1.00 20.00     0.158 C 
HETATM    2  N7  UNL     1     -32.985  15.020  -3.489  1.00 20.00    -0.270 NA
HETATM    3  S8  UNL     1     -34.707  13.304  -4.808  1.00 20.00    -0.055 SA
ENDROOT
BRANCH   2   4
HETATM    4  C6  UNL     1     -33.556  16.319  -3.113  1.00 20.00     0.109 C 
HETATM    5  C4  UNL     1     -33.867  17.091  -4.390  1.00 20.00     0.035 C 
BRANCH   4   6
HETATM    6  C5  UNL     1     -34.790  16.118  -2.206  1.00 20.00     0.002 C 
HETATM    7  C2  UNL     1     -36.038  16.755  -2.827  1.00 20.00     0.011 C 
HETATM    8  C3  UNL     1     -34.598  16.640  -0.778  1.00 20.00     0.011 C 
ENDBRANCH   4   6
ENDBRANCH   2   4
TORSDOF 2
ENDMDL
MODEL 5
REMARK VINA RESULT:      -3.4     11.537     12.172
REMARK  2 active torsions:
REMARK  status: ('A' for Active; 'I' for Inactive)
REMARK    1  A    between atoms: C5_5  and  C6_6 
REMARK    2  A    between atoms: C6_6  and  N7_7 
ROOT
HETATM    1  C1  UNL     1     -36.884  14.495  -4.080  1.00 20.00     0.158 C 
HETATM    2  N7  UNL     1     -35.815  14.093  -4.348  1.00 20.00    -0.270 NA
HETATM    3  S8  UNL     1     -38.348  15.028  -3.747  1.00 20.00    -0.055 SA
ENDROOT
BRANCH   2   4
HETATM    4  C6  UNL     1     -34.785  14.373  -3.339  1.00 20.00     0.109 C 
HETATM    5  C4  UNL     1     -33.475  13.753  -3.812  1.00 20.00     0.035 C 
BRANCH   4   6
HETATM    6  C5  UNL     1     -34.684  15.892  -3.084  1.00 20.00     0.002 C 
HETATM    7  C2  UNL     1     -33.503  16.500  -3.848  1.00 20.00     0.011 C 
HETATM    8  C3  UNL     1     -34.588  16.264  -1.601  1.00 20.00     0.011 C 
ENDBRANCH   4   6
ENDBRANCH   2   4
TORSDOF 2
ENDMDL
MODEL 6
REMARK VINA RESULT:      -3.4     11.961     12.734
REMARK  2 active torsions:
REMARK  status: ('A' for Active; 'I' for Inactive)
REMARK    1  A    between atoms: C5_5  and  C6_6 
REMARK    2  A    between atoms: C6_6  and  N7_7 
ROOT
HETATM    1  C1  UNL     1     -33.316  16.890  -5.010  1.00 20.00     0.158 C 
HETATM    2  N7  UNL     1     -32.815  15.978  -4.468  1.00 20.00    -0.270 NA
HETATM    3  S8  UNL     1     -33.967  18.132  -5.765  1.00 20.00    -0.055 SA
ENDROOT
BRANCH   2   4
HETATM    4  C6  UNL     1     -33.661  15.324  -3.460  1.00 20.00     0.109 C 
HETATM    5  C4  UNL     1     -33.912  16.319  -2.332  1.00 20.00     0.035 C 
BRANCH   4   6
HETATM    6  C5  UNL     1     -34.958  14.798  -4.111  1.00 20.00     0.002 C 
HETATM    7  C2  UNL     1     -36.190  15.232  -3.309  1.00 20.00     0.011 C 
HETATM    8  C3  UNL     1     -34.977  13.278  -4.307  1.00 20.00     0.011 C 
ENDBRANCH   4   6
ENDBRANCH   2   4
TORSDOF 2
ENDMDL
MODEL 7
REMARK VINA RESULT:      -3.4     11.627     12.737
REMARK  2 active torsions:
REMARK  status: ('A' for Active; 'I' for Inactive)
REMARK    1  A    between atoms: C5_5  and  C6_6 
REMARK    2  A    between atoms: C6_6  and  N7_7 
ROOT
HETATM    1  C1  UNL     1     -34.503  15.862  -2.149  1.00 20.00     0.158 C 
HETATM    2  N7  UNL     1     -34.454  15.101  -3.039  1.00 20.00    -0.270 NA
HETATM    3  S8  UNL     1     -34.565  16.869  -0.916  1.00 20.00    -0.055 SA
ENDROOT
BRANCH   2   4
HETATM    4  C6  UNL     1     -34.582  15.707  -4.371  1.00 20.00     0.109 C 
HETATM    5  C4  UNL     1     -33.249  16.350  -4.732  1.00 20.00     0.035 C 
BRANCH   4   6
HETATM    6  C5  UNL     1     -35.048  14.650  -5.396  1.00 20.00     0.002 C 
HETATM    7  C2  UNL     1     -34.699  13.235  -4.923  1.00 20.00     0.011 C 
HETATM    8  C3  UNL     1     -34.497  14.876  -6.808  1.00 20.00     0.011 C 
ENDBRANCH   4   6
ENDBRANCH   2   4
TORSDOF 2
ENDMDL
MODEL 8
REMARK VINA RESULT:      -3.3     11.569     12.141
REMARK  2 active torsions:
REMARK  status: ('A' for Active; 'I' for Inactive)
REMARK    1  A    between atoms: C5_5  and  C6_6 
REMARK    2  A    between atoms: C6_6  and  N7_7 
ROOT
HETATM    1  C1  UNL     1     -34.784  14.112  -6.018  1.00 20.00     0.158 C 
HETATM    2  N7  UNL     1     -35.015  13.329  -5.176  1.00 20.00    -0.270 NA
HETATM    3  S8  UNL     1     -34.481  15.152  -7.186  1.00 20.00    -0.055 SA
ENDROOT
BRANCH   2   4
HETATM    4  C6  UNL     1     -34.697  13.780  -3.815  1.00 20.00     0.109 C 
HETATM    5  C4  UNL     1     -33.181  13.791  -3.659  1.00 20.00     0.035 C 
BRANCH   4   6
HETATM    6  C5  UNL     1     -35.350  15.153  -3.541  1.00 20.00     0.002 C 
HETATM    7  C2  UNL     1     -34.741  15.811  -2.298  1.00 20.00     0.011 C 
HETATM    8  C3  UNL     1     -36.874  15.094  -3.403  1.00 20.00     0.011 C 
ENDBRANCH   4   6
ENDBRANCH   2   4
TORSDOF 2
ENDMDL
MODEL 9
REMARK VINA RESULT:      -3.3     11.318     11.968
REMARK  2 active torsions:
REMARK  status: ('A' for Active; 'I' for Inactive)
REMARK    1  A    between atoms: C5_5  and  C6_6 
REMARK    2  A    between atoms: C6_6  and  N7_7 
ROOT
HETATM    1  C1  UNL     1     -34.383  16.639  -1.343  1.00 20.00     0.158 C 
HETATM    2  N7  UNL     1     -34.006  16.145  -2.337  1.00 20.00    -0.270 NA
HETATM    3  S8  UNL     1     -34.864  17.326   0.012  1.00 20.00    -0.055 SA
ENDROOT
BRANCH   2   4
HETATM    4  C6  UNL     1     -35.006  15.321  -3.029  1.00 20.00     0.109 C 
HETATM    5  C4  UNL     1     -35.558  16.125  -4.200  1.00 20.00     0.035 C 
BRANCH   4   6
HETATM    6  C5  UNL     1     -34.386  13.972  -3.453  1.00 20.00     0.002 C 
HETATM    7  C2  UNL     1     -32.869  14.097  -3.632  1.00 20.00     0.011 C 
HETATM    8  C3  UNL     1     -35.010  13.377  -4.720  1.00 20.00     0.011 C 
ENDBRANCH   4   6
ENDBRANCH   2   4
TORSDOF 2
ENDMDL
