MODEL 1
REMARK VINA RESULT:      -3.9      0.000      0.000
REMARK  2 active torsions:
REMARK  status: ('A' for Active; 'I' for Inactive)
REMARK    1  A    between atoms: C2_2  and  C6_6 
REMARK    2  A    between atoms: C2_2  and  O9_9 
ROOT
HETATM    1  C1  UNL     1     -34.487  13.660  -4.281  1.00 20.00     0.079 C 
HETATM    2  C3  UNL     1     -32.382  14.701  -3.573  1.00 20.00     0.042 C 
HETATM    3  C4  UNL     1     -34.598  15.550  -2.721  1.00 20.00     0.042 C 
HETATM    4  C6  UNL     1     -33.855  14.952  -3.923  1.00 20.00     0.129 C 
HETATM    5  N7  UNL     1     -34.981  12.648  -4.560  1.00 20.00    -0.196 NA
ENDROOT
BRANCH   4   6
HETATM    6  C2  UNL     1     -33.943  15.916  -5.111  1.00 20.00     0.280 C 
HETATM    7  O8  UNL     1     -34.733  15.805  -6.040  1.00 20.00    -0.263 OA
BRANCH   6   8
HETATM    8  O9  UNL     1     -33.015  16.913  -4.987  1.00 20.00    -0.325 OA
HETATM    9  C5  UNL     1     -33.520  18.247  -5.097  1.00 20.00     0.213 C 
ENDBRANCH   6   8
ENDBRANCH   4   6
TORSDOF 2
ENDMDL
MODEL 2
REMARK VINA RESULT:      -3.9      1.751      2.616
REMARK  2 active torsions:
REMARK  status: ('A' for Active; 'I' for Inactive)
REMARK    1  A    between atoms: C2_2  and  C6_6 
REMARK    2  A    between atoms: C2_2  and  O9_9 
ROOT
HETATM    1  C1  UNL     1     -34.437  13.656  -4.444  1.00 20.00     0.079 C 
HETATM    2  C3  UNL     1     -33.913  15.899  -5.286  1.00 20.00     0.042 C 
HETATM    3  C4  UNL     1     -32.442  14.783  -3.569  1.00 20.00     0.042 C 
HETATM    4  C6  UNL     1     -33.883  14.976  -4.060  1.00 20.00     0.129 C 
HETATM    5  N7  UNL     1     -34.870  12.622  -4.745  1.00 20.00    -0.196 NA
ENDROOT
BRANCH   4   6
HETATM    6  C2  UNL     1     -34.730  15.584  -2.939  1.00 20.00     0.280 C 
HETATM    7  O8  UNL     1     -35.950  15.504  -2.866  1.00 20.00    -0.263 OA
BRANCH   6   8
HETATM    8  O9  UNL     1     -33.932  16.229  -2.034  1.00 20.00    -0.325 OA
HETATM    9  C5  UNL     1     -34.585  16.681  -0.843  1.00 20.00     0.213 C 
ENDBRANCH   6   8
ENDBRANCH   4   6
TORSDOF 2
ENDMDL
MODEL 3
REMARK VINA RESULT:      -3.8      0.806      1.564
REMARK  2 active torsions:
REMARK  status: ('A' for Active; 'I' for Inactive)
REMARK    1  A    between atoms: C2_2  and  C6_6 
REMARK    2  A    between atoms: C2_2  and  O9_9 
ROOT
HETATM    1  C1  UNL     1     -34.490  13.668  -4.232  1.00 20.00     0.079 C 
HETATM    2  C3  UNL     1     -32.348  14.575  -3.453  1.00 20.00     0.042 C 
HETATM    3  C4  UNL     1     -34.533  15.544  -2.652  1.00 20.00     0.042 C 
HETATM    4  C6  UNL     1     -33.793  14.917  -3.841  1.00 20.00     0.129 C 
HETATM    5  N7  UNL     1     -35.036  12.690  -4.536  1.00 20.00    -0.196 NA
ENDROOT
BRANCH   4   6
HETATM    6  C2  UNL     1     -33.791  15.896  -5.018  1.00 20.00     0.280 C 
HETATM    7  O8  UNL     1     -32.944  16.762  -5.201  1.00 20.00    -0.263 OA
BRANCH   6   8
HETATM    8  O9  UNL     1     -34.866  15.668  -5.831  1.00 20.00    -0.325 OA
HETATM    9  C5  UNL     1     -34.644  15.883  -7.229  1.00 20.00     0.213 C 
ENDBRANCH   6   8
ENDBRANCH   4   6
TORSDOF 2
ENDMDL
MODEL 4
REMARK VINA RESULT:      -3.8      2.261      3.215
REMARK  2 active torsions:
REMARK  status: ('A' for Active; 'I' for Inactive)
REMARK    1  A    between atoms: C2_2  and  C6_6 
REMARK    2  A    between atoms: C2_2  and  O9_9 
ROOT
HETATM    1  C1  UNL     1     -33.462  15.890  -4.645  1.00 20.00     0.079 C 
HETATM    2  C3  UNL     1     -34.868  15.161  -2.772  1.00 20.00     0.042 C 
HETATM    3  C4  UNL     1     -32.794  13.878  -3.411  1.00 20.00     0.042 C 
HETATM    4  C6  UNL     1     -33.982  14.697  -3.935  1.00 20.00     0.129 C 
HETATM    5  N7  UNL     1     -33.055  16.825  -5.199  1.00 20.00    -0.196 NA
ENDROOT
BRANCH   4   6
HETATM    6  C2  UNL     1     -34.808  13.842  -4.900  1.00 20.00     0.280 C 
HETATM    7  O8  UNL     1     -34.801  12.617  -4.926  1.00 20.00    -0.263 OA
BRANCH   6   8
HETATM    8  O9  UNL     1     -35.551  14.638  -5.728  1.00 20.00    -0.325 OA
HETATM    9  C5  UNL     1     -35.446  14.349  -7.125  1.00 20.00     0.213 C 
ENDBRANCH   6   8
ENDBRANCH   4   6
TORSDOF 2
ENDMDL
MODEL 5
REMARK VINA RESULT:      -3.8      1.477      2.573
REMARK  2 active torsions:
REMARK  status: ('A' for Active; 'I' for Inactive)
REMARK    1  A    between atoms: C2_2  and  C6_6 
REMARK    2  A    between atoms: C2_2  and  O9_9 
ROOT
HETATM    1  C1  UNL     1     -34.801  13.678  -4.904  1.00 20.00     0.079 C 
HETATM    2  C3  UNL     1     -36.092  15.752  -5.133  1.00 20.00     0.042 C 
HETATM    3  C4  UNL     1     -34.341  15.121  -6.834  1.00 20.00     0.042 C 
HETATM    4  C6  UNL     1     -34.724  15.091  -5.348  1.00 20.00     0.129 C 
HETATM    5  N7  UNL     1     -34.863  12.573  -4.558  1.00 20.00    -0.196 NA
ENDROOT
BRANCH   4   6
HETATM    6  C2  UNL     1     -33.661  15.830  -4.530  1.00 20.00     0.280 C 
HETATM    7  O8  UNL     1     -32.816  16.581  -5.003  1.00 20.00    -0.263 OA
BRANCH   6   8
HETATM    8  O9  UNL     1     -33.790  15.534  -3.201  1.00 20.00    -0.325 OA
HETATM    9  C5  UNL     1     -33.802  16.657  -2.314  1.00 20.00     0.213 C 
ENDBRANCH   6   8
ENDBRANCH   4   6
TORSDOF 2
ENDMDL
MODEL 6
REMARK VINA RESULT:      -3.7      2.328      3.350
REMARK  2 active torsions:
REMARK  status: ('A' for Active; 'I' for Inactive)
REMARK    1  A    between atoms: C2_2  and  C6_6 
REMARK    2  A    between atoms: C2_2  and  O9_9 
ROOT
HETATM    1  C1  UNL     1     -33.662  15.984  -4.718  1.00 20.00     0.079 C 
HETATM    2  C3  UNL     1     -34.434  15.634  -2.416  1.00 20.00     0.042 C 
HETATM    3  C4  UNL     1     -32.759  14.075  -3.472  1.00 20.00     0.042 C 
HETATM    4  C6  UNL     1     -33.999  14.945  -3.716  1.00 20.00     0.129 C 
HETATM    5  N7  UNL     1     -33.398  16.799  -5.501  1.00 20.00    -0.196 NA
ENDROOT
BRANCH   4   6
HETATM    6  C2  UNL     1     -35.142  14.072  -4.242  1.00 20.00     0.280 C 
HETATM    7  O8  UNL     1     -35.130  12.847  -4.263  1.00 20.00    -0.263 OA
BRANCH   6   8
HETATM    8  O9  UNL     1     -36.174  14.853  -4.685  1.00 20.00    -0.325 OA
HETATM    9  C5  UNL     1     -37.438  14.626  -4.054  1.00 20.00     0.213 C 
ENDBRANCH   6   8
ENDBRANCH   4   6
TORSDOF 2
ENDMDL
MODEL 7
REMARK VINA RESULT:      -3.7      2.351      3.287
REMARK  2 active torsions:
REMARK  status: ('A' for Active; 'I' for Inactive)
REMARK    1  A    between atoms: C2_2  and  C6_6 
REMARK    2  A    between atoms: C2_2  and  O9_9 
ROOT
HETATM    1  C1  UNL     1     -34.392  15.595  -2.597  1.00 20.00     0.079 C 
HETATM    2  C3  UNL     1     -32.790  13.988  -3.529  1.00 20.00     0.042 C 
HETATM    3  C4  UNL     1     -33.673  15.894  -4.923  1.00 20.00     0.042 C 
HETATM    4  C6  UNL     1     -34.009  14.869  -3.832  1.00 20.00     0.129 C 
HETATM    5  N7  UNL     1     -34.690  16.164  -1.631  1.00 20.00    -0.196 NA
ENDROOT
BRANCH   4   6
HETATM    6  C2  UNL     1     -35.175  13.991  -4.295  1.00 20.00     0.280 C 
HETATM    7  O8  UNL     1     -35.178  12.766  -4.268  1.00 20.00    -0.263 OA
BRANCH   6   8
HETATM    8  O9  UNL     1     -36.208  14.767  -4.745  1.00 20.00    -0.325 OA
HETATM    9  C5  UNL     1     -37.448  14.613  -4.047  1.00 20.00     0.213 C 
ENDBRANCH   6   8
ENDBRANCH   4   6
TORSDOF 2
ENDMDL
MODEL 8
REMARK VINA RESULT:      -3.7      1.588      2.246
REMARK  2 active torsions:
REMARK  status: ('A' for Active; 'I' for Inactive)
REMARK    1  A    between atoms: C2_2  and  C6_6 
REMARK    2  A    between atoms: C2_2  and  O9_9 
ROOT
HETATM    1  C1  UNL     1     -36.276  14.589  -3.765  1.00 20.00     0.079 C 
HETATM    2  C3  UNL     1     -34.012  13.654  -3.645  1.00 20.00     0.042 C 
HETATM    3  C4  UNL     1     -34.614  15.756  -2.390  1.00 20.00     0.042 C 
HETATM    4  C6  UNL     1     -34.841  14.946  -3.673  1.00 20.00     0.129 C 
HETATM    5  N7  UNL     1     -37.400  14.309  -3.836  1.00 20.00    -0.196 NA
ENDROOT
BRANCH   4   6
HETATM    6  C2  UNL     1     -34.439  15.786  -4.888  1.00 20.00     0.280 C 
HETATM    7  O8  UNL     1     -33.570  16.651  -4.881  1.00 20.00    -0.263 OA
BRANCH   6   8
HETATM    8  O9  UNL     1     -35.187  15.437  -5.979  1.00 20.00    -0.325 OA
HETATM    9  C5  UNL     1     -34.446  15.023  -7.132  1.00 20.00     0.213 C 
ENDBRANCH   6   8
ENDBRANCH   4   6
TORSDOF 2
ENDMDL
MODEL 9
REMARK VINA RESULT:      -3.7      2.680      3.354
REMARK  2 active torsions:
REMARK  status: ('A' for Active; 'I' for Inactive)
REMARK    1  A    between atoms: C2_2  and  C6_6 
REMARK    2  A    between atoms: C2_2  and  O9_9 
ROOT
HETATM    1  C1  UNL     1     -35.150  13.729  -4.259  1.00 20.00     0.079 C 
HETATM    2  C3  UNL     1     -35.253  16.038  -5.081  1.00 20.00     0.042 C 
HETATM    3  C4  UNL     1     -34.779  15.547  -2.655  1.00 20.00     0.042 C 
HETATM    4  C6  UNL     1     -35.560  15.108  -3.900  1.00 20.00     0.129 C 
HETATM    5  N7  UNL     1     -34.827  12.651  -4.540  1.00 20.00    -0.196 NA
ENDROOT
BRANCH   4   6
HETATM    6  C2  UNL     1     -37.061  15.137  -3.600  1.00 20.00     0.280 C 
HETATM    7  O8  UNL     1     -37.817  14.182  -3.733  1.00 20.00    -0.263 OA
BRANCH   6   8
HETATM    8  O9  UNL     1     -37.438  16.378  -3.165  1.00 20.00    -0.325 OA
HETATM    9  C5  UNL     1     -38.769  16.778  -3.507  1.00 20.00     0.213 C 
ENDBRANCH   6   8
ENDBRANCH   4   6
TORSDOF 2
ENDMDL
