MODEL 1
REMARK VINA RESULT:      -3.7      0.000      0.000
REMARK  2 active torsions:
REMARK  status: ('A' for Active; 'I' for Inactive)
REMARK    1  A    between atoms: C7_7  and  O9_9 
REMARK    2  A    between atoms: C8_8  and  O9_9 
ROOT
HETATM    1  C1  UNL     1     -34.428   5.759   6.626  1.00 20.00     0.015 C 
HETATM    2  C2  UNL     1     -34.262   5.829   5.438  1.00 20.00    -0.086 C 
HETATM    3  C3  UNL     1     -35.345   5.625   3.232  1.00 20.00     0.053 C 
HETATM    4  C7  UNL     1     -34.055   5.912   3.988  1.00 20.00     0.196 C 
ENDROOT
BRANCH   4   5
HETATM    5  O9  UNL     1     -33.600   7.215   3.657  1.00 20.00    -0.364 OA
BRANCH   5   6
HETATM    6  C8  UNL     1     -32.260   7.186   3.165  1.00 20.00     0.051 C 
HETATM    7  C4  UNL     1     -32.181   8.061   1.915  1.00 20.00     0.045 C 
HETATM    8  C5  UNL     1     -31.354   7.736   4.265  1.00 20.00     0.045 C 
HETATM    9  C6  UNL     1     -31.892   5.738   2.842  1.00 20.00     0.045 C 
ENDBRANCH   5   6
ENDBRANCH   4   5
TORSDOF 2
ENDMDL
MODEL 2
REMARK VINA RESULT:      -3.7     10.918     12.751
REMARK  2 active torsions:
REMARK  status: ('A' for Active; 'I' for Inactive)
REMARK    1  A    between atoms: C7_7  and  O9_9 
REMARK    2  A    between atoms: C8_8  and  O9_9 
ROOT
HETATM    1  C1  UNL     1     -34.557  16.300  -1.511  1.00 20.00     0.015 C 
HETATM    2  C2  UNL     1     -34.254  15.824  -2.571  1.00 20.00    -0.086 C 
HETATM    3  C3  UNL     1     -33.424  13.802  -3.714  1.00 20.00     0.053 C 
HETATM    4  C7  UNL     1     -33.881  15.246  -3.867  1.00 20.00     0.196 C 
ENDROOT
BRANCH   4   5
HETATM    5  O9  UNL     1     -35.002  15.291  -4.736  1.00 20.00    -0.364 OA
BRANCH   5   6
HETATM    6  C8  UNL     1     -34.713  16.044  -5.915  1.00 20.00     0.051 C 
HETATM    7  C4  UNL     1     -34.420  15.071  -7.055  1.00 20.00     0.045 C 
HETATM    8  C5  UNL     1     -35.945  16.890  -6.233  1.00 20.00     0.045 C 
HETATM    9  C6  UNL     1     -33.506  16.939  -5.636  1.00 20.00     0.045 C 
ENDBRANCH   5   6
ENDBRANCH   4   5
TORSDOF 2
ENDMDL
MODEL 3
REMARK VINA RESULT:      -3.7     10.915     12.758
REMARK  2 active torsions:
REMARK  status: ('A' for Active; 'I' for Inactive)
REMARK    1  A    between atoms: C7_7  and  O9_9 
REMARK    2  A    between atoms: C8_8  and  O9_9 
ROOT
HETATM    1  C1  UNL     1     -34.570  16.293  -1.509  1.00 20.00     0.015 C 
HETATM    2  C2  UNL     1     -34.260  15.819  -2.569  1.00 20.00    -0.086 C 
HETATM    3  C3  UNL     1     -33.418  13.802  -3.710  1.00 20.00     0.053 C 
HETATM    4  C7  UNL     1     -33.880  15.244  -3.864  1.00 20.00     0.196 C 
ENDROOT
BRANCH   4   5
HETATM    5  O9  UNL     1     -34.998  15.284  -4.737  1.00 20.00    -0.364 OA
BRANCH   5   6
HETATM    6  C8  UNL     1     -34.713  16.054  -5.906  1.00 20.00     0.051 C 
HETATM    7  C4  UNL     1     -33.495  16.932  -5.626  1.00 20.00     0.045 C 
HETATM    8  C5  UNL     1     -34.421  15.075  -7.041  1.00 20.00     0.045 C 
HETATM    9  C6  UNL     1     -35.937  16.907  -6.236  1.00 20.00     0.045 C 
ENDBRANCH   5   6
ENDBRANCH   4   5
TORSDOF 2
ENDMDL
MODEL 4
REMARK VINA RESULT:      -3.6     11.105     13.095
REMARK  2 active torsions:
REMARK  status: ('A' for Active; 'I' for Inactive)
REMARK    1  A    between atoms: C7_7  and  O9_9 
REMARK    2  A    between atoms: C8_8  and  O9_9 
ROOT
HETATM    1  C1  UNL     1     -34.881  14.876  -7.799  1.00 20.00     0.015 C 
HETATM    2  C2  UNL     1     -34.444  15.455  -6.842  1.00 20.00    -0.086 C 
HETATM    3  C3  UNL     1     -33.683  17.633  -5.972  1.00 20.00     0.053 C 
HETATM    4  C7  UNL     1     -33.909  16.159  -5.671  1.00 20.00     0.196 C 
ENDROOT
BRANCH   4   5
HETATM    5  O9  UNL     1     -34.826  16.037  -4.595  1.00 20.00    -0.364 OA
BRANCH   5   6
HETATM    6  C8  UNL     1     -34.317  15.179  -3.574  1.00 20.00     0.051 C 
HETATM    7  C4  UNL     1     -32.793  15.143  -3.684  1.00 20.00     0.045 C 
HETATM    8  C5  UNL     1     -34.745  15.760  -2.228  1.00 20.00     0.045 C 
HETATM    9  C6  UNL     1     -34.912  13.785  -3.770  1.00 20.00     0.045 C 
ENDBRANCH   5   6
ENDBRANCH   4   5
TORSDOF 2
ENDMDL
MODEL 5
REMARK VINA RESULT:      -3.6     10.989     12.091
REMARK  2 active torsions:
REMARK  status: ('A' for Active; 'I' for Inactive)
REMARK    1  A    between atoms: C7_7  and  O9_9 
REMARK    2  A    between atoms: C8_8  and  O9_9 
ROOT
HETATM    1  C1  UNL     1     -34.486  16.722  -0.764  1.00 20.00     0.015 C 
HETATM    2  C2  UNL     1     -34.962  16.546  -1.853  1.00 20.00    -0.086 C 
HETATM    3  C3  UNL     1     -36.227  17.585  -3.698  1.00 20.00     0.053 C 
HETATM    4  C7  UNL     1     -35.544  16.326  -3.182  1.00 20.00     0.196 C 
ENDROOT
BRANCH   4   5
HETATM    5  O9  UNL     1     -34.515  15.951  -4.084  1.00 20.00    -0.364 OA
BRANCH   5   6
HETATM    6  C8  UNL     1     -34.664  14.594  -4.505  1.00 20.00     0.051 C 
HETATM    7  C4  UNL     1     -36.040  14.097  -4.064  1.00 20.00     0.045 C 
HETATM    8  C5  UNL     1     -34.545  14.569  -6.027  1.00 20.00     0.045 C 
HETATM    9  C6  UNL     1     -33.553  13.762  -3.866  1.00 20.00     0.045 C 
ENDBRANCH   5   6
ENDBRANCH   4   5
TORSDOF 2
ENDMDL
MODEL 6
REMARK VINA RESULT:      -3.5     11.255     12.534
REMARK  2 active torsions:
REMARK  status: ('A' for Active; 'I' for Inactive)
REMARK    1  A    between atoms: C7_7  and  O9_9 
REMARK    2  A    between atoms: C8_8  and  O9_9 
ROOT
HETATM    1  C1  UNL     1     -34.434  16.543  -1.149  1.00 20.00     0.015 C 
HETATM    2  C2  UNL     1     -34.461  16.559  -2.350  1.00 20.00    -0.086 C 
HETATM    3  C3  UNL     1     -33.747  17.779  -4.371  1.00 20.00     0.053 C 
HETATM    4  C7  UNL     1     -34.499  16.577  -3.816  1.00 20.00     0.196 C 
ENDROOT
BRANCH   4   5
HETATM    5  O9  UNL     1     -33.904  15.388  -4.312  1.00 20.00    -0.364 OA
BRANCH   5   6
HETATM    6  C8  UNL     1     -34.803  14.676  -5.163  1.00 20.00     0.051 C 
HETATM    7  C4  UNL     1     -34.385  14.908  -6.614  1.00 20.00     0.045 C 
HETATM    8  C5  UNL     1     -34.700  13.194  -4.805  1.00 20.00     0.045 C 
HETATM    9  C6  UNL     1     -36.220  15.191  -4.914  1.00 20.00     0.045 C 
ENDBRANCH   5   6
ENDBRANCH   4   5
TORSDOF 2
ENDMDL
MODEL 7
REMARK VINA RESULT:      -3.5      1.344      3.786
REMARK  2 active torsions:
REMARK  status: ('A' for Active; 'I' for Inactive)
REMARK    1  A    between atoms: C7_7  and  O9_9 
REMARK    2  A    between atoms: C8_8  and  O9_9 
ROOT
HETATM    1  C1  UNL     1     -31.752   7.917   2.711  1.00 20.00     0.015 C 
HETATM    2  C2  UNL     1     -32.571   7.063   2.919  1.00 20.00    -0.086 C 
HETATM    3  C3  UNL     1     -33.600   4.998   2.049  1.00 20.00     0.053 C 
HETATM    4  C7  UNL     1     -33.573   6.023   3.174  1.00 20.00     0.196 C 
ENDROOT
BRANCH   4   5
HETATM    5  O9  UNL     1     -33.263   5.367   4.394  1.00 20.00    -0.364 OA
BRANCH   5   6
HETATM    6  C8  UNL     1     -34.401   5.309   5.255  1.00 20.00     0.051 C 
HETATM    7  C4  UNL     1     -34.265   6.401   6.316  1.00 20.00     0.045 C 
HETATM    8  C5  UNL     1     -35.641   5.547   4.394  1.00 20.00     0.045 C 
HETATM    9  C6  UNL     1     -34.454   3.925   5.899  1.00 20.00     0.045 C 
ENDBRANCH   5   6
ENDBRANCH   4   5
TORSDOF 2
ENDMDL
MODEL 8
REMARK VINA RESULT:      -3.5     10.995     12.423
REMARK  2 active torsions:
REMARK  status: ('A' for Active; 'I' for Inactive)
REMARK    1  A    between atoms: C7_7  and  O9_9 
REMARK    2  A    between atoms: C8_8  and  O9_9 
ROOT
HETATM    1  C1  UNL     1     -33.753  18.999  -3.455  1.00 20.00     0.015 C 
HETATM    2  C2  UNL     1     -33.876  17.876  -3.046  1.00 20.00    -0.086 C 
HETATM    3  C3  UNL     1     -34.589  16.488  -1.137  1.00 20.00     0.053 C 
HETATM    4  C7  UNL     1     -34.023  16.503  -2.550  1.00 20.00     0.196 C 
ENDROOT
BRANCH   4   5
HETATM    5  O9  UNL     1     -34.897  15.789  -3.409  1.00 20.00    -0.364 OA
BRANCH   5   6
HETATM    6  C8  UNL     1     -34.183  14.837  -4.200  1.00 20.00     0.051 C 
HETATM    7  C4  UNL     1     -32.748  14.753  -3.681  1.00 20.00     0.045 C 
HETATM    8  C5  UNL     1     -34.889  13.491  -4.050  1.00 20.00     0.045 C 
HETATM    9  C6  UNL     1     -34.210  15.298  -5.656  1.00 20.00     0.045 C 
ENDBRANCH   5   6
ENDBRANCH   4   5
TORSDOF 2
ENDMDL
MODEL 9
REMARK VINA RESULT:      -3.5      9.068     11.025
REMARK  2 active torsions:
REMARK  status: ('A' for Active; 'I' for Inactive)
REMARK    1  A    between atoms: C7_7  and  O9_9 
REMARK    2  A    between atoms: C8_8  and  O9_9 
ROOT
HETATM    1  C1  UNL     1     -42.635   7.939  -4.066  1.00 20.00     0.015 C 
HETATM    2  C2  UNL     1     -42.576   7.681  -2.894  1.00 20.00    -0.086 C 
HETATM    3  C3  UNL     1     -43.417   8.267  -0.652  1.00 20.00     0.053 C 
HETATM    4  C7  UNL     1     -42.500   7.364  -1.464  1.00 20.00     0.196 C 
ENDROOT
BRANCH   4   5
HETATM    5  O9  UNL     1     -42.882   6.012  -1.265  1.00 20.00    -0.364 OA
BRANCH   5   6
HETATM    6  C8  UNL     1     -41.821   5.254  -0.684  1.00 20.00     0.051 C 
HETATM    7  C4  UNL     1     -42.370   4.493   0.522  1.00 20.00     0.045 C 
HETATM    8  C5  UNL     1     -41.314   4.282  -1.748  1.00 20.00     0.045 C 
HETATM    9  C6  UNL     1     -40.710   6.215  -0.264  1.00 20.00     0.045 C 
ENDBRANCH   5   6
ENDBRANCH   4   5
TORSDOF 2
ENDMDL
