MODEL 1
REMARK VINA RESULT:      -4.2      0.000      0.000
REMARK  1 active torsions:
REMARK  status: ('A' for Active; 'I' for Inactive)
REMARK    1  A    between atoms: C7_7  and  O8_8 
ROOT
HETATM    1  C1  UNL     1     -32.956   5.775   3.607  1.00 20.00    -0.025 C 
HETATM    2  C2  UNL     1     -33.945   5.168   2.935  1.00 20.00    -0.023 C 
HETATM    3  C3  UNL     1     -34.888   6.980   4.019  1.00 20.00     0.019 C 
HETATM    4  C4  UNL     1     -34.128   5.539   5.762  1.00 20.00     0.041 C 
HETATM    5  C5  UNL     1     -33.595   6.557   4.728  1.00 20.00     0.011 C 
HETATM    6  C6  UNL     1     -35.244   5.548   3.611  1.00 20.00     0.037 C 
HETATM    7  C7  UNL     1     -35.308   4.874   5.001  1.00 20.00     0.126 C 
ENDROOT
BRANCH   7   8
HETATM    8  O8  UNL     1     -35.167   3.468   4.933  1.00 20.00    -0.395 OA
HETATM    9  H18 UNL     1     -35.638   3.096   5.698  1.00 20.00     0.210 HD
ENDBRANCH   7   8
TORSDOF 1
ENDMDL
MODEL 2
REMARK VINA RESULT:      -4.1     12.109     13.061
REMARK  1 active torsions:
REMARK  status: ('A' for Active; 'I' for Inactive)
REMARK    1  A    between atoms: C7_7  and  O8_8 
ROOT
HETATM    1  C1  UNL     1     -34.742  13.287  -4.638  1.00 20.00    -0.025 C 
HETATM    2  C2  UNL     1     -33.870  13.625  -3.677  1.00 20.00    -0.023 C 
HETATM    3  C3  UNL     1     -35.680  15.047  -3.464  1.00 20.00     0.019 C 
HETATM    4  C4  UNL     1     -34.734  15.558  -5.595  1.00 20.00     0.041 C 
HETATM    5  C5  UNL     1     -35.610  14.494  -4.894  1.00 20.00     0.011 C 
HETATM    6  C6  UNL     1     -34.158  15.059  -3.294  1.00 20.00     0.037 C 
HETATM    7  C7  UNL     1     -33.758  15.986  -4.465  1.00 20.00     0.126 C 
ENDROOT
BRANCH   7   8
HETATM    8  O8  UNL     1     -32.405  15.829  -4.847  1.00 20.00    -0.395 OA
HETATM    9  H18 UNL     1     -32.166  14.900  -4.681  1.00 20.00     0.210 HD
ENDBRANCH   7   8
TORSDOF 1
ENDMDL
MODEL 3
REMARK VINA RESULT:      -4.1     11.629     12.476
REMARK  1 active torsions:
REMARK  status: ('A' for Active; 'I' for Inactive)
REMARK    1  A    between atoms: C7_7  and  O8_8 
ROOT
HETATM    1  C1  UNL     1     -33.651  15.912  -4.907  1.00 20.00    -0.025 C 
HETATM    2  C2  UNL     1     -34.935  15.541  -5.016  1.00 20.00    -0.023 C 
HETATM    3  C3  UNL     1     -34.442  15.585  -2.757  1.00 20.00     0.019 C 
HETATM    4  C4  UNL     1     -33.053  13.870  -3.664  1.00 20.00     0.041 C 
HETATM    5  C5  UNL     1     -33.155  15.410  -3.573  1.00 20.00     0.011 C 
HETATM    6  C6  UNL     1     -35.293  14.790  -3.752  1.00 20.00     0.037 C 
HETATM    7  C7  UNL     1     -34.543  13.438  -3.736  1.00 20.00     0.126 C 
ENDROOT
BRANCH   7   8
HETATM    8  O8  UNL     1     -34.811  12.653  -4.882  1.00 20.00    -0.395 OA
HETATM    9  H18 UNL     1     -35.748  12.784  -5.107  1.00 20.00     0.210 HD
ENDBRANCH   7   8
TORSDOF 1
ENDMDL
MODEL 4
REMARK VINA RESULT:      -4.1     11.874     12.859
REMARK  1 active torsions:
REMARK  status: ('A' for Active; 'I' for Inactive)
REMARK    1  A    between atoms: C7_7  and  O8_8 
ROOT
HETATM    1  C1  UNL     1     -35.483  16.068  -4.180  1.00 20.00    -0.025 C 
HETATM    2  C2  UNL     1     -35.191  15.315  -3.108  1.00 20.00    -0.023 C 
HETATM    3  C3  UNL     1     -33.203  15.672  -4.235  1.00 20.00     0.019 C 
HETATM    4  C4  UNL     1     -34.553  14.401  -5.739  1.00 20.00     0.041 C 
HETATM    5  C5  UNL     1     -34.389  15.839  -5.194  1.00 20.00     0.011 C 
HETATM    6  C6  UNL     1     -33.901  14.586  -3.411  1.00 20.00     0.037 C 
HETATM    7  C7  UNL     1     -34.162  13.532  -4.512  1.00 20.00     0.126 C 
ENDROOT
BRANCH   7   8
HETATM    8  O8  UNL     1     -35.187  12.621  -4.163  1.00 20.00    -0.395 OA
HETATM    9  H18 UNL     1     -35.491  12.202  -4.986  1.00 20.00     0.210 HD
ENDBRANCH   7   8
TORSDOF 1
ENDMDL
MODEL 5
REMARK VINA RESULT:      -4.0     11.991     12.931
REMARK  1 active torsions:
REMARK  status: ('A' for Active; 'I' for Inactive)
REMARK    1  A    between atoms: C7_7  and  O8_8 
ROOT
HETATM    1  C1  UNL     1     -34.633  16.048  -1.791  1.00 20.00    -0.025 C 
HETATM    2  C2  UNL     1     -33.606  16.743  -2.302  1.00 20.00    -0.023 C 
HETATM    3  C3  UNL     1     -35.162  16.510  -3.996  1.00 20.00     0.019 C 
HETATM    4  C4  UNL     1     -34.438  14.289  -3.505  1.00 20.00     0.041 C 
HETATM    5  C5  UNL     1     -35.354  15.404  -2.949  1.00 20.00     0.011 C 
HETATM    6  C6  UNL     1     -33.644  16.560  -3.803  1.00 20.00     0.037 C 
HETATM    7  C7  UNL     1     -33.275  15.098  -4.144  1.00 20.00     0.126 C 
ENDROOT
BRANCH   7   8
HETATM    8  O8  UNL     1     -32.018  14.716  -3.622  1.00 20.00    -0.395 OA
HETATM    9  H18 UNL     1     -31.634  15.502  -3.194  1.00 20.00     0.210 HD
ENDBRANCH   7   8
TORSDOF 1
ENDMDL
MODEL 6
REMARK VINA RESULT:      -4.0      8.246      9.215
REMARK  1 active torsions:
REMARK  status: ('A' for Active; 'I' for Inactive)
REMARK    1  A    between atoms: C7_7  and  O8_8 
ROOT
HETATM    1  C1  UNL     1     -41.779   6.927  -2.306  1.00 20.00    -0.025 C 
HETATM    2  C2  UNL     1     -42.241   5.688  -2.534  1.00 20.00    -0.023 C 
HETATM    3  C3  UNL     1     -42.976   6.299  -0.428  1.00 20.00     0.019 C 
HETATM    4  C4  UNL     1     -40.596   6.227  -0.261  1.00 20.00     0.041 C 
HETATM    5  C5  UNL     1     -41.735   7.117  -0.810  1.00 20.00     0.011 C 
HETATM    6  C6  UNL     1     -42.504   5.054  -1.186  1.00 20.00     0.037 C 
HETATM    7  C7  UNL     1     -41.156   4.795  -0.476  1.00 20.00     0.126 C 
ENDROOT
BRANCH   7   8
HETATM    8  O8  UNL     1     -40.279   3.995  -1.246  1.00 20.00    -0.395 OA
HETATM    9  H18 UNL     1     -39.373   4.289  -1.047  1.00 20.00     0.210 HD
ENDBRANCH   7   8
TORSDOF 1
ENDMDL
MODEL 7
REMARK VINA RESULT:      -4.0     12.155     13.039
REMARK  1 active torsions:
REMARK  status: ('A' for Active; 'I' for Inactive)
REMARK    1  A    between atoms: C7_7  and  O8_8 
ROOT
HETATM    1  C1  UNL     1     -33.096  13.981  -3.573  1.00 20.00    -0.025 C 
HETATM    2  C2  UNL     1     -32.984  15.265  -3.943  1.00 20.00    -0.023 C 
HETATM    3  C3  UNL     1     -35.209  14.913  -3.424  1.00 20.00     0.019 C 
HETATM    4  C4  UNL     1     -34.781  13.515  -5.311  1.00 20.00     0.041 C 
HETATM    5  C5  UNL     1     -34.536  13.583  -3.785  1.00 20.00     0.011 C 
HETATM    6  C6  UNL     1     -34.351  15.721  -4.402  1.00 20.00     0.037 C 
HETATM    7  C7  UNL     1     -34.703  15.009  -5.729  1.00 20.00     0.126 C 
ENDROOT
BRANCH   7   8
HETATM    8  O8  UNL     1     -33.735  15.226  -6.737  1.00 20.00    -0.395 OA
HETATM    9  H18 UNL     1     -34.040  14.758  -7.533  1.00 20.00     0.210 HD
ENDBRANCH   7   8
TORSDOF 1
ENDMDL
MODEL 8
REMARK VINA RESULT:      -3.9     11.690     12.524
REMARK  1 active torsions:
REMARK  status: ('A' for Active; 'I' for Inactive)
REMARK    1  A    between atoms: C7_7  and  O8_8 
ROOT
HETATM    1  C1  UNL     1     -33.722  13.590  -3.810  1.00 20.00    -0.025 C 
HETATM    2  C2  UNL     1     -34.561  13.245  -4.798  1.00 20.00    -0.023 C 
HETATM    3  C3  UNL     1     -34.068  15.485  -5.093  1.00 20.00     0.019 C 
HETATM    4  C4  UNL     1     -35.225  15.371  -3.008  1.00 20.00     0.041 C 
HETATM    5  C5  UNL     1     -33.839  15.084  -3.630  1.00 20.00     0.011 C 
HETATM    6  C6  UNL     1     -35.237  14.512  -5.274  1.00 20.00     0.037 C 
HETATM    7  C7  UNL     1     -36.193  15.022  -4.172  1.00 20.00     0.126 C 
ENDROOT
BRANCH   7   8
HETATM    8  O8  UNL     1     -37.150  14.053  -3.790  1.00 20.00    -0.395 OA
HETATM    9  H18 UNL     1     -37.956  14.533  -3.530  1.00 20.00     0.210 HD
ENDBRANCH   7   8
TORSDOF 1
ENDMDL
MODEL 9
REMARK VINA RESULT:      -3.9      8.093      9.180
REMARK  1 active torsions:
REMARK  status: ('A' for Active; 'I' for Inactive)
REMARK    1  A    between atoms: C7_7  and  O8_8 
ROOT
HETATM    1  C1  UNL     1     -41.167   6.762  -1.170  1.00 20.00    -0.025 C 
HETATM    2  C2  UNL     1     -40.649   6.142  -0.100  1.00 20.00    -0.023 C 
HETATM    3  C3  UNL     1     -41.239   4.491  -1.608  1.00 20.00     0.019 C 
HETATM    4  C4  UNL     1     -43.295   5.533  -0.988  1.00 20.00     0.041 C 
HETATM    5  C5  UNL     1     -42.052   5.765  -1.877  1.00 20.00     0.011 C 
HETATM    6  C6  UNL     1     -41.190   4.729  -0.096  1.00 20.00     0.037 C 
HETATM    7  C7  UNL     1     -42.701   4.766   0.226  1.00 20.00     0.126 C 
ENDROOT
BRANCH   7   8
HETATM    8  O8  UNL     1     -42.982   5.417   1.450  1.00 20.00    -0.395 OA
HETATM    9  H18 UNL     1     -42.132   5.557   1.902  1.00 20.00     0.210 HD
ENDBRANCH   7   8
TORSDOF 1
ENDMDL
