MODEL 1
REMARK VINA RESULT:      -5.1      0.000      0.000
REMARK  3 active torsions:
REMARK  status: ('A' for Active; 'I' for Inactive)
REMARK    1  A    between atoms: C3_3  and  C5_5 
REMARK    2  A    between atoms: C4_4  and  C6_6 
REMARK    3  A    between atoms: C5_5  and  C6_6 
ROOT
HETATM    1  C1  UNL     1     -32.131   7.912   2.362  1.00 20.00     0.059 C 
HETATM    2  C4  UNL     1     -32.164   6.916   3.441  1.00 20.00     0.124 C 
HETATM    3  N7  UNL     1     -32.104   8.699   1.510  1.00 20.00    -0.197 NA
ENDROOT
BRANCH   2   4
HETATM    4  C6  UNL     1     -33.174   5.800   3.168  1.00 20.00     0.020 C 
BRANCH   4   5
HETATM    5  C5  UNL     1     -34.518   6.030   3.875  1.00 20.00     0.051 C 
BRANCH   5   6
HETATM    6  C3  UNL     1     -34.524   5.483   5.275  1.00 20.00     0.002 C 
HETATM    7  C2  UNL     1     -34.865   4.226   5.586  1.00 20.00     0.032 C 
HETATM    8 CL8  UNL     1     -34.000   6.567   6.517  1.00 20.00    -0.090 Cl
ENDBRANCH   5   6
ENDBRANCH   4   5
ENDBRANCH   2   4
TORSDOF 3
ENDMDL
MODEL 2
REMARK VINA RESULT:      -5.0      1.156      1.340
REMARK  3 active torsions:
REMARK  status: ('A' for Active; 'I' for Inactive)
REMARK    1  A    between atoms: C3_3  and  C5_5 
REMARK    2  A    between atoms: C4_4  and  C6_6 
REMARK    3  A    between atoms: C5_5  and  C6_6 
ROOT
HETATM    1  C1  UNL     1     -32.106   7.939   2.315  1.00 20.00     0.059 C 
HETATM    2  C4  UNL     1     -32.114   6.941   3.392  1.00 20.00     0.124 C 
HETATM    3  N7  UNL     1     -32.098   8.728   1.465  1.00 20.00    -0.197 NA
ENDROOT
BRANCH   2   4
HETATM    4  C6  UNL     1     -33.166   5.853   3.166  1.00 20.00     0.020 C 
BRANCH   4   5
HETATM    5  C5  UNL     1     -34.468   6.119   3.934  1.00 20.00     0.051 C 
BRANCH   5   6
HETATM    6  C3  UNL     1     -34.405   5.621   5.350  1.00 20.00     0.002 C 
HETATM    7  C2  UNL     1     -34.050   6.378   6.396  1.00 20.00     0.032 C 
HETATM    8 CL8  UNL     1     -34.881   3.975   5.600  1.00 20.00    -0.090 Cl
ENDBRANCH   5   6
ENDBRANCH   4   5
ENDBRANCH   2   4
TORSDOF 3
ENDMDL
MODEL 3
REMARK VINA RESULT:      -4.2      3.067      4.271
REMARK  3 active torsions:
REMARK  status: ('A' for Active; 'I' for Inactive)
REMARK    1  A    between atoms: C3_3  and  C5_5 
REMARK    2  A    between atoms: C4_4  and  C6_6 
REMARK    3  A    between atoms: C5_5  and  C6_6 
ROOT
HETATM    1  C1  UNL     1     -34.856   4.461   5.551  1.00 20.00     0.059 C 
HETATM    2  C4  UNL     1     -34.540   5.644   6.361  1.00 20.00     0.124 C 
HETATM    3  N7  UNL     1     -35.106   3.526   4.912  1.00 20.00    -0.197 NA
ENDROOT
BRANCH   2   4
HETATM    4  C6  UNL     1     -33.689   6.660   5.596  1.00 20.00     0.020 C 
BRANCH   4   5
HETATM    5  C5  UNL     1     -34.014   6.694   4.095  1.00 20.00     0.051 C 
BRANCH   5   6
HETATM    6  C3  UNL     1     -32.780   6.592   3.244  1.00 20.00     0.002 C 
HETATM    7  C2  UNL     1     -32.106   5.455   3.035  1.00 20.00     0.032 C 
HETATM    8 CL8  UNL     1     -32.271   8.052   2.465  1.00 20.00    -0.090 Cl
ENDBRANCH   5   6
ENDBRANCH   4   5
ENDBRANCH   2   4
TORSDOF 3
ENDMDL
MODEL 4
REMARK VINA RESULT:      -4.1      3.008      4.604
REMARK  3 active torsions:
REMARK  status: ('A' for Active; 'I' for Inactive)
REMARK    1  A    between atoms: C3_3  and  C5_5 
REMARK    2  A    between atoms: C4_4  and  C6_6 
REMARK    3  A    between atoms: C5_5  and  C6_6 
ROOT
HETATM    1  C1  UNL     1     -35.103   4.645   5.203  1.00 20.00     0.059 C 
HETATM    2  C4  UNL     1     -34.993   5.308   3.897  1.00 20.00     0.124 C 
HETATM    3  N7  UNL     1     -35.191   4.120   6.233  1.00 20.00    -0.197 NA
ENDROOT
BRANCH   2   4
HETATM    4  C6  UNL     1     -33.994   6.467   3.918  1.00 20.00     0.020 C 
BRANCH   4   5
HETATM    5  C5  UNL     1     -32.869   6.299   2.887  1.00 20.00     0.051 C 
BRANCH   5   6
HETATM    6  C3  UNL     1     -32.009   7.526   2.779  1.00 20.00     0.002 C 
HETATM    7  C2  UNL     1     -31.995   8.340   1.715  1.00 20.00     0.032 C 
HETATM    8 CL8  UNL     1     -31.036   7.898   4.161  1.00 20.00    -0.090 Cl
ENDBRANCH   5   6
ENDBRANCH   4   5
ENDBRANCH   2   4
TORSDOF 3
ENDMDL
MODEL 5
REMARK VINA RESULT:      -4.1      3.346      4.661
REMARK  3 active torsions:
REMARK  status: ('A' for Active; 'I' for Inactive)
REMARK    1  A    between atoms: C3_3  and  C5_5 
REMARK    2  A    between atoms: C4_4  and  C6_6 
REMARK    3  A    between atoms: C5_5  and  C6_6 
ROOT
HETATM    1  C1  UNL     1     -35.092   4.602   5.077  1.00 20.00     0.059 C 
HETATM    2  C4  UNL     1     -35.084   5.338   3.807  1.00 20.00     0.124 C 
HETATM    3  N7  UNL     1     -35.100   4.019   6.080  1.00 20.00    -0.197 NA
ENDROOT
BRANCH   2   4
HETATM    4  C6  UNL     1     -34.112   6.520   3.829  1.00 20.00     0.020 C 
BRANCH   4   5
HETATM    5  C5  UNL     1     -32.849   6.265   2.994  1.00 20.00     0.051 C 
BRANCH   5   6
HETATM    6  C3  UNL     1     -31.939   7.461   2.960  1.00 20.00     0.002 C 
HETATM    7  C2  UNL     1     -31.157   7.836   3.980  1.00 20.00     0.032 C 
HETATM    8 CL8  UNL     1     -31.895   8.341   1.471  1.00 20.00    -0.090 Cl
ENDBRANCH   5   6
ENDBRANCH   4   5
ENDBRANCH   2   4
TORSDOF 3
ENDMDL
MODEL 6
REMARK VINA RESULT:      -4.0      1.486      1.856
REMARK  3 active torsions:
REMARK  status: ('A' for Active; 'I' for Inactive)
REMARK    1  A    between atoms: C3_3  and  C5_5 
REMARK    2  A    between atoms: C4_4  and  C6_6 
REMARK    3  A    between atoms: C5_5  and  C6_6 
ROOT
HETATM    1  C1  UNL     1     -32.293   6.815   3.229  1.00 20.00     0.059 C 
HETATM    2  C4  UNL     1     -33.213   5.681   3.076  1.00 20.00     0.124 C 
HETATM    3  N7  UNL     1     -31.565   7.710   3.349  1.00 20.00    -0.197 NA
ENDROOT
BRANCH   2   4
HETATM    4  C6  UNL     1     -34.673   6.085   3.293  1.00 20.00     0.020 C 
BRANCH   4   5
HETATM    5  C5  UNL     1     -35.372   5.234   4.362  1.00 20.00     0.051 C 
BRANCH   5   6
HETATM    6  C3  UNL     1     -34.598   5.189   5.649  1.00 20.00     0.002 C 
HETATM    7  C2  UNL     1     -34.277   6.272   6.368  1.00 20.00     0.032 C 
HETATM    8 CL8  UNL     1     -34.166   3.614   6.223  1.00 20.00    -0.090 Cl
ENDBRANCH   5   6
ENDBRANCH   4   5
ENDBRANCH   2   4
TORSDOF 3
ENDMDL
MODEL 7
REMARK VINA RESULT:      -3.9      2.989      4.149
REMARK  3 active torsions:
REMARK  status: ('A' for Active; 'I' for Inactive)
REMARK    1  A    between atoms: C3_3  and  C5_5 
REMARK    2  A    between atoms: C4_4  and  C6_6 
REMARK    3  A    between atoms: C5_5  and  C6_6 
ROOT
HETATM    1  C1  UNL     1     -34.764   5.321   5.861  1.00 20.00     0.059 C 
HETATM    2  C4  UNL     1     -35.192   4.630   4.638  1.00 20.00     0.124 C 
HETATM    3  N7  UNL     1     -34.427   5.865   6.828  1.00 20.00    -0.197 NA
ENDROOT
BRANCH   2   4
HETATM    4  C6  UNL     1     -34.860   5.428   3.376  1.00 20.00     0.020 C 
BRANCH   4   5
HETATM    5  C5  UNL     1     -34.102   6.729   3.679  1.00 20.00     0.051 C 
BRANCH   5   6
HETATM    6  C3  UNL     1     -32.727   6.740   3.074  1.00 20.00     0.002 C 
HETATM    7  C2  UNL     1     -31.897   5.689   3.081  1.00 20.00     0.032 C 
HETATM    8 CL8  UNL     1     -32.255   8.205   2.283  1.00 20.00    -0.090 Cl
ENDBRANCH   5   6
ENDBRANCH   4   5
ENDBRANCH   2   4
TORSDOF 3
ENDMDL
MODEL 8
REMARK VINA RESULT:      -3.8     11.178     11.780
REMARK  3 active torsions:
REMARK  status: ('A' for Active; 'I' for Inactive)
REMARK    1  A    between atoms: C3_3  and  C5_5 
REMARK    2  A    between atoms: C4_4  and  C6_6 
REMARK    3  A    between atoms: C5_5  and  C6_6 
ROOT
HETATM    1  C1  UNL     1     -34.340  13.635  -4.004  1.00 20.00     0.059 C 
HETATM    2  C4  UNL     1     -33.571  14.749  -3.434  1.00 20.00     0.124 C 
HETATM    3  N7  UNL     1     -34.945  12.754  -4.454  1.00 20.00    -0.197 NA
ENDROOT
BRANCH   2   4
HETATM    4  C6  UNL     1     -34.447  15.693  -2.607  1.00 20.00     0.020 C 
BRANCH   4   5
HETATM    5  C5  UNL     1     -33.770  17.044  -2.336  1.00 20.00     0.051 C 
BRANCH   5   6
HETATM    6  C3  UNL     1     -33.877  17.455  -0.894  1.00 20.00     0.002 C 
HETATM    7  C2  UNL     1     -34.877  17.088  -0.083  1.00 20.00     0.032 C 
HETATM    8 CL8  UNL     1     -32.576  18.415  -0.278  1.00 20.00    -0.090 Cl
ENDBRANCH   5   6
ENDBRANCH   4   5
ENDBRANCH   2   4
TORSDOF 3
ENDMDL
MODEL 9
REMARK VINA RESULT:      -3.8     10.977     11.718
REMARK  3 active torsions:
REMARK  status: ('A' for Active; 'I' for Inactive)
REMARK    1  A    between atoms: C3_3  and  C5_5 
REMARK    2  A    between atoms: C4_4  and  C6_6 
REMARK    3  A    between atoms: C5_5  and  C6_6 
ROOT
HETATM    1  C1  UNL     1     -34.111  13.669  -4.036  1.00 20.00     0.059 C 
HETATM    2  C4  UNL     1     -33.159  14.700  -3.602  1.00 20.00     0.124 C 
HETATM    3  N7  UNL     1     -34.861  12.853  -4.378  1.00 20.00    -0.197 NA
ENDROOT
BRANCH   2   4
HETATM    4  C6  UNL     1     -33.849  16.029  -3.288  1.00 20.00     0.020 C 
BRANCH   4   5
HETATM    5  C5  UNL     1     -34.626  15.996  -1.965  1.00 20.00     0.051 C 
BRANCH   5   6
HETATM    6  C3  UNL     1     -34.255  17.137  -1.059  1.00 20.00     0.002 C 
HETATM    7  C2  UNL     1     -33.433  18.134  -1.409  1.00 20.00     0.032 C 
HETATM    8 CL8  UNL     1     -35.006  17.144   0.501  1.00 20.00    -0.090 Cl
ENDBRANCH   5   6
ENDBRANCH   4   5
ENDBRANCH   2   4
TORSDOF 3
ENDMDL
