MODEL 1
REMARK VINA RESULT:      -4.3      0.000      0.000
REMARK  1 active torsions:
REMARK  status: ('A' for Active; 'I' for Inactive)
REMARK    1  A    between atoms: C1_1  and  C6_6 
ROOT
HETATM    1  C2  UNL     1     -34.428   5.262   3.447  1.00 20.00     0.038 C 
HETATM    2  C3  UNL     1     -33.312   6.423   5.369  1.00 20.00     0.038 C 
HETATM    3  C4  UNL     1     -35.528   4.857   4.421  1.00 20.00     0.168 C 
HETATM    4  C5  UNL     1     -34.473   5.955   6.237  1.00 20.00     0.168 C 
HETATM    5  C6  UNL     1     -33.751   6.544   3.916  1.00 20.00     0.051 C 
HETATM    6  O8  UNL     1     -35.009   4.726   5.745  1.00 20.00    -0.391 OA
ENDROOT
BRANCH   5   7
HETATM    7  C1  UNL     1     -32.518   6.770   3.063  1.00 20.00     0.235 C 
HETATM    8  O7  UNL     1     -32.237   7.849   2.553  1.00 20.00    -0.306 OA
ENDBRANCH   5   7
TORSDOF 1
ENDMDL
MODEL 2
REMARK VINA RESULT:      -4.2      0.544      1.806
REMARK  1 active torsions:
REMARK  status: ('A' for Active; 'I' for Inactive)
REMARK    1  A    between atoms: C1_1  and  C6_6 
ROOT
HETATM    1  C2  UNL     1     -33.597   6.622   5.421  1.00 20.00     0.038 C 
HETATM    2  C3  UNL     1     -34.589   5.298   3.537  1.00 20.00     0.038 C 
HETATM    3  C4  UNL     1     -34.252   5.628   6.372  1.00 20.00     0.168 C 
HETATM    4  C5  UNL     1     -35.190   4.377   4.591  1.00 20.00     0.168 C 
HETATM    5  C6  UNL     1     -33.329   5.967   4.071  1.00 20.00     0.051 C 
HETATM    6  O8  UNL     1     -35.446   5.092   5.800  1.00 20.00    -0.391 OA
ENDROOT
BRANCH   5   7
HETATM    7  C1  UNL     1     -32.911   7.047   3.093  1.00 20.00     0.235 C 
HETATM    8  O7  UNL     1     -31.805   7.575   3.102  1.00 20.00    -0.306 OA
ENDBRANCH   5   7
TORSDOF 1
ENDMDL
MODEL 3
REMARK VINA RESULT:      -3.8     11.484     12.884
REMARK  1 active torsions:
REMARK  status: ('A' for Active; 'I' for Inactive)
REMARK    1  A    between atoms: C1_1  and  C6_6 
ROOT
HETATM    1  C2  UNL     1     -34.080  15.503  -5.177  1.00 20.00     0.038 C 
HETATM    2  C3  UNL     1     -34.565  15.459  -2.718  1.00 20.00     0.038 C 
HETATM    3  C4  UNL     1     -33.317  16.800  -4.933  1.00 20.00     0.168 C 
HETATM    4  C5  UNL     1     -33.775  16.757  -2.608  1.00 20.00     0.168 C 
HETATM    5  C6  UNL     1     -34.090  14.649  -3.916  1.00 20.00     0.051 C 
HETATM    6  O8  UNL     1     -33.864  17.507  -3.820  1.00 20.00    -0.391 OA
ENDROOT
BRANCH   5   7
HETATM    7  C1  UNL     1     -35.056  13.500  -4.128  1.00 20.00     0.235 C 
HETATM    8  O7  UNL     1     -34.800  12.520  -4.819  1.00 20.00    -0.306 OA
ENDBRANCH   5   7
TORSDOF 1
ENDMDL
MODEL 4
REMARK VINA RESULT:      -3.7     11.571     12.199
REMARK  1 active torsions:
REMARK  status: ('A' for Active; 'I' for Inactive)
REMARK    1  A    between atoms: C1_1  and  C6_6 
ROOT
HETATM    1  C2  UNL     1     -34.752  15.299  -3.015  1.00 20.00     0.038 C 
HETATM    2  C3  UNL     1     -35.645  13.458  -4.463  1.00 20.00     0.038 C 
HETATM    3  C4  UNL     1     -33.356  14.867  -3.446  1.00 20.00     0.168 C 
HETATM    4  C5  UNL     1     -34.200  13.127  -4.816  1.00 20.00     0.168 C 
HETATM    5  C6  UNL     1     -35.775  14.926  -4.081  1.00 20.00     0.051 C 
HETATM    6  O8  UNL     1     -33.326  13.470  -3.740  1.00 20.00    -0.391 OA
ENDROOT
BRANCH   5   7
HETATM    7  C1  UNL     1     -37.161  15.148  -3.508  1.00 20.00     0.235 C 
HETATM    8  O7  UNL     1     -38.062  14.319  -3.579  1.00 20.00    -0.306 OA
ENDBRANCH   5   7
TORSDOF 1
ENDMDL
MODEL 5
REMARK VINA RESULT:      -3.7     11.549     13.295
REMARK  1 active torsions:
REMARK  status: ('A' for Active; 'I' for Inactive)
REMARK    1  A    between atoms: C1_1  and  C6_6 
ROOT
HETATM    1  C2  UNL     1     -34.173  15.381  -3.335  1.00 20.00     0.038 C 
HETATM    2  C3  UNL     1     -34.397  15.066  -5.812  1.00 20.00     0.038 C 
HETATM    3  C4  UNL     1     -33.634  16.776  -3.631  1.00 20.00     0.168 C 
HETATM    4  C5  UNL     1     -33.846  16.477  -5.973  1.00 20.00     0.168 C 
HETATM    5  C6  UNL     1     -35.086  14.915  -4.462  1.00 20.00     0.051 C 
HETATM    6  O8  UNL     1     -32.969  16.803  -4.894  1.00 20.00    -0.391 OA
ENDROOT
BRANCH   5   7
HETATM    7  C1  UNL     1     -35.396  13.447  -4.247  1.00 20.00     0.235 C 
HETATM    8  O7  UNL     1     -34.782  12.539  -4.797  1.00 20.00    -0.306 OA
ENDBRANCH   5   7
TORSDOF 1
ENDMDL
MODEL 6
REMARK VINA RESULT:      -3.6      2.094      2.685
REMARK  1 active torsions:
REMARK  status: ('A' for Active; 'I' for Inactive)
REMARK    1  A    between atoms: C1_1  and  C6_6 
ROOT
HETATM    1  C2  UNL     1     -34.058   6.296   4.375  1.00 20.00     0.038 C 
HETATM    2  C3  UNL     1     -34.339   4.916   6.449  1.00 20.00     0.038 C 
HETATM    3  C4  UNL     1     -34.988   5.311   3.677  1.00 20.00     0.168 C 
HETATM    4  C5  UNL     1     -35.254   4.006   5.638  1.00 20.00     0.168 C 
HETATM    5  C6  UNL     1     -34.344   6.325   5.871  1.00 20.00     0.051 C 
HETATM    6  O8  UNL     1     -34.878   4.012   4.260  1.00 20.00    -0.391 OA
ENDROOT
BRANCH   5   7
HETATM    7  C1  UNL     1     -33.246   7.121   6.550  1.00 20.00     0.235 C 
HETATM    8  O7  UNL     1     -33.453   7.920   7.457  1.00 20.00    -0.306 OA
ENDBRANCH   5   7
TORSDOF 1
ENDMDL
MODEL 7
REMARK VINA RESULT:      -3.5     11.930     13.126
REMARK  1 active torsions:
REMARK  status: ('A' for Active; 'I' for Inactive)
REMARK    1  A    between atoms: C1_1  and  C6_6 
ROOT
HETATM    1  C2  UNL     1     -35.210  16.059  -5.205  1.00 20.00     0.038 C 
HETATM    2  C3  UNL     1     -34.331  14.974  -3.122  1.00 20.00     0.038 C 
HETATM    3  C4  UNL     1     -33.766  16.144  -5.687  1.00 20.00     0.168 C 
HETATM    4  C5  UNL     1     -32.936  15.117  -3.718  1.00 20.00     0.168 C 
HETATM    5  C6  UNL     1     -35.376  14.902  -4.228  1.00 20.00     0.051 C 
HETATM    6  O8  UNL     1     -32.869  16.253  -4.581  1.00 20.00    -0.391 OA
ENDROOT
BRANCH   5   7
HETATM    7  C1  UNL     1     -36.749  15.008  -3.594  1.00 20.00     0.235 C 
HETATM    8  O7  UNL     1     -37.634  14.174  -3.756  1.00 20.00    -0.306 OA
ENDBRANCH   5   7
TORSDOF 1
ENDMDL
MODEL 8
REMARK VINA RESULT:      -3.5      9.397     10.524
REMARK  1 active torsions:
REMARK  status: ('A' for Active; 'I' for Inactive)
REMARK    1  A    between atoms: C1_1  and  C6_6 
ROOT
HETATM    1  C2  UNL     1     -40.869   4.421  -1.278  1.00 20.00     0.038 C 
HETATM    2  C3  UNL     1     -42.469   5.595  -2.810  1.00 20.00     0.038 C 
HETATM    3  C4  UNL     1     -40.661   5.760  -0.582  1.00 20.00     0.168 C 
HETATM    4  C5  UNL     1     -42.174   6.870  -2.030  1.00 20.00     0.168 C 
HETATM    5  C6  UNL     1     -42.244   4.371  -1.932  1.00 20.00     0.051 C 
HETATM    6  O8  UNL     1     -40.850   6.841  -1.496  1.00 20.00    -0.391 OA
ENDROOT
BRANCH   5   7
HETATM    7  C1  UNL     1     -42.309   3.136  -2.809  1.00 20.00     0.235 C 
HETATM    8  O7  UNL     1     -41.317   2.518  -3.180  1.00 20.00    -0.306 OA
ENDBRANCH   5   7
TORSDOF 1
ENDMDL
MODEL 9
REMARK VINA RESULT:      -3.4     11.436     12.927
REMARK  1 active torsions:
REMARK  status: ('A' for Active; 'I' for Inactive)
REMARK    1  A    between atoms: C1_1  and  C6_6 
ROOT
HETATM    1  C2  UNL     1     -34.486  14.868  -6.069  1.00 20.00     0.038 C 
HETATM    2  C3  UNL     1     -33.433  14.898  -3.794  1.00 20.00     0.038 C 
HETATM    3  C4  UNL     1     -35.153  13.559  -5.667  1.00 20.00     0.168 C 
HETATM    4  C5  UNL     1     -34.159  13.588  -3.516  1.00 20.00     0.168 C 
HETATM    5  C6  UNL     1     -34.188  15.712  -4.836  1.00 20.00     0.051 C 
HETATM    6  O8  UNL     1     -34.350  12.850  -4.723  1.00 20.00    -0.391 OA
ENDROOT
BRANCH   5   7
HETATM    7  C1  UNL     1     -33.313  16.877  -5.257  1.00 20.00     0.235 C 
HETATM    8  O7  UNL     1     -33.411  18.003  -4.780  1.00 20.00    -0.306 OA
ENDBRANCH   5   7
TORSDOF 1
ENDMDL
