MODEL 1
REMARK VINA RESULT:      -5.3      0.000      0.000
REMARK  4 active torsions:
REMARK  status: ('A' for Active; 'I' for Inactive)
REMARK    1  A    between atoms: C3_3  and  C6_6 
REMARK    2  A    between atoms: C5_5  and  C7_7 
REMARK    3  A    between atoms: C6_6  and  C8_8 
REMARK    4  A    between atoms: C7_7  and  C8_8 
ROOT
HETATM    1  C1  UNL     1     -32.070   8.147   2.134  1.00 20.00     0.059 C 
HETATM    2  C5  UNL     1     -32.131   7.318   3.346  1.00 20.00     0.124 C 
HETATM    3  N9  UNL     1     -32.021   8.803   1.179  1.00 20.00    -0.197 NA
ENDROOT
BRANCH   2   4
HETATM    4  C7  UNL     1     -32.306   5.833   3.022  1.00 20.00     0.014 C 
BRANCH   4   5
HETATM    5  C8  UNL     1     -33.780   5.412   2.951  1.00 20.00     0.005 C 
BRANCH   5   6
HETATM    6  C6  UNL     1     -34.650   6.087   4.020  1.00 20.00     0.033 C 
BRANCH   6   7
HETATM    7  C3  UNL     1     -34.577   5.447   5.387  1.00 20.00    -0.093 C 
HETATM    8  C2  UNL     1     -34.910   4.161   5.578  1.00 20.00     0.014 C 
HETATM    9  C4  UNL     1     -34.084   6.302   6.518  1.00 20.00     0.042 C 
ENDBRANCH   6   7
ENDBRANCH   5   6
ENDBRANCH   4   5
ENDBRANCH   2   4
TORSDOF 4
ENDMDL
MODEL 2
REMARK VINA RESULT:      -5.3      0.163      1.180
REMARK  4 active torsions:
REMARK  status: ('A' for Active; 'I' for Inactive)
REMARK    1  A    between atoms: C3_3  and  C6_6 
REMARK    2  A    between atoms: C5_5  and  C7_7 
REMARK    3  A    between atoms: C6_6  and  C8_8 
REMARK    4  A    between atoms: C7_7  and  C8_8 
ROOT
HETATM    1  C1  UNL     1     -32.057   8.271   1.985  1.00 20.00     0.059 C 
HETATM    2  C5  UNL     1     -32.124   7.519   3.246  1.00 20.00     0.124 C 
HETATM    3  N9  UNL     1     -32.003   8.866   0.991  1.00 20.00    -0.197 NA
ENDROOT
BRANCH   2   4
HETATM    4  C7  UNL     1     -32.203   6.008   3.014  1.00 20.00     0.014 C 
BRANCH   4   5
HETATM    5  C8  UNL     1     -33.647   5.491   2.965  1.00 20.00     0.005 C 
BRANCH   5   6
HETATM    6  C6  UNL     1     -34.561   6.161   4.000  1.00 20.00     0.033 C 
BRANCH   6   7
HETATM    7  C3  UNL     1     -34.503   5.550   5.380  1.00 20.00    -0.093 C 
HETATM    8  C2  UNL     1     -34.076   6.253   6.441  1.00 20.00     0.014 C 
HETATM    9  C4  UNL     1     -34.978   4.132   5.522  1.00 20.00     0.042 C 
ENDBRANCH   6   7
ENDBRANCH   5   6
ENDBRANCH   4   5
ENDBRANCH   2   4
TORSDOF 4
ENDMDL
MODEL 3
REMARK VINA RESULT:      -4.7      2.136      4.324
REMARK  4 active torsions:
REMARK  status: ('A' for Active; 'I' for Inactive)
REMARK    1  A    between atoms: C3_3  and  C6_6 
REMARK    2  A    between atoms: C5_5  and  C7_7 
REMARK    3  A    between atoms: C6_6  and  C8_8 
REMARK    4  A    between atoms: C7_7  and  C8_8 
ROOT
HETATM    1  C1  UNL     1     -34.141   6.166   6.382  1.00 20.00     0.059 C 
HETATM    2  C5  UNL     1     -34.796   4.954   5.870  1.00 20.00     0.124 C 
HETATM    3  N9  UNL     1     -33.624   7.121   6.788  1.00 20.00    -0.197 NA
ENDROOT
BRANCH   2   4
HETATM    4  C7  UNL     1     -34.825   4.915   4.340  1.00 20.00     0.014 C 
BRANCH   4   5
HETATM    5  C8  UNL     1     -34.341   6.225   3.706  1.00 20.00     0.005 C 
BRANCH   5   6
HETATM    6  C6  UNL     1     -33.013   6.074   2.952  1.00 20.00     0.033 C 
BRANCH   6   7
HETATM    7  C3  UNL     1     -32.126   7.296   2.987  1.00 20.00    -0.093 C 
HETATM    8  C2  UNL     1     -31.366   7.581   4.057  1.00 20.00     0.014 C 
HETATM    9  C4  UNL     1     -32.103   8.162   1.761  1.00 20.00     0.042 C 
ENDBRANCH   6   7
ENDBRANCH   5   6
ENDBRANCH   4   5
ENDBRANCH   2   4
TORSDOF 4
ENDMDL
MODEL 4
REMARK VINA RESULT:      -4.5      2.714      5.089
REMARK  4 active torsions:
REMARK  status: ('A' for Active; 'I' for Inactive)
REMARK    1  A    between atoms: C3_3  and  C6_6 
REMARK    2  A    between atoms: C5_5  and  C7_7 
REMARK    3  A    between atoms: C6_6  and  C8_8 
REMARK    4  A    between atoms: C7_7  and  C8_8 
ROOT
HETATM    1  C1  UNL     1     -35.003   4.680   4.952  1.00 20.00     0.059 C 
HETATM    2  C5  UNL     1     -34.880   5.564   3.784  1.00 20.00     0.124 C 
HETATM    3  N9  UNL     1     -35.102   3.981   5.872  1.00 20.00    -0.197 NA
ENDROOT
BRANCH   2   4
HETATM    4  C7  UNL     1     -33.784   6.616   3.970  1.00 20.00     0.014 C 
BRANCH   4   5
HETATM    5  C8  UNL     1     -32.677   6.512   2.913  1.00 20.00     0.005 C 
BRANCH   5   6
HETATM    6  C6  UNL     1     -31.772   7.750   2.865  1.00 20.00     0.033 C 
BRANCH   6   7
HETATM    7  C3  UNL     1     -32.036   8.678   1.703  1.00 20.00    -0.093 C 
HETATM    8  C2  UNL     1     -31.654   8.363   0.454  1.00 20.00     0.014 C 
HETATM    9  C4  UNL     1     -32.775   9.951   1.996  1.00 20.00     0.042 C 
ENDBRANCH   6   7
ENDBRANCH   5   6
ENDBRANCH   4   5
ENDBRANCH   2   4
TORSDOF 4
ENDMDL
MODEL 5
REMARK VINA RESULT:      -4.4      2.559      4.710
REMARK  4 active torsions:
REMARK  status: ('A' for Active; 'I' for Inactive)
REMARK    1  A    between atoms: C3_3  and  C6_6 
REMARK    2  A    between atoms: C5_5  and  C7_7 
REMARK    3  A    between atoms: C6_6  and  C8_8 
REMARK    4  A    between atoms: C7_7  and  C8_8 
ROOT
HETATM    1  C1  UNL     1     -34.885   4.388   5.658  1.00 20.00     0.059 C 
HETATM    2  C5  UNL     1     -34.533   5.608   6.399  1.00 20.00     0.124 C 
HETATM    3  N9  UNL     1     -35.163   3.425   5.075  1.00 20.00    -0.197 NA
ENDROOT
BRANCH   2   4
HETATM    4  C7  UNL     1     -33.778   6.615   5.528  1.00 20.00     0.014 C 
BRANCH   4   5
HETATM    5  C8  UNL     1     -34.050   6.423   4.030  1.00 20.00     0.005 C 
BRANCH   5   6
HETATM    6  C6  UNL     1     -32.770   6.228   3.207  1.00 20.00     0.033 C 
BRANCH   6   7
HETATM    7  C3  UNL     1     -31.920   7.468   3.060  1.00 20.00    -0.093 C 
HETATM    8  C2  UNL     1     -31.029   7.823   3.999  1.00 20.00     0.014 C 
HETATM    9  C4  UNL     1     -32.089   8.268   1.800  1.00 20.00     0.042 C 
ENDBRANCH   6   7
ENDBRANCH   5   6
ENDBRANCH   4   5
ENDBRANCH   2   4
TORSDOF 4
ENDMDL
MODEL 6
REMARK VINA RESULT:      -4.4      1.161      1.770
REMARK  4 active torsions:
REMARK  status: ('A' for Active; 'I' for Inactive)
REMARK    1  A    between atoms: C3_3  and  C6_6 
REMARK    2  A    between atoms: C5_5  and  C7_7 
REMARK    3  A    between atoms: C6_6  and  C8_8 
REMARK    4  A    between atoms: C7_7  and  C8_8 
ROOT
HETATM    1  C1  UNL     1     -32.540   8.965   0.769  1.00 20.00     0.059 C 
HETATM    2  C5  UNL     1     -32.430   8.794   2.225  1.00 20.00     0.124 C 
HETATM    3  N9  UNL     1     -32.626   9.102  -0.379  1.00 20.00    -0.197 NA
ENDROOT
BRANCH   2   4
HETATM    4  C7  UNL     1     -31.825   7.441   2.604  1.00 20.00     0.014 C 
BRANCH   4   5
HETATM    5  C8  UNL     1     -32.886   6.413   3.018  1.00 20.00     0.005 C 
BRANCH   5   6
HETATM    6  C6  UNL     1     -33.223   6.466   4.514  1.00 20.00     0.033 C 
BRANCH   6   7
HETATM    7  C3  UNL     1     -34.423   5.642   4.918  1.00 20.00    -0.093 C 
HETATM    8  C2  UNL     1     -34.602   5.241   6.187  1.00 20.00     0.014 C 
HETATM    9  C4  UNL     1     -35.426   5.322   3.848  1.00 20.00     0.042 C 
ENDBRANCH   6   7
ENDBRANCH   5   6
ENDBRANCH   4   5
ENDBRANCH   2   4
TORSDOF 4
ENDMDL
MODEL 7
REMARK VINA RESULT:      -4.1     10.972     11.890
REMARK  4 active torsions:
REMARK  status: ('A' for Active; 'I' for Inactive)
REMARK    1  A    between atoms: C3_3  and  C6_6 
REMARK    2  A    between atoms: C5_5  and  C7_7 
REMARK    3  A    between atoms: C6_6  and  C8_8 
REMARK    4  A    between atoms: C7_7  and  C8_8 
ROOT
HETATM    1  C1  UNL     1     -34.060  13.594  -4.130  1.00 20.00     0.059 C 
HETATM    2  C5  UNL     1     -33.199  14.616  -3.520  1.00 20.00     0.124 C 
HETATM    3  N9  UNL     1     -34.740  12.786  -4.610  1.00 20.00    -0.197 NA
ENDROOT
BRANCH   2   4
HETATM    4  C7  UNL     1     -33.417  15.999  -4.138  1.00 20.00     0.014 C 
BRANCH   4   5
HETATM    5  C8  UNL     1     -33.887  17.038  -3.111  1.00 20.00     0.005 C 
BRANCH   5   6
HETATM    6  C6  UNL     1     -34.261  16.420  -1.758  1.00 20.00     0.033 C 
BRANCH   6   7
HETATM    7  C3  UNL     1     -34.130  17.356  -0.580  1.00 20.00    -0.093 C 
HETATM    8  C2  UNL     1     -34.990  17.311   0.451  1.00 20.00     0.014 C 
HETATM    9  C4  UNL     1     -32.977  18.317  -0.593  1.00 20.00     0.042 C 
ENDBRANCH   6   7
ENDBRANCH   5   6
ENDBRANCH   4   5
ENDBRANCH   2   4
TORSDOF 4
ENDMDL
MODEL 8
REMARK VINA RESULT:      -3.9     10.945     12.151
REMARK  4 active torsions:
REMARK  status: ('A' for Active; 'I' for Inactive)
REMARK    1  A    between atoms: C3_3  and  C6_6 
REMARK    2  A    between atoms: C5_5  and  C7_7 
REMARK    3  A    between atoms: C6_6  and  C8_8 
REMARK    4  A    between atoms: C7_7  and  C8_8 
ROOT
HETATM    1  C1  UNL     1     -36.798  14.438  -4.371  1.00 20.00     0.059 C 
HETATM    2  C5  UNL     1     -35.693  14.434  -5.339  1.00 20.00     0.124 C 
HETATM    3  N9  UNL     1     -37.672  14.442  -3.608  1.00 20.00    -0.197 NA
ENDROOT
BRANCH   2   4
HETATM    4  C7  UNL     1     -34.544  13.523  -4.899  1.00 20.00     0.014 C 
BRANCH   4   5
HETATM    5  C8  UNL     1     -33.996  13.888  -3.513  1.00 20.00     0.005 C 
BRANCH   5   6
HETATM    6  C6  UNL     1     -33.153  15.170  -3.518  1.00 20.00     0.033 C 
BRANCH   6   7
HETATM    7  C3  UNL     1     -33.836  16.375  -2.916  1.00 20.00    -0.093 C 
HETATM    8  C2  UNL     1     -33.752  17.587  -3.489  1.00 20.00     0.014 C 
HETATM    9  C4  UNL     1     -34.642  16.154  -1.669  1.00 20.00     0.042 C 
ENDBRANCH   6   7
ENDBRANCH   5   6
ENDBRANCH   4   5
ENDBRANCH   2   4
TORSDOF 4
ENDMDL
MODEL 9
REMARK VINA RESULT:      -3.8     11.131     11.986
REMARK  4 active torsions:
REMARK  status: ('A' for Active; 'I' for Inactive)
REMARK    1  A    between atoms: C3_3  and  C6_6 
REMARK    2  A    between atoms: C5_5  and  C7_7 
REMARK    3  A    between atoms: C6_6  and  C8_8 
REMARK    4  A    between atoms: C7_7  and  C8_8 
ROOT
HETATM    1  C1  UNL     1     -34.949  13.963  -5.795  1.00 20.00     0.059 C 
HETATM    2  C5  UNL     1     -34.768  13.333  -4.480  1.00 20.00     0.124 C 
HETATM    3  N9  UNL     1     -35.093  14.460  -6.833  1.00 20.00    -0.197 NA
ENDROOT
BRANCH   2   4
HETATM    4  C7  UNL     1     -33.470  13.775  -3.800  1.00 20.00     0.014 C 
BRANCH   4   5
HETATM    5  C8  UNL     1     -33.468  15.267  -3.442  1.00 20.00     0.005 C 
BRANCH   5   6
HETATM    6  C6  UNL     1     -34.547  15.641  -2.418  1.00 20.00     0.033 C 
BRANCH   6   7
HETATM    7  C3  UNL     1     -34.289  16.929  -1.673  1.00 20.00    -0.093 C 
HETATM    8  C2  UNL     1     -33.718  17.985  -2.274  1.00 20.00     0.014 C 
HETATM    9  C4  UNL     1     -34.732  16.992  -0.239  1.00 20.00     0.042 C 
ENDBRANCH   6   7
ENDBRANCH   5   6
ENDBRANCH   4   5
ENDBRANCH   2   4
TORSDOF 4
ENDMDL
