MODEL 1
REMARK VINA RESULT:      -5.1      0.000      0.000
REMARK  4 active torsions:
REMARK  status: ('A' for Active; 'I' for Inactive)
REMARK    1  A    between atoms: C3_3  and  C5_5 
REMARK    2  A    between atoms: C4_4  and  C6_6 
REMARK    3  A    between atoms: C5_5  and  C7_7 
REMARK    4  A    between atoms: C6_6  and  C7_7 
ROOT
HETATM    1  C1  UNL     1     -32.072   8.125   2.160  1.00 20.00     0.059 C 
HETATM    2  C4  UNL     1     -32.116   7.292   3.370  1.00 20.00     0.124 C 
HETATM    3  N8  UNL     1     -32.037   8.785   1.206  1.00 20.00    -0.197 NA
ENDROOT
BRANCH   2   4
HETATM    4  C6  UNL     1     -32.304   5.809   3.044  1.00 20.00     0.014 C 
BRANCH   4   5
HETATM    5  C7  UNL     1     -33.782   5.407   2.942  1.00 20.00     0.006 C 
BRANCH   5   6
HETATM    6  C5  UNL     1     -34.669   6.102   3.985  1.00 20.00     0.050 C 
BRANCH   6   7
HETATM    7  C3  UNL     1     -34.557   5.538   5.374  1.00 20.00     0.002 C 
HETATM    8  C2  UNL     1     -34.843   4.269   5.693  1.00 20.00     0.032 C 
HETATM    9 CL9  UNL     1     -33.968   6.621   6.590  1.00 20.00    -0.090 Cl
ENDBRANCH   6   7
ENDBRANCH   5   6
ENDBRANCH   4   5
ENDBRANCH   2   4
TORSDOF 4
ENDMDL
MODEL 2
REMARK VINA RESULT:      -5.0      1.144      1.283
REMARK  4 active torsions:
REMARK  status: ('A' for Active; 'I' for Inactive)
REMARK    1  A    between atoms: C3_3  and  C5_5 
REMARK    2  A    between atoms: C4_4  and  C6_6 
REMARK    3  A    between atoms: C5_5  and  C7_7 
REMARK    4  A    between atoms: C6_6  and  C7_7 
ROOT
HETATM    1  C1  UNL     1     -32.049   8.212   2.050  1.00 20.00     0.059 C 
HETATM    2  C4  UNL     1     -32.032   7.496   3.334  1.00 20.00     0.124 C 
HETATM    3  N8  UNL     1     -32.062   8.780   1.038  1.00 20.00    -0.197 NA
ENDROOT
BRANCH   2   4
HETATM    4  C6  UNL     1     -32.223   5.989   3.156  1.00 20.00     0.014 C 
BRANCH   4   5
HETATM    5  C7  UNL     1     -33.686   5.603   2.897  1.00 20.00     0.006 C 
BRANCH   5   6
HETATM    6  C5  UNL     1     -34.651   6.153   3.956  1.00 20.00     0.050 C 
BRANCH   6   7
HETATM    7  C3  UNL     1     -34.486   5.549   5.323  1.00 20.00     0.002 C 
HETATM    8  C2  UNL     1     -34.071   6.230   6.399  1.00 20.00     0.032 C 
HETATM    9 CL9  UNL     1     -34.923   3.880   5.475  1.00 20.00    -0.090 Cl
ENDBRANCH   6   7
ENDBRANCH   5   6
ENDBRANCH   4   5
ENDBRANCH   2   4
TORSDOF 4
ENDMDL
MODEL 3
REMARK VINA RESULT:      -4.5      2.856      4.317
REMARK  4 active torsions:
REMARK  status: ('A' for Active; 'I' for Inactive)
REMARK    1  A    between atoms: C3_3  and  C5_5 
REMARK    2  A    between atoms: C4_4  and  C6_6 
REMARK    3  A    between atoms: C5_5  and  C7_7 
REMARK    4  A    between atoms: C6_6  and  C7_7 
ROOT
HETATM    1  C1  UNL     1     -34.220   6.129   6.365  1.00 20.00     0.059 C 
HETATM    2  C4  UNL     1     -34.889   4.934   5.830  1.00 20.00     0.124 C 
HETATM    3  N8  UNL     1     -33.692   7.071   6.790  1.00 20.00    -0.197 NA
ENDROOT
BRANCH   2   4
HETATM    4  C6  UNL     1     -34.902   4.916   4.301  1.00 20.00     0.014 C 
BRANCH   4   5
HETATM    5  C7  UNL     1     -34.386   6.225   3.688  1.00 20.00     0.006 C 
BRANCH   5   6
HETATM    6  C5  UNL     1     -33.050   6.060   2.951  1.00 20.00     0.050 C 
BRANCH   6   7
HETATM    7  C3  UNL     1     -32.151   7.263   3.016  1.00 20.00     0.002 C 
HETATM    8  C2  UNL     1     -31.375   7.564   4.065  1.00 20.00     0.032 C 
HETATM    9 CL9  UNL     1     -32.111   8.262   1.601  1.00 20.00    -0.090 Cl
ENDBRANCH   6   7
ENDBRANCH   5   6
ENDBRANCH   4   5
ENDBRANCH   2   4
TORSDOF 4
ENDMDL
MODEL 4
REMARK VINA RESULT:      -4.4      2.880      4.612
REMARK  4 active torsions:
REMARK  status: ('A' for Active; 'I' for Inactive)
REMARK    1  A    between atoms: C3_3  and  C5_5 
REMARK    2  A    between atoms: C4_4  and  C6_6 
REMARK    3  A    between atoms: C5_5  and  C7_7 
REMARK    4  A    between atoms: C6_6  and  C7_7 
ROOT
HETATM    1  C1  UNL     1     -34.880   4.437   5.689  1.00 20.00     0.059 C 
HETATM    2  C4  UNL     1     -34.499   5.676   6.380  1.00 20.00     0.124 C 
HETATM    3  N8  UNL     1     -35.183   3.457   5.146  1.00 20.00    -0.197 NA
ENDROOT
BRANCH   2   4
HETATM    4  C6  UNL     1     -33.756   6.646   5.459  1.00 20.00     0.014 C 
BRANCH   4   5
HETATM    5  C7  UNL     1     -34.065   6.408   3.974  1.00 20.00     0.006 C 
BRANCH   5   6
HETATM    6  C5  UNL     1     -32.805   6.222   3.118  1.00 20.00     0.050 C 
BRANCH   6   7
HETATM    7  C3  UNL     1     -32.001   7.476   2.913  1.00 20.00     0.002 C 
HETATM    8  C2  UNL     1     -32.108   8.269   1.839  1.00 20.00     0.032 C 
HETATM    9 CL9  UNL     1     -30.921   7.905   4.197  1.00 20.00    -0.090 Cl
ENDBRANCH   6   7
ENDBRANCH   5   6
ENDBRANCH   4   5
ENDBRANCH   2   4
TORSDOF 4
ENDMDL
MODEL 5
REMARK VINA RESULT:      -4.4      3.249      5.037
REMARK  4 active torsions:
REMARK  status: ('A' for Active; 'I' for Inactive)
REMARK    1  A    between atoms: C3_3  and  C5_5 
REMARK    2  A    between atoms: C4_4  and  C6_6 
REMARK    3  A    between atoms: C5_5  and  C7_7 
REMARK    4  A    between atoms: C6_6  and  C7_7 
ROOT
HETATM    1  C1  UNL     1     -35.023   4.660   4.987  1.00 20.00     0.059 C 
HETATM    2  C4  UNL     1     -34.858   5.394   3.725  1.00 20.00     0.124 C 
HETATM    3  N8  UNL     1     -35.155   4.078   5.983  1.00 20.00    -0.197 NA
ENDROOT
BRANCH   2   4
HETATM    4  C6  UNL     1     -33.910   6.586   3.870  1.00 20.00     0.014 C 
BRANCH   4   5
HETATM    5  C7  UNL     1     -32.661   6.461   2.987  1.00 20.00     0.006 C 
BRANCH   5   6
HETATM    6  C5  UNL     1     -31.805   7.735   2.969  1.00 20.00     0.050 C 
BRANCH   6   7
HETATM    7  C3  UNL     1     -32.031   8.620   1.774  1.00 20.00     0.002 C 
HETATM    8  C2  UNL     1     -31.704   8.286   0.520  1.00 20.00     0.032 C 
HETATM    9 CL9  UNL     1     -32.814  10.134   2.086  1.00 20.00    -0.090 Cl
ENDBRANCH   6   7
ENDBRANCH   5   6
ENDBRANCH   4   5
ENDBRANCH   2   4
TORSDOF 4
ENDMDL
MODEL 6
REMARK VINA RESULT:      -4.3      3.525      5.168
REMARK  4 active torsions:
REMARK  status: ('A' for Active; 'I' for Inactive)
REMARK    1  A    between atoms: C3_3  and  C5_5 
REMARK    2  A    between atoms: C4_4  and  C6_6 
REMARK    3  A    between atoms: C5_5  and  C7_7 
REMARK    4  A    between atoms: C6_6  and  C7_7 
ROOT
HETATM    1  C1  UNL     1     -35.016   4.705   5.092  1.00 20.00     0.059 C 
HETATM    2  C4  UNL     1     -34.832   5.411   3.817  1.00 20.00     0.124 C 
HETATM    3  N8  UNL     1     -35.165   4.145   6.098  1.00 20.00    -0.197 NA
ENDROOT
BRANCH   2   4
HETATM    4  C6  UNL     1     -33.821   6.554   3.931  1.00 20.00     0.014 C 
BRANCH   4   5
HETATM    5  C7  UNL     1     -32.696   6.457   2.893  1.00 20.00     0.006 C 
BRANCH   5   6
HETATM    6  C5  UNL     1     -31.781   7.689   2.877  1.00 20.00     0.050 C 
BRANCH   6   7
HETATM    7  C3  UNL     1     -32.103   8.690   1.802  1.00 20.00     0.002 C 
HETATM    8  C2  UNL     1     -32.769   9.832   2.015  1.00 20.00     0.032 C 
HETATM    9 CL9  UNL     1     -31.507   8.323   0.218  1.00 20.00    -0.090 Cl
ENDBRANCH   6   7
ENDBRANCH   5   6
ENDBRANCH   4   5
ENDBRANCH   2   4
TORSDOF 4
ENDMDL
MODEL 7
REMARK VINA RESULT:      -4.2      1.524      1.717
REMARK  4 active torsions:
REMARK  status: ('A' for Active; 'I' for Inactive)
REMARK    1  A    between atoms: C3_3  and  C5_5 
REMARK    2  A    between atoms: C4_4  and  C6_6 
REMARK    3  A    between atoms: C5_5  and  C7_7 
REMARK    4  A    between atoms: C6_6  and  C7_7 
ROOT
HETATM    1  C1  UNL     1     -32.251   9.106   1.637  1.00 20.00     0.059 C 
HETATM    2  C4  UNL     1     -31.882   7.703   1.874  1.00 20.00     0.124 C 
HETATM    3  N8  UNL     1     -32.542  10.213   1.447  1.00 20.00    -0.197 NA
ENDROOT
BRANCH   2   4
HETATM    4  C6  UNL     1     -31.903   7.344   3.361  1.00 20.00     0.014 C 
BRANCH   4   5
HETATM    5  C7  UNL     1     -32.751   6.100   3.659  1.00 20.00     0.006 C 
BRANCH   5   6
HETATM    6  C5  UNL     1     -33.639   6.257   4.900  1.00 20.00     0.050 C 
BRANCH   6   7
HETATM    7  C3  UNL     1     -34.787   5.289   4.972  1.00 20.00     0.002 C 
HETATM    8  C2  UNL     1     -34.923   4.355   5.921  1.00 20.00     0.032 C 
HETATM    9 CL9  UNL     1     -36.011   5.470   3.760  1.00 20.00    -0.090 Cl
ENDBRANCH   6   7
ENDBRANCH   5   6
ENDBRANCH   4   5
ENDBRANCH   2   4
TORSDOF 4
ENDMDL
MODEL 8
REMARK VINA RESULT:      -3.9     11.646     12.727
REMARK  4 active torsions:
REMARK  status: ('A' for Active; 'I' for Inactive)
REMARK    1  A    between atoms: C3_3  and  C5_5 
REMARK    2  A    between atoms: C4_4  and  C6_6 
REMARK    3  A    between atoms: C5_5  and  C7_7 
REMARK    4  A    between atoms: C6_6  and  C7_7 
ROOT
HETATM    1  C1  UNL     1     -35.081  13.474  -5.373  1.00 20.00     0.059 C 
HETATM    2  C4  UNL     1     -35.227  14.358  -6.538  1.00 20.00     0.124 C 
HETATM    3  N8  UNL     1     -34.969  12.774  -4.454  1.00 20.00    -0.197 NA
ENDROOT
BRANCH   2   4
HETATM    4  C6  UNL     1     -34.152  15.445  -6.575  1.00 20.00     0.014 C 
BRANCH   4   5
HETATM    5  C7  UNL     1     -34.506  16.659  -5.706  1.00 20.00     0.006 C 
BRANCH   5   6
HETATM    6  C5  UNL     1     -33.456  16.955  -4.627  1.00 20.00     0.050 C 
BRANCH   6   7
HETATM    7  C3  UNL     1     -33.450  15.983  -3.480  1.00 20.00     0.002 C 
HETATM    8  C2  UNL     1     -34.333  16.004  -2.474  1.00 20.00     0.032 C 
HETATM    9 CL9  UNL     1     -32.239  14.746  -3.537  1.00 20.00    -0.090 Cl
ENDBRANCH   6   7
ENDBRANCH   5   6
ENDBRANCH   4   5
ENDBRANCH   2   4
TORSDOF 4
ENDMDL
MODEL 9
REMARK VINA RESULT:      -3.9     11.098     11.810
REMARK  4 active torsions:
REMARK  status: ('A' for Active; 'I' for Inactive)
REMARK    1  A    between atoms: C3_3  and  C5_5 
REMARK    2  A    between atoms: C4_4  and  C6_6 
REMARK    3  A    between atoms: C5_5  and  C7_7 
REMARK    4  A    between atoms: C6_6  and  C7_7 
ROOT
HETATM    1  C1  UNL     1     -34.142  13.578  -4.132  1.00 20.00     0.059 C 
HETATM    2  C4  UNL     1     -33.261  14.645  -3.638  1.00 20.00     0.124 C 
HETATM    3  N8  UNL     1     -34.836  12.733  -4.522  1.00 20.00    -0.197 NA
ENDROOT
BRANCH   2   4
HETATM    4  C6  UNL     1     -33.773  16.036  -4.014  1.00 20.00     0.014 C 
BRANCH   4   5
HETATM    5  C7  UNL     1     -33.719  17.025  -2.842  1.00 20.00     0.006 C 
BRANCH   5   6
HETATM    6  C5  UNL     1     -34.506  16.548  -1.614  1.00 20.00     0.050 C 
BRANCH   6   7
HETATM    7  C3  UNL     1     -34.280  17.366  -0.373  1.00 20.00     0.002 C 
HETATM    8  C2  UNL     1     -35.105  17.372   0.682  1.00 20.00     0.032 C 
HETATM    9 CL9  UNL     1     -32.822  18.300  -0.332  1.00 20.00    -0.090 Cl
ENDBRANCH   6   7
ENDBRANCH   5   6
ENDBRANCH   4   5
ENDBRANCH   2   4
TORSDOF 4
ENDMDL
