MODEL 1
REMARK VINA RESULT:      -4.3      0.000      0.000
REMARK  3 active torsions:
REMARK  status: ('A' for Active; 'I' for Inactive)
REMARK    1  A    between atoms: C1_1  and  C7_7 
REMARK    2  A    between atoms: C5_5  and  C6_6 
REMARK    3  A    between atoms: C6_6  and  C7_7 
ROOT
HETATM    1  C3  UNL     1     -35.988   6.107   3.351  1.00 20.00     0.024 C 
HETATM    2  C4  UNL     1     -34.047   4.730   2.638  1.00 20.00     0.024 C 
HETATM    3  C7  UNL     1     -34.603   5.592   3.790  1.00 20.00     0.029 C 
ENDROOT
BRANCH   3   4
HETATM    4  C1  UNL     1     -34.765   4.713   5.050  1.00 20.00     0.226 C 
HETATM    5  O8  UNL     1     -35.087   3.528   4.979  1.00 20.00    -0.279 OA
HETATM    6 CL9  UNL     1     -34.454   5.544   6.557  1.00 20.00    -0.043 Cl
ENDBRANCH   3   4
BRANCH   3   7
HETATM    7  C6  UNL     1     -33.668   6.803   4.049  1.00 20.00     0.017 C 
BRANCH   7   8
HETATM    8  C5  UNL     1     -32.301   6.723   3.357  1.00 20.00    -0.003 C 
HETATM    9  C2  UNL     1     -32.102   7.886   2.396  1.00 20.00     0.005 C 
ENDBRANCH   7   8
ENDBRANCH   3   7
TORSDOF 3
ENDMDL
MODEL 2
REMARK VINA RESULT:      -4.3     11.932     12.467
REMARK  3 active torsions:
REMARK  status: ('A' for Active; 'I' for Inactive)
REMARK    1  A    between atoms: C1_1  and  C7_7 
REMARK    2  A    between atoms: C5_5  and  C6_6 
REMARK    3  A    between atoms: C6_6  and  C7_7 
ROOT
HETATM    1  C3  UNL     1     -33.553  16.124  -4.924  1.00 20.00     0.024 C 
HETATM    2  C4  UNL     1     -32.506  14.350  -3.535  1.00 20.00     0.024 C 
HETATM    3  C7  UNL     1     -33.859  14.935  -3.992  1.00 20.00     0.029 C 
ENDROOT
BRANCH   3   4
HETATM    4  C1  UNL     1     -34.636  13.857  -4.782  1.00 20.00     0.226 C 
HETATM    5  O8  UNL     1     -34.958  12.785  -4.275  1.00 20.00    -0.279 OA
HETATM    6 CL9  UNL     1     -35.005  14.298  -6.434  1.00 20.00    -0.043 Cl
ENDBRANCH   3   4
BRANCH   3   7
HETATM    7  C6  UNL     1     -34.663  15.441  -2.765  1.00 20.00     0.017 C 
BRANCH   7   8
HETATM    8  C5  UNL     1     -33.999  16.581  -1.984  1.00 20.00    -0.003 C 
HETATM    9  C2  UNL     1     -34.658  16.775  -0.626  1.00 20.00     0.005 C 
ENDBRANCH   7   8
ENDBRANCH   3   7
TORSDOF 3
ENDMDL
MODEL 3
REMARK VINA RESULT:      -4.2     11.343     12.100
REMARK  3 active torsions:
REMARK  status: ('A' for Active; 'I' for Inactive)
REMARK    1  A    between atoms: C1_1  and  C7_7 
REMARK    2  A    between atoms: C5_5  and  C6_6 
REMARK    3  A    between atoms: C6_6  and  C7_7 
ROOT
HETATM    1  C3  UNL     1     -36.369  15.129  -3.392  1.00 20.00     0.024 C 
HETATM    2  C4  UNL     1     -34.878  15.756  -5.278  1.00 20.00     0.024 C 
HETATM    3  C7  UNL     1     -34.902  15.134  -3.866  1.00 20.00     0.029 C 
ENDROOT
BRANCH   3   4
HETATM    4  C1  UNL     1     -34.389  13.678  -3.944  1.00 20.00     0.226 C 
HETATM    5  O8  UNL     1     -35.115  12.751  -4.298  1.00 20.00    -0.279 OA
HETATM    6 CL9  UNL     1     -32.713  13.477  -3.488  1.00 20.00    -0.043 Cl
ENDBRANCH   3   4
BRANCH   3   7
HETATM    7  C6  UNL     1     -34.054  15.992  -2.891  1.00 20.00     0.017 C 
BRANCH   7   8
HETATM    8  C5  UNL     1     -34.693  16.230  -1.517  1.00 20.00    -0.003 C 
HETATM    9  C2  UNL     1     -34.019  17.384  -0.789  1.00 20.00     0.005 C 
ENDBRANCH   7   8
ENDBRANCH   3   7
TORSDOF 3
ENDMDL
MODEL 4
REMARK VINA RESULT:      -4.1     12.046     12.608
REMARK  3 active torsions:
REMARK  status: ('A' for Active; 'I' for Inactive)
REMARK    1  A    between atoms: C1_1  and  C7_7 
REMARK    2  A    between atoms: C5_5  and  C6_6 
REMARK    3  A    between atoms: C6_6  and  C7_7 
ROOT
HETATM    1  C3  UNL     1     -36.790  14.835  -3.712  1.00 20.00     0.024 C 
HETATM    2  C4  UNL     1     -35.212  16.270  -4.986  1.00 20.00     0.024 C 
HETATM    3  C7  UNL     1     -35.339  14.935  -4.223  1.00 20.00     0.029 C 
ENDROOT
BRANCH   3   4
HETATM    4  C1  UNL     1     -35.063  13.766  -5.197  1.00 20.00     0.226 C 
HETATM    5  O8  UNL     1     -34.767  12.642  -4.796  1.00 20.00    -0.279 OA
HETATM    6 CL9  UNL     1     -35.208  14.186  -6.889  1.00 20.00    -0.043 Cl
ENDBRANCH   3   4
BRANCH   3   7
HETATM    7  C6  UNL     1     -34.369  14.917  -3.013  1.00 20.00     0.017 C 
BRANCH   7   8
HETATM    8  C5  UNL     1     -34.004  16.299  -2.457  1.00 20.00    -0.003 C 
HETATM    9  C2  UNL     1     -34.618  16.519  -1.082  1.00 20.00     0.005 C 
ENDBRANCH   7   8
ENDBRANCH   3   7
TORSDOF 3
ENDMDL
MODEL 5
REMARK VINA RESULT:      -4.0     12.270     13.051
REMARK  3 active torsions:
REMARK  status: ('A' for Active; 'I' for Inactive)
REMARK    1  A    between atoms: C1_1  and  C7_7 
REMARK    2  A    between atoms: C5_5  and  C6_6 
REMARK    3  A    between atoms: C6_6  and  C7_7 
ROOT
HETATM    1  C3  UNL     1     -33.220  13.823  -3.667  1.00 20.00     0.024 C 
HETATM    2  C4  UNL     1     -35.522  14.751  -3.771  1.00 20.00     0.024 C 
HETATM    3  C7  UNL     1     -34.027  15.131  -3.778  1.00 20.00     0.029 C 
ENDROOT
BRANCH   3   4
HETATM    4  C1  UNL     1     -33.686  15.826  -5.116  1.00 20.00     0.226 C 
HETATM    5  O8  UNL     1     -33.001  16.846  -5.163  1.00 20.00    -0.279 OA
HETATM    6 CL9  UNL     1     -34.354  15.041  -6.528  1.00 20.00    -0.043 Cl
ENDBRANCH   3   4
BRANCH   3   7
HETATM    7  C6  UNL     1     -33.702  16.036  -2.560  1.00 20.00     0.017 C 
BRANCH   7   8
HETATM    8  C5  UNL     1     -34.871  16.266  -1.595  1.00 20.00    -0.003 C 
HETATM    9  C2  UNL     1     -34.453  17.136  -0.419  1.00 20.00     0.005 C 
ENDBRANCH   7   8
ENDBRANCH   3   7
TORSDOF 3
ENDMDL
MODEL 6
REMARK VINA RESULT:      -4.0     11.373     12.605
REMARK  3 active torsions:
REMARK  status: ('A' for Active; 'I' for Inactive)
REMARK    1  A    between atoms: C1_1  and  C7_7 
REMARK    2  A    between atoms: C5_5  and  C6_6 
REMARK    3  A    between atoms: C6_6  and  C7_7 
ROOT
HETATM    1  C3  UNL     1     -34.886  15.716  -2.532  1.00 20.00     0.024 C 
HETATM    2  C4  UNL     1     -36.824  14.760  -3.758  1.00 20.00     0.024 C 
HETATM    3  C7  UNL     1     -35.306  15.022  -3.843  1.00 20.00     0.029 C 
ENDROOT
BRANCH   3   4
HETATM    4  C1  UNL     1     -34.564  13.672  -3.963  1.00 20.00     0.226 C 
HETATM    5  O8  UNL     1     -35.138  12.643  -4.314  1.00 20.00    -0.279 OA
HETATM    6 CL9  UNL     1     -32.864  13.744  -3.558  1.00 20.00    -0.043 Cl
ENDBRANCH   3   4
BRANCH   3   7
HETATM    7  C6  UNL     1     -34.993  15.960  -5.040  1.00 20.00     0.017 C 
BRANCH   7   8
HETATM    8  C5  UNL     1     -35.569  15.503  -6.386  1.00 20.00    -0.003 C 
HETATM    9  C2  UNL     1     -34.469  15.021  -7.320  1.00 20.00     0.005 C 
ENDBRANCH   7   8
ENDBRANCH   3   7
TORSDOF 3
ENDMDL
MODEL 7
REMARK VINA RESULT:      -3.9     11.601     12.729
REMARK  3 active torsions:
REMARK  status: ('A' for Active; 'I' for Inactive)
REMARK    1  A    between atoms: C1_1  and  C7_7 
REMARK    2  A    between atoms: C5_5  and  C6_6 
REMARK    3  A    between atoms: C6_6  and  C7_7 
ROOT
HETATM    1  C3  UNL     1     -32.944  14.212  -3.666  1.00 20.00     0.024 C 
HETATM    2  C4  UNL     1     -34.632  15.647  -2.540  1.00 20.00     0.024 C 
HETATM    3  C7  UNL     1     -34.308  14.906  -3.854  1.00 20.00     0.029 C 
ENDROOT
BRANCH   3   4
HETATM    4  C1  UNL     1     -35.391  13.833  -4.112  1.00 20.00     0.226 C 
HETATM    5  O8  UNL     1     -35.103  12.661  -4.342  1.00 20.00    -0.279 OA
HETATM    6 CL9  UNL     1     -37.032  14.434  -4.048  1.00 20.00    -0.043 Cl
ENDBRANCH   3   4
BRANCH   3   7
HETATM    7  C6  UNL     1     -34.208  15.918  -5.026  1.00 20.00     0.017 C 
BRANCH   7   8
HETATM    8  C5  UNL     1     -34.243  15.291  -6.425  1.00 20.00    -0.003 C 
HETATM    9  C2  UNL     1     -35.361  15.885  -7.268  1.00 20.00     0.005 C 
ENDBRANCH   7   8
ENDBRANCH   3   7
TORSDOF 3
ENDMDL
MODEL 8
REMARK VINA RESULT:      -3.8      0.746      1.362
REMARK  3 active torsions:
REMARK  status: ('A' for Active; 'I' for Inactive)
REMARK    1  A    between atoms: C1_1  and  C7_7 
REMARK    2  A    between atoms: C5_5  and  C6_6 
REMARK    3  A    between atoms: C6_6  and  C7_7 
ROOT
HETATM    1  C3  UNL     1     -34.222   6.870   5.203  1.00 20.00     0.024 C 
HETATM    2  C4  UNL     1     -35.825   5.984   3.525  1.00 20.00     0.024 C 
HETATM    3  C7  UNL     1     -34.499   5.687   4.255  1.00 20.00     0.029 C 
ENDROOT
BRANCH   3   4
HETATM    4  C1  UNL     1     -34.657   4.395   5.089  1.00 20.00     0.226 C 
HETATM    5  O8  UNL     1     -35.089   3.353   4.599  1.00 20.00    -0.279 OA
HETATM    6 CL9  UNL     1     -34.176   4.552   6.763  1.00 20.00    -0.043 Cl
ENDBRANCH   3   4
BRANCH   3   7
HETATM    7  C6  UNL     1     -33.340   5.571   3.230  1.00 20.00     0.017 C 
BRANCH   7   8
HETATM    8  C5  UNL     1     -32.192   6.567   3.438  1.00 20.00    -0.003 C 
HETATM    9  C2  UNL     1     -32.231   7.678   2.398  1.00 20.00     0.005 C 
ENDBRANCH   7   8
ENDBRANCH   3   7
TORSDOF 3
ENDMDL
MODEL 9
REMARK VINA RESULT:      -3.8      1.350      1.350
REMARK  3 active torsions:
REMARK  status: ('A' for Active; 'I' for Inactive)
REMARK    1  A    between atoms: C1_1  and  C7_7 
REMARK    2  A    between atoms: C5_5  and  C6_6 
REMARK    3  A    between atoms: C6_6  and  C7_7 
ROOT
HETATM    1  C3  UNL     1     -35.897   5.984   3.506  1.00 20.00     0.024 C 
HETATM    2  C4  UNL     1     -33.781   4.727   3.167  1.00 20.00     0.024 C 
HETATM    3  C7  UNL     1     -34.432   5.871   3.972  1.00 20.00     0.029 C 
ENDROOT
BRANCH   3   4
HETATM    4  C1  UNL     1     -34.404   5.513   5.476  1.00 20.00     0.226 C 
HETATM    5  O8  UNL     1     -34.049   6.323   6.330  1.00 20.00    -0.279 OA
HETATM    6 CL9  UNL     1     -34.912   3.880   5.839  1.00 20.00    -0.043 Cl
ENDBRANCH   3   4
BRANCH   3   7
HETATM    7  C6  UNL     1     -33.699   7.209   3.685  1.00 20.00     0.017 C 
BRANCH   7   8
HETATM    8  C5  UNL     1     -32.309   7.062   3.055  1.00 20.00    -0.003 C 
HETATM    9  C2  UNL     1     -32.033   8.182   2.062  1.00 20.00     0.005 C 
ENDBRANCH   7   8
ENDBRANCH   3   7
TORSDOF 3
ENDMDL
