MODEL 1
REMARK VINA RESULT:      -4.2      0.000      0.000
REMARK  3 active torsions:
REMARK  status: ('A' for Active; 'I' for Inactive)
REMARK    1  A    between atoms: C4_4  and  C6_6 
REMARK    2  A    between atoms: C5_5  and  C6_6 
REMARK    3  A    between atoms: C6_6  and  N7_7 
ROOT
HETATM    1  C1  UNL     1     -32.523   6.930   3.305  1.00 20.00     0.158 C 
HETATM    2  N7  UNL     1     -32.812   6.111   4.092  1.00 20.00    -0.270 NA
HETATM    3  S8  UNL     1     -32.097   8.028   2.232  1.00 20.00    -0.055 SA
ENDROOT
BRANCH   2   4
HETATM    4  C6  UNL     1     -34.160   6.253   4.657  1.00 20.00     0.109 C 
BRANCH   4   5
HETATM    5  C4  UNL     1     -34.063   6.170   6.185  1.00 20.00     0.023 C 
HETATM    6  C2  UNL     1     -33.398   7.397   6.796  1.00 20.00     0.007 C 
ENDBRANCH   4   5
BRANCH   4   7
HETATM    7  C5  UNL     1     -35.044   5.128   4.104  1.00 20.00     0.023 C 
HETATM    8  C3  UNL     1     -35.159   3.968   5.050  1.00 20.00     0.007 C 
ENDBRANCH   4   7
ENDBRANCH   2   4
TORSDOF 3
ENDMDL
MODEL 2
REMARK VINA RESULT:      -3.6     12.143     12.811
REMARK  3 active torsions:
REMARK  status: ('A' for Active; 'I' for Inactive)
REMARK    1  A    between atoms: C4_4  and  C6_6 
REMARK    2  A    between atoms: C5_5  and  C6_6 
REMARK    3  A    between atoms: C6_6  and  N7_7 
ROOT
HETATM    1  C1  UNL     1     -33.528  16.313  -5.272  1.00 20.00     0.158 C 
HETATM    2  N7  UNL     1     -32.852  16.059  -4.348  1.00 20.00    -0.270 NA
HETATM    3  S8  UNL     1     -34.420  16.681  -6.539  1.00 20.00    -0.055 SA
ENDROOT
BRANCH   2   4
HETATM    4  C6  UNL     1     -33.437  15.095  -3.407  1.00 20.00     0.109 C 
BRANCH   4   5
HETATM    5  C4  UNL     1     -33.696  13.779  -4.150  1.00 20.00     0.023 C 
HETATM    6  C2  UNL     1     -35.166  13.383  -4.142  1.00 20.00     0.007 C 
ENDBRANCH   4   5
BRANCH   4   7
HETATM    7  C5  UNL     1     -34.745  15.679  -2.857  1.00 20.00     0.023 C 
HETATM    8  C3  UNL     1     -34.569  16.316  -1.510  1.00 20.00     0.007 C 
ENDBRANCH   4   7
ENDBRANCH   2   4
TORSDOF 3
ENDMDL
MODEL 3
REMARK VINA RESULT:      -3.5     12.343     13.028
REMARK  3 active torsions:
REMARK  status: ('A' for Active; 'I' for Inactive)
REMARK    1  A    between atoms: C4_4  and  C6_6 
REMARK    2  A    between atoms: C5_5  and  C6_6 
REMARK    3  A    between atoms: C6_6  and  N7_7 
ROOT
HETATM    1  C1  UNL     1     -33.387  17.326  -5.251  1.00 20.00     0.158 C 
HETATM    2  N7  UNL     1     -32.995  16.326  -4.782  1.00 20.00    -0.270 NA
HETATM    3  S8  UNL     1     -33.889  18.688  -5.908  1.00 20.00    -0.055 SA
ENDROOT
BRANCH   2   4
HETATM    4  C6  UNL     1     -33.884  15.731  -3.775  1.00 20.00     0.109 C 
BRANCH   4   5
HETATM    5  C4  UNL     1     -33.599  16.388  -2.419  1.00 20.00     0.023 C 
HETATM    6  C2  UNL     1     -34.792  16.319  -1.474  1.00 20.00     0.007 C 
ENDBRANCH   4   5
BRANCH   4   7
HETATM    7  C5  UNL     1     -33.619  14.222  -3.718  1.00 20.00     0.023 C 
HETATM    8  C3  UNL     1     -34.806  13.411  -4.150  1.00 20.00     0.007 C 
ENDBRANCH   4   7
ENDBRANCH   2   4
TORSDOF 3
ENDMDL
MODEL 4
REMARK VINA RESULT:      -3.4      1.081      2.441
REMARK  3 active torsions:
REMARK  status: ('A' for Active; 'I' for Inactive)
REMARK    1  A    between atoms: C4_4  and  C6_6 
REMARK    2  A    between atoms: C5_5  and  C6_6 
REMARK    3  A    between atoms: C6_6  and  N7_7 
ROOT
HETATM    1  C1  UNL     1     -32.152   7.163   2.762  1.00 20.00     0.158 C 
HETATM    2  N7  UNL     1     -32.070   6.161   3.363  1.00 20.00    -0.270 NA
HETATM    3  S8  UNL     1     -32.228   8.521   1.933  1.00 20.00    -0.055 SA
ENDROOT
BRANCH   2   4
HETATM    4  C6  UNL     1     -33.288   5.783   4.093  1.00 20.00     0.109 C 
BRANCH   4   5
HETATM    5  C4  UNL     1     -34.415   5.551   3.080  1.00 20.00     0.023 C 
HETATM    6  C2  UNL     1     -35.782   5.436   3.742  1.00 20.00     0.007 C 
ENDBRANCH   4   5
BRANCH   4   7
HETATM    7  C5  UNL     1     -33.650   6.915   5.063  1.00 20.00     0.023 C 
HETATM    8  C3  UNL     1     -33.954   6.413   6.445  1.00 20.00     0.007 C 
ENDBRANCH   4   7
ENDBRANCH   2   4
TORSDOF 3
ENDMDL
MODEL 5
REMARK VINA RESULT:      -3.4      0.811      2.335
REMARK  3 active torsions:
REMARK  status: ('A' for Active; 'I' for Inactive)
REMARK    1  A    between atoms: C4_4  and  C6_6 
REMARK    2  A    between atoms: C5_5  and  C6_6 
REMARK    3  A    between atoms: C6_6  and  N7_7 
ROOT
HETATM    1  C1  UNL     1     -32.868   6.704   2.831  1.00 20.00     0.158 C 
HETATM    2  N7  UNL     1     -33.589   5.810   3.065  1.00 20.00    -0.270 NA
HETATM    3  S8  UNL     1     -31.891   7.912   2.478  1.00 20.00    -0.055 SA
ENDROOT
BRANCH   2   4
HETATM    4  C6  UNL     1     -33.859   5.597   4.493  1.00 20.00     0.109 C 
BRANCH   4   5
HETATM    5  C4  UNL     1     -35.134   4.757   4.631  1.00 20.00     0.023 C 
HETATM    6  C2  UNL     1     -35.153   3.930   5.911  1.00 20.00     0.007 C 
ENDBRANCH   4   5
BRANCH   4   7
HETATM    7  C5  UNL     1     -34.028   6.963   5.169  1.00 20.00     0.023 C 
HETATM    8  C3  UNL     1     -33.576   6.957   6.600  1.00 20.00     0.007 C 
ENDBRANCH   4   7
ENDBRANCH   2   4
TORSDOF 3
ENDMDL
MODEL 6
REMARK VINA RESULT:      -3.4     11.886     12.878
REMARK  3 active torsions:
REMARK  status: ('A' for Active; 'I' for Inactive)
REMARK    1  A    between atoms: C4_4  and  C6_6 
REMARK    2  A    between atoms: C5_5  and  C6_6 
REMARK    3  A    between atoms: C6_6  and  N7_7 
ROOT
HETATM    1  C1  UNL     1     -33.766  14.412  -4.058  1.00 20.00     0.158 C 
HETATM    2  N7  UNL     1     -33.052  15.190  -3.550  1.00 20.00    -0.270 NA
HETATM    3  S8  UNL     1     -34.707  13.332  -4.755  1.00 20.00    -0.055 SA
ENDROOT
BRANCH   2   4
HETATM    4  C6  UNL     1     -33.716  16.411  -3.073  1.00 20.00     0.109 C 
BRANCH   4   5
HETATM    5  C4  UNL     1     -34.747  16.024  -2.006  1.00 20.00     0.023 C 
HETATM    6  C2  UNL     1     -34.546  16.780  -0.699  1.00 20.00     0.007 C 
ENDBRANCH   4   5
BRANCH   4   7
HETATM    7  C5  UNL     1     -34.395  17.097  -4.265  1.00 20.00     0.023 C 
HETATM    8  C3  UNL     1     -33.578  18.228  -4.820  1.00 20.00     0.007 C 
ENDBRANCH   4   7
ENDBRANCH   2   4
TORSDOF 3
ENDMDL
MODEL 7
REMARK VINA RESULT:      -3.4     12.146     12.653
REMARK  3 active torsions:
REMARK  status: ('A' for Active; 'I' for Inactive)
REMARK    1  A    between atoms: C4_4  and  C6_6 
REMARK    2  A    between atoms: C5_5  and  C6_6 
REMARK    3  A    between atoms: C6_6  and  N7_7 
ROOT
HETATM    1  C1  UNL     1     -34.725  16.959  -4.599  1.00 20.00     0.158 C 
HETATM    2  N7  UNL     1     -35.506  16.345  -3.977  1.00 20.00    -0.270 NA
HETATM    3  S8  UNL     1     -33.691  17.807  -5.465  1.00 20.00    -0.055 SA
ENDROOT
BRANCH   2   4
HETATM    4  C6  UNL     1     -34.924  15.502  -2.924  1.00 20.00     0.109 C 
BRANCH   4   5
HETATM    5  C4  UNL     1     -34.012  16.369  -2.048  1.00 20.00     0.023 C 
HETATM    6  C2  UNL     1     -34.641  16.704  -0.702  1.00 20.00     0.007 C 
ENDBRANCH   4   5
BRANCH   4   7
HETATM    7  C5  UNL     1     -34.131  14.369  -3.587  1.00 20.00     0.023 C 
HETATM    8  C3  UNL     1     -35.019  13.329  -4.205  1.00 20.00     0.007 C 
ENDBRANCH   4   7
ENDBRANCH   2   4
TORSDOF 3
ENDMDL
MODEL 8
REMARK VINA RESULT:      -3.3      9.805     10.459
REMARK  3 active torsions:
REMARK  status: ('A' for Active; 'I' for Inactive)
REMARK    1  A    between atoms: C4_4  and  C6_6 
REMARK    2  A    between atoms: C5_5  and  C6_6 
REMARK    3  A    between atoms: C6_6  and  N7_7 
ROOT
HETATM    1  C1  UNL     1     -41.917   7.131  -2.681  1.00 20.00     0.158 C 
HETATM    2  N7  UNL     1     -41.208   6.593  -1.920  1.00 20.00    -0.270 NA
HETATM    3  S8  UNL     1     -42.856   7.887  -3.723  1.00 20.00    -0.055 SA
ENDROOT
BRANCH   2   4
HETATM    4  C6  UNL     1     -41.794   5.419  -1.259  1.00 20.00     0.109 C 
BRANCH   4   5
HETATM    5  C4  UNL     1     -41.730   5.628   0.258  1.00 20.00     0.023 C 
HETATM    6  C2  UNL     1     -43.076   5.401   0.936  1.00 20.00     0.007 C 
ENDBRANCH   4   5
BRANCH   4   7
HETATM    7  C5  UNL     1     -40.998   4.175  -1.674  1.00 20.00     0.023 C 
HETATM    8  C3  UNL     1     -41.748   3.308  -2.642  1.00 20.00     0.007 C 
ENDBRANCH   4   7
ENDBRANCH   2   4
TORSDOF 3
ENDMDL
MODEL 9
REMARK VINA RESULT:      -3.3     11.679     12.636
REMARK  3 active torsions:
REMARK  status: ('A' for Active; 'I' for Inactive)
REMARK    1  A    between atoms: C4_4  and  C6_6 
REMARK    2  A    between atoms: C5_5  and  C6_6 
REMARK    3  A    between atoms: C6_6  and  N7_7 
ROOT
HETATM    1  C1  UNL     1     -34.679  16.260  -1.894  1.00 20.00     0.158 C 
HETATM    2  N7  UNL     1     -34.733  15.711  -2.927  1.00 20.00    -0.270 NA
HETATM    3  S8  UNL     1     -34.642  17.010  -0.488  1.00 20.00    -0.055 SA
ENDROOT
BRANCH   2   4
HETATM    4  C6  UNL     1     -33.431  15.318  -3.482  1.00 20.00     0.109 C 
BRANCH   4   5
HETATM    5  C4  UNL     1     -33.155  16.161  -4.733  1.00 20.00     0.023 C 
HETATM    6  C2  UNL     1     -34.422  16.778  -5.312  1.00 20.00     0.007 C 
ENDBRANCH   4   5
BRANCH   4   7
HETATM    7  C5  UNL     1     -33.476  13.824  -3.828  1.00 20.00     0.023 C 
HETATM    8  C3  UNL     1     -34.858  13.357  -4.178  1.00 20.00     0.007 C 
ENDBRANCH   4   7
ENDBRANCH   2   4
TORSDOF 3
ENDMDL
