MODEL 1
REMARK VINA RESULT:      -4.0      0.000      0.000
REMARK  1 active torsions:
REMARK  status: ('A' for Active; 'I' for Inactive)
REMARK    1  A    between atoms: C1_1  and  C6_6 
ROOT
HETATM    1  C2  UNL     1     -33.090   6.582   5.262  1.00 20.00     0.022 C 
HETATM    2  C3  UNL     1     -34.229   5.356   3.342  1.00 20.00     0.022 C 
HETATM    3  C4  UNL     1     -34.204   6.276   6.256  1.00 20.00     0.074 C 
HETATM    4  C5  UNL     1     -35.435   4.949   4.177  1.00 20.00     0.074 C 
HETATM    5  C6  UNL     1     -33.587   6.662   3.817  1.00 20.00     0.048 C 
HETATM    6  S8  UNL     1     -34.991   4.676   5.916  1.00 20.00    -0.169 SA
ENDROOT
BRANCH   5   7
HETATM    7  C1  UNL     1     -32.437   6.990   2.913  1.00 20.00     0.235 C 
HETATM    8  O7  UNL     1     -32.303   8.072   2.352  1.00 20.00    -0.306 OA
ENDBRANCH   5   7
TORSDOF 1
ENDMDL
MODEL 2
REMARK VINA RESULT:      -3.8     11.821     12.758
REMARK  1 active torsions:
REMARK  status: ('A' for Active; 'I' for Inactive)
REMARK    1  A    between atoms: C1_1  and  C6_6 
ROOT
HETATM    1  C2  UNL     1     -34.706  15.472  -2.670  1.00 20.00     0.022 C 
HETATM    2  C3  UNL     1     -34.199  15.526  -5.166  1.00 20.00     0.022 C 
HETATM    3  C4  UNL     1     -33.872  16.710  -2.367  1.00 20.00     0.074 C 
HETATM    4  C5  UNL     1     -33.324  16.770  -5.068  1.00 20.00     0.074 C 
HETATM    5  C6  UNL     1     -34.194  14.691  -3.883  1.00 20.00     0.048 C 
HETATM    6  S8  UNL     1     -33.883  17.886  -3.751  1.00 20.00    -0.169 SA
ENDROOT
BRANCH   5   7
HETATM    7  C1  UNL     1     -35.052  13.480  -4.093  1.00 20.00     0.235 C 
HETATM    8  O7  UNL     1     -34.739  12.547  -4.825  1.00 20.00    -0.306 OA
ENDBRANCH   5   7
TORSDOF 1
ENDMDL
MODEL 3
REMARK VINA RESULT:      -3.6     11.702     12.833
REMARK  1 active torsions:
REMARK  status: ('A' for Active; 'I' for Inactive)
REMARK    1  A    between atoms: C1_1  and  C6_6 
ROOT
HETATM    1  C2  UNL     1     -33.315  15.924  -4.539  1.00 20.00     0.022 C 
HETATM    2  C3  UNL     1     -34.784  15.616  -2.481  1.00 20.00     0.022 C 
HETATM    3  C4  UNL     1     -33.612  17.414  -4.656  1.00 20.00     0.074 C 
HETATM    4  C5  UNL     1     -35.200  17.080  -2.428  1.00 20.00     0.074 C 
HETATM    5  C6  UNL     1     -34.461  15.137  -3.899  1.00 20.00     0.048 C 
HETATM    6  S8  UNL     1     -33.886  18.177  -3.032  1.00 20.00    -0.169 SA
ENDROOT
BRANCH   5   7
HETATM    7  C1  UNL     1     -34.098  13.684  -3.845  1.00 20.00     0.235 C 
HETATM    8  O7  UNL     1     -34.862  12.782  -4.171  1.00 20.00    -0.306 OA
ENDBRANCH   5   7
TORSDOF 1
ENDMDL
MODEL 4
REMARK VINA RESULT:      -3.5     11.738     12.346
REMARK  1 active torsions:
REMARK  status: ('A' for Active; 'I' for Inactive)
REMARK    1  A    between atoms: C1_1  and  C6_6 
ROOT
HETATM    1  C2  UNL     1     -35.850  15.110  -3.962  1.00 20.00     0.022 C 
HETATM    2  C3  UNL     1     -33.454  15.572  -3.230  1.00 20.00     0.022 C 
HETATM    3  C4  UNL     1     -36.442  16.197  -3.074  1.00 20.00     0.074 C 
HETATM    4  C5  UNL     1     -33.850  16.697  -2.282  1.00 20.00     0.074 C 
HETATM    5  C6  UNL     1     -34.554  14.521  -3.399  1.00 20.00     0.048 C 
HETATM    6  S8  UNL     1     -35.307  17.600  -2.877  1.00 20.00    -0.169 SA
ENDROOT
BRANCH   5   7
HETATM    7  C1  UNL     1     -34.056  13.446  -4.318  1.00 20.00     0.235 C 
HETATM    8  O7  UNL     1     -34.773  12.566  -4.782  1.00 20.00    -0.306 OA
ENDBRANCH   5   7
TORSDOF 1
ENDMDL
MODEL 5
REMARK VINA RESULT:      -3.5     11.529     12.300
REMARK  1 active torsions:
REMARK  status: ('A' for Active; 'I' for Inactive)
REMARK    1  A    between atoms: C1_1  and  C6_6 
ROOT
HETATM    1  C2  UNL     1     -35.505  16.199  -3.419  1.00 20.00     0.022 C 
HETATM    2  C3  UNL     1     -35.297  13.827  -4.324  1.00 20.00     0.022 C 
HETATM    3  C4  UNL     1     -34.119  16.192  -2.787  1.00 20.00     0.074 C 
HETATM    4  C5  UNL     1     -33.893  13.626  -3.767  1.00 20.00     0.074 C 
HETATM    5  C6  UNL     1     -36.133  14.805  -3.494  1.00 20.00     0.048 C 
HETATM    6  S8  UNL     1     -32.950  15.176  -3.736  1.00 20.00    -0.169 SA
ENDROOT
BRANCH   5   7
HETATM    7  C1  UNL     1     -37.499  14.907  -4.102  1.00 20.00     0.235 C 
HETATM    8  O7  UNL     1     -38.442  14.196  -3.772  1.00 20.00    -0.306 OA
ENDBRANCH   5   7
TORSDOF 1
ENDMDL
MODEL 6
REMARK VINA RESULT:      -3.4     11.915     12.747
REMARK  1 active torsions:
REMARK  status: ('A' for Active; 'I' for Inactive)
REMARK    1  A    between atoms: C1_1  and  C6_6 
ROOT
HETATM    1  C2  UNL     1     -33.644  17.166  -3.840  1.00 20.00     0.022 C 
HETATM    2  C3  UNL     1     -34.730  15.093  -2.832  1.00 20.00     0.022 C 
HETATM    3  C4  UNL     1     -33.261  16.463  -5.136  1.00 20.00     0.074 C 
HETATM    4  C5  UNL     1     -34.436  14.220  -4.046  1.00 20.00     0.074 C 
HETATM    5  C6  UNL     1     -33.706  16.215  -2.642  1.00 20.00     0.048 C 
HETATM    6  S8  UNL     1     -34.461  15.177  -5.588  1.00 20.00    -0.169 SA
ENDROOT
BRANCH   5   7
HETATM    7  C1  UNL     1     -34.063  16.990  -1.410  1.00 20.00     0.235 C 
HETATM    8  O7  UNL     1     -34.715  16.523  -0.482  1.00 20.00    -0.306 OA
ENDBRANCH   5   7
TORSDOF 1
ENDMDL
MODEL 7
REMARK VINA RESULT:      -3.3      9.764     10.732
REMARK  1 active torsions:
REMARK  status: ('A' for Active; 'I' for Inactive)
REMARK    1  A    between atoms: C1_1  and  C6_6 
ROOT
HETATM    1  C2  UNL     1     -42.544   5.474  -2.694  1.00 20.00     0.022 C 
HETATM    2  C3  UNL     1     -41.724   7.385  -1.224  1.00 20.00     0.022 C 
HETATM    3  C4  UNL     1     -41.747   4.415  -1.943  1.00 20.00     0.074 C 
HETATM    4  C5  UNL     1     -40.860   6.483  -0.351  1.00 20.00     0.074 C 
HETATM    5  C6  UNL     1     -41.888   6.855  -2.651  1.00 20.00     0.048 C 
HETATM    6  S8  UNL     1     -41.574   4.823  -0.182  1.00 20.00    -0.169 SA
ENDROOT
BRANCH   5   7
HETATM    7  C1  UNL     1     -42.721   7.827  -3.431  1.00 20.00     0.235 C 
HETATM    8  O7  UNL     1     -43.347   7.523  -4.441  1.00 20.00    -0.306 OA
ENDBRANCH   5   7
TORSDOF 1
ENDMDL
MODEL 8
REMARK VINA RESULT:      -3.3     12.365     13.511
REMARK  1 active torsions:
REMARK  status: ('A' for Active; 'I' for Inactive)
REMARK    1  A    between atoms: C1_1  and  C6_6 
ROOT
HETATM    1  C2  UNL     1     -34.778  13.745  -5.153  1.00 20.00     0.022 C 
HETATM    2  C3  UNL     1     -34.375  16.103  -6.026  1.00 20.00     0.022 C 
HETATM    3  C4  UNL     1     -33.709  13.850  -4.072  1.00 20.00     0.074 C 
HETATM    4  C5  UNL     1     -33.274  16.402  -5.017  1.00 20.00     0.074 C 
HETATM    5  C6  UNL     1     -34.478  14.616  -6.374  1.00 20.00     0.048 C 
HETATM    6  S8  UNL     1     -33.551  15.545  -3.441  1.00 20.00    -0.169 SA
ENDROOT
BRANCH   5   7
HETATM    7  C1  UNL     1     -35.561  14.434  -7.394  1.00 20.00     0.235 C 
HETATM    8  O7  UNL     1     -36.601  15.085  -7.402  1.00 20.00    -0.306 OA
ENDBRANCH   5   7
TORSDOF 1
ENDMDL
MODEL 9
REMARK VINA RESULT:      -3.3     12.795     13.908
REMARK  1 active torsions:
REMARK  status: ('A' for Active; 'I' for Inactive)
REMARK    1  A    between atoms: C1_1  and  C6_6 
ROOT
HETATM    1  C2  UNL     1     -34.445  16.124  -4.969  1.00 20.00     0.022 C 
HETATM    2  C3  UNL     1     -35.189  14.285  -6.567  1.00 20.00     0.022 C 
HETATM    3  C4  UNL     1     -34.113  17.105  -6.086  1.00 20.00     0.074 C 
HETATM    4  C5  UNL     1     -34.920  15.115  -7.815  1.00 20.00     0.074 C 
HETATM    5  C6  UNL     1     -34.283  14.662  -5.392  1.00 20.00     0.048 C 
HETATM    6  S8  UNL     1     -35.201  16.884  -7.523  1.00 20.00    -0.169 SA
ENDROOT
BRANCH   5   7
HETATM    7  C1  UNL     1     -34.602  13.770  -4.231  1.00 20.00     0.235 C 
HETATM    8  O7  UNL     1     -35.060  12.638  -4.352  1.00 20.00    -0.306 OA
ENDBRANCH   5   7
TORSDOF 1
ENDMDL
