MODEL 1
REMARK VINA RESULT:      -5.4      0.000      0.000
REMARK  2 active torsions:
REMARK  status: ('A' for Active; 'I' for Inactive)
REMARK    1  A    between atoms: C1_1  and  C3_3 
REMARK    2  A    between atoms: C2_2  and  C3_3 
ROOT
HETATM    1  C3  UNL     1     -35.034   4.936   4.583  1.00 20.00     0.358 C 
HETATM    2  F8  UNL     1     -36.250   5.377   4.176  1.00 20.00    -0.194 F 
HETATM    3  F9  UNL     1     -34.969   3.616   4.277  1.00 20.00    -0.194 F 
ENDROOT
BRANCH   1   4
HETATM    4  C1  UNL     1     -33.960   5.671   3.817  1.00 20.00     0.430 C 
HETATM    5  F4  UNL     1     -33.941   5.225   2.535  1.00 20.00    -0.208 F 
HETATM    6  F5  UNL     1     -34.244   6.994   3.768  1.00 20.00    -0.208 F 
ENDBRANCH   1   4
BRANCH   1   7
HETATM    7  C2  UNL     1     -34.922   5.105   6.078  1.00 20.00     0.430 C 
HETATM    8  F6  UNL     1     -34.036   4.201   6.564  1.00 20.00    -0.208 F 
HETATM    9  F7  UNL     1     -34.432   6.333   6.373  1.00 20.00    -0.208 F 
ENDBRANCH   1   7
TORSDOF 2
ENDMDL
MODEL 2
REMARK VINA RESULT:      -5.4      0.003      2.815
REMARK  2 active torsions:
REMARK  status: ('A' for Active; 'I' for Inactive)
REMARK    1  A    between atoms: C1_1  and  C3_3 
REMARK    2  A    between atoms: C2_2  and  C3_3 
ROOT
HETATM    1  C3  UNL     1     -35.032   4.937   4.582  1.00 20.00     0.358 C 
HETATM    2  F8  UNL     1     -34.970   3.617   4.280  1.00 20.00    -0.194 F 
HETATM    3  F9  UNL     1     -36.250   5.378   4.177  1.00 20.00    -0.194 F 
ENDROOT
BRANCH   1   4
HETATM    4  C1  UNL     1     -34.922   5.109   6.078  1.00 20.00     0.430 C 
HETATM    5  F4  UNL     1     -34.036   4.204   6.568  1.00 20.00    -0.208 F 
HETATM    6  F5  UNL     1     -34.430   6.337   6.371  1.00 20.00    -0.208 F 
ENDBRANCH   1   4
BRANCH   1   7
HETATM    7  C2  UNL     1     -33.959   5.670   3.816  1.00 20.00     0.430 C 
HETATM    8  F6  UNL     1     -33.941   5.224   2.535  1.00 20.00    -0.208 F 
HETATM    9  F7  UNL     1     -34.243   6.994   3.767  1.00 20.00    -0.208 F 
ENDBRANCH   1   7
TORSDOF 2
ENDMDL
MODEL 3
REMARK VINA RESULT:      -5.2      1.207      2.440
REMARK  2 active torsions:
REMARK  status: ('A' for Active; 'I' for Inactive)
REMARK    1  A    between atoms: C1_1  and  C3_3 
REMARK    2  A    between atoms: C2_2  and  C3_3 
ROOT
HETATM    1  C3  UNL     1     -33.986   6.107   4.459  1.00 20.00     0.358 C 
HETATM    2  F8  UNL     1     -32.684   6.018   4.091  1.00 20.00    -0.194 F 
HETATM    3  F9  UNL     1     -34.381   7.382   4.213  1.00 20.00    -0.194 F 
ENDROOT
BRANCH   1   4
HETATM    4  C1  UNL     1     -34.806   5.167   3.608  1.00 20.00     0.430 C 
HETATM    5  F4  UNL     1     -36.055   5.678   3.454  1.00 20.00    -0.208 F 
HETATM    6  F5  UNL     1     -34.267   5.068   2.370  1.00 20.00    -0.208 F 
ENDBRANCH   1   4
BRANCH   1   7
HETATM    7  C2  UNL     1     -34.102   5.828   5.937  1.00 20.00     0.430 C 
HETATM    8  F6  UNL     1     -34.200   7.004   6.607  1.00 20.00    -0.208 F 
HETATM    9  F7  UNL     1     -35.238   5.135   6.193  1.00 20.00    -0.208 F 
ENDBRANCH   1   7
TORSDOF 2
ENDMDL
MODEL 4
REMARK VINA RESULT:      -5.2      1.205      3.253
REMARK  2 active torsions:
REMARK  status: ('A' for Active; 'I' for Inactive)
REMARK    1  A    between atoms: C1_1  and  C3_3 
REMARK    2  A    between atoms: C2_2  and  C3_3 
ROOT
HETATM    1  C3  UNL     1     -33.988   6.100   4.459  1.00 20.00     0.358 C 
HETATM    2  F8  UNL     1     -34.377   7.376   4.214  1.00 20.00    -0.194 F 
HETATM    3  F9  UNL     1     -32.686   6.006   4.090  1.00 20.00    -0.194 F 
ENDROOT
BRANCH   1   4
HETATM    4  C1  UNL     1     -34.100   5.823   5.939  1.00 20.00     0.430 C 
HETATM    5  F4  UNL     1     -34.196   7.000   6.608  1.00 20.00    -0.208 F 
HETATM    6  F5  UNL     1     -35.235   5.130   6.199  1.00 20.00    -0.208 F 
ENDBRANCH   1   4
BRANCH   1   7
HETATM    7  C2  UNL     1     -34.813   5.162   3.612  1.00 20.00     0.430 C 
HETATM    8  F6  UNL     1     -36.060   5.673   3.464  1.00 20.00    -0.208 F 
HETATM    9  F7  UNL     1     -34.279   5.065   2.370  1.00 20.00    -0.208 F 
ENDBRANCH   1   7
TORSDOF 2
ENDMDL
MODEL 5
REMARK VINA RESULT:      -5.2      1.215      2.675
REMARK  2 active torsions:
REMARK  status: ('A' for Active; 'I' for Inactive)
REMARK    1  A    between atoms: C1_1  and  C3_3 
REMARK    2  A    between atoms: C2_2  and  C3_3 
ROOT
HETATM    1  C3  UNL     1     -34.515   5.085   6.000  1.00 20.00     0.358 C 
HETATM    2  F8  UNL     1     -33.823   4.077   6.584  1.00 20.00    -0.194 F 
HETATM    3  F9  UNL     1     -35.625   5.292   6.752  1.00 20.00    -0.194 F 
ENDROOT
BRANCH   1   4
HETATM    4  C1  UNL     1     -33.672   6.338   6.014  1.00 20.00     0.430 C 
HETATM    5  F4  UNL     1     -33.672   6.891   4.774  1.00 20.00    -0.208 F 
HETATM    6  F5  UNL     1     -34.212   7.254   6.852  1.00 20.00    -0.208 F 
ENDBRANCH   1   4
BRANCH   1   7
HETATM    7  C2  UNL     1     -34.928   4.660   4.612  1.00 20.00     0.430 C 
HETATM    8  F6  UNL     1     -35.169   3.325   4.607  1.00 20.00    -0.208 F 
HETATM    9  F7  UNL     1     -36.088   5.269   4.265  1.00 20.00    -0.208 F 
ENDBRANCH   1   7
TORSDOF 2
ENDMDL
MODEL 6
REMARK VINA RESULT:      -5.2      1.213      2.347
REMARK  2 active torsions:
REMARK  status: ('A' for Active; 'I' for Inactive)
REMARK    1  A    between atoms: C1_1  and  C3_3 
REMARK    2  A    between atoms: C2_2  and  C3_3 
ROOT
HETATM    1  C3  UNL     1     -34.515   5.088   5.997  1.00 20.00     0.358 C 
HETATM    2  F8  UNL     1     -35.626   5.292   6.748  1.00 20.00    -0.194 F 
HETATM    3  F9  UNL     1     -33.823   4.078   6.582  1.00 20.00    -0.194 F 
ENDROOT
BRANCH   1   4
HETATM    4  C1  UNL     1     -34.928   4.661   4.609  1.00 20.00     0.430 C 
HETATM    5  F4  UNL     1     -35.163   3.324   4.604  1.00 20.00    -0.208 F 
HETATM    6  F5  UNL     1     -36.089   5.265   4.261  1.00 20.00    -0.208 F 
ENDBRANCH   1   4
BRANCH   1   7
HETATM    7  C2  UNL     1     -33.673   6.339   6.011  1.00 20.00     0.430 C 
HETATM    8  F6  UNL     1     -33.678   6.895   4.774  1.00 20.00    -0.208 F 
HETATM    9  F7  UNL     1     -34.211   7.254   6.854  1.00 20.00    -0.208 F 
ENDBRANCH   1   7
TORSDOF 2
ENDMDL
MODEL 7
REMARK VINA RESULT:      -5.0      0.967      1.793
REMARK  2 active torsions:
REMARK  status: ('A' for Active; 'I' for Inactive)
REMARK    1  A    between atoms: C1_1  and  C3_3 
REMARK    2  A    between atoms: C2_2  and  C3_3 
ROOT
HETATM    1  C3  UNL     1     -34.593   5.663   4.470  1.00 20.00     0.358 C 
HETATM    2  F8  UNL     1     -34.448   6.813   5.173  1.00 20.00    -0.194 F 
HETATM    3  F9  UNL     1     -35.810   5.716   3.871  1.00 20.00    -0.194 F 
ENDROOT
BRANCH   1   4
HETATM    4  C1  UNL     1     -33.525   5.596   3.405  1.00 20.00     0.430 C 
HETATM    5  F4  UNL     1     -34.072   5.133   2.252  1.00 20.00    -0.208 F 
HETATM    6  F5  UNL     1     -33.049   6.837   3.143  1.00 20.00    -0.208 F 
ENDBRANCH   1   4
BRANCH   1   7
HETATM    7  C2  UNL     1     -34.559   4.494   5.423  1.00 20.00     0.430 C 
HETATM    8  F6  UNL     1     -35.313   4.785   6.513  1.00 20.00    -0.208 F 
HETATM    9  F7  UNL     1     -35.114   3.403   4.842  1.00 20.00    -0.208 F 
ENDBRANCH   1   7
TORSDOF 2
ENDMDL
MODEL 8
REMARK VINA RESULT:      -5.0      0.969      3.178
REMARK  2 active torsions:
REMARK  status: ('A' for Active; 'I' for Inactive)
REMARK    1  A    between atoms: C1_1  and  C3_3 
REMARK    2  A    between atoms: C2_2  and  C3_3 
ROOT
HETATM    1  C3  UNL     1     -34.578   5.665   4.476  1.00 20.00     0.358 C 
HETATM    2  F8  UNL     1     -35.796   5.736   3.885  1.00 20.00    -0.194 F 
HETATM    3  F9  UNL     1     -34.416   6.808   5.188  1.00 20.00    -0.194 F 
ENDROOT
BRANCH   1   4
HETATM    4  C1  UNL     1     -34.556   4.490   5.424  1.00 20.00     0.430 C 
HETATM    5  F4  UNL     1     -35.311   4.780   6.514  1.00 20.00    -0.208 F 
HETATM    6  F5  UNL     1     -35.116   3.406   4.836  1.00 20.00    -0.208 F 
ENDBRANCH   1   4
BRANCH   1   7
HETATM    7  C2  UNL     1     -33.515   5.591   3.409  1.00 20.00     0.430 C 
HETATM    8  F6  UNL     1     -34.070   5.139   2.256  1.00 20.00    -0.208 F 
HETATM    9  F7  UNL     1     -33.027   6.828   3.150  1.00 20.00    -0.208 F 
ENDBRANCH   1   7
TORSDOF 2
ENDMDL
MODEL 9
REMARK VINA RESULT:      -5.0      1.164      1.844
REMARK  2 active torsions:
REMARK  status: ('A' for Active; 'I' for Inactive)
REMARK    1  A    between atoms: C1_1  and  C3_3 
REMARK    2  A    between atoms: C2_2  and  C3_3 
ROOT
HETATM    1  C3  UNL     1     -34.725   5.326   4.149  1.00 20.00     0.358 C 
HETATM    2  F8  UNL     1     -36.028   5.661   3.983  1.00 20.00    -0.194 F 
HETATM    3  F9  UNL     1     -34.398   4.492   3.130  1.00 20.00    -0.194 F 
ENDROOT
BRANCH   1   4
HETATM    4  C1  UNL     1     -33.878   6.572   4.054  1.00 20.00     0.430 C 
HETATM    5  F4  UNL     1     -33.238   6.769   5.235  1.00 20.00    -0.208 F 
HETATM    6  F5  UNL     1     -32.919   6.413   3.110  1.00 20.00    -0.208 F 
ENDBRANCH   1   4
BRANCH   1   7
HETATM    7  C2  UNL     1     -34.566   4.595   5.459  1.00 20.00     0.430 C 
HETATM    8  F6  UNL     1     -35.362   5.174   6.393  1.00 20.00    -0.208 F 
HETATM    9  F7  UNL     1     -34.982   3.312   5.330  1.00 20.00    -0.208 F 
ENDBRANCH   1   7
TORSDOF 2
ENDMDL
