MODEL 1
REMARK VINA RESULT:      -5.2      0.000      0.000
REMARK  0 active torsions:
REMARK  status: ('A' for Active; 'I' for Inactive)
ROOT
HETATM    1  C1  UNL     1     -35.140   4.306   5.680  1.00 20.00    -0.003 A 
HETATM    2  C2  UNL     1     -34.630   5.331   6.570  1.00 20.00    -0.003 A 
HETATM    3  C3  UNL     1     -34.762   4.615   4.426  1.00 20.00    -0.013 A 
HETATM    4  C4  UNL     1     -33.956   6.230   5.829  1.00 20.00    -0.013 A 
HETATM    5  C5  UNL     1     -34.085   6.864   3.312  1.00 20.00     0.019 A 
HETATM    6  C6  UNL     1     -32.816   6.068   3.500  1.00 20.00     0.019 A 
HETATM    7  C7  UNL     1     -33.979   5.858   4.409  1.00 20.00    -0.005 A 
ENDROOT
TORSDOF 0
ENDMDL
MODEL 2
REMARK VINA RESULT:      -5.2      0.095      1.658
REMARK  0 active torsions:
REMARK  status: ('A' for Active; 'I' for Inactive)
ROOT
HETATM    1  C1  UNL     1     -34.625   5.360   6.524  1.00 20.00    -0.003 A 
HETATM    2  C2  UNL     1     -35.168   4.382   5.601  1.00 20.00    -0.003 A 
HETATM    3  C3  UNL     1     -33.913   6.255   5.814  1.00 20.00    -0.013 A 
HETATM    4  C4  UNL     1     -34.771   4.715   4.359  1.00 20.00    -0.013 A 
HETATM    5  C5  UNL     1     -32.767   6.119   3.485  1.00 20.00     0.019 A 
HETATM    6  C6  UNL     1     -34.003   6.968   3.316  1.00 20.00     0.019 A 
HETATM    7  C7  UNL     1     -33.943   5.926   4.382  1.00 20.00    -0.005 A 
ENDROOT
TORSDOF 0
ENDMDL
MODEL 3
REMARK VINA RESULT:      -4.9      1.076      2.018
REMARK  0 active torsions:
REMARK  status: ('A' for Active; 'I' for Inactive)
ROOT
HETATM    1  C1  UNL     1     -34.975   5.551   5.343  1.00 20.00    -0.003 A 
HETATM    2  C2  UNL     1     -35.475   5.078   4.067  1.00 20.00    -0.003 A 
HETATM    3  C3  UNL     1     -33.798   6.167   5.128  1.00 20.00    -0.013 A 
HETATM    4  C4  UNL     1     -34.588   5.424   3.116  1.00 20.00    -0.013 A 
HETATM    5  C5  UNL     1     -32.049   5.971   3.215  1.00 20.00     0.019 A 
HETATM    6  C6  UNL     1     -32.772   7.281   3.016  1.00 20.00     0.019 A 
HETATM    7  C7  UNL     1     -33.449   6.142   3.701  1.00 20.00    -0.005 A 
ENDROOT
TORSDOF 0
ENDMDL
MODEL 4
REMARK VINA RESULT:      -4.8      0.938      2.985
REMARK  0 active torsions:
REMARK  status: ('A' for Active; 'I' for Inactive)
ROOT
HETATM    1  C1  UNL     1     -33.298   6.079   3.084  1.00 20.00    -0.003 A 
HETATM    2  C2  UNL     1     -34.654   5.659   2.789  1.00 20.00    -0.003 A 
HETATM    3  C3  UNL     1     -33.083   5.902   4.401  1.00 20.00    -0.013 A 
HETATM    4  C4  UNL     1     -35.220   5.238   3.935  1.00 20.00    -0.013 A 
HETATM    5  C5  UNL     1     -34.703   5.754   6.429  1.00 20.00     0.019 A 
HETATM    6  C6  UNL     1     -34.209   4.354   6.160  1.00 20.00     0.019 A 
HETATM    7  C7  UNL     1     -34.279   5.355   5.055  1.00 20.00    -0.005 A 
ENDROOT
TORSDOF 0
ENDMDL
MODEL 5
REMARK VINA RESULT:      -4.8      0.916      2.836
REMARK  0 active torsions:
REMARK  status: ('A' for Active; 'I' for Inactive)
ROOT
HETATM    1  C1  UNL     1     -34.578   5.739   2.780  1.00 20.00    -0.003 A 
HETATM    2  C2  UNL     1     -33.230   6.151   3.118  1.00 20.00    -0.003 A 
HETATM    3  C3  UNL     1     -35.171   5.289   3.902  1.00 20.00    -0.013 A 
HETATM    4  C4  UNL     1     -33.046   5.941   4.434  1.00 20.00    -0.013 A 
HETATM    5  C5  UNL     1     -34.210   4.349   6.127  1.00 20.00     0.019 A 
HETATM    6  C6  UNL     1     -34.711   5.743   6.420  1.00 20.00     0.019 A 
HETATM    7  C7  UNL     1     -34.255   5.378   5.047  1.00 20.00    -0.005 A 
ENDROOT
TORSDOF 0
ENDMDL
MODEL 6
REMARK VINA RESULT:      -4.4      1.220      2.858
REMARK  0 active torsions:
REMARK  status: ('A' for Active; 'I' for Inactive)
ROOT
HETATM    1  C1  UNL     1     -32.483   6.199   2.841  1.00 20.00    -0.003 A 
HETATM    2  C2  UNL     1     -32.535   6.959   4.075  1.00 20.00    -0.003 A 
HETATM    3  C3  UNL     1     -33.551   5.380   2.810  1.00 20.00    -0.013 A 
HETATM    4  C4  UNL     1     -33.632   6.580   4.754  1.00 20.00    -0.013 A 
HETATM    5  C5  UNL     1     -35.060   4.409   4.691  1.00 20.00     0.019 A 
HETATM    6  C6  UNL     1     -35.862   5.482   3.995  1.00 20.00     0.019 A 
HETATM    7  C7  UNL     1     -34.372   5.549   4.017  1.00 20.00    -0.005 A 
ENDROOT
TORSDOF 0
ENDMDL
MODEL 7
REMARK VINA RESULT:      -4.4      1.216      3.055
REMARK  0 active torsions:
REMARK  status: ('A' for Active; 'I' for Inactive)
ROOT
HETATM    1  C1  UNL     1     -32.545   6.972   4.149  1.00 20.00    -0.003 A 
HETATM    2  C2  UNL     1     -32.478   6.244   2.897  1.00 20.00    -0.003 A 
HETATM    3  C3  UNL     1     -33.644   6.565   4.811  1.00 20.00    -0.013 A 
HETATM    4  C4  UNL     1     -33.538   5.417   2.837  1.00 20.00    -0.013 A 
HETATM    5  C5  UNL     1     -35.859   5.467   4.006  1.00 20.00     0.019 A 
HETATM    6  C6  UNL     1     -35.052   4.384   4.680  1.00 20.00     0.019 A 
HETATM    7  C7  UNL     1     -34.369   5.546   4.040  1.00 20.00    -0.005 A 
ENDROOT
TORSDOF 0
ENDMDL
MODEL 8
REMARK VINA RESULT:      -4.0      1.108      2.387
REMARK  0 active torsions:
REMARK  status: ('A' for Active; 'I' for Inactive)
ROOT
HETATM    1  C1  UNL     1     -35.066   4.007   5.146  1.00 20.00    -0.003 A 
HETATM    2  C2  UNL     1     -35.165   4.947   4.047  1.00 20.00    -0.003 A 
HETATM    3  C3  UNL     1     -34.505   4.643   6.191  1.00 20.00    -0.013 A 
HETATM    4  C4  UNL     1     -34.663   6.126   4.458  1.00 20.00    -0.013 A 
HETATM    5  C5  UNL     1     -32.981   6.744   6.341  1.00 20.00     0.019 A 
HETATM    6  C6  UNL     1     -34.350   7.160   6.822  1.00 20.00     0.019 A 
HETATM    7  C7  UNL     1     -34.201   6.039   5.849  1.00 20.00    -0.005 A 
ENDROOT
TORSDOF 0
ENDMDL
MODEL 9
REMARK VINA RESULT:      -3.8     12.124     12.637
REMARK  0 active torsions:
REMARK  status: ('A' for Active; 'I' for Inactive)
ROOT
HETATM    1  C1  UNL     1     -35.221  13.672  -4.145  1.00 20.00    -0.003 A 
HETATM    2  C2  UNL     1     -33.772  13.663  -4.102  1.00 20.00    -0.003 A 
HETATM    3  C3  UNL     1     -35.652  14.760  -3.480  1.00 20.00    -0.013 A 
HETATM    4  C4  UNL     1     -33.367  14.747  -3.415  1.00 20.00    -0.013 A 
HETATM    5  C5  UNL     1     -34.552  16.230  -1.640  1.00 20.00     0.019 A 
HETATM    6  C6  UNL     1     -34.512  17.027  -2.920  1.00 20.00     0.019 A 
HETATM    7  C7  UNL     1     -34.518  15.536  -2.960  1.00 20.00    -0.005 A 
ENDROOT
TORSDOF 0
ENDMDL
