MODEL 1
REMARK VINA RESULT:      -4.8      0.000      0.000
REMARK  2 active torsions:
REMARK  status: ('A' for Active; 'I' for Inactive)
REMARK    1  A    between atoms: C7_7  and  C10_10 
REMARK    2  A    between atoms: C8_8  and  C9_9 
ROOT
HETATM    1  C1  UNL     1     -34.871  16.395  -2.054  1.00 20.00    -0.019 A 
HETATM    2  C3  UNL     1     -34.592  17.302  -1.112  1.00 20.00    -0.087 A 
HETATM    3  C5  UNL     1     -33.958  18.538  -1.673  1.00 20.00     0.039 A 
HETATM    4  C8  UNL     1     -34.498  16.857  -3.424  1.00 20.00     0.021 A 
HETATM    5  C10 UNL     1     -33.879  18.277  -3.184  1.00 20.00     0.005 A 
HETATM    6  C11 UNL     1     -34.840  17.169   0.347  1.00 20.00     0.043 C 
ENDROOT
BRANCH   4   7
HETATM    7  C9  UNL     1     -33.330  16.085  -4.089  1.00 20.00     0.022 C 
HETATM    8  C4  UNL     1     -33.851  14.704  -4.431  1.00 20.00    -0.082 C 
HETATM    9  C2  UNL     1     -34.720  14.845  -5.446  1.00 20.00    -0.019 C 
HETATM   10  C12 UNL     1     -33.462  13.482  -3.691  1.00 20.00     0.043 C 
HETATM   11  C7  UNL     1     -34.780  16.321  -5.779  1.00 20.00     0.014 C 
HETATM   12  C6  UNL     1     -33.311  16.668  -5.509  1.00 20.00     0.018 C 
ENDBRANCH   4   7
TORSDOF 2
ENDMDL
MODEL 2
REMARK VINA RESULT:      -4.7     12.155     14.169
REMARK  2 active torsions:
REMARK  status: ('A' for Active; 'I' for Inactive)
REMARK    1  A    between atoms: C7_7  and  C10_10 
REMARK    2  A    between atoms: C8_8  and  C9_9 
ROOT
HETATM    1  C1  UNL     1     -43.266   4.731  -2.948  1.00 20.00    -0.019 A 
HETATM    2  C3  UNL     1     -42.780   3.536  -3.302  1.00 20.00    -0.087 A 
HETATM    3  C5  UNL     1     -41.531   3.179  -2.557  1.00 20.00     0.039 A 
HETATM    4  C8  UNL     1     -42.449   5.390  -1.886  1.00 20.00     0.021 A 
HETATM    5  C10 UNL     1     -41.285   4.373  -1.624  1.00 20.00     0.005 A 
HETATM    6  C11 UNL     1     -43.350   2.615  -4.320  1.00 20.00     0.043 C 
ENDROOT
BRANCH   4   7
HETATM    7  C9  UNL     1     -41.691   6.667  -2.330  1.00 20.00     0.022 C 
HETATM    8  C4  UNL     1     -42.733   7.651  -2.822  1.00 20.00    -0.082 C 
HETATM    9  C2  UNL     1     -43.417   8.079  -1.748  1.00 20.00    -0.019 C 
HETATM   10  C12 UNL     1     -42.929   7.980  -4.252  1.00 20.00     0.043 C 
HETATM   11  C7  UNL     1     -42.833   7.378  -0.539  1.00 20.00     0.014 C 
HETATM   12  C6  UNL     1     -41.368   7.345  -0.990  1.00 20.00     0.018 C 
ENDBRANCH   4   7
TORSDOF 2
ENDMDL
MODEL 3
REMARK VINA RESULT:      -4.6      1.308      4.580
REMARK  2 active torsions:
REMARK  status: ('A' for Active; 'I' for Inactive)
REMARK    1  A    between atoms: C7_7  and  C10_10 
REMARK    2  A    between atoms: C8_8  and  C9_9 
ROOT
HETATM    1  C1  UNL     1     -35.325  15.669  -5.093  1.00 20.00    -0.019 A 
HETATM    2  C3  UNL     1     -35.065  14.543  -5.766  1.00 20.00    -0.087 A 
HETATM    3  C5  UNL     1     -34.451  13.484  -4.901  1.00 20.00     0.039 A 
HETATM    4  C8  UNL     1     -34.954  15.574  -3.650  1.00 20.00     0.021 A 
HETATM    5  C10 UNL     1     -34.361  14.129  -3.510  1.00 20.00     0.005 A 
HETATM    6  C11 UNL     1     -35.316  14.295  -7.209  1.00 20.00     0.043 C 
ENDROOT
BRANCH   4   7
HETATM    7  C9  UNL     1     -33.769  16.471  -3.209  1.00 20.00     0.022 C 
HETATM    8  C4  UNL     1     -34.143  17.898  -3.557  1.00 20.00    -0.082 C 
HETATM    9  C2  UNL     1     -35.119  18.273  -2.714  1.00 20.00    -0.019 C 
HETATM   10  C12 UNL     1     -33.530  18.648  -4.676  1.00 20.00     0.043 C 
HETATM   11  C7  UNL     1     -35.400  17.094  -1.805  1.00 20.00     0.014 C 
HETATM   12  C6  UNL     1     -33.968  16.560  -1.688  1.00 20.00     0.018 C 
ENDBRANCH   4   7
TORSDOF 2
ENDMDL
MODEL 4
REMARK VINA RESULT:      -4.6      1.169      2.723
REMARK  2 active torsions:
REMARK  status: ('A' for Active; 'I' for Inactive)
REMARK    1  A    between atoms: C7_7  and  C10_10 
REMARK    2  A    between atoms: C8_8  and  C9_9 
ROOT
HETATM    1  C1  UNL     1     -33.735  17.181  -3.538  1.00 20.00    -0.019 A 
HETATM    2  C3  UNL     1     -33.809  17.836  -2.374  1.00 20.00    -0.087 A 
HETATM    3  C5  UNL     1     -34.471  17.028  -1.299  1.00 20.00     0.039 A 
HETATM    4  C8  UNL     1     -34.313  15.806  -3.459  1.00 20.00     0.021 A 
HETATM    5  C10 UNL     1     -34.816  15.695  -1.978  1.00 20.00     0.005 A 
HETATM    6  C11 UNL     1     -33.325  19.214  -2.101  1.00 20.00     0.043 C 
ENDROOT
BRANCH   4   7
HETATM    7  C9  UNL     1     -35.611  15.585  -4.277  1.00 20.00     0.022 C 
HETATM    8  C4  UNL     1     -35.224  15.631  -5.741  1.00 20.00    -0.082 C 
HETATM    9  C2  UNL     1     -34.522  14.516  -6.005  1.00 20.00    -0.019 C 
HETATM   10  C12 UNL     1     -35.554  16.765  -6.633  1.00 20.00     0.043 C 
HETATM   11  C7  UNL     1     -34.438  13.727  -4.715  1.00 20.00     0.014 C 
HETATM   12  C6  UNL     1     -35.825  14.068  -4.157  1.00 20.00     0.018 C 
ENDBRANCH   4   7
TORSDOF 2
ENDMDL
MODEL 5
REMARK VINA RESULT:      -4.6      1.295      2.736
REMARK  2 active torsions:
REMARK  status: ('A' for Active; 'I' for Inactive)
REMARK    1  A    between atoms: C7_7  and  C10_10 
REMARK    2  A    between atoms: C8_8  and  C9_9 
ROOT
HETATM    1  C1  UNL     1     -33.156  17.864  -1.562  1.00 20.00    -0.019 A 
HETATM    2  C3  UNL     1     -33.641  18.056  -0.330  1.00 20.00    -0.087 A 
HETATM    3  C5  UNL     1     -34.772  17.130  -0.005  1.00 20.00     0.039 A 
HETATM    4  C8  UNL     1     -33.855  16.761  -2.287  1.00 20.00     0.021 A 
HETATM    5  C10 UNL     1     -34.940  16.271  -1.267  1.00 20.00     0.005 A 
HETATM    6  C11 UNL     1     -33.173  19.062   0.658  1.00 20.00     0.043 C 
ENDROOT
BRANCH   4   7
HETATM    7  C9  UNL     1     -34.707  17.203  -3.504  1.00 20.00     0.022 C 
HETATM    8  C4  UNL     1     -33.739  17.602  -4.599  1.00 20.00    -0.082 C 
HETATM    9  C2  UNL     1     -33.157  16.478  -5.047  1.00 20.00    -0.019 C 
HETATM   10  C12 UNL     1     -33.500  19.007  -5.001  1.00 20.00     0.043 C 
HETATM   11  C7  UNL     1     -33.734  15.328  -4.248  1.00 20.00     0.014 C 
HETATM   12  C6  UNL     1     -35.163  15.861  -4.096  1.00 20.00     0.018 C 
ENDBRANCH   4   7
TORSDOF 2
ENDMDL
MODEL 6
REMARK VINA RESULT:      -4.5      2.202      4.077
REMARK  2 active torsions:
REMARK  status: ('A' for Active; 'I' for Inactive)
REMARK    1  A    between atoms: C7_7  and  C10_10 
REMARK    2  A    between atoms: C8_8  and  C9_9 
ROOT
HETATM    1  C1  UNL     1     -35.133  16.260  -6.409  1.00 20.00    -0.019 A 
HETATM    2  C3  UNL     1     -34.835  17.498  -6.820  1.00 20.00    -0.087 A 
HETATM    3  C5  UNL     1     -33.720  18.114  -6.032  1.00 20.00     0.039 A 
HETATM    4  C8  UNL     1     -34.262  15.805  -5.284  1.00 20.00     0.021 A 
HETATM    5  C10 UNL     1     -33.325  17.034  -5.016  1.00 20.00     0.005 A 
HETATM    6  C11 UNL     1     -35.498  18.249  -7.918  1.00 20.00     0.043 C 
ENDROOT
BRANCH   4   7
HETATM    7  C9  UNL     1     -34.980  15.622  -3.922  1.00 20.00     0.022 C 
HETATM    8  C4  UNL     1     -35.948  14.468  -4.086  1.00 20.00    -0.082 C 
HETATM    9  C2  UNL     1     -35.218  13.344  -4.181  1.00 20.00    -0.019 C 
HETATM   10  C12 UNL     1     -37.416  14.644  -4.170  1.00 20.00     0.043 C 
HETATM   11  C7  UNL     1     -33.762  13.750  -4.086  1.00 20.00     0.014 C 
HETATM   12  C6  UNL     1     -33.918  14.898  -3.082  1.00 20.00     0.018 C 
ENDBRANCH   4   7
TORSDOF 2
ENDMDL
MODEL 7
REMARK VINA RESULT:      -4.5     11.976     13.299
REMARK  2 active torsions:
REMARK  status: ('A' for Active; 'I' for Inactive)
REMARK    1  A    between atoms: C7_7  and  C10_10 
REMARK    2  A    between atoms: C8_8  and  C9_9 
ROOT
HETATM    1  C1  UNL     1     -41.918   7.101  -3.163  1.00 20.00    -0.019 A 
HETATM    2  C3  UNL     1     -42.717   8.100  -3.551  1.00 20.00    -0.087 A 
HETATM    3  C5  UNL     1     -43.417   8.758  -2.401  1.00 20.00     0.039 A 
HETATM    4  C8  UNL     1     -41.913   6.913  -1.681  1.00 20.00     0.021 A 
HETATM    5  C10 UNL     1     -42.916   8.002  -1.163  1.00 20.00     0.005 A 
HETATM    6  C11 UNL     1     -42.949   8.558  -4.945  1.00 20.00     0.043 C 
ENDROOT
BRANCH   4   7
HETATM    7  C9  UNL     1     -42.555   5.594  -1.179  1.00 20.00     0.022 C 
HETATM    8  C4  UNL     1     -41.621   4.470  -1.577  1.00 20.00    -0.082 C 
HETATM    9  C2  UNL     1     -40.523   4.569  -0.809  1.00 20.00    -0.019 C 
HETATM   10  C12 UNL     1     -41.919   3.513  -2.667  1.00 20.00     0.043 C 
HETATM   11  C7  UNL     1     -40.724   5.763   0.101  1.00 20.00     0.014 C 
HETATM   12  C6  UNL     1     -42.234   5.620   0.323  1.00 20.00     0.018 C 
ENDBRANCH   4   7
TORSDOF 2
ENDMDL
MODEL 8
REMARK VINA RESULT:      -4.4      1.490      1.997
REMARK  2 active torsions:
REMARK  status: ('A' for Active; 'I' for Inactive)
REMARK    1  A    between atoms: C7_7  and  C10_10 
REMARK    2  A    between atoms: C8_8  and  C9_9 
ROOT
HETATM    1  C1  UNL     1     -35.803  17.460  -2.457  1.00 20.00    -0.019 A 
HETATM    2  C3  UNL     1     -35.955  17.919  -1.210  1.00 20.00    -0.087 A 
HETATM    3  C5  UNL     1     -34.734  17.709  -0.367  1.00 20.00     0.039 A 
HETATM    4  C8  UNL     1     -34.449  16.877  -2.693  1.00 20.00     0.021 A 
HETATM    5  C10 UNL     1     -33.731  17.026  -1.307  1.00 20.00     0.005 A 
HETATM    6  C11 UNL     1     -37.169  18.563  -0.645  1.00 20.00     0.043 C 
ENDROOT
BRANCH   4   7
HETATM    7  C9  UNL     1     -34.419  15.345  -2.928  1.00 20.00     0.022 C 
HETATM    8  C4  UNL     1     -35.259  15.071  -4.159  1.00 20.00    -0.082 C 
HETATM    9  C2  UNL     1     -34.581  15.540  -5.219  1.00 20.00    -0.019 C 
HETATM   10  C12 UNL     1     -36.599  14.444  -4.105  1.00 20.00     0.043 C 
HETATM   11  C7  UNL     1     -33.288  16.130  -4.695  1.00 20.00     0.014 C 
HETATM   12  C6  UNL     1     -33.034  15.133  -3.559  1.00 20.00     0.018 C 
ENDBRANCH   4   7
TORSDOF 2
ENDMDL
MODEL 9
REMARK VINA RESULT:      -4.4      2.771      4.159
REMARK  2 active torsions:
REMARK  status: ('A' for Active; 'I' for Inactive)
REMARK    1  A    between atoms: C7_7  and  C10_10 
REMARK    2  A    between atoms: C8_8  and  C9_9 
ROOT
HETATM    1  C1  UNL     1     -37.647  14.795  -3.727  1.00 20.00    -0.019 A 
HETATM    2  C3  UNL     1     -38.770  15.369  -4.173  1.00 20.00    -0.087 A 
HETATM    3  C5  UNL     1     -38.696  15.728  -5.626  1.00 20.00     0.039 A 
HETATM    4  C8  UNL     1     -36.618  14.640  -4.798  1.00 20.00     0.021 A 
HETATM    5  C10 UNL     1     -37.298  15.268  -6.064  1.00 20.00     0.005 A 
HETATM    6  C11 UNL     1     -39.990  15.664  -3.377  1.00 20.00     0.043 C 
ENDROOT
BRANCH   4   7
HETATM    7  C9  UNL     1     -35.348  15.513  -4.627  1.00 20.00     0.022 C 
HETATM    8  C4  UNL     1     -34.690  15.086  -3.331  1.00 20.00    -0.082 C 
HETATM    9  C2  UNL     1     -34.175  13.861  -3.529  1.00 20.00    -0.019 C 
HETATM   10  C12 UNL     1     -34.707  15.909  -2.101  1.00 20.00     0.043 C 
HETATM   11  C7  UNL     1     -34.493  13.469  -4.957  1.00 20.00     0.014 C 
HETATM   12  C6  UNL     1     -34.359  14.854  -5.600  1.00 20.00     0.018 C 
ENDBRANCH   4   7
TORSDOF 2
ENDMDL
