MODEL 1
REMARK VINA RESULT:      -4.9      0.000      0.000
REMARK  2 active torsions:
REMARK  status: ('A' for Active; 'I' for Inactive)
REMARK    1  A    between atoms: C2_2  and  C3_3 
REMARK    2  A    between atoms: C3_3  and  C4_4 
ROOT
HETATM    1  C1  UNL     1     -33.267   6.150   3.553  1.00 20.00     0.059 C 
HETATM    2  C2  UNL     1     -34.685   6.165   3.937  1.00 20.00     0.132 C 
HETATM    3  N5  UNL     1     -32.147   6.140   3.249  1.00 20.00    -0.197 NA
ENDROOT
BRANCH   2   4
HETATM    4  C3  UNL     1     -35.111   4.818   4.515  1.00 20.00     0.131 C 
BRANCH   4   5
HETATM    5  C4  UNL     1     -34.785   4.708   5.989  1.00 20.00     0.388 C 
HETATM    6  F6  UNL     1     -33.628   4.042   6.189  1.00 20.00    -0.171 F 
HETATM    7  F7  UNL     1     -34.670   5.926   6.560  1.00 20.00    -0.171 F 
HETATM    8  F8  UNL     1     -35.760   4.039   6.642  1.00 20.00    -0.171 F 
ENDBRANCH   4   5
ENDBRANCH   2   4
TORSDOF 2
ENDMDL
MODEL 2
REMARK VINA RESULT:      -4.9      0.008      1.336
REMARK  2 active torsions:
REMARK  status: ('A' for Active; 'I' for Inactive)
REMARK    1  A    between atoms: C2_2  and  C3_3 
REMARK    2  A    between atoms: C3_3  and  C4_4 
ROOT
HETATM    1  C1  UNL     1     -33.266   6.149   3.552  1.00 20.00     0.059 C 
HETATM    2  C2  UNL     1     -34.685   6.162   3.933  1.00 20.00     0.132 C 
HETATM    3  N5  UNL     1     -32.145   6.141   3.250  1.00 20.00    -0.197 NA
ENDROOT
BRANCH   2   4
HETATM    4  C3  UNL     1     -35.110   4.813   4.510  1.00 20.00     0.131 C 
BRANCH   4   5
HETATM    5  C4  UNL     1     -34.797   4.708   5.987  1.00 20.00     0.388 C 
HETATM    6  F6  UNL     1     -34.673   5.927   6.552  1.00 20.00    -0.171 F 
HETATM    7  F7  UNL     1     -35.764   4.036   6.649  1.00 20.00    -0.171 F 
HETATM    8  F8  UNL     1     -33.634   4.047   6.179  1.00 20.00    -0.171 F 
ENDBRANCH   4   5
ENDBRANCH   2   4
TORSDOF 2
ENDMDL
MODEL 3
REMARK VINA RESULT:      -4.9      1.219      1.770
REMARK  2 active torsions:
REMARK  status: ('A' for Active; 'I' for Inactive)
REMARK    1  A    between atoms: C2_2  and  C3_3 
REMARK    2  A    between atoms: C3_3  and  C4_4 
ROOT
HETATM    1  C1  UNL     1     -32.628   6.986   3.002  1.00 20.00     0.059 C 
HETATM    2  C2  UNL     1     -33.500   5.955   3.582  1.00 20.00     0.132 C 
HETATM    3  N5  UNL     1     -31.940   7.800   2.543  1.00 20.00    -0.197 NA
ENDROOT
BRANCH   2   4
HETATM    4  C3  UNL     1     -33.750   6.218   5.065  1.00 20.00     0.131 C 
BRANCH   4   5
HETATM    5  C4  UNL     1     -34.672   5.184   5.674  1.00 20.00     0.388 C 
HETATM    6  F6  UNL     1     -35.727   4.932   4.871  1.00 20.00    -0.171 F 
HETATM    7  F7  UNL     1     -34.027   4.018   5.895  1.00 20.00    -0.171 F 
HETATM    8  F8  UNL     1     -35.154   5.618   6.860  1.00 20.00    -0.171 F 
ENDBRANCH   4   5
ENDBRANCH   2   4
TORSDOF 2
ENDMDL
MODEL 4
REMARK VINA RESULT:      -4.7      2.381      2.818
REMARK  2 active torsions:
REMARK  status: ('A' for Active; 'I' for Inactive)
REMARK    1  A    between atoms: C2_2  and  C3_3 
REMARK    2  A    between atoms: C3_3  and  C4_4 
ROOT
HETATM    1  C1  UNL     1     -32.267   7.482   2.623  1.00 20.00     0.059 C 
HETATM    2  C2  UNL     1     -32.516   6.328   3.496  1.00 20.00     0.132 C 
HETATM    3  N5  UNL     1     -32.069   8.394   1.933  1.00 20.00    -0.197 NA
ENDROOT
BRANCH   2   4
HETATM    4  C3  UNL     1     -33.907   6.402   4.121  1.00 20.00     0.131 C 
BRANCH   4   5
HETATM    5  C4  UNL     1     -34.830   5.336   3.572  1.00 20.00     0.388 C 
HETATM    6  F6  UNL     1     -34.917   4.281   4.409  1.00 20.00    -0.171 F 
HETATM    7  F7  UNL     1     -36.077   5.817   3.376  1.00 20.00    -0.171 F 
HETATM    8  F8  UNL     1     -34.375   4.881   2.384  1.00 20.00    -0.171 F 
ENDBRANCH   4   5
ENDBRANCH   2   4
TORSDOF 2
ENDMDL
MODEL 5
REMARK VINA RESULT:      -4.6      3.352      4.068
REMARK  2 active torsions:
REMARK  status: ('A' for Active; 'I' for Inactive)
REMARK    1  A    between atoms: C2_2  and  C3_3 
REMARK    2  A    between atoms: C3_3  and  C4_4 
ROOT
HETATM    1  C1  UNL     1     -34.836   4.805   4.983  1.00 20.00     0.059 C 
HETATM    2  C2  UNL     1     -34.437   5.471   3.735  1.00 20.00     0.132 C 
HETATM    3  N5  UNL     1     -35.153   4.279   5.967  1.00 20.00    -0.197 NA
ENDROOT
BRANCH   2   4
HETATM    4  C3  UNL     1     -33.660   6.754   4.022  1.00 20.00     0.131 C 
BRANCH   4   5
HETATM    5  C4  UNL     1     -32.385   6.835   3.211  1.00 20.00     0.388 C 
HETATM    6  F6  UNL     1     -31.915   5.606   2.908  1.00 20.00    -0.171 F 
HETATM    7  F7  UNL     1     -32.578   7.506   2.056  1.00 20.00    -0.171 F 
HETATM    8  F8  UNL     1     -31.422   7.481   3.905  1.00 20.00    -0.171 F 
ENDBRANCH   4   5
ENDBRANCH   2   4
TORSDOF 2
ENDMDL
MODEL 6
REMARK VINA RESULT:      -4.6      3.357      4.132
REMARK  2 active torsions:
REMARK  status: ('A' for Active; 'I' for Inactive)
REMARK    1  A    between atoms: C2_2  and  C3_3 
REMARK    2  A    between atoms: C3_3  and  C4_4 
ROOT
HETATM    1  C1  UNL     1     -34.848   4.803   4.950  1.00 20.00     0.059 C 
HETATM    2  C2  UNL     1     -34.494   5.523   3.719  1.00 20.00     0.132 C 
HETATM    3  N5  UNL     1     -35.128   4.232   5.921  1.00 20.00    -0.197 NA
ENDROOT
BRANCH   2   4
HETATM    4  C3  UNL     1     -33.662   6.766   4.031  1.00 20.00     0.131 C 
BRANCH   4   5
HETATM    5  C4  UNL     1     -32.402   6.826   3.194  1.00 20.00     0.388 C 
HETATM    6  F6  UNL     1     -31.379   7.372   3.884  1.00 20.00    -0.171 F 
HETATM    7  F7  UNL     1     -32.023   5.595   2.787  1.00 20.00    -0.171 F 
HETATM    8  F8  UNL     1     -32.601   7.580   2.091  1.00 20.00    -0.171 F 
ENDBRANCH   4   5
ENDBRANCH   2   4
TORSDOF 2
ENDMDL
MODEL 7
REMARK VINA RESULT:      -4.4      2.659      3.221
REMARK  2 active torsions:
REMARK  status: ('A' for Active; 'I' for Inactive)
REMARK    1  A    between atoms: C2_2  and  C3_3 
REMARK    2  A    between atoms: C3_3  and  C4_4 
ROOT
HETATM    1  C1  UNL     1     -34.267   6.139   6.444  1.00 20.00     0.059 C 
HETATM    2  C2  UNL     1     -35.051   4.983   5.989  1.00 20.00     0.132 C 
HETATM    3  N5  UNL     1     -33.649   7.052   6.805  1.00 20.00    -0.197 NA
ENDROOT
BRANCH   2   4
HETATM    4  C3  UNL     1     -34.540   4.468   4.645  1.00 20.00     0.131 C 
BRANCH   4   5
HETATM    5  C4  UNL     1     -34.812   5.448   3.525  1.00 20.00     0.388 C 
HETATM    6  F6  UNL     1     -34.158   6.612   3.720  1.00 20.00    -0.171 F 
HETATM    7  F7  UNL     1     -34.429   4.948   2.330  1.00 20.00    -0.171 F 
HETATM    8  F8  UNL     1     -36.131   5.727   3.448  1.00 20.00    -0.171 F 
ENDBRANCH   4   5
ENDBRANCH   2   4
TORSDOF 2
ENDMDL
MODEL 8
REMARK VINA RESULT:      -3.9     12.378     13.027
REMARK  2 active torsions:
REMARK  status: ('A' for Active; 'I' for Inactive)
REMARK    1  A    between atoms: C2_2  and  C3_3 
REMARK    2  A    between atoms: C3_3  and  C4_4 
ROOT
HETATM    1  C1  UNL     1     -34.421  13.678  -4.036  1.00 20.00     0.059 C 
HETATM    2  C2  UNL     1     -33.933  14.862  -3.316  1.00 20.00     0.132 C 
HETATM    3  N5  UNL     1     -34.805  12.743  -4.605  1.00 20.00    -0.197 NA
ENDROOT
BRANCH   2   4
HETATM    4  C3  UNL     1     -35.075  15.575  -2.594  1.00 20.00     0.131 C 
BRANCH   4   5
HETATM    5  C4  UNL     1     -34.564  16.611  -1.616  1.00 20.00     0.388 C 
HETATM    6  F6  UNL     1     -33.232  16.788  -1.737  1.00 20.00    -0.171 F 
HETATM    7  F7  UNL     1     -35.164  17.806  -1.807  1.00 20.00    -0.171 F 
HETATM    8  F8  UNL     1     -34.813  16.226  -0.345  1.00 20.00    -0.171 F 
ENDBRANCH   4   5
ENDBRANCH   2   4
TORSDOF 2
ENDMDL
MODEL 9
REMARK VINA RESULT:      -3.8      5.253      6.064
REMARK  2 active torsions:
REMARK  status: ('A' for Active; 'I' for Inactive)
REMARK    1  A    between atoms: C2_2  and  C3_3 
REMARK    2  A    between atoms: C3_3  and  C4_4 
ROOT
HETATM    1  C1  UNL     1     -32.956   6.550   3.551  1.00 20.00     0.059 C 
HETATM    2  C2  UNL     1     -32.100   7.308   2.628  1.00 20.00     0.132 C 
HETATM    3  N5  UNL     1     -33.630   5.950   4.280  1.00 20.00    -0.197 NA
ENDROOT
BRANCH   2   4
HETATM    4  C3  UNL     1     -32.808   8.568   2.133  1.00 20.00     0.131 C 
BRANCH   4   5
HETATM    5  C4  UNL     1     -32.148   9.137   0.896  1.00 20.00     0.388 C 
HETATM    6  F6  UNL     1     -30.942   8.571   0.676  1.00 20.00    -0.171 F 
HETATM    7  F7  UNL     1     -32.909   8.939  -0.203  1.00 20.00    -0.171 F 
HETATM    8  F8  UNL     1     -31.959  10.468   1.028  1.00 20.00    -0.171 F 
ENDBRANCH   4   5
ENDBRANCH   2   4
TORSDOF 2
ENDMDL
