MODEL 1
REMARK VINA RESULT:      -6.1      0.000      0.000
REMARK  2 active torsions:
REMARK  status: ('A' for Active; 'I' for Inactive)
REMARK    1  A    between atoms: C1_1  and  C4_4 
REMARK    2  A    between atoms: C3_3  and  C4_4 
ROOT
HETATM    1  C4  UNL     1     -33.934   6.180   3.781  1.00 20.00     0.359 C 
HETATM    2  F10 UNL     1     -34.600   7.341   3.529  1.00 20.00    -0.192 F 
HETATM    3  F11 UNL     1     -34.329   5.306   2.817  1.00 20.00    -0.192 F 
ENDROOT
BRANCH   1   4
HETATM    4  C1  UNL     1     -34.264   5.695   5.157  1.00 20.00     0.238 C 
HETATM    5  C2  UNL     1     -34.877   4.542   5.441  1.00 20.00     0.307 C 
HETATM    6  F6  UNL     1     -35.133   4.189   6.718  1.00 20.00    -0.170 F 
HETATM    7  F7  UNL     1     -35.247   3.719   4.437  1.00 20.00    -0.170 F 
HETATM    8  F5  UNL     1     -33.930   6.497   6.196  1.00 20.00    -0.198 F 
ENDBRANCH   1   4
BRANCH   1   9
HETATM    9  C3  UNL     1     -32.452   6.438   3.610  1.00 20.00     0.432 C 
HETATM   10  F8  UNL     1     -31.907   5.510   2.786  1.00 20.00    -0.207 F 
HETATM   11  F9  UNL     1     -32.275   7.642   3.009  1.00 20.00    -0.207 F 
ENDBRANCH   1   9
TORSDOF 2
ENDMDL
MODEL 2
REMARK VINA RESULT:      -6.0      1.192      3.520
REMARK  2 active torsions:
REMARK  status: ('A' for Active; 'I' for Inactive)
REMARK    1  A    between atoms: C1_1  and  C4_4 
REMARK    2  A    between atoms: C3_3  and  C4_4 
ROOT
HETATM    1  C4  UNL     1     -34.971   4.912   4.720  1.00 20.00     0.359 C 
HETATM    2  F10 UNL     1     -34.818   3.663   4.199  1.00 20.00    -0.192 F 
HETATM    3  F11 UNL     1     -36.188   5.348   4.296  1.00 20.00    -0.192 F 
ENDROOT
BRANCH   1   4
HETATM    4  C1  UNL     1     -33.857   5.795   4.253  1.00 20.00     0.238 C 
HETATM    5  C2  UNL     1     -33.423   5.886   2.993  1.00 20.00     0.307 C 
HETATM    6  F6  UNL     1     -32.408   6.714   2.668  1.00 20.00    -0.170 F 
HETATM    7  F7  UNL     1     -34.004   5.138   2.032  1.00 20.00    -0.170 F 
HETATM    8  F5  UNL     1     -33.229   6.549   5.186  1.00 20.00    -0.198 F 
ENDBRANCH   1   4
BRANCH   1   9
HETATM    9  C3  UNL     1     -35.008   4.793   6.229  1.00 20.00     0.432 C 
HETATM   10  F8  UNL     1     -33.917   4.122   6.672  1.00 20.00    -0.207 F 
HETATM   11  F9  UNL     1     -34.947   6.035   6.775  1.00 20.00    -0.207 F 
ENDBRANCH   1   9
TORSDOF 2
ENDMDL
MODEL 3
REMARK VINA RESULT:      -6.0      0.548      1.618
REMARK  2 active torsions:
REMARK  status: ('A' for Active; 'I' for Inactive)
REMARK    1  A    between atoms: C1_1  and  C4_4 
REMARK    2  A    between atoms: C3_3  and  C4_4 
ROOT
HETATM    1  C4  UNL     1     -34.042   5.905   3.597  1.00 20.00     0.359 C 
HETATM    2  F10 UNL     1     -34.569   7.161   3.572  1.00 20.00    -0.192 F 
HETATM    3  F11 UNL     1     -34.354   5.344   2.398  1.00 20.00    -0.192 F 
ENDROOT
BRANCH   1   4
HETATM    4  C1  UNL     1     -34.615   5.139   4.748  1.00 20.00     0.238 C 
HETATM    5  C2  UNL     1     -34.637   5.557   6.017  1.00 20.00     0.307 C 
HETATM    6  F6  UNL     1     -35.177   4.793   6.989  1.00 20.00    -0.170 F 
HETATM    7  F7  UNL     1     -34.110   6.759   6.332  1.00 20.00    -0.170 F 
HETATM    8  F5  UNL     1     -35.137   3.918   4.484  1.00 20.00    -0.198 F 
ENDBRANCH   1   4
BRANCH   1   9
HETATM    9  C3  UNL     1     -32.536   6.026   3.689  1.00 20.00     0.432 C 
HETATM   10  F8  UNL     1     -31.957   5.510   2.577  1.00 20.00    -0.207 F 
HETATM   11  F9  UNL     1     -32.196   7.339   3.730  1.00 20.00    -0.207 F 
ENDBRANCH   1   9
TORSDOF 2
ENDMDL
MODEL 4
REMARK VINA RESULT:      -6.0      1.108      3.475
REMARK  2 active torsions:
REMARK  status: ('A' for Active; 'I' for Inactive)
REMARK    1  A    between atoms: C1_1  and  C4_4 
REMARK    2  A    between atoms: C3_3  and  C4_4 
ROOT
HETATM    1  C4  UNL     1     -34.847   5.120   4.293  1.00 20.00     0.359 C 
HETATM    2  F10 UNL     1     -34.503   4.399   3.190  1.00 20.00    -0.192 F 
HETATM    3  F11 UNL     1     -36.058   5.674   4.016  1.00 20.00    -0.192 F 
ENDROOT
BRANCH   1   4
HETATM    4  C1  UNL     1     -33.800   6.154   4.567  1.00 20.00     0.238 C 
HETATM    5  C2  UNL     1     -32.772   6.443   3.763  1.00 20.00     0.307 C 
HETATM    6  F6  UNL     1     -31.876   7.395   4.098  1.00 20.00    -0.170 F 
HETATM    7  F7  UNL     1     -32.626   5.771   2.602  1.00 20.00    -0.170 F 
HETATM    8  F5  UNL     1     -33.893   6.840   5.731  1.00 20.00    -0.198 F 
ENDBRANCH   1   4
BRANCH   1   9
HETATM    9  C3  UNL     1     -35.015   4.161   5.452  1.00 20.00     0.432 C 
HETATM   10  F8  UNL     1     -33.804   3.790   5.932  1.00 20.00    -0.207 F 
HETATM   11  F9  UNL     1     -35.656   4.797   6.466  1.00 20.00    -0.207 F 
ENDBRANCH   1   9
TORSDOF 2
ENDMDL
MODEL 5
REMARK VINA RESULT:      -5.8      1.069      3.934
REMARK  2 active torsions:
REMARK  status: ('A' for Active; 'I' for Inactive)
REMARK    1  A    between atoms: C1_1  and  C4_4 
REMARK    2  A    between atoms: C3_3  and  C4_4 
ROOT
HETATM    1  C4  UNL     1     -34.650   5.570   4.666  1.00 20.00     0.359 C 
HETATM    2  F10 UNL     1     -35.920   5.302   4.256  1.00 20.00    -0.192 F 
HETATM    3  F11 UNL     1     -34.734   6.686   5.440  1.00 20.00    -0.192 F 
ENDROOT
BRANCH   1   4
HETATM    4  C1  UNL     1     -33.765   5.771   3.476  1.00 20.00     0.238 C 
HETATM    5  C2  UNL     1     -32.648   6.504   3.461  1.00 20.00     0.307 C 
HETATM    6  F6  UNL     1     -31.914   6.626   2.335  1.00 20.00    -0.170 F 
HETATM    7  F7  UNL     1     -32.249   7.134   4.586  1.00 20.00    -0.170 F 
HETATM    8  F5  UNL     1     -34.136   5.174   2.318  1.00 20.00    -0.198 F 
ENDBRANCH   1   4
BRANCH   1   9
HETATM    9  C3  UNL     1     -34.181   4.423   5.536  1.00 20.00     0.432 C 
HETATM   10  F8  UNL     1     -34.134   4.808   6.834  1.00 20.00    -0.207 F 
HETATM   11  F9  UNL     1     -35.082   3.412   5.463  1.00 20.00    -0.207 F 
ENDBRANCH   1   9
TORSDOF 2
ENDMDL
MODEL 6
REMARK VINA RESULT:      -5.7      1.481      3.306
REMARK  2 active torsions:
REMARK  status: ('A' for Active; 'I' for Inactive)
REMARK    1  A    between atoms: C1_1  and  C4_4 
REMARK    2  A    between atoms: C3_3  and  C4_4 
ROOT
HETATM    1  C4  UNL     1     -34.762   5.137   4.434  1.00 20.00     0.359 C 
HETATM    2  F10 UNL     1     -34.424   4.913   3.134  1.00 20.00    -0.192 F 
HETATM    3  F11 UNL     1     -36.038   5.608   4.414  1.00 20.00    -0.192 F 
ENDROOT
BRANCH   1   4
HETATM    4  C1  UNL     1     -33.806   6.113   5.045  1.00 20.00     0.238 C 
HETATM    5  C2  UNL     1     -33.880   6.585   6.293  1.00 20.00     0.307 C 
HETATM    6  F6  UNL     1     -32.968   7.466   6.756  1.00 20.00    -0.170 F 
HETATM    7  F7  UNL     1     -34.881   6.179   7.101  1.00 20.00    -0.170 F 
HETATM    8  F5  UNL     1     -32.796   6.565   4.265  1.00 20.00    -0.198 F 
ENDBRANCH   1   4
BRANCH   1   9
HETATM    9  C3  UNL     1     -34.758   3.808   5.160  1.00 20.00     0.432 C 
HETATM   10  F8  UNL     1     -33.586   3.639   5.819  1.00 20.00    -0.207 F 
HETATM   11  F9  UNL     1     -35.735   3.811   6.101  1.00 20.00    -0.207 F 
ENDBRANCH   1   9
TORSDOF 2
ENDMDL
MODEL 7
REMARK VINA RESULT:      -5.5      0.781      1.404
REMARK  2 active torsions:
REMARK  status: ('A' for Active; 'I' for Inactive)
REMARK    1  A    between atoms: C1_1  and  C4_4 
REMARK    2  A    between atoms: C3_3  and  C4_4 
ROOT
HETATM    1  C4  UNL     1     -33.624   6.380   4.306  1.00 20.00     0.359 C 
HETATM    2  F10 UNL     1     -32.555   7.149   4.655  1.00 20.00    -0.192 F 
HETATM    3  F11 UNL     1     -34.504   7.217   3.693  1.00 20.00    -0.192 F 
ENDROOT
BRANCH   1   4
HETATM    4  C1  UNL     1     -34.206   5.739   5.526  1.00 20.00     0.238 C 
HETATM    5  C2  UNL     1     -35.062   4.713   5.524  1.00 20.00     0.307 C 
HETATM    6  F6  UNL     1     -35.534   4.201   6.680  1.00 20.00    -0.170 F 
HETATM    7  F7  UNL     1     -35.462   4.182   4.349  1.00 20.00    -0.170 F 
HETATM    8  F5  UNL     1     -33.850   6.252   6.728  1.00 20.00    -0.198 F 
ENDBRANCH   1   4
BRANCH   1   9
HETATM    9  C3  UNL     1     -33.159   5.355   3.293  1.00 20.00     0.432 C 
HETATM   10  F8  UNL     1     -34.036   5.284   2.263  1.00 20.00    -0.207 F 
HETATM   11  F9  UNL     1     -31.974   5.755   2.767  1.00 20.00    -0.207 F 
ENDBRANCH   1   9
TORSDOF 2
ENDMDL
MODEL 8
REMARK VINA RESULT:      -5.5      1.196      3.938
REMARK  2 active torsions:
REMARK  status: ('A' for Active; 'I' for Inactive)
REMARK    1  A    between atoms: C1_1  and  C4_4 
REMARK    2  A    between atoms: C3_3  and  C4_4 
ROOT
HETATM    1  C4  UNL     1     -34.101   5.592   4.913  1.00 20.00     0.359 C 
HETATM    2  F10 UNL     1     -34.281   6.726   5.645  1.00 20.00    -0.192 F 
HETATM    3  F11 UNL     1     -33.313   4.780   5.667  1.00 20.00    -0.192 F 
ENDROOT
BRANCH   1   4
HETATM    4  C1  UNL     1     -33.472   5.932   3.599  1.00 20.00     0.238 C 
HETATM    5  C2  UNL     1     -32.451   6.778   3.429  1.00 20.00     0.307 C 
HETATM    6  F6  UNL     1     -31.949   7.022   2.200  1.00 20.00    -0.170 F 
HETATM    7  F7  UNL     1     -31.915   7.399   4.501  1.00 20.00    -0.170 F 
HETATM    8  F5  UNL     1     -33.990   5.349   2.491  1.00 20.00    -0.198 F 
ENDBRANCH   1   4
BRANCH   1   9
HETATM    9  C3  UNL     1     -35.448   4.922   4.740  1.00 20.00     0.432 C 
HETATM   10  F8  UNL     1     -36.129   5.496   3.720  1.00 20.00    -0.207 F 
HETATM   11  F9  UNL     1     -35.258   3.623   4.398  1.00 20.00    -0.207 F 
ENDBRANCH   1   9
TORSDOF 2
ENDMDL
MODEL 9
REMARK VINA RESULT:      -5.4      1.501      2.516
REMARK  2 active torsions:
REMARK  status: ('A' for Active; 'I' for Inactive)
REMARK    1  A    between atoms: C1_1  and  C4_4 
REMARK    2  A    between atoms: C3_3  and  C4_4 
ROOT
HETATM    1  C4  UNL     1     -32.380   6.766   3.516  1.00 20.00     0.359 C 
HETATM    2  F10 UNL     1     -31.649   5.676   3.151  1.00 20.00    -0.192 F 
HETATM    3  F11 UNL     1     -31.608   7.458   4.396  1.00 20.00    -0.192 F 
ENDROOT
BRANCH   1   4
HETATM    4  C1  UNL     1     -33.676   6.326   4.122  1.00 20.00     0.238 C 
HETATM    5  C2  UNL     1     -34.571   5.528   3.533  1.00 20.00     0.307 C 
HETATM    6  F6  UNL     1     -35.715   5.186   4.162  1.00 20.00    -0.170 F 
HETATM    7  F7  UNL     1     -34.329   5.060   2.290  1.00 20.00    -0.170 F 
HETATM    8  F5  UNL     1     -33.971   6.788   5.361  1.00 20.00    -0.198 F 
ENDBRANCH   1   4
BRANCH   1   9
HETATM    9  C3  UNL     1     -32.591   7.627   2.289  1.00 20.00     0.432 C 
HETATM   10  F8  UNL     1     -33.067   8.844   2.647  1.00 20.00    -0.207 F 
HETATM   11  F9  UNL     1     -31.395   7.841   1.684  1.00 20.00    -0.207 F 
ENDBRANCH   1   9
TORSDOF 2
ENDMDL
