MODEL 1
REMARK VINA RESULT:      -5.0      0.000      0.000
REMARK  1 active torsions:
REMARK  status: ('A' for Active; 'I' for Inactive)
REMARK    1  A    between atoms: C2_2  and  C4_4 
ROOT
HETATM    1  C4  UNL     1     -35.135   4.875   4.865  1.00 20.00     0.407 C 
HETATM    2  F5  UNL     1     -36.190   5.290   4.118  1.00 20.00    -0.167 F 
HETATM    3  F6  UNL     1     -34.938   3.564   4.570  1.00 20.00    -0.167 F 
HETATM    4  F7  UNL     1     -35.527   4.928   6.163  1.00 20.00    -0.167 F 
ENDROOT
BRANCH   1   5
HETATM    5  C2  UNL     1     -33.918   5.683   4.580  1.00 20.00     0.084 C 
HETATM    6  C1  UNL     1     -33.485   5.994   3.351  1.00 20.00    -0.026 C 
HETATM    7  C3  UNL     1     -32.261   6.805   3.081  1.00 20.00     0.036 C 
ENDBRANCH   1   5
TORSDOF 1
ENDMDL
MODEL 2
REMARK VINA RESULT:      -5.0      0.038      1.434
REMARK  1 active torsions:
REMARK  status: ('A' for Active; 'I' for Inactive)
REMARK    1  A    between atoms: C2_2  and  C4_4 
ROOT
HETATM    1  C4  UNL     1     -35.139   4.884   4.856  1.00 20.00     0.407 C 
HETATM    2  F5  UNL     1     -34.942   3.567   4.593  1.00 20.00    -0.167 F 
HETATM    3  F6  UNL     1     -35.520   4.972   6.156  1.00 20.00    -0.167 F 
HETATM    4  F7  UNL     1     -36.201   5.279   4.110  1.00 20.00    -0.167 F 
ENDROOT
BRANCH   1   5
HETATM    5  C2  UNL     1     -33.906   5.677   4.599  1.00 20.00     0.084 C 
HETATM    6  C1  UNL     1     -33.462   6.015   3.380  1.00 20.00    -0.026 C 
HETATM    7  C3  UNL     1     -32.222   6.811   3.139  1.00 20.00     0.036 C 
ENDBRANCH   1   5
TORSDOF 1
ENDMDL
MODEL 3
REMARK VINA RESULT:      -5.0      0.648      1.401
REMARK  1 active torsions:
REMARK  status: ('A' for Active; 'I' for Inactive)
REMARK    1  A    between atoms: C2_2  and  C4_4 
ROOT
HETATM    1  C4  UNL     1     -34.811   5.053   5.394  1.00 20.00     0.407 C 
HETATM    2  F5  UNL     1     -35.246   5.495   6.601  1.00 20.00    -0.167 F 
HETATM    3  F6  UNL     1     -35.894   5.016   4.576  1.00 20.00    -0.167 F 
HETATM    4  F7  UNL     1     -34.408   3.769   5.566  1.00 20.00    -0.167 F 
ENDROOT
BRANCH   1   5
HETATM    5  C2  UNL     1     -33.748   5.938   4.844  1.00 20.00     0.084 C 
HETATM    6  C1  UNL     1     -33.459   6.057   3.541  1.00 20.00    -0.026 C 
HETATM    7  C3  UNL     1     -32.388   6.949   3.005  1.00 20.00     0.036 C 
ENDBRANCH   1   5
TORSDOF 1
ENDMDL
MODEL 4
REMARK VINA RESULT:      -4.8      1.615      2.255
REMARK  1 active torsions:
REMARK  status: ('A' for Active; 'I' for Inactive)
REMARK    1  A    between atoms: C2_2  and  C4_4 
ROOT
HETATM    1  C4  UNL     1     -34.926   5.220   3.823  1.00 20.00     0.407 C 
HETATM    2  F5  UNL     1     -36.158   5.692   3.507  1.00 20.00    -0.167 F 
HETATM    3  F6  UNL     1     -34.283   4.983   2.651  1.00 20.00    -0.167 F 
HETATM    4  F7  UNL     1     -35.107   4.014   4.419  1.00 20.00    -0.167 F 
ENDROOT
BRANCH   1   5
HETATM    5  C2  UNL     1     -34.174   6.189   4.666  1.00 20.00     0.084 C 
HETATM    6  C1  UNL     1     -34.210   6.216   6.006  1.00 20.00    -0.026 C 
HETATM    7  C3  UNL     1     -33.450   7.196   6.837  1.00 20.00     0.036 C 
ENDBRANCH   1   5
TORSDOF 1
ENDMDL
MODEL 5
REMARK VINA RESULT:      -4.8      1.609      2.645
REMARK  1 active torsions:
REMARK  status: ('A' for Active; 'I' for Inactive)
REMARK    1  A    between atoms: C2_2  and  C4_4 
ROOT
HETATM    1  C4  UNL     1     -34.889   5.220   3.759  1.00 20.00     0.407 C 
HETATM    2  F5  UNL     1     -35.031   4.007   4.352  1.00 20.00    -0.167 F 
HETATM    3  F6  UNL     1     -36.140   5.693   3.528  1.00 20.00    -0.167 F 
HETATM    4  F7  UNL     1     -34.325   4.999   2.545  1.00 20.00    -0.167 F 
ENDROOT
BRANCH   1   5
HETATM    5  C2  UNL     1     -34.107   6.153   4.614  1.00 20.00     0.084 C 
HETATM    6  C1  UNL     1     -34.232   6.248   5.945  1.00 20.00    -0.026 C 
HETATM    7  C3  UNL     1     -33.440   7.191   6.790  1.00 20.00     0.036 C 
ENDBRANCH   1   5
TORSDOF 1
ENDMDL
MODEL 6
REMARK VINA RESULT:      -4.7      2.508      3.569
REMARK  1 active torsions:
REMARK  status: ('A' for Active; 'I' for Inactive)
REMARK    1  A    between atoms: C2_2  and  C4_4 
ROOT
HETATM    1  C4  UNL     1     -33.102   6.182   3.275  1.00 20.00     0.407 C 
HETATM    2  F5  UNL     1     -31.822   5.734   3.229  1.00 20.00    -0.167 F 
HETATM    3  F6  UNL     1     -33.795   5.488   2.336  1.00 20.00    -0.167 F 
HETATM    4  F7  UNL     1     -33.081   7.476   2.866  1.00 20.00    -0.167 F 
ENDROOT
BRANCH   1   5
HETATM    5  C2  UNL     1     -33.692   5.999   4.629  1.00 20.00     0.084 C 
HETATM    6  C1  UNL     1     -34.549   5.022   4.956  1.00 20.00    -0.026 C 
HETATM    7  C3  UNL     1     -35.133   4.852   6.320  1.00 20.00     0.036 C 
ENDBRANCH   1   5
TORSDOF 1
ENDMDL
MODEL 7
REMARK VINA RESULT:      -4.7      2.492      3.565
REMARK  1 active torsions:
REMARK  status: ('A' for Active; 'I' for Inactive)
REMARK    1  A    between atoms: C2_2  and  C4_4 
ROOT
HETATM    1  C4  UNL     1     -33.128   6.163   3.265  1.00 20.00     0.407 C 
HETATM    2  F5  UNL     1     -33.831   5.484   2.323  1.00 20.00    -0.167 F 
HETATM    3  F6  UNL     1     -33.107   7.464   2.877  1.00 20.00    -0.167 F 
HETATM    4  F7  UNL     1     -31.849   5.715   3.198  1.00 20.00    -0.167 F 
ENDROOT
BRANCH   1   5
HETATM    5  C2  UNL     1     -33.739   6.010   4.613  1.00 20.00     0.084 C 
HETATM    6  C1  UNL     1     -34.540   4.997   4.972  1.00 20.00    -0.026 C 
HETATM    7  C3  UNL     1     -35.146   4.858   6.329  1.00 20.00     0.036 C 
ENDBRANCH   1   5
TORSDOF 1
ENDMDL
MODEL 8
REMARK VINA RESULT:      -4.5      3.096      3.943
REMARK  1 active torsions:
REMARK  status: ('A' for Active; 'I' for Inactive)
REMARK    1  A    between atoms: C2_2  and  C4_4 
ROOT
HETATM    1  C4  UNL     1     -32.366   6.808   3.337  1.00 20.00     0.407 C 
HETATM    2  F5  UNL     1     -31.845   5.743   2.675  1.00 20.00    -0.167 F 
HETATM    3  F6  UNL     1     -32.894   7.633   2.397  1.00 20.00    -0.167 F 
HETATM    4  F7  UNL     1     -31.323   7.471   3.897  1.00 20.00    -0.167 F 
ENDROOT
BRANCH   1   5
HETATM    5  C2  UNL     1     -33.395   6.382   4.323  1.00 20.00     0.084 C 
HETATM    6  C1  UNL     1     -34.216   5.335   4.159  1.00 20.00    -0.026 C 
HETATM    7  C3  UNL     1     -35.245   4.921   5.158  1.00 20.00     0.036 C 
ENDBRANCH   1   5
TORSDOF 1
ENDMDL
MODEL 9
REMARK VINA RESULT:      -4.4      1.809      2.124
REMARK  1 active torsions:
REMARK  status: ('A' for Active; 'I' for Inactive)
REMARK    1  A    between atoms: C2_2  and  C4_4 
ROOT
HETATM    1  C4  UNL     1     -34.728   5.037   6.284  1.00 20.00     0.407 C 
HETATM    2  F5  UNL     1     -34.609   6.324   6.698  1.00 20.00    -0.167 F 
HETATM    3  F6  UNL     1     -35.837   4.533   6.884  1.00 20.00    -0.167 F 
HETATM    4  F7  UNL     1     -33.668   4.360   6.794  1.00 20.00    -0.167 F 
ENDROOT
BRANCH   1   5
HETATM    5  C2  UNL     1     -34.828   4.951   4.802  1.00 20.00     0.084 C 
HETATM    6  C1  UNL     1     -34.071   5.654   3.948  1.00 20.00    -0.026 C 
HETATM    7  C3  UNL     1     -34.185   5.557   2.463  1.00 20.00     0.036 C 
ENDBRANCH   1   5
TORSDOF 1
ENDMDL
