MODEL 1
REMARK VINA RESULT:      -4.7      0.000      0.000
REMARK  0 active torsions:
REMARK  status: ('A' for Active; 'I' for Inactive)
ROOT
HETATM    1  C1  UNL     1     -33.829  17.729  -3.136  1.00 20.00     0.031 A 
HETATM    2  C2  UNL     1     -34.582  15.535  -2.408  1.00 20.00     0.043 A 
HETATM    3  C3  UNL     1     -34.317  16.036  -4.746  1.00 20.00     0.033 A 
HETATM    4  C4  UNL     1     -33.903  17.332  -4.471  1.00 20.00    -0.045 A 
HETATM    5  C5  UNL     1     -34.654  15.142  -3.737  1.00 20.00     0.017 A 
HETATM    6  C6  UNL     1     -34.166  16.836  -2.109  1.00 20.00     0.035 A 
HETATM    7  C7  UNL     1     -34.451  15.456  -6.087  1.00 20.00     0.171 A 
HETATM    8  C8  UNL     1     -34.924  14.021  -6.077  1.00 20.00     0.163 A 
HETATM    9  C9  UNL     1     -33.538  18.313  -5.533  1.00 20.00     0.049 C 
HETATM   10  O10 UNL     1     -34.206  16.071  -7.114  1.00 20.00    -0.291 OA
HETATM   11  S11 UNL     1     -35.151  13.556  -4.335  1.00 20.00    -0.121 SA
HETATM   12 CL12 UNL     1     -34.069  17.344  -0.467  1.00 20.00    -0.084 Cl
ENDROOT
TORSDOF 0
ENDMDL
MODEL 2
REMARK VINA RESULT:      -4.7      1.806      2.775
REMARK  0 active torsions:
REMARK  status: ('A' for Active; 'I' for Inactive)
ROOT
HETATM    1  C1  UNL     1     -34.483  14.968  -2.968  1.00 20.00     0.031 A 
HETATM    2  C2  UNL     1     -34.478  17.369  -3.354  1.00 20.00     0.043 A 
HETATM    3  C3  UNL     1     -34.433  15.822  -5.196  1.00 20.00     0.033 A 
HETATM    4  C4  UNL     1     -34.451  14.729  -4.342  1.00 20.00    -0.045 A 
HETATM    5  C5  UNL     1     -34.446  17.128  -4.720  1.00 20.00     0.017 A 
HETATM    6  C6  UNL     1     -34.497  16.281  -2.476  1.00 20.00     0.035 A 
HETATM    7  C7  UNL     1     -34.399  15.753  -6.661  1.00 20.00     0.171 A 
HETATM    8  C8  UNL     1     -34.385  17.109  -7.328  1.00 20.00     0.163 A 
HETATM    9  C9  UNL     1     -34.435  13.319  -4.825  1.00 20.00     0.049 C 
HETATM   10  O10 UNL     1     -34.383  14.703  -7.285  1.00 20.00    -0.291 OA
HETATM   11  S11 UNL     1     -34.417  18.347  -5.997  1.00 20.00    -0.121 SA
HETATM   12 CL12 UNL     1     -34.537  16.556  -0.777  1.00 20.00    -0.084 Cl
ENDROOT
TORSDOF 0
ENDMDL
MODEL 3
REMARK VINA RESULT:      -4.5      2.527      2.982
REMARK  0 active torsions:
REMARK  status: ('A' for Active; 'I' for Inactive)
ROOT
HETATM    1  C1  UNL     1     -33.493  16.196  -2.594  1.00 20.00     0.031 A 
HETATM    2  C2  UNL     1     -35.553  17.482  -2.471  1.00 20.00     0.043 A 
HETATM    3  C3  UNL     1     -35.533  15.271  -3.419  1.00 20.00     0.033 A 
HETATM    4  C4  UNL     1     -34.171  15.135  -3.193  1.00 20.00    -0.045 A 
HETATM    5  C5  UNL     1     -36.225  16.425  -3.067  1.00 20.00     0.017 A 
HETATM    6  C6  UNL     1     -34.180  17.364  -2.234  1.00 20.00     0.035 A 
HETATM    7  C7  UNL     1     -36.396  14.259  -4.037  1.00 20.00     0.171 A 
HETATM    8  C8  UNL     1     -37.840  14.689  -4.154  1.00 20.00     0.163 A 
HETATM    9  C9  UNL     1     -33.404  13.911  -3.563  1.00 20.00     0.049 C 
HETATM   10  O10 UNL     1     -35.990  13.172  -4.420  1.00 20.00    -0.291 OA
HETATM   11  S11 UNL     1     -37.946  16.364  -3.455  1.00 20.00    -0.121 SA
HETATM   12 CL12 UNL     1     -33.327  18.664  -1.495  1.00 20.00    -0.084 Cl
ENDROOT
TORSDOF 0
ENDMDL
MODEL 4
REMARK VINA RESULT:      -4.4      5.171      6.654
REMARK  0 active torsions:
REMARK  status: ('A' for Active; 'I' for Inactive)
ROOT
HETATM    1  C1  UNL     1     -34.038  18.322   3.383  1.00 20.00     0.031 A 
HETATM    2  C2  UNL     1     -35.689  18.136   1.607  1.00 20.00     0.043 A 
HETATM    3  C3  UNL     1     -33.395  18.665   1.110  1.00 20.00     0.033 A 
HETATM    4  C4  UNL     1     -33.043  18.617   2.451  1.00 20.00    -0.045 A 
HETATM    5  C5  UNL     1     -34.697  18.430   0.682  1.00 20.00     0.017 A 
HETATM    6  C6  UNL     1     -35.355  18.082   2.964  1.00 20.00     0.035 A 
HETATM    7  C7  UNL     1     -32.479  18.959   0.003  1.00 20.00     0.171 A 
HETATM    8  C8  UNL     1     -33.148  18.943  -1.352  1.00 20.00     0.163 A 
HETATM    9  C9  UNL     1     -31.656  18.867   2.938  1.00 20.00     0.049 C 
HETATM   10  O10 UNL     1     -31.291  19.196   0.158  1.00 20.00    -0.291 OA
HETATM   11  S11 UNL     1     -34.899  18.548  -1.068  1.00 20.00    -0.121 SA
HETATM   12 CL12 UNL     1     -36.570  17.720   4.128  1.00 20.00    -0.084 Cl
ENDROOT
TORSDOF 0
ENDMDL
MODEL 5
REMARK VINA RESULT:      -4.4      2.105      2.833
REMARK  0 active torsions:
REMARK  status: ('A' for Active; 'I' for Inactive)
ROOT
HETATM    1  C1  UNL     1     -34.554  14.869  -2.965  1.00 20.00     0.031 A 
HETATM    2  C2  UNL     1     -35.590  17.044  -3.295  1.00 20.00     0.043 A 
HETATM    3  C3  UNL     1     -35.460  15.453  -5.095  1.00 20.00     0.033 A 
HETATM    4  C4  UNL     1     -34.814  14.524  -4.291  1.00 20.00    -0.045 A 
HETATM    5  C5  UNL     1     -35.846  16.699  -4.615  1.00 20.00     0.017 A 
HETATM    6  C6  UNL     1     -34.941  16.122  -2.469  1.00 20.00     0.035 A 
HETATM    7  C7  UNL     1     -35.808  15.256  -6.506  1.00 20.00     0.171 A 
HETATM    8  C8  UNL     1     -36.507  16.444  -7.125  1.00 20.00     0.163 A 
HETATM    9  C9  UNL     1     -34.385  13.183  -4.781  1.00 20.00     0.049 C 
HETATM   10  O10 UNL     1     -35.558  14.232  -7.125  1.00 20.00    -0.291 OA
HETATM   11  S11 UNL     1     -36.649  17.705  -5.824  1.00 20.00    -0.121 SA
HETATM   12 CL12 UNL     1     -34.613  16.530  -0.829  1.00 20.00    -0.084 Cl
ENDROOT
TORSDOF 0
ENDMDL
MODEL 6
REMARK VINA RESULT:      -4.3      6.322      7.914
REMARK  0 active torsions:
REMARK  status: ('A' for Active; 'I' for Inactive)
ROOT
HETATM    1  C1  UNL     1     -35.443  17.945   2.057  1.00 20.00     0.031 A 
HETATM    2  C2  UNL     1     -34.568  18.427   4.274  1.00 20.00     0.043 A 
HETATM    3  C3  UNL     1     -33.158  18.580   2.331  1.00 20.00     0.033 A 
HETATM    4  C4  UNL     1     -34.197  18.210   1.489  1.00 20.00    -0.045 A 
HETATM    5  C5  UNL     1     -33.330  18.690   3.706  1.00 20.00     0.017 A 
HETATM    6  C6  UNL     1     -35.628  18.053   3.443  1.00 20.00     0.035 A 
HETATM    7  C7  UNL     1     -31.790  18.892   1.904  1.00 20.00     0.171 A 
HETATM    8  C8  UNL     1     -30.873  19.263   3.045  1.00 20.00     0.163 A 
HETATM    9  C9  UNL     1     -34.040  18.081   0.012  1.00 20.00     0.049 C 
HETATM   10  O10 UNL     1     -31.425  18.856   0.738  1.00 20.00    -0.291 OA
HETATM   11  S11 UNL     1     -31.865  19.173   4.565  1.00 20.00    -0.121 SA
HETATM   12 CL12 UNL     1     -37.173  17.723   4.127  1.00 20.00    -0.084 Cl
ENDROOT
TORSDOF 0
ENDMDL
MODEL 7
REMARK VINA RESULT:      -4.3      2.303      2.770
REMARK  0 active torsions:
REMARK  status: ('A' for Active; 'I' for Inactive)
ROOT
HETATM    1  C1  UNL     1     -35.596  17.827  -2.517  1.00 20.00     0.031 A 
HETATM    2  C2  UNL     1     -33.532  16.583  -2.841  1.00 20.00     0.043 A 
HETATM    3  C3  UNL     1     -35.663  15.598  -3.368  1.00 20.00     0.033 A 
HETATM    4  C4  UNL     1     -36.342  16.744  -2.982  1.00 20.00    -0.045 A 
HETATM    5  C5  UNL     1     -34.277  15.507  -3.303  1.00 20.00     0.017 A 
HETATM    6  C6  UNL     1     -34.198  17.747  -2.447  1.00 20.00     0.035 A 
HETATM    7  C7  UNL     1     -36.288  14.372  -3.878  1.00 20.00     0.171 A 
HETATM    8  C8  UNL     1     -35.295  13.286  -4.218  1.00 20.00     0.163 A 
HETATM    9  C9  UNL     1     -37.827  16.868  -3.038  1.00 20.00     0.049 C 
HETATM   10  O10 UNL     1     -37.495  14.240  -4.015  1.00 20.00    -0.291 OA
HETATM   11  S11 UNL     1     -33.644  13.951  -3.847  1.00 20.00    -0.121 SA
HETATM   12 CL12 UNL     1     -33.293  19.094  -1.871  1.00 20.00    -0.084 Cl
ENDROOT
TORSDOF 0
ENDMDL
MODEL 8
REMARK VINA RESULT:      -4.2      3.038      4.028
REMARK  0 active torsions:
REMARK  status: ('A' for Active; 'I' for Inactive)
ROOT
HETATM    1  C1  UNL     1     -36.474  14.304  -3.996  1.00 20.00     0.031 A 
HETATM    2  C2  UNL     1     -37.281  16.381  -4.969  1.00 20.00     0.043 A 
HETATM    3  C3  UNL     1     -34.924  15.977  -4.700  1.00 20.00     0.033 A 
HETATM    4  C4  UNL     1     -35.153  14.728  -4.140  1.00 20.00    -0.045 A 
HETATM    5  C5  UNL     1     -35.965  16.800  -5.112  1.00 20.00     0.017 A 
HETATM    6  C6  UNL     1     -37.533  15.125  -4.408  1.00 20.00     0.035 A 
HETATM    7  C7  UNL     1     -33.604  16.577  -4.924  1.00 20.00     0.171 A 
HETATM    8  C8  UNL     1     -33.666  17.950  -5.550  1.00 20.00     0.163 A 
HETATM    9  C9  UNL     1     -34.056  13.826  -3.687  1.00 20.00     0.049 C 
HETATM   10  O10 UNL     1     -32.555  16.022  -4.633  1.00 20.00    -0.291 OA
HETATM   11  S11 UNL     1     -35.425  18.338  -5.790  1.00 20.00    -0.121 SA
HETATM   12 CL12 UNL     1     -39.157  14.584  -4.223  1.00 20.00    -0.084 Cl
ENDROOT
TORSDOF 0
ENDMDL
MODEL 9
REMARK VINA RESULT:      -4.1      3.469      4.382
REMARK  0 active torsions:
REMARK  status: ('A' for Active; 'I' for Inactive)
ROOT
HETATM    1  C1  UNL     1     -34.204  15.150  -3.029  1.00 20.00     0.031 A 
HETATM    2  C2  UNL     1     -36.349  14.854  -4.134  1.00 20.00     0.043 A 
HETATM    3  C3  UNL     1     -35.993  16.670  -2.597  1.00 20.00     0.033 A 
HETATM    4  C4  UNL     1     -34.683  16.277  -2.362  1.00 20.00    -0.045 A 
HETATM    5  C5  UNL     1     -36.824  15.975  -3.468  1.00 20.00     0.017 A 
HETATM    6  C6  UNL     1     -35.032  14.442  -3.911  1.00 20.00     0.035 A 
HETATM    7  C7  UNL     1     -36.655  17.825  -1.982  1.00 20.00     0.171 A 
HETATM    8  C8  UNL     1     -38.087  18.006  -2.428  1.00 20.00     0.163 A 
HETATM    9  C9  UNL     1     -33.771  17.001  -1.430  1.00 20.00     0.049 C 
HETATM   10  O10 UNL     1     -36.105  18.571  -1.185  1.00 20.00    -0.291 OA
HETATM   11  S11 UNL     1     -38.444  16.665  -3.602  1.00 20.00    -0.121 SA
HETATM   12 CL12 UNL     1     -34.423  13.053  -4.726  1.00 20.00    -0.084 Cl
ENDROOT
TORSDOF 0
ENDMDL
