MODEL 1
REMARK VINA RESULT:      -4.4      0.000      0.000
REMARK  2 active torsions:
REMARK  status: ('A' for Active; 'I' for Inactive)
REMARK    1  A    between atoms: C3_3  and  O6_6 
REMARK    2  A    between atoms: C4_4  and  O6_6 
ROOT
HETATM    1  C1  UNL     1     -32.130   6.883   3.386  1.00 20.00     0.014 C 
HETATM    2  C2  UNL     1     -33.089   6.191   3.179  1.00 20.00    -0.091 C 
HETATM    3  C4  UNL     1     -34.258   5.348   2.926  1.00 20.00     0.272 C 
ENDROOT
BRANCH   3   4
HETATM    4  O6  UNL     1     -35.214   5.495   3.967  1.00 20.00    -0.297 OA
BRANCH   4   5
HETATM    5  C3  UNL     1     -34.988   4.770   5.113  1.00 20.00     0.358 C 
HETATM    6  O5  UNL     1     -35.095   3.548   5.161  1.00 20.00    -0.245 OA
HETATM    7 CL7  UNL     1     -34.535   5.771   6.468  1.00 20.00    -0.012 Cl
ENDBRANCH   4   5
ENDBRANCH   3   4
TORSDOF 2
ENDMDL
MODEL 2
REMARK VINA RESULT:      -4.1      2.590      3.651
REMARK  2 active torsions:
REMARK  status: ('A' for Active; 'I' for Inactive)
REMARK    1  A    between atoms: C3_3  and  O6_6 
REMARK    2  A    between atoms: C4_4  and  O6_6 
ROOT
HETATM    1  C1  UNL     1     -35.026   4.412   6.003  1.00 20.00     0.014 C 
HETATM    2  C2  UNL     1     -34.875   4.941   4.935  1.00 20.00    -0.091 C 
HETATM    3  C4  UNL     1     -34.693   5.584   3.634  1.00 20.00     0.272 C 
ENDROOT
BRANCH   3   4
HETATM    4  O6  UNL     1     -33.872   6.738   3.759  1.00 20.00    -0.297 OA
BRANCH   4   5
HETATM    5  C3  UNL     1     -32.645   6.687   3.139  1.00 20.00     0.358 C 
HETATM    6  O5  UNL     1     -31.919   5.699   3.180  1.00 20.00    -0.245 OA
HETATM    7 CL7  UNL     1     -32.251   8.164   2.299  1.00 20.00    -0.012 Cl
ENDBRANCH   4   5
ENDBRANCH   3   4
TORSDOF 2
ENDMDL
MODEL 3
REMARK VINA RESULT:      -4.0      1.329      1.787
REMARK  2 active torsions:
REMARK  status: ('A' for Active; 'I' for Inactive)
REMARK    1  A    between atoms: C3_3  and  O6_6 
REMARK    2  A    between atoms: C4_4  and  O6_6 
ROOT
HETATM    1  C1  UNL     1     -32.049   8.432   1.940  1.00 20.00     0.014 C 
HETATM    2  C2  UNL     1     -32.262   7.422   2.553  1.00 20.00    -0.091 C 
HETATM    3  C4  UNL     1     -32.520   6.190   3.299  1.00 20.00     0.272 C 
ENDROOT
BRANCH   3   4
HETATM    4  O6  UNL     1     -33.328   6.458   4.438  1.00 20.00    -0.297 OA
BRANCH   4   5
HETATM    5  C3  UNL     1     -34.419   5.640   4.621  1.00 20.00     0.358 C 
HETATM    6  O5  UNL     1     -35.115   5.241   3.692  1.00 20.00    -0.245 OA
HETATM    7 CL7  UNL     1     -34.693   5.242   6.297  1.00 20.00    -0.012 Cl
ENDBRANCH   4   5
ENDBRANCH   3   4
TORSDOF 2
ENDMDL
MODEL 4
REMARK VINA RESULT:      -4.0      2.163      2.978
REMARK  2 active torsions:
REMARK  status: ('A' for Active; 'I' for Inactive)
REMARK    1  A    between atoms: C3_3  and  O6_6 
REMARK    2  A    between atoms: C4_4  and  O6_6 
ROOT
HETATM    1  C1  UNL     1     -33.741   6.929   6.666  1.00 20.00     0.014 C 
HETATM    2  C2  UNL     1     -34.321   5.915   6.387  1.00 20.00    -0.091 C 
HETATM    3  C4  UNL     1     -35.030   4.680   6.049  1.00 20.00     0.272 C 
ENDROOT
BRANCH   3   4
HETATM    4  O6  UNL     1     -34.769   4.309   4.702  1.00 20.00    -0.297 OA
BRANCH   4   5
HETATM    5  C3  UNL     1     -34.972   5.280   3.749  1.00 20.00     0.358 C 
HETATM    6  O5  UNL     1     -36.083   5.728   3.481  1.00 20.00    -0.245 OA
HETATM    7 CL7  UNL     1     -33.493   5.794   2.982  1.00 20.00    -0.012 Cl
ENDBRANCH   4   5
ENDBRANCH   3   4
TORSDOF 2
ENDMDL
MODEL 5
REMARK VINA RESULT:      -3.8      2.362      3.639
REMARK  2 active torsions:
REMARK  status: ('A' for Active; 'I' for Inactive)
REMARK    1  A    between atoms: C3_3  and  O6_6 
REMARK    2  A    between atoms: C4_4  and  O6_6 
ROOT
HETATM    1  C1  UNL     1     -35.142   4.216   6.159  1.00 20.00     0.014 C 
HETATM    2  C2  UNL     1     -34.535   5.236   5.975  1.00 20.00    -0.091 C 
HETATM    3  C4  UNL     1     -33.794   6.478   5.752  1.00 20.00     0.272 C 
ENDROOT
BRANCH   3   4
HETATM    4  O6  UNL     1     -33.931   6.904   4.403  1.00 20.00    -0.297 OA
BRANCH   4   5
HETATM    5  C3  UNL     1     -33.217   6.199   3.462  1.00 20.00     0.358 C 
HETATM    6  O5  UNL     1     -31.998   6.284   3.349  1.00 20.00    -0.245 OA
HETATM    7 CL7  UNL     1     -34.228   5.184   2.468  1.00 20.00    -0.012 Cl
ENDBRANCH   4   5
ENDBRANCH   3   4
TORSDOF 2
ENDMDL
MODEL 6
REMARK VINA RESULT:      -3.8     12.257     12.566
REMARK  2 active torsions:
REMARK  status: ('A' for Active; 'I' for Inactive)
REMARK    1  A    between atoms: C3_3  and  O6_6 
REMARK    2  A    between atoms: C4_4  and  O6_6 
ROOT
HETATM    1  C1  UNL     1     -34.570  16.272  -1.773  1.00 20.00     0.014 C 
HETATM    2  C2  UNL     1     -33.869  15.823  -2.638  1.00 20.00    -0.091 C 
HETATM    3  C4  UNL     1     -33.013  15.277  -3.692  1.00 20.00     0.272 C 
ENDROOT
BRANCH   3   4
HETATM    4  O6  UNL     1     -33.247  13.884  -3.853  1.00 20.00    -0.297 OA
BRANCH   4   5
HETATM    5  C3  UNL     1     -34.324  13.530  -4.634  1.00 20.00     0.358 C 
HETATM    6  O5  UNL     1     -35.079  12.606  -4.348  1.00 20.00    -0.245 OA
HETATM    7 CL7  UNL     1     -34.488  14.533  -6.051  1.00 20.00    -0.012 Cl
ENDBRANCH   4   5
ENDBRANCH   3   4
TORSDOF 2
ENDMDL
MODEL 7
REMARK VINA RESULT:      -3.7     11.572     12.113
REMARK  2 active torsions:
REMARK  status: ('A' for Active; 'I' for Inactive)
REMARK    1  A    between atoms: C3_3  and  O6_6 
REMARK    2  A    between atoms: C4_4  and  O6_6 
ROOT
HETATM    1  C1  UNL     1     -34.781  16.911  -0.430  1.00 20.00     0.014 C 
HETATM    2  C2  UNL     1     -34.461  16.426  -1.481  1.00 20.00    -0.091 C 
HETATM    3  C4  UNL     1     -34.070  15.835  -2.761  1.00 20.00     0.272 C 
ENDROOT
BRANCH   3   4
HETATM    4  O6  UNL     1     -34.977  14.805  -3.133  1.00 20.00    -0.297 OA
BRANCH   4   5
HETATM    5  C3  UNL     1     -34.425  13.677  -3.695  1.00 20.00     0.358 C 
HETATM    6  O5  UNL     1     -35.099  12.798  -4.222  1.00 20.00    -0.245 OA
HETATM    7 CL7  UNL     1     -32.685  13.645  -3.575  1.00 20.00    -0.012 Cl
ENDBRANCH   4   5
ENDBRANCH   3   4
TORSDOF 2
ENDMDL
MODEL 8
REMARK VINA RESULT:      -3.4     11.975     12.721
REMARK  2 active torsions:
REMARK  status: ('A' for Active; 'I' for Inactive)
REMARK    1  A    between atoms: C3_3  and  O6_6 
REMARK    2  A    between atoms: C4_4  and  O6_6 
ROOT
HETATM    1  C1  UNL     1     -33.410  17.043  -5.094  1.00 20.00     0.014 C 
HETATM    2  C2  UNL     1     -33.228  16.010  -4.511  1.00 20.00    -0.091 C 
HETATM    3  C4  UNL     1     -33.006  14.751  -3.799  1.00 20.00     0.272 C 
ENDROOT
BRANCH   3   4
HETATM    4  O6  UNL     1     -34.221  14.277  -3.233  1.00 20.00    -0.297 OA
BRANCH   4   5
HETATM    5  C3  UNL     1     -35.086  13.636  -4.089  1.00 20.00     0.358 C 
HETATM    6  O5  UNL     1     -34.764  12.653  -4.750  1.00 20.00    -0.245 OA
HETATM    7 CL7  UNL     1     -36.668  14.370  -4.124  1.00 20.00    -0.012 Cl
ENDBRANCH   4   5
ENDBRANCH   3   4
TORSDOF 2
ENDMDL
MODEL 9
REMARK VINA RESULT:      -3.3     12.613     13.037
REMARK  2 active torsions:
REMARK  status: ('A' for Active; 'I' for Inactive)
REMARK    1  A    between atoms: C3_3  and  O6_6 
REMARK    2  A    between atoms: C4_4  and  O6_6 
ROOT
HETATM    1  C1  UNL     1     -34.866  17.325   0.244  1.00 20.00     0.014 C 
HETATM    2  C2  UNL     1     -34.772  16.726  -0.793  1.00 20.00    -0.091 C 
HETATM    3  C4  UNL     1     -34.659  15.997  -2.056  1.00 20.00     0.272 C 
ENDROOT
BRANCH   3   4
HETATM    4  O6  UNL     1     -33.347  16.125  -2.590  1.00 20.00    -0.297 OA
BRANCH   4   5
HETATM    5  C3  UNL     1     -33.129  15.550  -3.821  1.00 20.00     0.358 C 
HETATM    6  O5  UNL     1     -32.806  16.198  -4.811  1.00 20.00    -0.245 OA
HETATM    7 CL7  UNL     1     -33.359  13.821  -3.808  1.00 20.00    -0.012 Cl
ENDBRANCH   4   5
ENDBRANCH   3   4
TORSDOF 2
ENDMDL
