MODEL 1
REMARK VINA RESULT:      -3.7      0.000      0.000
REMARK  1 active torsions:
REMARK  status: ('A' for Active; 'I' for Inactive)
REMARK    1  A    between atoms: C4_4  and  N7_7 
ROOT
HETATM    1  C1  UNL     1     -32.074   8.048   2.403  1.00 20.00     0.163 C 
HETATM    2  N7  UNL     1     -31.794   7.215   3.199  1.00 20.00    -0.231 NA
HETATM    3  S9  UNL     1     -32.440   9.171   1.333  1.00 20.00    -0.055 SA
ENDROOT
BRANCH   2   4
HETATM    4  C4  UNL     1     -32.878   6.477   3.643  1.00 20.00     0.094 A 
HETATM    5  C2  UNL     1     -33.831   5.797   2.860  1.00 20.00     0.171 A 
HETATM    6  N6  UNL     1     -34.756   5.175   3.596  1.00 20.00    -0.183 NA
HETATM    7  N8  UNL     1     -34.386   5.463   4.855  1.00 20.00    -0.283 N 
HETATM    8  C3  UNL     1     -33.267   6.238   4.938  1.00 20.00     0.145 A 
HETATM    9  C5  UNL     1     -35.159   4.953   5.963  1.00 20.00     0.179 C 
ENDBRANCH   2   4
TORSDOF 1
ENDMDL
MODEL 2
REMARK VINA RESULT:      -3.5     11.169     12.167
REMARK  1 active torsions:
REMARK  status: ('A' for Active; 'I' for Inactive)
REMARK    1  A    between atoms: C4_4  and  N7_7 
ROOT
HETATM    1  C1  UNL     1     -33.818  16.181  -2.399  1.00 20.00     0.163 C 
HETATM    2  N7  UNL     1     -33.126  15.803  -3.284  1.00 20.00    -0.231 NA
HETATM    3  S9  UNL     1     -34.739  16.694  -1.203  1.00 20.00    -0.055 SA
ENDROOT
BRANCH   2   4
HETATM    4  C4  UNL     1     -33.799  15.068  -4.247  1.00 20.00     0.094 A 
HETATM    5  C2  UNL     1     -34.216  13.726  -4.164  1.00 20.00     0.171 A 
HETATM    6  N6  UNL     1     -34.844  13.312  -5.268  1.00 20.00    -0.183 NA
HETATM    7  N8  UNL     1     -34.825  14.400  -6.055  1.00 20.00    -0.283 N 
HETATM    8  C3  UNL     1     -34.211  15.479  -5.491  1.00 20.00     0.145 A 
HETATM    9  C5  UNL     1     -35.425  14.346  -7.368  1.00 20.00     0.179 C 
ENDBRANCH   2   4
TORSDOF 1
ENDMDL
MODEL 3
REMARK VINA RESULT:      -3.4     11.385     12.365
REMARK  1 active torsions:
REMARK  status: ('A' for Active; 'I' for Inactive)
REMARK    1  A    between atoms: C4_4  and  N7_7 
ROOT
HETATM    1  C1  UNL     1     -38.212  15.162  -3.640  1.00 20.00     0.163 C 
HETATM    2  N7  UNL     1     -37.593  14.173  -3.850  1.00 20.00    -0.231 NA
HETATM    3  S9  UNL     1     -39.054  16.485  -3.356  1.00 20.00    -0.055 SA
ENDROOT
BRANCH   2   4
HETATM    4  C4  UNL     1     -36.254  14.398  -4.124  1.00 20.00     0.094 A 
HETATM    5  C2  UNL     1     -35.241  13.435  -4.298  1.00 20.00     0.171 A 
HETATM    6  N6  UNL     1     -34.049  13.980  -4.553  1.00 20.00    -0.183 NA
HETATM    7  N8  UNL     1     -34.308  15.298  -4.540  1.00 20.00    -0.283 N 
HETATM    8  C3  UNL     1     -35.613  15.602  -4.289  1.00 20.00     0.145 A 
HETATM    9  C5  UNL     1     -33.242  16.241  -4.783  1.00 20.00     0.179 C 
ENDBRANCH   2   4
TORSDOF 1
ENDMDL
MODEL 4
REMARK VINA RESULT:      -3.4     11.126     11.557
REMARK  1 active torsions:
REMARK  status: ('A' for Active; 'I' for Inactive)
REMARK    1  A    between atoms: C4_4  and  N7_7 
ROOT
HETATM    1  C1  UNL     1     -34.343  16.608  -1.391  1.00 20.00     0.163 C 
HETATM    2  N7  UNL     1     -34.027  16.074  -2.401  1.00 20.00    -0.231 NA
HETATM    3  S9  UNL     1     -34.758  17.330  -0.032  1.00 20.00    -0.055 SA
ENDROOT
BRANCH   2   4
HETATM    4  C4  UNL     1     -35.061  15.392  -3.022  1.00 20.00     0.094 A 
HETATM    5  C2  UNL     1     -34.986  14.166  -3.712  1.00 20.00     0.171 A 
HETATM    6  N6  UNL     1     -36.168  13.774  -4.196  1.00 20.00    -0.183 NA
HETATM    7  N8  UNL     1     -36.997  14.758  -3.810  1.00 20.00    -0.283 N 
HETATM    8  C3  UNL     1     -36.384  15.751  -3.103  1.00 20.00     0.145 A 
HETATM    9  C5  UNL     1     -38.398  14.692  -4.153  1.00 20.00     0.179 C 
ENDBRANCH   2   4
TORSDOF 1
ENDMDL
MODEL 5
REMARK VINA RESULT:      -3.4     11.168     11.518
REMARK  1 active torsions:
REMARK  status: ('A' for Active; 'I' for Inactive)
REMARK    1  A    between atoms: C4_4  and  N7_7 
ROOT
HETATM    1  C1  UNL     1     -34.334  17.180  -0.642  1.00 20.00     0.163 C 
HETATM    2  N7  UNL     1     -33.742  16.914  -1.633  1.00 20.00    -0.231 NA
HETATM    3  S9  UNL     1     -35.122  17.545   0.696  1.00 20.00    -0.055 SA
ENDROOT
BRANCH   2   4
HETATM    4  C4  UNL     1     -34.398  16.010  -2.453  1.00 20.00     0.094 A 
HETATM    5  C2  UNL     1     -35.776  15.953  -2.735  1.00 20.00     0.171 A 
HETATM    6  N6  UNL     1     -36.092  14.959  -3.568  1.00 20.00    -0.183 NA
HETATM    7  N8  UNL     1     -34.904  14.381  -3.816  1.00 20.00    -0.283 N 
HETATM    8  C3  UNL     1     -33.858  14.973  -3.173  1.00 20.00     0.145 A 
HETATM    9  C5  UNL     1     -34.832  13.241  -4.699  1.00 20.00     0.179 C 
ENDBRANCH   2   4
TORSDOF 1
ENDMDL
MODEL 6
REMARK VINA RESULT:      -3.3     11.410     13.075
REMARK  1 active torsions:
REMARK  status: ('A' for Active; 'I' for Inactive)
REMARK    1  A    between atoms: C4_4  and  N7_7 
ROOT
HETATM    1  C1  UNL     1     -34.685  16.673  -0.953  1.00 20.00     0.163 C 
HETATM    2  N7  UNL     1     -34.740  15.890  -1.842  1.00 20.00    -0.231 NA
HETATM    3  S9  UNL     1     -34.616  17.717   0.249  1.00 20.00    -0.055 SA
ENDROOT
BRANCH   2   4
HETATM    4  C4  UNL     1     -34.194  16.351  -3.028  1.00 20.00     0.094 A 
HETATM    5  C2  UNL     1     -33.252  15.700  -3.848  1.00 20.00     0.171 A 
HETATM    6  N6  UNL     1     -32.928  16.414  -4.929  1.00 20.00    -0.183 NA
HETATM    7  N8  UNL     1     -33.670  17.526  -4.794  1.00 20.00    -0.283 N 
HETATM    8  C3  UNL     1     -34.447  17.537  -3.673  1.00 20.00     0.145 A 
HETATM    9  C5  UNL     1     -33.594  18.565  -5.793  1.00 20.00     0.179 C 
ENDBRANCH   2   4
TORSDOF 1
ENDMDL
MODEL 7
REMARK VINA RESULT:      -3.3     11.611     12.273
REMARK  1 active torsions:
REMARK  status: ('A' for Active; 'I' for Inactive)
REMARK    1  A    between atoms: C4_4  and  N7_7 
ROOT
HETATM    1  C1  UNL     1     -34.787  14.349  -6.364  1.00 20.00     0.163 C 
HETATM    2  N7  UNL     1     -34.382  13.946  -5.325  1.00 20.00    -0.231 NA
HETATM    3  S9  UNL     1     -35.329  14.879  -7.766  1.00 20.00    -0.055 SA
ENDROOT
BRANCH   2   4
HETATM    4  C4  UNL     1     -34.222  14.932  -4.366  1.00 20.00     0.094 A 
HETATM    5  C2  UNL     1     -33.555  16.164  -4.506  1.00 20.00     0.171 A 
HETATM    6  N6  UNL     1     -33.580  16.895  -3.389  1.00 20.00    -0.183 NA
HETATM    7  N8  UNL     1     -34.269  16.120  -2.534  1.00 20.00    -0.283 N 
HETATM    8  C3  UNL     1     -34.676  14.934  -3.070  1.00 20.00     0.145 A 
HETATM    9  C5  UNL     1     -34.512  16.579  -1.186  1.00 20.00     0.179 C 
ENDBRANCH   2   4
TORSDOF 1
ENDMDL
MODEL 8
REMARK VINA RESULT:      -3.3     11.295     12.435
REMARK  1 active torsions:
REMARK  status: ('A' for Active; 'I' for Inactive)
REMARK    1  A    between atoms: C4_4  and  N7_7 
ROOT
HETATM    1  C1  UNL     1     -36.243  14.747  -7.277  1.00 20.00     0.163 C 
HETATM    2  N7  UNL     1     -35.218  14.207  -7.028  1.00 20.00    -0.231 NA
HETATM    3  S9  UNL     1     -37.620  15.472  -7.623  1.00 20.00    -0.055 SA
ENDROOT
BRANCH   2   4
HETATM    4  C4  UNL     1     -34.861  14.270  -5.691  1.00 20.00     0.094 A 
HETATM    5  C2  UNL     1     -34.630  13.193  -4.814  1.00 20.00     0.171 A 
HETATM    6  N6  UNL     1     -34.299  13.591  -3.583  1.00 20.00    -0.183 NA
HETATM    7  N8  UNL     1     -34.322  14.931  -3.681  1.00 20.00    -0.283 N 
HETATM    8  C3  UNL     1     -34.652  15.389  -4.922  1.00 20.00     0.145 A 
HETATM    9  C5  UNL     1     -34.009  15.740  -2.526  1.00 20.00     0.179 C 
ENDBRANCH   2   4
TORSDOF 1
ENDMDL
MODEL 9
REMARK VINA RESULT:      -3.2     10.429     11.525
REMARK  1 active torsions:
REMARK  status: ('A' for Active; 'I' for Inactive)
REMARK    1  A    between atoms: C4_4  and  N7_7 
ROOT
HETATM    1  C1  UNL     1     -43.079   2.753  -4.068  1.00 20.00     0.163 C 
HETATM    2  N7  UNL     1     -43.417   3.842  -3.745  1.00 20.00    -0.231 NA
HETATM    3  S9  UNL     1     -42.634   1.286  -4.507  1.00 20.00    -0.055 SA
ENDROOT
BRANCH   2   4
HETATM    4  C4  UNL     1     -42.547   4.461  -2.864  1.00 20.00     0.094 A 
HETATM    5  C2  UNL     1     -41.486   3.871  -2.150  1.00 20.00     0.171 A 
HETATM    6  N6  UNL     1     -40.833   4.745  -1.380  1.00 20.00    -0.183 NA
HETATM    7  N8  UNL     1     -41.484   5.898  -1.608  1.00 20.00    -0.283 N 
HETATM    8  C3  UNL     1     -42.518   5.782  -2.489  1.00 20.00     0.145 A 
HETATM    9  C5  UNL     1     -41.060   7.105  -0.939  1.00 20.00     0.179 C 
ENDBRANCH   2   4
TORSDOF 1
ENDMDL
