MODEL 1
REMARK VINA RESULT:      -4.3      0.000      0.000
REMARK  1 active torsions:
REMARK  status: ('A' for Active; 'I' for Inactive)
REMARK    1  A    between atoms: C1_1  and  C6_6 
ROOT
HETATM    1  C2  UNL     1     -34.545  17.251  -4.014  1.00 20.00     0.005 C 
HETATM    2  C3  UNL     1     -35.808  16.382  -3.948  1.00 20.00     0.006 C 
HETATM    3  C4  UNL     1     -33.110  15.261  -3.523  1.00 20.00     0.016 C 
HETATM    4  C5  UNL     1     -34.629  16.143  -1.908  1.00 20.00     0.010 C 
HETATM    5  C6  UNL     1     -34.350  14.356  -3.439  1.00 20.00     0.051 C 
HETATM    6  C7  UNL     1     -33.626  16.601  -2.967  1.00 20.00    -0.013 C 
HETATM    7  C8  UNL     1     -35.439  15.310  -2.904  1.00 20.00    -0.003 C 
ENDROOT
BRANCH   5   8
HETATM    8  C1  UNL     1     -34.703  13.710  -4.742  1.00 20.00     0.236 C 
HETATM    9  O9  UNL     1     -34.817  12.498  -4.886  1.00 20.00    -0.306 OA
ENDBRANCH   5   8
TORSDOF 1
ENDMDL
MODEL 2
REMARK VINA RESULT:      -4.1     11.271     12.454
REMARK  1 active torsions:
REMARK  status: ('A' for Active; 'I' for Inactive)
REMARK    1  A    between atoms: C1_1  and  C6_6 
ROOT
HETATM    1  C2  UNL     1     -42.554   5.418   0.383  1.00 20.00     0.005 C 
HETATM    2  C3  UNL     1     -43.041   4.758  -0.913  1.00 20.00     0.006 C 
HETATM    3  C4  UNL     1     -41.220   7.082  -0.927  1.00 20.00     0.016 C 
HETATM    4  C5  UNL     1     -40.673   4.759  -0.920  1.00 20.00     0.010 C 
HETATM    5  C6  UNL     1     -41.677   6.445  -2.249  1.00 20.00     0.051 C 
HETATM    6  C7  UNL     1     -41.130   5.873   0.023  1.00 20.00    -0.013 C 
HETATM    7  C8  UNL     1     -41.853   4.958  -1.874  1.00 20.00    -0.003 C 
ENDROOT
BRANCH   5   8
HETATM    8  C1  UNL     1     -42.911   7.073  -2.815  1.00 20.00     0.236 C 
HETATM    9  O9  UNL     1     -43.373   6.784  -3.913  1.00 20.00    -0.306 OA
ENDBRANCH   5   8
TORSDOF 1
ENDMDL
MODEL 3
REMARK VINA RESULT:      -4.1      1.535      2.154
REMARK  1 active torsions:
REMARK  status: ('A' for Active; 'I' for Inactive)
REMARK    1  A    between atoms: C1_1  and  C6_6 
ROOT
HETATM    1  C2  UNL     1     -33.818  16.736  -3.284  1.00 20.00     0.005 C 
HETATM    2  C3  UNL     1     -34.610  15.734  -2.433  1.00 20.00     0.006 C 
HETATM    3  C4  UNL     1     -34.421  15.491  -5.370  1.00 20.00     0.016 C 
HETATM    4  C5  UNL     1     -33.008  14.536  -3.701  1.00 20.00     0.010 C 
HETATM    5  C6  UNL     1     -35.218  14.460  -4.554  1.00 20.00     0.051 C 
HETATM    6  C7  UNL     1     -33.265  15.861  -4.421  1.00 20.00    -0.013 C 
HETATM    7  C8  UNL     1     -34.454  14.415  -3.214  1.00 20.00    -0.003 C 
ENDROOT
BRANCH   5   8
HETATM    8  C1  UNL     1     -36.666  14.808  -4.410  1.00 20.00     0.236 C 
HETATM    9  O9  UNL     1     -37.469  14.116  -3.795  1.00 20.00    -0.306 OA
ENDBRANCH   5   8
TORSDOF 1
ENDMDL
MODEL 4
REMARK VINA RESULT:      -4.1     11.564     12.579
REMARK  1 active torsions:
REMARK  status: ('A' for Active; 'I' for Inactive)
REMARK    1  A    between atoms: C1_1  and  C6_6 
ROOT
HETATM    1  C2  UNL     1     -34.433   4.645   5.607  1.00 20.00     0.005 C 
HETATM    2  C3  UNL     1     -34.102   6.142   5.686  1.00 20.00     0.006 C 
HETATM    3  C4  UNL     1     -33.910   4.625   3.160  1.00 20.00     0.016 C 
HETATM    4  C5  UNL     1     -35.773   5.831   4.037  1.00 20.00     0.010 C 
HETATM    5  C6  UNL     1     -33.578   6.126   3.193  1.00 20.00     0.051 C 
HETATM    6  C7  UNL     1     -35.038   4.501   4.202  1.00 20.00    -0.013 C 
HETATM    7  C8  UNL     1     -34.514   6.663   4.295  1.00 20.00    -0.003 C 
ENDROOT
BRANCH   5   8
HETATM    8  C1  UNL     1     -32.130   6.407   3.442  1.00 20.00     0.236 C 
HETATM    9  O9  UNL     1     -31.654   7.537   3.455  1.00 20.00    -0.306 OA
ENDBRANCH   5   8
TORSDOF 1
ENDMDL
MODEL 5
REMARK VINA RESULT:      -4.1      1.671      2.878
REMARK  1 active torsions:
REMARK  status: ('A' for Active; 'I' for Inactive)
REMARK    1  A    between atoms: C1_1  and  C6_6 
ROOT
HETATM    1  C2  UNL     1     -34.102  13.555  -3.735  1.00 20.00     0.005 C 
HETATM    2  C3  UNL     1     -34.687  13.666  -5.149  1.00 20.00     0.006 C 
HETATM    3  C4  UNL     1     -35.466  15.514  -2.981  1.00 20.00     0.016 C 
HETATM    4  C5  UNL     1     -33.709  15.746  -4.580  1.00 20.00     0.010 C 
HETATM    5  C6  UNL     1     -36.070  15.665  -4.387  1.00 20.00     0.051 C 
HETATM    6  C7  UNL     1     -34.036  15.021  -3.274  1.00 20.00    -0.013 C 
HETATM    7  C8  UNL     1     -34.931  15.179  -5.308  1.00 20.00    -0.003 C 
ENDROOT
BRANCH   5   8
HETATM    8  C1  UNL     1     -37.351  14.914  -4.566  1.00 20.00     0.236 C 
HETATM    9  O9  UNL     1     -37.854  14.218  -3.691  1.00 20.00    -0.306 OA
ENDBRANCH   5   8
TORSDOF 1
ENDMDL
MODEL 6
REMARK VINA RESULT:      -4.0      0.957      2.098
REMARK  1 active torsions:
REMARK  status: ('A' for Active; 'I' for Inactive)
REMARK    1  A    between atoms: C1_1  and  C6_6 
ROOT
HETATM    1  C2  UNL     1     -34.005  15.863  -2.508  1.00 20.00     0.005 C 
HETATM    2  C3  UNL     1     -33.297  15.759  -3.865  1.00 20.00     0.006 C 
HETATM    3  C4  UNL     1     -36.130  15.005  -3.514  1.00 20.00     0.016 C 
HETATM    4  C5  UNL     1     -35.215  17.122  -4.126  1.00 20.00     0.010 C 
HETATM    5  C6  UNL     1     -35.461  14.894  -4.894  1.00 20.00     0.051 C 
HETATM    6  C7  UNL     1     -35.444  16.240  -2.899  1.00 20.00    -0.013 C 
HETATM    7  C8  UNL     1     -34.429  16.042  -4.872  1.00 20.00    -0.003 C 
ENDROOT
BRANCH   5   8
HETATM    8  C1  UNL     1     -34.860  13.549  -5.155  1.00 20.00     0.236 C 
HETATM    9  O9  UNL     1     -34.931  12.613  -4.367  1.00 20.00    -0.306 OA
ENDBRANCH   5   8
TORSDOF 1
ENDMDL
MODEL 7
REMARK VINA RESULT:      -4.0     11.925     12.891
REMARK  1 active torsions:
REMARK  status: ('A' for Active; 'I' for Inactive)
REMARK    1  A    between atoms: C1_1  and  C6_6 
ROOT
HETATM    1  C2  UNL     1     -43.098   6.135   0.080  1.00 20.00     0.005 C 
HETATM    2  C3  UNL     1     -42.557   4.742   0.432  1.00 20.00     0.006 C 
HETATM    3  C4  UNL     1     -41.869   6.098  -2.099  1.00 20.00     0.016 C 
HETATM    4  C5  UNL     1     -40.719   6.168  -0.010  1.00 20.00     0.010 C 
HETATM    5  C6  UNL     1     -41.298   4.706  -1.783  1.00 20.00     0.051 C 
HETATM    6  C7  UNL     1     -41.940   6.763  -0.712  1.00 20.00    -0.013 C 
HETATM    7  C8  UNL     1     -41.173   4.725  -0.244  1.00 20.00    -0.003 C 
ENDROOT
BRANCH   5   8
HETATM    8  C1  UNL     1     -42.142   3.586  -2.304  1.00 20.00     0.236 C 
HETATM    9  O9  UNL     1     -41.694   2.650  -2.957  1.00 20.00    -0.306 OA
ENDBRANCH   5   8
TORSDOF 1
ENDMDL
MODEL 8
REMARK VINA RESULT:      -4.0     11.629     12.634
REMARK  1 active torsions:
REMARK  status: ('A' for Active; 'I' for Inactive)
REMARK    1  A    between atoms: C1_1  and  C6_6 
ROOT
HETATM    1  C2  UNL     1     -41.107   7.158  -0.846  1.00 20.00     0.005 C 
HETATM    2  C3  UNL     1     -42.627   7.206  -1.052  1.00 20.00     0.006 C 
HETATM    3  C4  UNL     1     -41.072   4.723  -1.422  1.00 20.00     0.016 C 
HETATM    4  C5  UNL     1     -42.142   5.532   0.552  1.00 20.00     0.010 C 
HETATM    5  C6  UNL     1     -42.596   4.725  -1.630  1.00 20.00     0.051 C 
HETATM    6  C7  UNL     1     -40.880   5.745  -0.285  1.00 20.00    -0.013 C 
HETATM    7  C8  UNL     1     -43.080   5.795  -0.629  1.00 20.00    -0.003 C 
ENDROOT
BRANCH   5   8
HETATM    8  C1  UNL     1     -43.001   4.996  -3.044  1.00 20.00     0.236 C 
HETATM    9  O9  UNL     1     -43.417   4.130  -3.806  1.00 20.00    -0.306 OA
ENDBRANCH   5   8
TORSDOF 1
ENDMDL
MODEL 9
REMARK VINA RESULT:      -3.9      2.196      3.279
REMARK  1 active torsions:
REMARK  status: ('A' for Active; 'I' for Inactive)
REMARK    1  A    between atoms: C1_1  and  C6_6 
ROOT
HETATM    1  C2  UNL     1     -34.272  15.747  -5.530  1.00 20.00     0.005 C 
HETATM    2  C3  UNL     1     -33.145  15.822  -4.492  1.00 20.00     0.006 C 
HETATM    3  C4  UNL     1     -35.882  14.978  -3.776  1.00 20.00     0.016 C 
HETATM    4  C5  UNL     1     -34.039  13.629  -4.468  1.00 20.00     0.010 C 
HETATM    5  C6  UNL     1     -34.780  15.030  -2.706  1.00 20.00     0.051 C 
HETATM    6  C7  UNL     1     -35.111  14.556  -5.042  1.00 20.00    -0.013 C 
HETATM    7  C8  UNL     1     -33.504  14.693  -3.506  1.00 20.00    -0.003 C 
ENDROOT
BRANCH   5   8
HETATM    8  C1  UNL     1     -34.712  16.341  -1.988  1.00 20.00     0.236 C 
HETATM    9  O9  UNL     1     -34.639  16.440  -0.768  1.00 20.00    -0.306 OA
ENDBRANCH   5   8
TORSDOF 1
ENDMDL
