MODEL 1
REMARK VINA RESULT:      -4.3      0.000      0.000
REMARK  1 active torsions:
REMARK  status: ('A' for Active; 'I' for Inactive)
REMARK    1  A    between atoms: C4_4  and  C5_5 
ROOT
HETATM    1  C1  UNL     1     -33.168   6.486   3.368  1.00 20.00     0.059 C 
HETATM    2  C5  UNL     1     -34.419   5.909   3.869  1.00 20.00     0.128 C 
HETATM    3  N6  UNL     1     -32.179   6.946   2.971  1.00 20.00    -0.197 NA
ENDROOT
BRANCH   2   4
HETATM    4  C4  UNL     1     -34.050   5.156   5.099  1.00 20.00    -0.002 A 
HETATM    5  C2  UNL     1     -34.767   5.421   6.394  1.00 20.00     0.006 A 
HETATM    6  C3  UNL     1     -34.986   4.124   5.665  1.00 20.00     0.006 A 
ENDBRANCH   2   4
TORSDOF 1
ENDMDL
MODEL 2
REMARK VINA RESULT:      -4.3      0.688      1.070
REMARK  1 active torsions:
REMARK  status: ('A' for Active; 'I' for Inactive)
REMARK    1  A    between atoms: C4_4  and  C5_5 
ROOT
HETATM    1  C1  UNL     1     -33.343   6.175   3.502  1.00 20.00     0.059 C 
HETATM    2  C5  UNL     1     -34.468   5.235   3.456  1.00 20.00     0.128 C 
HETATM    3  N6  UNL     1     -32.453   6.919   3.535  1.00 20.00    -0.197 NA
ENDROOT
BRANCH   2   4
HETATM    4  C4  UNL     1     -35.133   5.339   4.784  1.00 20.00    -0.002 A 
HETATM    5  C2  UNL     1     -35.050   4.200   5.764  1.00 20.00     0.006 A 
HETATM    6  C3  UNL     1     -34.309   5.481   6.034  1.00 20.00     0.006 A 
ENDBRANCH   2   4
TORSDOF 1
ENDMDL
MODEL 3
REMARK VINA RESULT:      -4.2      1.046      1.572
REMARK  1 active torsions:
REMARK  status: ('A' for Active; 'I' for Inactive)
REMARK    1  A    between atoms: C4_4  and  C5_5 
ROOT
HETATM    1  C1  UNL     1     -32.425   7.134   2.826  1.00 20.00     0.059 C 
HETATM    2  C5  UNL     1     -32.857   5.865   3.421  1.00 20.00     0.128 C 
HETATM    3  N6  UNL     1     -32.081   8.136   2.352  1.00 20.00    -0.197 NA
ENDROOT
BRANCH   2   4
HETATM    4  C4  UNL     1     -34.139   6.164   4.117  1.00 20.00    -0.002 A 
HETATM    5  C2  UNL     1     -35.123   5.062   4.399  1.00 20.00     0.006 A 
HETATM    6  C3  UNL     1     -34.360   5.697   5.529  1.00 20.00     0.006 A 
ENDBRANCH   2   4
TORSDOF 1
ENDMDL
MODEL 4
REMARK VINA RESULT:      -3.9      2.197      3.354
REMARK  1 active torsions:
REMARK  status: ('A' for Active; 'I' for Inactive)
REMARK    1  A    between atoms: C4_4  and  C5_5 
ROOT
HETATM    1  C1  UNL     1     -34.698   4.762   5.386  1.00 20.00     0.059 C 
HETATM    2  C5  UNL     1     -34.049   6.073   5.472  1.00 20.00     0.128 C 
HETATM    3  N6  UNL     1     -35.214   3.724   5.322  1.00 20.00    -0.197 NA
ENDROOT
BRANCH   2   4
HETATM    4  C4  UNL     1     -33.930   6.554   4.067  1.00 20.00    -0.002 A 
HETATM    5  C2  UNL     1     -32.574   6.800   3.463  1.00 20.00     0.006 A 
HETATM    6  C3  UNL     1     -33.407   5.639   2.995  1.00 20.00     0.006 A 
ENDBRANCH   2   4
TORSDOF 1
ENDMDL
MODEL 5
REMARK VINA RESULT:      -3.8      1.800      2.841
REMARK  1 active torsions:
REMARK  status: ('A' for Active; 'I' for Inactive)
REMARK    1  A    between atoms: C4_4  and  C5_5 
ROOT
HETATM    1  C1  UNL     1     -34.047   6.338   6.494  1.00 20.00     0.059 C 
HETATM    2  C5  UNL     1     -34.893   5.183   6.178  1.00 20.00     0.128 C 
HETATM    3  N6  UNL     1     -33.377   7.251   6.748  1.00 20.00    -0.197 NA
ENDROOT
BRANCH   2   4
HETATM    4  C4  UNL     1     -34.630   4.873   4.746  1.00 20.00    -0.002 A 
HETATM    5  C2  UNL     1     -35.531   5.423   3.674  1.00 20.00     0.006 A 
HETATM    6  C3  UNL     1     -34.128   5.945   3.819  1.00 20.00     0.006 A 
ENDBRANCH   2   4
TORSDOF 1
ENDMDL
MODEL 6
REMARK VINA RESULT:      -3.6      2.034      3.602
REMARK  1 active torsions:
REMARK  status: ('A' for Active; 'I' for Inactive)
REMARK    1  A    between atoms: C4_4  and  C5_5 
ROOT
HETATM    1  C1  UNL     1     -34.040   6.138   5.172  1.00 20.00     0.059 C 
HETATM    2  C5  UNL     1     -34.015   6.136   3.706  1.00 20.00     0.128 C 
HETATM    3  N6  UNL     1     -34.063   6.137   6.332  1.00 20.00    -0.197 NA
ENDROOT
BRANCH   2   4
HETATM    4  C4  UNL     1     -32.584   6.298   3.328  1.00 20.00    -0.002 A 
HETATM    5  C2  UNL     1     -32.168   7.399   2.391  1.00 20.00     0.006 A 
HETATM    6  C3  UNL     1     -31.793   7.468   3.845  1.00 20.00     0.006 A 
ENDBRANCH   2   4
TORSDOF 1
ENDMDL
MODEL 7
REMARK VINA RESULT:      -3.5     11.971     12.435
REMARK  1 active torsions:
REMARK  status: ('A' for Active; 'I' for Inactive)
REMARK    1  A    between atoms: C4_4  and  C5_5 
ROOT
HETATM    1  C1  UNL     1     -35.211  13.845  -3.980  1.00 20.00     0.059 C 
HETATM    2  C5  UNL     1     -35.554  15.159  -3.427  1.00 20.00     0.128 C 
HETATM    3  N6  UNL     1     -34.942  12.806  -4.421  1.00 20.00    -0.197 NA
ENDROOT
BRANCH   2   4
HETATM    4  C4  UNL     1     -34.416  15.532  -2.542  1.00 20.00    -0.002 A 
HETATM    5  C2  UNL     1     -33.906  16.947  -2.518  1.00 20.00     0.006 A 
HETATM    6  C3  UNL     1     -34.648  16.394  -1.333  1.00 20.00     0.006 A 
ENDBRANCH   2   4
TORSDOF 1
ENDMDL
MODEL 8
REMARK VINA RESULT:      -3.3      2.615      4.792
REMARK  1 active torsions:
REMARK  status: ('A' for Active; 'I' for Inactive)
REMARK    1  A    between atoms: C4_4  and  C5_5 
ROOT
HETATM    1  C1  UNL     1     -32.835   6.621   3.651  1.00 20.00     0.059 C 
HETATM    2  C5  UNL     1     -31.850   7.562   3.109  1.00 20.00     0.128 C 
HETATM    3  N6  UNL     1     -33.613   5.876   4.084  1.00 20.00    -0.197 NA
ENDROOT
BRANCH   2   4
HETATM    4  C4  UNL     1     -32.496   8.177   1.917  1.00 20.00    -0.002 A 
HETATM    5  C2  UNL     1     -32.423   9.663   1.697  1.00 20.00     0.006 A 
HETATM    6  C3  UNL     1     -31.654   8.731   0.802  1.00 20.00     0.006 A 
ENDBRANCH   2   4
TORSDOF 1
ENDMDL
MODEL 9
REMARK VINA RESULT:      -3.2     12.566     13.016
REMARK  1 active torsions:
REMARK  status: ('A' for Active; 'I' for Inactive)
REMARK    1  A    between atoms: C4_4  and  C5_5 
ROOT
HETATM    1  C1  UNL     1     -33.531  15.987  -3.817  1.00 20.00     0.059 C 
HETATM    2  C5  UNL     1     -34.336  15.581  -2.661  1.00 20.00     0.128 C 
HETATM    3  N6  UNL     1     -32.895  16.304  -4.735  1.00 20.00    -0.197 NA
ENDROOT
BRANCH   2   4
HETATM    4  C4  UNL     1     -34.647  16.839  -1.927  1.00 20.00    -0.002 A 
HETATM    5  C2  UNL     1     -34.726  16.841  -0.425  1.00 20.00     0.006 A 
HETATM    6  C3  UNL     1     -33.582  17.526  -1.118  1.00 20.00     0.006 A 
ENDBRANCH   2   4
TORSDOF 1
ENDMDL
