MODEL 1
REMARK VINA RESULT:      -3.8      0.000      0.000
REMARK  0 active torsions:
REMARK  status: ('A' for Active; 'I' for Inactive)
ROOT
HETATM    1  C1  UNL     1     -34.858  13.662  -3.819  1.00 20.00     0.072 C 
HETATM    2  C2  UNL     1     -34.689  13.399  -5.307  1.00 20.00     0.173 C 
HETATM    3  C3  UNL     1     -34.442  15.682  -4.915  1.00 20.00     0.255 C 
HETATM    4  C4  UNL     1     -34.075  14.949  -3.624  1.00 20.00     0.154 C 
HETATM    5  O5  UNL     1     -34.508  14.677  -5.942  1.00 20.00    -0.367 OA
HETATM    6 CL6  UNL     1     -33.353  16.994  -5.386  1.00 20.00    -0.092 Cl
HETATM    7 CL7  UNL     1     -34.589  15.829  -2.173  1.00 20.00    -0.098 Cl
HETATM    8 CL8  UNL     1     -32.327  14.568  -3.502  1.00 20.00    -0.098 Cl
ENDROOT
TORSDOF 0
ENDMDL
MODEL 2
REMARK VINA RESULT:      -3.7      2.249      3.057
REMARK  0 active torsions:
REMARK  status: ('A' for Active; 'I' for Inactive)
ROOT
HETATM    1  C1  UNL     1     -34.153  17.714  -3.617  1.00 20.00     0.072 C 
HETATM    2  C2  UNL     1     -33.469  17.479  -4.955  1.00 20.00     0.173 C 
HETATM    3  C3  UNL     1     -33.147  15.607  -3.607  1.00 20.00     0.255 C 
HETATM    4  C4  UNL     1     -34.427  16.299  -3.138  1.00 20.00     0.154 C 
HETATM    5  O5  UNL     1     -32.808  16.204  -4.870  1.00 20.00    -0.367 OA
HETATM    6 CL6  UNL     1     -33.236  13.845  -3.747  1.00 20.00    -0.092 Cl
HETATM    7 CL7  UNL     1     -34.637  16.220  -1.378  1.00 20.00    -0.098 Cl
HETATM    8 CL8  UNL     1     -35.903  15.675  -3.942  1.00 20.00    -0.098 Cl
ENDROOT
TORSDOF 0
ENDMDL
MODEL 3
REMARK VINA RESULT:      -3.6      1.990      2.737
REMARK  0 active torsions:
REMARK  status: ('A' for Active; 'I' for Inactive)
ROOT
HETATM    1  C1  UNL     1     -34.224  15.469  -5.585  1.00 20.00     0.072 C 
HETATM    2  C2  UNL     1     -33.274  16.611  -5.257  1.00 20.00     0.173 C 
HETATM    3  C3  UNL     1     -34.650  16.226  -3.418  1.00 20.00     0.255 C 
HETATM    4  C4  UNL     1     -34.563  14.922  -4.210  1.00 20.00     0.154 C 
HETATM    5  O5  UNL     1     -33.625  17.085  -3.945  1.00 20.00    -0.367 OA
HETATM    6 CL6  UNL     1     -34.498  16.068  -1.662  1.00 20.00    -0.092 Cl
HETATM    7 CL7  UNL     1     -36.092  14.022  -4.208  1.00 20.00    -0.098 Cl
HETATM    8 CL8  UNL     1     -33.239  13.847  -3.656  1.00 20.00    -0.098 Cl
ENDROOT
TORSDOF 0
ENDMDL
MODEL 4
REMARK VINA RESULT:      -3.5      1.502      2.783
REMARK  0 active torsions:
REMARK  status: ('A' for Active; 'I' for Inactive)
ROOT
HETATM    1  C1  UNL     1     -34.403  14.419  -5.677  1.00 20.00     0.072 C 
HETATM    2  C2  UNL     1     -34.876  13.308  -4.754  1.00 20.00     0.173 C 
HETATM    3  C3  UNL     1     -33.989  15.031  -3.462  1.00 20.00     0.255 C 
HETATM    4  C4  UNL     1     -34.472  15.642  -4.779  1.00 20.00     0.154 C 
HETATM    5  O5  UNL     1     -34.535  13.702  -3.413  1.00 20.00    -0.367 OA
HETATM    6 CL6  UNL     1     -34.406  15.937  -2.000  1.00 20.00    -0.092 Cl
HETATM    7 CL7  UNL     1     -33.416  16.949  -5.348  1.00 20.00    -0.098 Cl
HETATM    8 CL8  UNL     1     -36.163  16.232  -4.706  1.00 20.00    -0.098 Cl
ENDROOT
TORSDOF 0
ENDMDL
MODEL 5
REMARK VINA RESULT:      -3.5      1.849      2.421
REMARK  0 active torsions:
REMARK  status: ('A' for Active; 'I' for Inactive)
ROOT
HETATM    1  C1  UNL     1     -34.783  15.532  -2.666  1.00 20.00     0.072 C 
HETATM    2  C2  UNL     1     -36.012  16.156  -3.308  1.00 20.00     0.173 C 
HETATM    3  C3  UNL     1     -34.380  15.857  -4.943  1.00 20.00     0.255 C 
HETATM    4  C4  UNL     1     -34.122  14.830  -3.839  1.00 20.00     0.154 C 
HETATM    5  O5  UNL     1     -35.687  16.400  -4.688  1.00 20.00    -0.367 OA
HETATM    6 CL6  UNL     1     -34.263  15.247  -6.599  1.00 20.00    -0.092 Cl
HETATM    7 CL7  UNL     1     -32.393  14.551  -3.561  1.00 20.00    -0.098 Cl
HETATM    8 CL8  UNL     1     -34.940  13.261  -4.131  1.00 20.00    -0.098 Cl
ENDROOT
TORSDOF 0
ENDMDL
MODEL 6
REMARK VINA RESULT:      -3.5      1.533      1.793
REMARK  0 active torsions:
REMARK  status: ('A' for Active; 'I' for Inactive)
ROOT
HETATM    1  C1  UNL     1     -33.583  13.974  -3.704  1.00 20.00     0.072 C 
HETATM    2  C2  UNL     1     -34.432  13.298  -4.769  1.00 20.00     0.173 C 
HETATM    3  C3  UNL     1     -35.573  15.165  -3.971  1.00 20.00     0.255 C 
HETATM    4  C4  UNL     1     -34.080  15.408  -3.753  1.00 20.00     0.154 C 
HETATM    5  O5  UNL     1     -35.671  14.026  -4.843  1.00 20.00    -0.367 OA
HETATM    6 CL6  UNL     1     -36.485  16.535  -4.620  1.00 20.00    -0.092 Cl
HETATM    7 CL7  UNL     1     -33.747  16.281  -2.244  1.00 20.00    -0.098 Cl
HETATM    8 CL8  UNL     1     -33.296  16.263  -5.120  1.00 20.00    -0.098 Cl
ENDROOT
TORSDOF 0
ENDMDL
MODEL 7
REMARK VINA RESULT:      -3.4      2.057      2.994
REMARK  0 active torsions:
REMARK  status: ('A' for Active; 'I' for Inactive)
ROOT
HETATM    1  C1  UNL     1     -34.990  16.750  -5.113  1.00 20.00     0.072 C 
HETATM    2  C2  UNL     1     -33.520  17.024  -5.387  1.00 20.00     0.173 C 
HETATM    3  C3  UNL     1     -33.687  15.252  -3.886  1.00 20.00     0.255 C 
HETATM    4  C4  UNL     1     -34.979  15.288  -4.702  1.00 20.00     0.154 C 
HETATM    5  O5  UNL     1     -32.763  16.126  -4.556  1.00 20.00    -0.367 OA
HETATM    6 CL6  UNL     1     -32.976  13.649  -3.648  1.00 20.00    -0.092 Cl
HETATM    7 CL7  UNL     1     -36.404  14.855  -3.739  1.00 20.00    -0.098 Cl
HETATM    8 CL8  UNL     1     -34.916  14.259  -6.169  1.00 20.00    -0.098 Cl
ENDROOT
TORSDOF 0
ENDMDL
MODEL 8
REMARK VINA RESULT:      -3.4      1.420      2.605
REMARK  0 active torsions:
REMARK  status: ('A' for Active; 'I' for Inactive)
ROOT
HETATM    1  C1  UNL     1     -36.032  15.821  -4.394  1.00 20.00     0.072 C 
HETATM    2  C2  UNL     1     -36.610  14.445  -4.100  1.00 20.00     0.173 C 
HETATM    3  C3  UNL     1     -34.306  14.248  -4.382  1.00 20.00     0.255 C 
HETATM    4  C4  UNL     1     -34.595  15.678  -3.925  1.00 20.00     0.154 C 
HETATM    5  O5  UNL     1     -35.522  13.508  -4.174  1.00 20.00    -0.367 OA
HETATM    6 CL6  UNL     1     -32.940  13.451  -3.588  1.00 20.00    -0.092 Cl
HETATM    7 CL7  UNL     1     -33.522  16.866  -4.690  1.00 20.00    -0.098 Cl
HETATM    8 CL8  UNL     1     -34.529  15.877  -2.144  1.00 20.00    -0.098 Cl
ENDROOT
TORSDOF 0
ENDMDL
MODEL 9
REMARK VINA RESULT:      -3.4      1.657      2.722
REMARK  0 active torsions:
REMARK  status: ('A' for Active; 'I' for Inactive)
ROOT
HETATM    1  C1  UNL     1     -35.261  14.826  -5.188  1.00 20.00     0.072 C 
HETATM    2  C2  UNL     1     -36.304  15.896  -4.907  1.00 20.00     0.173 C 
HETATM    3  C3  UNL     1     -35.188  15.395  -2.925  1.00 20.00     0.255 C 
HETATM    4  C4  UNL     1     -34.247  15.060  -4.082  1.00 20.00     0.154 C 
HETATM    5  O5  UNL     1     -36.267  16.158  -3.493  1.00 20.00    -0.367 OA
HETATM    6 CL6  UNL     1     -34.454  16.259  -1.566  1.00 20.00    -0.092 Cl
HETATM    7 CL7  UNL     1     -33.264  13.618  -3.762  1.00 20.00    -0.098 Cl
HETATM    8 CL8  UNL     1     -33.175  16.423  -4.538  1.00 20.00    -0.098 Cl
ENDROOT
TORSDOF 0
ENDMDL
