MODEL 1
REMARK VINA RESULT:      -4.3      0.000      0.000
REMARK  0 active torsions:
REMARK  status: ('A' for Active; 'I' for Inactive)
ROOT
HETATM    1  C1  UNL     1     -34.692  13.676  -4.768  1.00 20.00     0.131 C 
HETATM    2  C2  UNL     1     -34.272  14.112  -3.384  1.00 20.00     0.087 C 
HETATM    3  C3  UNL     1     -34.523  16.025  -4.836  1.00 20.00     0.021 C 
HETATM    4  C4  UNL     1     -35.071  14.848  -5.648  1.00 20.00     0.052 C 
HETATM    5  C5  UNL     1     -34.657  15.601  -3.360  1.00 20.00    -0.041 C 
HETATM    6  C6  UNL     1     -34.468  14.759  -7.037  1.00 20.00     0.018 C 
HETATM    7  C7  UNL     1     -36.098  15.787  -2.855  1.00 20.00     0.015 C 
HETATM    8  C8  UNL     1     -33.706  16.407  -2.470  1.00 20.00     0.015 C 
HETATM    9  O9  UNL     1     -34.718  12.506  -5.128  1.00 20.00    -0.298 OA
ENDROOT
TORSDOF 0
ENDMDL
MODEL 2
REMARK VINA RESULT:      -4.2      1.250      3.209
REMARK  0 active torsions:
REMARK  status: ('A' for Active; 'I' for Inactive)
ROOT
HETATM    1  C1  UNL     1     -33.923  13.974  -4.294  1.00 20.00     0.131 C 
HETATM    2  C2  UNL     1     -34.980  13.619  -5.313  1.00 20.00     0.087 C 
HETATM    3  C3  UNL     1     -34.935  16.004  -4.932  1.00 20.00     0.021 C 
HETATM    4  C4  UNL     1     -33.711  15.469  -4.184  1.00 20.00     0.052 C 
HETATM    5  C5  UNL     1     -35.234  14.959  -6.026  1.00 20.00    -0.041 C 
HETATM    6  C6  UNL     1     -33.642  15.949  -2.747  1.00 20.00     0.018 C 
HETATM    7  C7  UNL     1     -34.293  15.127  -7.231  1.00 20.00     0.015 C 
HETATM    8  C8  UNL     1     -36.685  15.067  -6.504  1.00 20.00     0.015 C 
HETATM    9  O9  UNL     1     -33.314  13.140  -3.635  1.00 20.00    -0.298 OA
ENDROOT
TORSDOF 0
ENDMDL
MODEL 3
REMARK VINA RESULT:      -4.1      1.758      2.147
REMARK  0 active torsions:
REMARK  status: ('A' for Active; 'I' for Inactive)
ROOT
HETATM    1  C1  UNL     1     -34.427  14.478  -3.376  1.00 20.00     0.131 C 
HETATM    2  C2  UNL     1     -33.442  15.567  -3.021  1.00 20.00     0.087 C 
HETATM    3  C3  UNL     1     -35.667  16.479  -3.259  1.00 20.00     0.021 C 
HETATM    4  C4  UNL     1     -35.860  14.961  -3.322  1.00 20.00     0.052 C 
HETATM    5  C5  UNL     1     -34.349  16.690  -2.486  1.00 20.00    -0.041 C 
HETATM    6  C6  UNL     1     -36.675  14.520  -4.524  1.00 20.00     0.018 C 
HETATM    7  C7  UNL     1     -34.562  16.548  -0.970  1.00 20.00     0.015 C 
HETATM    8  C8  UNL     1     -33.756  18.071  -2.782  1.00 20.00     0.015 C 
HETATM    9  O9  UNL     1     -34.093  13.338  -3.675  1.00 20.00    -0.298 OA
ENDROOT
TORSDOF 0
ENDMDL
MODEL 4
REMARK VINA RESULT:      -4.1      1.918      2.661
REMARK  0 active torsions:
REMARK  status: ('A' for Active; 'I' for Inactive)
ROOT
HETATM    1  C1  UNL     1     -33.344  15.314  -3.439  1.00 20.00     0.131 C 
HETATM    2  C2  UNL     1     -33.606  16.768  -3.128  1.00 20.00     0.087 C 
HETATM    3  C3  UNL     1     -35.650  15.488  -2.989  1.00 20.00     0.021 C 
HETATM    4  C4  UNL     1     -34.546  14.440  -3.154  1.00 20.00     0.052 C 
HETATM    5  C5  UNL     1     -34.953  16.723  -2.385  1.00 20.00    -0.041 C 
HETATM    6  C6  UNL     1     -34.832  13.452  -4.268  1.00 20.00     0.018 C 
HETATM    7  C7  UNL     1     -34.739  16.558  -0.871  1.00 20.00     0.015 C 
HETATM    8  C8  UNL     1     -35.771  17.993  -2.640  1.00 20.00     0.015 C 
HETATM    9  O9  UNL     1     -32.276  14.899  -3.874  1.00 20.00    -0.298 OA
ENDROOT
TORSDOF 0
ENDMDL
MODEL 5
REMARK VINA RESULT:      -4.1      2.276      3.365
REMARK  0 active torsions:
REMARK  status: ('A' for Active; 'I' for Inactive)
ROOT
HETATM    1  C1  UNL     1     -33.848  16.720  -3.171  1.00 20.00     0.131 C 
HETATM    2  C2  UNL     1     -34.609  15.476  -2.780  1.00 20.00     0.087 C 
HETATM    3  C3  UNL     1     -34.089  15.446  -5.138  1.00 20.00     0.021 C 
HETATM    4  C4  UNL     1     -33.314  16.645  -4.586  1.00 20.00     0.052 C 
HETATM    5  C5  UNL     1     -34.300  14.507  -3.935  1.00 20.00    -0.041 C 
HETATM    6  C6  UNL     1     -33.556  17.918  -5.373  1.00 20.00     0.018 C 
HETATM    7  C7  UNL     1     -33.034  13.685  -3.638  1.00 20.00     0.015 C 
HETATM    8  C8  UNL     1     -35.470  13.550  -4.185  1.00 20.00     0.015 C 
HETATM    9  O9  UNL     1     -33.688  17.677  -2.423  1.00 20.00    -0.298 OA
ENDROOT
TORSDOF 0
ENDMDL
MODEL 6
REMARK VINA RESULT:      -4.0      2.146      3.636
REMARK  0 active torsions:
REMARK  status: ('A' for Active; 'I' for Inactive)
ROOT
HETATM    1  C1  UNL     1     -33.679  15.788  -5.119  1.00 20.00     0.131 C 
HETATM    2  C2  UNL     1     -34.248  15.957  -6.508  1.00 20.00     0.087 C 
HETATM    3  C3  UNL     1     -34.989  13.874  -5.535  1.00 20.00     0.021 C 
HETATM    4  C4  UNL     1     -34.286  14.609  -4.390  1.00 20.00     0.052 C 
HETATM    5  C5  UNL     1     -35.435  14.977  -6.515  1.00 20.00    -0.041 C 
HETATM    6  C6  UNL     1     -33.248  13.753  -3.690  1.00 20.00     0.018 C 
HETATM    7  C7  UNL     1     -36.720  15.669  -6.030  1.00 20.00     0.015 C 
HETATM    8  C8  UNL     1     -35.673  14.403  -7.915  1.00 20.00     0.015 C 
HETATM    9  O9  UNL     1     -32.822  16.525  -4.647  1.00 20.00    -0.298 OA
ENDROOT
TORSDOF 0
ENDMDL
MODEL 7
REMARK VINA RESULT:      -4.0      1.470      2.939
REMARK  0 active torsions:
REMARK  status: ('A' for Active; 'I' for Inactive)
ROOT
HETATM    1  C1  UNL     1     -35.202  13.916  -4.767  1.00 20.00     0.131 C 
HETATM    2  C2  UNL     1     -34.458  14.339  -6.012  1.00 20.00     0.087 C 
HETATM    3  C3  UNL     1     -35.873  16.130  -5.219  1.00 20.00     0.021 C 
HETATM    4  C4  UNL     1     -35.930  15.071  -4.114  1.00 20.00     0.052 C 
HETATM    5  C5  UNL     1     -34.544  15.875  -5.958  1.00 20.00    -0.041 C 
HETATM    6  C6  UNL     1     -37.349  14.718  -3.709  1.00 20.00     0.018 C 
HETATM    7  C7  UNL     1     -33.353  16.465  -5.186  1.00 20.00     0.015 C 
HETATM    8  C8  UNL     1     -34.577  16.478  -7.366  1.00 20.00     0.015 C 
HETATM    9  O9  UNL     1     -35.211  12.766  -4.344  1.00 20.00    -0.298 OA
ENDROOT
TORSDOF 0
ENDMDL
MODEL 8
REMARK VINA RESULT:      -3.9      2.001      2.343
REMARK  0 active torsions:
REMARK  status: ('A' for Active; 'I' for Inactive)
ROOT
HETATM    1  C1  UNL     1     -36.619  14.827  -3.840  1.00 20.00     0.131 C 
HETATM    2  C2  UNL     1     -35.237  14.319  -3.504  1.00 20.00     0.087 C 
HETATM    3  C3  UNL     1     -35.132  16.592  -4.313  1.00 20.00     0.021 C 
HETATM    4  C4  UNL     1     -36.627  16.310  -4.143  1.00 20.00     0.052 C 
HETATM    5  C5  UNL     1     -34.421  15.615  -3.356  1.00 20.00    -0.041 C 
HETATM    6  C6  UNL     1     -37.436  16.653  -5.379  1.00 20.00     0.018 C 
HETATM    7  C7  UNL     1     -34.459  16.126  -1.906  1.00 20.00     0.015 C 
HETATM    8  C8  UNL     1     -32.962  15.402  -3.774  1.00 20.00     0.015 C 
HETATM    9  O9  UNL     1     -37.614  14.112  -3.864  1.00 20.00    -0.298 OA
ENDROOT
TORSDOF 0
ENDMDL
MODEL 9
REMARK VINA RESULT:      -3.9      1.873      3.396
REMARK  0 active torsions:
REMARK  status: ('A' for Active; 'I' for Inactive)
ROOT
HETATM    1  C1  UNL     1     -36.222  14.415  -4.668  1.00 20.00     0.131 C 
HETATM    2  C2  UNL     1     -36.560  15.513  -5.649  1.00 20.00     0.087 C 
HETATM    3  C3  UNL     1     -34.216  14.945  -5.784  1.00 20.00     0.021 C 
HETATM    4  C4  UNL     1     -34.822  13.878  -4.868  1.00 20.00     0.052 C 
HETATM    5  C5  UNL     1     -35.388  15.456  -6.645  1.00 20.00    -0.041 C 
HETATM    6  C6  UNL     1     -34.062  13.720  -3.564  1.00 20.00     0.018 C 
HETATM    7  C7  UNL     1     -35.696  14.489  -7.800  1.00 20.00     0.015 C 
HETATM    8  C8  UNL     1     -35.081  16.842  -7.221  1.00 20.00     0.015 C 
HETATM    9  O9  UNL     1     -37.000  14.014  -3.811  1.00 20.00    -0.298 OA
ENDROOT
TORSDOF 0
ENDMDL
