MODEL 1
REMARK VINA RESULT:      -4.4      0.000      0.000
REMARK  3 active torsions:
REMARK  status: ('A' for Active; 'I' for Inactive)
REMARK    1  A    between atoms: C3_3  and  C4_4 
REMARK    2  A    between atoms: C4_4  and  O10_10 
REMARK    3  A    between atoms: C7_7  and  O10_10 
ROOT
HETATM    1  C1  UNL     1     -32.124   8.126   1.883  1.00 20.00     0.105 C 
HETATM    2  C2  UNL     1     -31.299   7.574   4.065  1.00 20.00     0.042 C 
HETATM    3  C3  UNL     1     -32.143   7.318   3.057  1.00 20.00     0.110 C 
HETATM    4  N8  UNL     1     -32.109   8.784   0.928  1.00 20.00    -0.191 NA
ENDROOT
BRANCH   3   5
HETATM    5  C4  UNL     1     -33.086   6.176   3.214  1.00 20.00     0.303 C 
HETATM    6  O9  UNL     1     -33.769   5.712   2.313  1.00 20.00    -0.258 OA
BRANCH   5   7
HETATM    7  O10 UNL     1     -33.062   5.738   4.503  1.00 20.00    -0.312 OA
BRANCH   7   8
HETATM    8  C7  UNL     1     -34.302   5.828   5.212  1.00 20.00     0.124 C 
HETATM    9  C5  UNL     1     -34.846   4.427   5.451  1.00 20.00     0.040 C 
HETATM   10  C6  UNL     1     -34.080   6.579   6.516  1.00 20.00     0.040 C 
ENDBRANCH   7   8
ENDBRANCH   5   7
ENDBRANCH   3   5
TORSDOF 3
ENDMDL
MODEL 2
REMARK VINA RESULT:      -4.3      0.572      1.244
REMARK  3 active torsions:
REMARK  status: ('A' for Active; 'I' for Inactive)
REMARK    1  A    between atoms: C3_3  and  C4_4 
REMARK    2  A    between atoms: C4_4  and  O10_10 
REMARK    3  A    between atoms: C7_7  and  O10_10 
ROOT
HETATM    1  C1  UNL     1     -32.168   8.377   1.877  1.00 20.00     0.105 C 
HETATM    2  C2  UNL     1     -31.287   7.605   3.968  1.00 20.00     0.042 C 
HETATM    3  C3  UNL     1     -32.179   7.472   2.977  1.00 20.00     0.110 C 
HETATM    4  N8  UNL     1     -32.161   9.115   0.982  1.00 20.00    -0.191 NA
ENDROOT
BRANCH   3   5
HETATM    5  C4  UNL     1     -33.164   6.359   3.075  1.00 20.00     0.303 C 
HETATM    6  O9  UNL     1     -33.158   5.364   2.365  1.00 20.00    -0.258 OA
BRANCH   5   7
HETATM    7  O10 UNL     1     -34.056   6.625   4.069  1.00 20.00    -0.312 OA
BRANCH   7   8
HETATM    8  C7  UNL     1     -34.045   5.715   5.173  1.00 20.00     0.124 C 
HETATM    9  C5  UNL     1     -34.034   6.505   6.473  1.00 20.00     0.040 C 
HETATM   10  C6  UNL     1     -35.253   4.796   5.078  1.00 20.00     0.040 C 
ENDBRANCH   7   8
ENDBRANCH   5   7
ENDBRANCH   3   5
TORSDOF 3
ENDMDL
MODEL 3
REMARK VINA RESULT:      -4.3      2.163      4.124
REMARK  3 active torsions:
REMARK  status: ('A' for Active; 'I' for Inactive)
REMARK    1  A    between atoms: C3_3  and  C4_4 
REMARK    2  A    between atoms: C4_4  and  O10_10 
REMARK    3  A    between atoms: C7_7  and  O10_10 
ROOT
HETATM    1  C1  UNL     1     -34.060   6.316   5.911  1.00 20.00     0.105 C 
HETATM    2  C2  UNL     1     -35.121   4.387   4.961  1.00 20.00     0.042 C 
HETATM    3  C3  UNL     1     -34.400   5.504   4.790  1.00 20.00     0.110 C 
HETATM    4  N8  UNL     1     -33.784   6.978   6.822  1.00 20.00    -0.191 NA
ENDROOT
BRANCH   3   5
HETATM    5  C4  UNL     1     -33.980   5.853   3.405  1.00 20.00     0.303 C 
HETATM    6  O9  UNL     1     -34.067   5.101   2.444  1.00 20.00    -0.258 OA
BRANCH   5   7
HETATM    7  O10 UNL     1     -33.493   7.124   3.382  1.00 20.00    -0.312 OA
BRANCH   7   8
HETATM    8  C7  UNL     1     -32.182   7.276   2.828  1.00 20.00     0.124 C 
HETATM    9  C5  UNL     1     -32.210   8.367   1.768  1.00 20.00     0.040 C 
HETATM   10  C6  UNL     1     -31.200   7.597   3.945  1.00 20.00     0.040 C 
ENDBRANCH   7   8
ENDBRANCH   5   7
ENDBRANCH   3   5
TORSDOF 3
ENDMDL
MODEL 4
REMARK VINA RESULT:      -4.2     10.852     11.468
REMARK  3 active torsions:
REMARK  status: ('A' for Active; 'I' for Inactive)
REMARK    1  A    between atoms: C3_3  and  C4_4 
REMARK    2  A    between atoms: C4_4  and  O10_10 
REMARK    3  A    between atoms: C7_7  and  O10_10 
ROOT
HETATM    1  C1  UNL     1     -34.675  13.754  -3.883  1.00 20.00     0.105 C 
HETATM    2  C2  UNL     1     -32.967  15.395  -3.517  1.00 20.00     0.042 C 
HETATM    3  C3  UNL     1     -34.226  14.982  -3.318  1.00 20.00     0.110 C 
HETATM    4  N8  UNL     1     -35.043  12.755  -4.344  1.00 20.00    -0.191 NA
ENDROOT
BRANCH   3   5
HETATM    5  C4  UNL     1     -35.118  15.848  -2.497  1.00 20.00     0.303 C 
HETATM    6  O9  UNL     1     -36.198  16.282  -2.871  1.00 20.00    -0.258 OA
BRANCH   5   7
HETATM    7  O10 UNL     1     -34.545  16.071  -1.282  1.00 20.00    -0.312 OA
BRANCH   7   8
HETATM    8  C7  UNL     1     -34.649  17.409  -0.784  1.00 20.00     0.124 C 
HETATM    9  C5  UNL     1     -35.133  17.370   0.659  1.00 20.00     0.040 C 
HETATM   10  C6  UNL     1     -33.299  18.097  -0.910  1.00 20.00     0.040 C 
ENDBRANCH   7   8
ENDBRANCH   5   7
ENDBRANCH   3   5
TORSDOF 3
ENDMDL
MODEL 5
REMARK VINA RESULT:      -4.2     11.339     12.795
REMARK  3 active torsions:
REMARK  status: ('A' for Active; 'I' for Inactive)
REMARK    1  A    between atoms: C3_3  and  C4_4 
REMARK    2  A    between atoms: C4_4  and  O10_10 
REMARK    3  A    between atoms: C7_7  and  O10_10 
ROOT
HETATM    1  C1  UNL     1     -37.068  14.479  -3.806  1.00 20.00     0.105 C 
HETATM    2  C2  UNL     1     -34.993  15.351  -2.981  1.00 20.00     0.042 C 
HETATM    3  C3  UNL     1     -35.646  14.562  -3.845  1.00 20.00     0.110 C 
HETATM    4  N8  UNL     1     -38.225  14.410  -3.773  1.00 20.00    -0.191 NA
ENDROOT
BRANCH   3   5
HETATM    5  C4  UNL     1     -34.836  13.789  -4.827  1.00 20.00     0.303 C 
HETATM    6  O9  UNL     1     -34.737  12.570  -4.837  1.00 20.00    -0.258 OA
BRANCH   5   7
HETATM    7  O10 UNL     1     -34.236  14.646  -5.699  1.00 20.00    -0.312 OA
BRANCH   7   8
HETATM    8  C7  UNL     1     -35.114  15.343  -6.588  1.00 20.00     0.124 C 
HETATM    9  C5  UNL     1     -34.444  16.630  -7.048  1.00 20.00     0.040 C 
HETATM   10  C6  UNL     1     -35.464  14.437  -7.759  1.00 20.00     0.040 C 
ENDBRANCH   7   8
ENDBRANCH   5   7
ENDBRANCH   3   5
TORSDOF 3
ENDMDL
MODEL 6
REMARK VINA RESULT:      -4.1     11.346     12.335
REMARK  3 active torsions:
REMARK  status: ('A' for Active; 'I' for Inactive)
REMARK    1  A    between atoms: C3_3  and  C4_4 
REMARK    2  A    between atoms: C4_4  and  O10_10 
REMARK    3  A    between atoms: C7_7  and  O10_10 
ROOT
HETATM    1  C1  UNL     1     -34.633  13.682  -4.981  1.00 20.00     0.105 C 
HETATM    2  C2  UNL     1     -34.368  15.273  -6.754  1.00 20.00     0.042 C 
HETATM    3  C3  UNL     1     -34.234  14.964  -5.457  1.00 20.00     0.110 C 
HETATM    4  N8  UNL     1     -34.960  12.639  -4.593  1.00 20.00    -0.191 NA
ENDROOT
BRANCH   3   5
HETATM    5  C4  UNL     1     -33.661  16.000  -4.552  1.00 20.00     0.303 C 
HETATM    6  O9  UNL     1     -32.976  16.942  -4.923  1.00 20.00    -0.258 OA
BRANCH   5   7
HETATM    7  O10 UNL     1     -34.020  15.731  -3.266  1.00 20.00    -0.312 OA
BRANCH   7   8
HETATM    8  C7  UNL     1     -34.699  16.786  -2.579  1.00 20.00     0.124 C 
HETATM    9  C5  UNL     1     -36.161  16.801  -3.003  1.00 20.00     0.040 C 
HETATM   10  C6  UNL     1     -34.547  16.587  -1.079  1.00 20.00     0.040 C 
ENDBRANCH   7   8
ENDBRANCH   5   7
ENDBRANCH   3   5
TORSDOF 3
ENDMDL
MODEL 7
REMARK VINA RESULT:      -4.1     10.855     12.353
REMARK  3 active torsions:
REMARK  status: ('A' for Active; 'I' for Inactive)
REMARK    1  A    between atoms: C3_3  and  C4_4 
REMARK    2  A    between atoms: C4_4  and  O10_10 
REMARK    3  A    between atoms: C7_7  and  O10_10 
ROOT
HETATM    1  C1  UNL     1     -34.582  15.502  -2.652  1.00 20.00     0.105 C 
HETATM    2  C2  UNL     1     -32.700  14.329  -3.562  1.00 20.00     0.042 C 
HETATM    3  C3  UNL     1     -34.020  14.555  -3.557  1.00 20.00     0.110 C 
HETATM    4  N8  UNL     1     -35.040  16.271  -1.914  1.00 20.00    -0.191 NA
ENDROOT
BRANCH   3   5
HETATM    5  C4  UNL     1     -34.859  13.789  -4.520  1.00 20.00     0.303 C 
HETATM    6  O9  UNL     1     -35.010  12.576  -4.494  1.00 20.00    -0.258 OA
BRANCH   5   7
HETATM    7  O10 UNL     1     -35.422  14.644  -5.417  1.00 20.00    -0.312 OA
BRANCH   7   8
HETATM    8  C7  UNL     1     -34.698  14.827  -6.638  1.00 20.00     0.124 C 
HETATM    9  C5  UNL     1     -35.577  14.414  -7.809  1.00 20.00     0.040 C 
HETATM   10  C6  UNL     1     -34.256  16.279  -6.746  1.00 20.00     0.040 C 
ENDBRANCH   7   8
ENDBRANCH   5   7
ENDBRANCH   3   5
TORSDOF 3
ENDMDL
MODEL 8
REMARK VINA RESULT:      -4.0     11.053     11.810
REMARK  3 active torsions:
REMARK  status: ('A' for Active; 'I' for Inactive)
REMARK    1  A    between atoms: C3_3  and  C4_4 
REMARK    2  A    between atoms: C4_4  and  O10_10 
REMARK    3  A    between atoms: C7_7  and  O10_10 
ROOT
HETATM    1  C1  UNL     1     -36.742  14.316  -4.127  1.00 20.00     0.105 C 
HETATM    2  C2  UNL     1     -35.075  14.126  -5.839  1.00 20.00     0.042 C 
HETATM    3  C3  UNL     1     -35.380  14.282  -4.544  1.00 20.00     0.110 C 
HETATM    4  N8  UNL     1     -37.851  14.345  -3.788  1.00 20.00    -0.191 NA
ENDROOT
BRANCH   3   5
HETATM    5  C4  UNL     1     -34.254  14.418  -3.578  1.00 20.00     0.303 C 
HETATM    6  O9  UNL     1     -33.162  13.886  -3.707  1.00 20.00    -0.258 OA
BRANCH   5   7
HETATM    7  O10 UNL     1     -34.634  15.221  -2.545  1.00 20.00    -0.312 OA
BRANCH   7   8
HETATM    8  C7  UNL     1     -33.803  16.362  -2.309  1.00 20.00     0.124 C 
HETATM    9  C5  UNL     1     -33.938  17.330  -3.475  1.00 20.00     0.040 C 
HETATM   10  C6  UNL     1     -34.199  17.006  -0.989  1.00 20.00     0.040 C 
ENDBRANCH   7   8
ENDBRANCH   5   7
ENDBRANCH   3   5
TORSDOF 3
ENDMDL
MODEL 9
REMARK VINA RESULT:      -3.9     11.010     12.168
REMARK  3 active torsions:
REMARK  status: ('A' for Active; 'I' for Inactive)
REMARK    1  A    between atoms: C3_3  and  C4_4 
REMARK    2  A    between atoms: C4_4  and  O10_10 
REMARK    3  A    between atoms: C7_7  and  O10_10 
ROOT
HETATM    1  C1  UNL     1     -36.686  14.300  -4.254  1.00 20.00     0.105 C 
HETATM    2  C2  UNL     1     -35.269  14.294  -6.188  1.00 20.00     0.042 C 
HETATM    3  C3  UNL     1     -35.394  14.253  -4.854  1.00 20.00     0.110 C 
HETATM    4  N8  UNL     1     -37.736  14.341  -3.764  1.00 20.00    -0.191 NA
ENDROOT
BRANCH   3   5
HETATM    5  C4  UNL     1     -34.148  14.159  -4.043  1.00 20.00     0.303 C 
HETATM    6  O9  UNL     1     -33.816  13.177  -3.395  1.00 20.00    -0.258 OA
BRANCH   5   7
HETATM    7  O10 UNL     1     -33.451  15.325  -4.141  1.00 20.00    -0.312 OA
BRANCH   7   8
HETATM    8  C7  UNL     1     -34.101  16.482  -3.606  1.00 20.00     0.124 C 
HETATM    9  C5  UNL     1     -33.814  16.574  -2.114  1.00 20.00     0.040 C 
HETATM   10  C6  UNL     1     -33.620  17.717  -4.353  1.00 20.00     0.040 C 
ENDBRANCH   7   8
ENDBRANCH   5   7
ENDBRANCH   3   5
TORSDOF 3
ENDMDL
