MODEL 1
REMARK VINA RESULT:      -4.9      0.000      0.000
REMARK  5 active torsions:
REMARK  status: ('A' for Active; 'I' for Inactive)
REMARK    1  A    between atoms: C2_2  and  C3_3 
REMARK    2  A    between atoms: C3_3  and  C4_4 
REMARK    3  A    between atoms: C4_4  and  C5_5 
REMARK    4  A    between atoms: C5_5  and  C6_6 
REMARK    5  A    between atoms: C6_6  and  C7_7 
ROOT
HETATM    1  C1  UNL     1     -32.053   8.111   2.187  1.00 20.00     0.059 C 
HETATM    2  C2  UNL     1     -32.103   7.292   3.405  1.00 20.00     0.124 C 
HETATM    3  N8  UNL     1     -32.015   8.759   1.225  1.00 20.00    -0.197 NA
ENDROOT
BRANCH   2   4
HETATM    4  C3  UNL     1     -32.326   5.811   3.099  1.00 20.00     0.014 C 
BRANCH   4   5
HETATM    5  C4  UNL     1     -33.782   5.487   2.750  1.00 20.00     0.001 C 
BRANCH   5   6
HETATM    6  C5  UNL     1     -34.732   5.922   3.869  1.00 20.00     0.001 C 
BRANCH   6   7
HETATM    7  C6  UNL     1     -35.086   4.745   4.783  1.00 20.00     0.015 C 
BRANCH   7   8
HETATM    8  C7  UNL     1     -34.767   5.005   6.252  1.00 20.00     0.114 C 
HETATM    9 CL9  UNL     1     -33.988   6.585   6.496  1.00 20.00    -0.130 Cl
ENDBRANCH   7   8
ENDBRANCH   6   7
ENDBRANCH   5   6
ENDBRANCH   4   5
ENDBRANCH   2   4
TORSDOF 5
ENDMDL
MODEL 2
REMARK VINA RESULT:      -4.7      2.727      4.248
REMARK  5 active torsions:
REMARK  status: ('A' for Active; 'I' for Inactive)
REMARK    1  A    between atoms: C2_2  and  C3_3 
REMARK    2  A    between atoms: C3_3  and  C4_4 
REMARK    3  A    between atoms: C4_4  and  C5_5 
REMARK    4  A    between atoms: C5_5  and  C6_6 
REMARK    5  A    between atoms: C6_6  and  C7_7 
ROOT
HETATM    1  C1  UNL     1     -34.278   5.926   6.400  1.00 20.00     0.059 C 
HETATM    2  C2  UNL     1     -34.897   4.638   6.062  1.00 20.00     0.124 C 
HETATM    3  N8  UNL     1     -33.790   6.944   6.669  1.00 20.00    -0.197 NA
ENDROOT
BRANCH   2   4
HETATM    4  C3  UNL     1     -35.213   4.521   4.570  1.00 20.00     0.014 C 
BRANCH   4   5
HETATM    5  C4  UNL     1     -34.829   5.776   3.780  1.00 20.00     0.001 C 
BRANCH   5   6
HETATM    6  C5  UNL     1     -33.795   5.456   2.697  1.00 20.00     0.001 C 
BRANCH   6   7
HETATM    7  C6  UNL     1     -32.382   5.833   3.153  1.00 20.00     0.015 C 
BRANCH   7   8
HETATM    8  C7  UNL     1     -32.193   7.332   3.357  1.00 20.00     0.114 C 
HETATM    9 CL9  UNL     1     -32.001   8.197   1.814  1.00 20.00    -0.130 Cl
ENDBRANCH   7   8
ENDBRANCH   6   7
ENDBRANCH   5   6
ENDBRANCH   4   5
ENDBRANCH   2   4
TORSDOF 5
ENDMDL
MODEL 3
REMARK VINA RESULT:      -4.6      3.252      4.870
REMARK  5 active torsions:
REMARK  status: ('A' for Active; 'I' for Inactive)
REMARK    1  A    between atoms: C2_2  and  C3_3 
REMARK    2  A    between atoms: C3_3  and  C4_4 
REMARK    3  A    between atoms: C4_4  and  C5_5 
REMARK    4  A    between atoms: C5_5  and  C6_6 
REMARK    5  A    between atoms: C6_6  and  C7_7 
ROOT
HETATM    1  C1  UNL     1     -34.834   4.513   5.678  1.00 20.00     0.059 C 
HETATM    2  C2  UNL     1     -34.400   5.738   6.362  1.00 20.00     0.124 C 
HETATM    3  N8  UNL     1     -35.176   3.544   5.139  1.00 20.00    -0.197 NA
ENDROOT
BRANCH   2   4
HETATM    4  C3  UNL     1     -33.662   6.695   5.425  1.00 20.00     0.014 C 
BRANCH   4   5
HETATM    5  C4  UNL     1     -33.895   6.377   3.944  1.00 20.00     0.001 C 
BRANCH   5   6
HETATM    6  C5  UNL     1     -32.571   6.257   3.187  1.00 20.00     0.001 C 
BRANCH   6   7
HETATM    7  C6  UNL     1     -31.867   7.614   3.085  1.00 20.00     0.015 C 
BRANCH   7   8
HETATM    8  C7  UNL     1     -31.942   8.230   1.692  1.00 20.00     0.114 C 
HETATM    9 CL9  UNL     1     -32.607   9.879   1.725  1.00 20.00    -0.130 Cl
ENDBRANCH   7   8
ENDBRANCH   6   7
ENDBRANCH   5   6
ENDBRANCH   4   5
ENDBRANCH   2   4
TORSDOF 5
ENDMDL
MODEL 4
REMARK VINA RESULT:      -4.3      1.267      1.323
REMARK  5 active torsions:
REMARK  status: ('A' for Active; 'I' for Inactive)
REMARK    1  A    between atoms: C2_2  and  C3_3 
REMARK    2  A    between atoms: C3_3  and  C4_4 
REMARK    3  A    between atoms: C4_4  and  C5_5 
REMARK    4  A    between atoms: C5_5  and  C6_6 
REMARK    5  A    between atoms: C6_6  and  C7_7 
ROOT
HETATM    1  C1  UNL     1     -31.948   8.272   1.971  1.00 20.00     0.059 C 
HETATM    2  C2  UNL     1     -31.766   7.608   3.268  1.00 20.00     0.124 C 
HETATM    3  N8  UNL     1     -32.092   8.798   0.947  1.00 20.00    -0.197 NA
ENDROOT
BRANCH   2   4
HETATM    4  C3  UNL     1     -32.115   6.120   3.212  1.00 20.00     0.014 C 
BRANCH   4   5
HETATM    5  C4  UNL     1     -33.613   5.868   3.003  1.00 20.00     0.001 C 
BRANCH   5   6
HETATM    6  C5  UNL     1     -34.447   6.548   4.091  1.00 20.00     0.001 C 
BRANCH   6   7
HETATM    7  C6  UNL     1     -33.886   6.254   5.486  1.00 20.00     0.015 C 
BRANCH   7   8
HETATM    8  C7  UNL     1     -34.755   5.297   6.296  1.00 20.00     0.114 C 
HETATM    9 CL9  UNL     1     -34.959   3.729   5.482  1.00 20.00    -0.130 Cl
ENDBRANCH   7   8
ENDBRANCH   6   7
ENDBRANCH   5   6
ENDBRANCH   4   5
ENDBRANCH   2   4
TORSDOF 5
ENDMDL
MODEL 5
REMARK VINA RESULT:      -3.9      1.357      2.350
REMARK  5 active torsions:
REMARK  status: ('A' for Active; 'I' for Inactive)
REMARK    1  A    between atoms: C2_2  and  C3_3 
REMARK    2  A    between atoms: C3_3  and  C4_4 
REMARK    3  A    between atoms: C4_4  and  C5_5 
REMARK    4  A    between atoms: C5_5  and  C6_6 
REMARK    5  A    between atoms: C6_6  and  C7_7 
ROOT
HETATM    1  C1  UNL     1     -32.823   6.435   3.028  1.00 20.00     0.059 C 
HETATM    2  C2  UNL     1     -33.836   5.405   2.766  1.00 20.00     0.124 C 
HETATM    3  N8  UNL     1     -32.021   7.249   3.234  1.00 20.00    -0.197 NA
ENDROOT
BRANCH   2   4
HETATM    4  C3  UNL     1     -35.020   5.497   3.730  1.00 20.00     0.014 C 
BRANCH   4   5
HETATM    5  C4  UNL     1     -35.256   4.198   4.509  1.00 20.00     0.001 C 
BRANCH   5   6
HETATM    6  C5  UNL     1     -34.608   4.256   5.894  1.00 20.00     0.001 C 
BRANCH   6   7
HETATM    7  C6  UNL     1     -34.764   5.645   6.521  1.00 20.00     0.015 C 
BRANCH   7   8
HETATM    8  C7  UNL     1     -33.509   6.504   6.406  1.00 20.00     0.114 C 
HETATM    9 CL9  UNL     1     -33.568   7.920   7.481  1.00 20.00    -0.130 Cl
ENDBRANCH   7   8
ENDBRANCH   6   7
ENDBRANCH   5   6
ENDBRANCH   4   5
ENDBRANCH   2   4
TORSDOF 5
ENDMDL
MODEL 6
REMARK VINA RESULT:      -3.8     11.083     11.874
REMARK  5 active torsions:
REMARK  status: ('A' for Active; 'I' for Inactive)
REMARK    1  A    between atoms: C2_2  and  C3_3 
REMARK    2  A    between atoms: C3_3  and  C4_4 
REMARK    3  A    between atoms: C4_4  and  C5_5 
REMARK    4  A    between atoms: C5_5  and  C6_6 
REMARK    5  A    between atoms: C6_6  and  C7_7 
ROOT
HETATM    1  C1  UNL     1     -34.106  13.643  -4.000  1.00 20.00     0.059 C 
HETATM    2  C2  UNL     1     -33.115  14.670  -3.653  1.00 20.00     0.124 C 
HETATM    3  N8  UNL     1     -34.888  12.831  -4.276  1.00 20.00    -0.197 NA
ENDROOT
BRANCH   2   4
HETATM    4  C3  UNL     1     -33.767  15.970  -3.180  1.00 20.00     0.014 C 
BRANCH   4   5
HETATM    5  C4  UNL     1     -34.782  15.750  -2.052  1.00 20.00     0.001 C 
BRANCH   5   6
HETATM    6  C5  UNL     1     -34.907  16.992  -1.167  1.00 20.00     0.001 C 
BRANCH   6   7
HETATM    7  C6  UNL     1     -33.568  17.728  -1.054  1.00 20.00     0.015 C 
BRANCH   7   8
HETATM    8  C7  UNL     1     -33.362  18.402   0.299  1.00 20.00     0.114 C 
HETATM    9 CL9  UNL     1     -31.666  18.871   0.560  1.00 20.00    -0.130 Cl
ENDBRANCH   7   8
ENDBRANCH   6   7
ENDBRANCH   5   6
ENDBRANCH   4   5
ENDBRANCH   2   4
TORSDOF 5
ENDMDL
MODEL 7
REMARK VINA RESULT:      -3.8     11.417     12.434
REMARK  5 active torsions:
REMARK  status: ('A' for Active; 'I' for Inactive)
REMARK    1  A    between atoms: C2_2  and  C3_3 
REMARK    2  A    between atoms: C3_3  and  C4_4 
REMARK    3  A    between atoms: C4_4  and  C5_5 
REMARK    4  A    between atoms: C5_5  and  C6_6 
REMARK    5  A    between atoms: C6_6  and  C7_7 
ROOT
HETATM    1  C1  UNL     1     -34.825  13.559  -5.229  1.00 20.00     0.059 C 
HETATM    2  C2  UNL     1     -34.768  14.465  -6.383  1.00 20.00     0.124 C 
HETATM    3  N8  UNL     1     -34.870  12.843  -4.317  1.00 20.00    -0.197 NA
ENDROOT
BRANCH   2   4
HETATM    4  C3  UNL     1     -34.733  15.936  -5.966  1.00 20.00     0.014 C 
BRANCH   4   5
HETATM    5  C4  UNL     1     -33.395  16.345  -5.338  1.00 20.00     0.001 C 
BRANCH   5   6
HETATM    6  C5  UNL     1     -33.603  17.033  -3.987  1.00 20.00     0.001 C 
BRANCH   6   7
HETATM    7  C6  UNL     1     -33.588  16.017  -2.840  1.00 20.00     0.015 C 
BRANCH   7   8
HETATM    8  C7  UNL     1     -34.881  16.000  -2.033  1.00 20.00     0.114 C 
HETATM    9 CL9  UNL     1     -34.679  16.746  -0.431  1.00 20.00    -0.130 Cl
ENDBRANCH   7   8
ENDBRANCH   6   7
ENDBRANCH   5   6
ENDBRANCH   4   5
ENDBRANCH   2   4
TORSDOF 5
ENDMDL
MODEL 8
REMARK VINA RESULT:      -3.7     10.940     11.804
REMARK  5 active torsions:
REMARK  status: ('A' for Active; 'I' for Inactive)
REMARK    1  A    between atoms: C2_2  and  C3_3 
REMARK    2  A    between atoms: C3_3  and  C4_4 
REMARK    3  A    between atoms: C4_4  and  C5_5 
REMARK    4  A    between atoms: C5_5  and  C6_6 
REMARK    5  A    between atoms: C6_6  and  C7_7 
ROOT
HETATM    1  C1  UNL     1     -37.068  14.477  -4.322  1.00 20.00     0.059 C 
HETATM    2  C2  UNL     1     -35.875  14.578  -5.173  1.00 20.00     0.124 C 
HETATM    3  N8  UNL     1     -38.010  14.399  -3.650  1.00 20.00    -0.197 NA
ENDROOT
BRANCH   2   4
HETATM    4  C3  UNL     1     -34.806  13.550  -4.798  1.00 20.00     0.014 C 
BRANCH   4   5
HETATM    5  C4  UNL     1     -34.077  13.898  -3.496  1.00 20.00     0.001 C 
BRANCH   5   6
HETATM    6  C5  UNL     1     -33.129  15.085  -3.690  1.00 20.00     0.001 C 
BRANCH   6   7
HETATM    7  C6  UNL     1     -33.519  16.258  -2.786  1.00 20.00     0.015 C 
BRANCH   7   8
HETATM    8  C7  UNL     1     -34.738  15.970  -1.915  1.00 20.00     0.114 C 
HETATM    9 CL9  UNL     1     -34.666  16.832  -0.361  1.00 20.00    -0.130 Cl
ENDBRANCH   7   8
ENDBRANCH   6   7
ENDBRANCH   5   6
ENDBRANCH   4   5
ENDBRANCH   2   4
TORSDOF 5
ENDMDL
MODEL 9
REMARK VINA RESULT:      -3.7     11.374     12.150
REMARK  5 active torsions:
REMARK  status: ('A' for Active; 'I' for Inactive)
REMARK    1  A    between atoms: C2_2  and  C3_3 
REMARK    2  A    between atoms: C3_3  and  C4_4 
REMARK    3  A    between atoms: C4_4  and  C5_5 
REMARK    4  A    between atoms: C5_5  and  C6_6 
REMARK    5  A    between atoms: C6_6  and  C7_7 
ROOT
HETATM    1  C1  UNL     1     -34.697  16.613  -0.960  1.00 20.00     0.059 C 
HETATM    2  C2  UNL     1     -34.810  15.938  -2.259  1.00 20.00     0.124 C 
HETATM    3  N8  UNL     1     -34.609  17.148   0.066  1.00 20.00    -0.197 NA
ENDROOT
BRANCH   2   4
HETATM    4  C3  UNL     1     -33.500  15.973  -3.047  1.00 20.00     0.014 C 
BRANCH   4   5
HETATM    5  C4  UNL     1     -33.142  14.617  -3.667  1.00 20.00     0.001 C 
BRANCH   5   6
HETATM    6  C5  UNL     1     -34.345  13.672  -3.669  1.00 20.00     0.001 C 
BRANCH   6   7
HETATM    7  C6  UNL     1     -34.706  13.239  -5.094  1.00 20.00     0.015 C 
BRANCH   7   8
HETATM    8  C7  UNL     1     -35.367  14.344  -5.911  1.00 20.00     0.114 C 
HETATM    9 CL9  UNL     1     -34.264  15.027  -7.128  1.00 20.00    -0.130 Cl
ENDBRANCH   7   8
ENDBRANCH   6   7
ENDBRANCH   5   6
ENDBRANCH   4   5
ENDBRANCH   2   4
TORSDOF 5
ENDMDL
