MODEL 1
REMARK VINA RESULT:      -4.0      0.000      0.000
REMARK  2 active torsions:
REMARK  status: ('A' for Active; 'I' for Inactive)
REMARK    1  A    between atoms: C1_1  and  C2_2 
REMARK    2  A    between atoms: C1_1  and  C3_3 
ROOT
HETATM    1  C3  UNL     1     -34.632   5.503   4.315  1.00 20.00     0.256 C 
HETATM    2  F4  UNL     1     -35.815   6.029   3.885  1.00 20.00    -0.207 F 
HETATM    3 CL5  UNL     1     -34.113   6.420   5.751  1.00 20.00    -0.066 Cl
HETATM    4 CL6  UNL     1     -34.919   3.802   4.759  1.00 20.00    -0.066 Cl
ENDROOT
BRANCH   1   5
HETATM    5  C1  UNL     1     -33.625   5.628   3.168  1.00 20.00     0.089 C 
BRANCH   5   6
HETATM    6  C2  UNL     1     -32.345   6.384   3.504  1.00 20.00     0.090 C 
HETATM    7 BR7  UNL     1     -32.156   7.909   2.301  1.00 20.00    -0.096 Br
ENDBRANCH   5   6
ENDBRANCH   1   5
TORSDOF 2
ENDMDL
MODEL 2
REMARK VINA RESULT:      -3.7      3.340      3.602
REMARK  2 active torsions:
REMARK  status: ('A' for Active; 'I' for Inactive)
REMARK    1  A    between atoms: C1_1  and  C2_2 
REMARK    2  A    between atoms: C1_1  and  C3_3 
ROOT
HETATM    1  C3  UNL     1     -32.793   6.239   3.280  1.00 20.00     0.256 C 
HETATM    2  F4  UNL     1     -31.671   5.464   3.333  1.00 20.00    -0.207 F 
HETATM    3 CL5  UNL     1     -32.372   7.759   2.451  1.00 20.00    -0.066 Cl
HETATM    4 CL6  UNL     1     -34.021   5.359   2.335  1.00 20.00    -0.066 Cl
ENDROOT
BRANCH   1   5
HETATM    5  C1  UNL     1     -33.254   6.486   4.719  1.00 20.00     0.089 C 
BRANCH   5   6
HETATM    6  C2  UNL     1     -34.693   6.089   5.020  1.00 20.00     0.090 C 
HETATM    7 BR7  UNL     1     -34.720   4.325   5.855  1.00 20.00    -0.096 Br
ENDBRANCH   5   6
ENDBRANCH   1   5
TORSDOF 2
ENDMDL
MODEL 3
REMARK VINA RESULT:      -3.7      3.081      3.605
REMARK  2 active torsions:
REMARK  status: ('A' for Active; 'I' for Inactive)
REMARK    1  A    between atoms: C1_1  and  C2_2 
REMARK    2  A    between atoms: C1_1  and  C3_3 
ROOT
HETATM    1  C3  UNL     1     -32.809   6.357   3.446  1.00 20.00     0.256 C 
HETATM    2  F4  UNL     1     -31.709   5.551   3.462  1.00 20.00    -0.207 F 
HETATM    3 CL5  UNL     1     -33.090   6.934   5.108  1.00 20.00    -0.066 Cl
HETATM    4 CL6  UNL     1     -32.460   7.741   2.381  1.00 20.00    -0.066 Cl
ENDROOT
BRANCH   1   5
HETATM    5  C1  UNL     1     -33.986   5.525   2.929  1.00 20.00     0.089 C 
BRANCH   5   6
HETATM    6  C2  UNL     1     -35.207   5.485   3.839  1.00 20.00     0.090 C 
HETATM    7 BR7  UNL     1     -34.954   4.118   5.208  1.00 20.00    -0.096 Br
ENDBRANCH   5   6
ENDBRANCH   1   5
TORSDOF 2
ENDMDL
MODEL 4
REMARK VINA RESULT:      -3.6      1.550      1.624
REMARK  2 active torsions:
REMARK  status: ('A' for Active; 'I' for Inactive)
REMARK    1  A    between atoms: C1_1  and  C2_2 
REMARK    2  A    between atoms: C1_1  and  C3_3 
ROOT
HETATM    1  C3  UNL     1     -34.740   5.347   3.745  1.00 20.00     0.256 C 
HETATM    2  F4  UNL     1     -34.276   4.732   2.618  1.00 20.00    -0.207 F 
HETATM    3 CL5  UNL     1     -36.323   6.070   3.363  1.00 20.00    -0.066 Cl
HETATM    4 CL6  UNL     1     -34.935   4.105   5.006  1.00 20.00    -0.066 Cl
ENDROOT
BRANCH   1   5
HETATM    5  C1  UNL     1     -33.714   6.410   4.148  1.00 20.00     0.089 C 
BRANCH   5   6
HETATM    6  C2  UNL     1     -32.378   6.337   3.420  1.00 20.00     0.090 C 
HETATM    7 BR7  UNL     1     -32.136   7.946   2.342  1.00 20.00    -0.096 Br
ENDBRANCH   5   6
ENDBRANCH   1   5
TORSDOF 2
ENDMDL
MODEL 5
REMARK VINA RESULT:      -3.6      1.364      1.524
REMARK  2 active torsions:
REMARK  status: ('A' for Active; 'I' for Inactive)
REMARK    1  A    between atoms: C1_1  and  C2_2 
REMARK    2  A    between atoms: C1_1  and  C3_3 
ROOT
HETATM    1  C3  UNL     1     -34.324   5.701   4.486  1.00 20.00     0.256 C 
HETATM    2  F4  UNL     1     -34.246   6.825   5.255  1.00 20.00    -0.207 F 
HETATM    3 CL5  UNL     1     -34.229   4.289   5.568  1.00 20.00    -0.066 Cl
HETATM    4 CL6  UNL     1     -35.898   5.715   3.653  1.00 20.00    -0.066 Cl
ENDROOT
BRANCH   1   5
HETATM    5  C1  UNL     1     -33.156   5.735   3.495  1.00 20.00     0.089 C 
BRANCH   5   6
HETATM    6  C2  UNL     1     -32.154   6.862   3.707  1.00 20.00     0.090 C 
HETATM    7 BR7  UNL     1     -32.153   8.034   2.146  1.00 20.00    -0.096 Br
ENDBRANCH   5   6
ENDBRANCH   1   5
TORSDOF 2
ENDMDL
MODEL 6
REMARK VINA RESULT:      -3.6      1.798      1.958
REMARK  2 active torsions:
REMARK  status: ('A' for Active; 'I' for Inactive)
REMARK    1  A    between atoms: C1_1  and  C2_2 
REMARK    2  A    between atoms: C1_1  and  C3_3 
ROOT
HETATM    1  C3  UNL     1     -34.577   5.191   5.937  1.00 20.00     0.256 C 
HETATM    2  F4  UNL     1     -35.791   4.965   6.517  1.00 20.00    -0.207 F 
HETATM    3 CL5  UNL     1     -33.936   6.722   6.584  1.00 20.00    -0.066 Cl
HETATM    4 CL6  UNL     1     -33.497   3.848   6.388  1.00 20.00    -0.066 Cl
ENDROOT
BRANCH   1   5
HETATM    5  C1  UNL     1     -34.793   5.262   4.423  1.00 20.00     0.089 C 
BRANCH   5   6
HETATM    6  C2  UNL     1     -34.251   6.513   3.745  1.00 20.00     0.090 C 
HETATM    7 BR7  UNL     1     -32.392   6.219   3.225  1.00 20.00    -0.096 Br
ENDBRANCH   5   6
ENDBRANCH   1   5
TORSDOF 2
ENDMDL
MODEL 7
REMARK VINA RESULT:      -3.6      1.543      1.899
REMARK  2 active torsions:
REMARK  status: ('A' for Active; 'I' for Inactive)
REMARK    1  A    between atoms: C1_1  and  C2_2 
REMARK    2  A    between atoms: C1_1  and  C3_3 
ROOT
HETATM    1  C3  UNL     1     -34.302   5.508   4.846  1.00 20.00     0.256 C 
HETATM    2  F4  UNL     1     -33.686   4.303   4.677  1.00 20.00    -0.207 F 
HETATM    3 CL5  UNL     1     -35.772   5.519   3.839  1.00 20.00    -0.066 Cl
HETATM    4 CL6  UNL     1     -34.748   5.659   6.563  1.00 20.00    -0.066 Cl
ENDROOT
BRANCH   1   5
HETATM    5  C1  UNL     1     -33.314   6.598   4.418  1.00 20.00     0.089 C 
BRANCH   5   6
HETATM    6  C2  UNL     1     -32.484   6.277   3.182  1.00 20.00     0.090 C 
HETATM    7 BR7  UNL     1     -32.059   7.930   2.236  1.00 20.00    -0.096 Br
ENDBRANCH   5   6
ENDBRANCH   1   5
TORSDOF 2
ENDMDL
MODEL 8
REMARK VINA RESULT:      -3.4     12.017     12.373
REMARK  2 active torsions:
REMARK  status: ('A' for Active; 'I' for Inactive)
REMARK    1  A    between atoms: C1_1  and  C2_2 
REMARK    2  A    between atoms: C1_1  and  C3_3 
ROOT
HETATM    1  C3  UNL     1     -33.422  14.978  -3.920  1.00 20.00     0.256 C 
HETATM    2  F4  UNL     1     -32.178  14.675  -3.449  1.00 20.00    -0.207 F 
HETATM    3 CL5  UNL     1     -33.245  16.235  -5.169  1.00 20.00    -0.066 Cl
HETATM    4 CL6  UNL     1     -34.109  13.503  -4.644  1.00 20.00    -0.066 Cl
ENDROOT
BRANCH   1   5
HETATM    5  C1  UNL     1     -34.258  15.471  -2.735  1.00 20.00     0.089 C 
BRANCH   5   6
HETATM    6  C2  UNL     1     -33.794  16.780  -2.109  1.00 20.00     0.090 C 
HETATM    7 BR7  UNL     1     -34.716  17.052  -0.411  1.00 20.00    -0.096 Br
ENDBRANCH   5   6
ENDBRANCH   1   5
TORSDOF 2
ENDMDL
MODEL 9
REMARK VINA RESULT:      -3.4      3.085      3.610
REMARK  2 active torsions:
REMARK  status: ('A' for Active; 'I' for Inactive)
REMARK    1  A    between atoms: C1_1  and  C2_2 
REMARK    2  A    between atoms: C1_1  and  C3_3 
ROOT
HETATM    1  C3  UNL     1     -33.537   6.606   3.583  1.00 20.00     0.256 C 
HETATM    2  F4  UNL     1     -34.580   7.482   3.662  1.00 20.00    -0.207 F 
HETATM    3 CL5  UNL     1     -34.073   5.200   2.630  1.00 20.00    -0.066 Cl
HETATM    4 CL6  UNL     1     -32.196   7.425   2.744  1.00 20.00    -0.066 Cl
ENDROOT
BRANCH   1   5
HETATM    5  C1  UNL     1     -33.155   6.210   5.012  1.00 20.00     0.089 C 
BRANCH   5   6
HETATM    6  C2  UNL     1     -34.318   6.088   5.988  1.00 20.00     0.090 C 
HETATM    7 BR7  UNL     1     -35.026   4.270   5.930  1.00 20.00    -0.096 Br
ENDBRANCH   5   6
ENDBRANCH   1   5
TORSDOF 2
ENDMDL
