MODEL 1
REMARK VINA RESULT:      -5.0      0.000      0.000
REMARK  2 active torsions:
REMARK  status: ('A' for Active; 'I' for Inactive)
REMARK    1  A    between atoms: C2_2  and  C3_3 
REMARK    2  A    between atoms: C3_3  and  O9_9 
ROOT
HETATM    1  C1  UNL     1     -34.252   5.539   3.497  1.00 20.00    -0.013 C 
HETATM    2  C2  UNL     1     -33.409   6.344   4.155  1.00 20.00     0.013 C 
HETATM    3  C4  UNL     1     -35.271   4.943   4.409  1.00 20.00     0.028 C 
HETATM    4  C5  UNL     1     -33.732   6.411   5.613  1.00 20.00     0.045 C 
HETATM    5  C6  UNL     1     -34.704   5.244   5.795  1.00 20.00     0.009 C 
ENDROOT
BRANCH   2   6
HETATM    6  C3  UNL     1     -32.330   7.086   3.585  1.00 20.00     0.288 C 
HETATM    7  O8  UNL     1     -31.363   7.498   4.222  1.00 20.00    -0.260 OA
BRANCH   6   8
HETATM    8  O9  UNL     1     -32.553   7.251   2.251  1.00 20.00    -0.323 OA
HETATM    9  C7  UNL     1     -32.099   8.486   1.689  1.00 20.00     0.213 C 
ENDBRANCH   6   8
ENDBRANCH   2   6
TORSDOF 2
ENDMDL
MODEL 2
REMARK VINA RESULT:      -4.8      0.226      1.339
REMARK  2 active torsions:
REMARK  status: ('A' for Active; 'I' for Inactive)
REMARK    1  A    between atoms: C2_2  and  C3_3 
REMARK    2  A    between atoms: C3_3  and  O9_9 
ROOT
HETATM    1  C1  UNL     1     -33.629   6.300   5.337  1.00 20.00    -0.013 C 
HETATM    2  C2  UNL     1     -33.296   6.354   4.043  1.00 20.00     0.013 C 
HETATM    3  C4  UNL     1     -34.760   5.355   5.577  1.00 20.00     0.028 C 
HETATM    4  C5  UNL     1     -34.154   5.456   3.210  1.00 20.00     0.045 C 
HETATM    5  C6  UNL     1     -35.292   5.100   4.167  1.00 20.00     0.009 C 
ENDROOT
BRANCH   2   6
HETATM    6  C3  UNL     1     -32.249   7.141   3.471  1.00 20.00     0.288 C 
HETATM    7  O8  UNL     1     -31.282   7.564   4.101  1.00 20.00    -0.260 OA
BRANCH   6   8
HETATM    8  O9  UNL     1     -32.502   7.332   2.147  1.00 20.00    -0.323 OA
HETATM    9  C7  UNL     1     -32.032   8.564   1.592  1.00 20.00     0.213 C 
ENDBRANCH   6   8
ENDBRANCH   2   6
TORSDOF 2
ENDMDL
MODEL 3
REMARK VINA RESULT:      -4.7      1.184      1.835
REMARK  2 active torsions:
REMARK  status: ('A' for Active; 'I' for Inactive)
REMARK    1  A    between atoms: C2_2  and  C3_3 
REMARK    2  A    between atoms: C3_3  and  O9_9 
ROOT
HETATM    1  C1  UNL     1     -34.812   4.495   4.728  1.00 20.00    -0.013 C 
HETATM    2  C2  UNL     1     -34.067   5.553   4.387  1.00 20.00     0.013 C 
HETATM    3  C4  UNL     1     -35.291   4.589   6.138  1.00 20.00     0.028 C 
HETATM    4  C5  UNL     1     -33.929   6.522   5.518  1.00 20.00     0.045 C 
HETATM    5  C6  UNL     1     -34.431   5.713   6.714  1.00 20.00     0.009 C 
ENDROOT
BRANCH   2   6
HETATM    6  C3  UNL     1     -33.469   5.791   3.111  1.00 20.00     0.288 C 
HETATM    7  O8  UNL     1     -33.944   5.409   2.044  1.00 20.00    -0.260 OA
BRANCH   6   8
HETATM    8  O9  UNL     1     -32.315   6.494   3.280  1.00 20.00    -0.323 OA
HETATM    9  C7  UNL     1     -32.175   7.671   2.478  1.00 20.00     0.213 C 
ENDBRANCH   6   8
ENDBRANCH   2   6
TORSDOF 2
ENDMDL
MODEL 4
REMARK VINA RESULT:      -4.1     11.343     11.922
REMARK  2 active torsions:
REMARK  status: ('A' for Active; 'I' for Inactive)
REMARK    1  A    between atoms: C2_2  and  C3_3 
REMARK    2  A    between atoms: C3_3  and  O9_9 
ROOT
HETATM    1  C1  UNL     1     -35.680  15.247  -3.019  1.00 20.00    -0.013 C 
HETATM    2  C2  UNL     1     -34.662  14.817  -3.774  1.00 20.00     0.013 C 
HETATM    3  C4  UNL     1     -35.275  16.384  -2.142  1.00 20.00     0.028 C 
HETATM    4  C5  UNL     1     -33.413  15.599  -3.518  1.00 20.00     0.045 C 
HETATM    5  C6  UNL     1     -33.750  16.355  -2.232  1.00 20.00     0.009 C 
ENDROOT
BRANCH   2   6
HETATM    6  C3  UNL     1     -34.709  13.761  -4.735  1.00 20.00     0.288 C 
HETATM    7  O8  UNL     1     -35.019  12.601  -4.471  1.00 20.00    -0.260 OA
BRANCH   6   8
HETATM    8  O9  UNL     1     -34.361  14.250  -5.958  1.00 20.00    -0.323 OA
HETATM    9  C7  UNL     1     -35.424  14.373  -6.907  1.00 20.00     0.213 C 
ENDBRANCH   6   8
ENDBRANCH   2   6
TORSDOF 2
ENDMDL
MODEL 5
REMARK VINA RESULT:      -4.0      9.725     10.994
REMARK  2 active torsions:
REMARK  status: ('A' for Active; 'I' for Inactive)
REMARK    1  A    between atoms: C2_2  and  C3_3 
REMARK    2  A    between atoms: C3_3  and  O9_9 
ROOT
HETATM    1  C1  UNL     1     -41.923   6.439  -2.075  1.00 20.00    -0.013 C 
HETATM    2  C2  UNL     1     -41.720   5.119  -1.990  1.00 20.00     0.013 C 
HETATM    3  C4  UNL     1     -41.174   7.181  -1.018  1.00 20.00     0.028 C 
HETATM    4  C5  UNL     1     -40.805   4.769  -0.861  1.00 20.00     0.045 C 
HETATM    5  C6  UNL     1     -40.753   6.069  -0.058  1.00 20.00     0.009 C 
ENDROOT
BRANCH   2   6
HETATM    6  C3  UNL     1     -42.269   4.123  -2.855  1.00 20.00     0.288 C 
HETATM    7  O8  UNL     1     -43.274   4.284  -3.544  1.00 20.00    -0.260 OA
BRANCH   6   8
HETATM    8  O9  UNL     1     -41.505   2.997  -2.785  1.00 20.00    -0.323 OA
HETATM    9  C7  UNL     1     -41.940   1.895  -3.587  1.00 20.00     0.213 C 
ENDBRANCH   6   8
ENDBRANCH   2   6
TORSDOF 2
ENDMDL
MODEL 6
REMARK VINA RESULT:      -4.0      2.263      3.810
REMARK  2 active torsions:
REMARK  status: ('A' for Active; 'I' for Inactive)
REMARK    1  A    between atoms: C2_2  and  C3_3 
REMARK    2  A    between atoms: C3_3  and  O9_9 
ROOT
HETATM    1  C1  UNL     1     -32.711   6.513   4.127  1.00 20.00    -0.013 C 
HETATM    2  C2  UNL     1     -33.881   6.166   4.676  1.00 20.00     0.013 C 
HETATM    3  C4  UNL     1     -32.710   6.297   2.650  1.00 20.00     0.028 C 
HETATM    4  C5  UNL     1     -34.847   5.660   3.653  1.00 20.00     0.045 C 
HETATM    5  C6  UNL     1     -33.953   5.435   2.432  1.00 20.00     0.009 C 
ENDROOT
BRANCH   2   6
HETATM    6  C3  UNL     1     -34.227   6.262   6.059  1.00 20.00     0.288 C 
HETATM    7  O8  UNL     1     -33.799   7.129   6.819  1.00 20.00    -0.260 OA
BRANCH   6   8
HETATM    8  O9  UNL     1     -35.088   5.257   6.378  1.00 20.00    -0.323 OA
HETATM    9  C7  UNL     1     -34.625   3.929   6.113  1.00 20.00     0.213 C 
ENDBRANCH   6   8
ENDBRANCH   2   6
TORSDOF 2
ENDMDL
MODEL 7
REMARK VINA RESULT:      -3.9     11.109     12.207
REMARK  2 active torsions:
REMARK  status: ('A' for Active; 'I' for Inactive)
REMARK    1  A    between atoms: C2_2  and  C3_3 
REMARK    2  A    between atoms: C3_3  and  O9_9 
ROOT
HETATM    1  C1  UNL     1     -34.056  15.482  -5.049  1.00 20.00    -0.013 C 
HETATM    2  C2  UNL     1     -34.682  14.848  -4.050  1.00 20.00     0.013 C 
HETATM    3  C4  UNL     1     -33.289  16.664  -4.557  1.00 20.00     0.028 C 
HETATM    4  C5  UNL     1     -34.433  15.509  -2.732  1.00 20.00     0.045 C 
HETATM    5  C6  UNL     1     -33.828  16.852  -3.140  1.00 20.00     0.009 C 
ENDROOT
BRANCH   2   6
HETATM    6  C3  UNL     1     -35.485  13.673  -4.166  1.00 20.00     0.288 C 
HETATM    7  O8  UNL     1     -35.071  12.592  -4.582  1.00 20.00    -0.260 OA
BRANCH   6   8
HETATM    8  O9  UNL     1     -36.751  13.950  -3.747  1.00 20.00    -0.323 OA
HETATM    9  C7  UNL     1     -37.517  14.811  -4.596  1.00 20.00     0.213 C 
ENDBRANCH   6   8
ENDBRANCH   2   6
TORSDOF 2
ENDMDL
MODEL 8
REMARK VINA RESULT:      -3.9     11.264     12.019
REMARK  2 active torsions:
REMARK  status: ('A' for Active; 'I' for Inactive)
REMARK    1  A    between atoms: C2_2  and  C3_3 
REMARK    2  A    between atoms: C3_3  and  O9_9 
ROOT
HETATM    1  C1  UNL     1     -35.415  13.686  -4.352  1.00 20.00    -0.013 C 
HETATM    2  C2  UNL     1     -35.799  14.745  -3.630  1.00 20.00     0.013 C 
HETATM    3  C4  UNL     1     -33.948  13.439  -4.232  1.00 20.00     0.028 C 
HETATM    4  C5  UNL     1     -34.647  15.376  -2.914  1.00 20.00     0.045 C 
HETATM    5  C6  UNL     1     -33.438  14.729  -3.592  1.00 20.00     0.009 C 
ENDROOT
BRANCH   2   6
HETATM    6  C3  UNL     1     -37.131  15.246  -3.505  1.00 20.00     0.288 C 
HETATM    7  O8  UNL     1     -37.408  16.407  -3.212  1.00 20.00    -0.260 OA
BRANCH   6   8
HETATM    8  O9  UNL     1     -38.015  14.242  -3.763  1.00 20.00    -0.323 OA
HETATM    9  C7  UNL     1     -39.248  14.635  -4.372  1.00 20.00     0.213 C 
ENDBRANCH   6   8
ENDBRANCH   2   6
TORSDOF 2
ENDMDL
MODEL 9
REMARK VINA RESULT:      -3.8     11.055     12.014
REMARK  2 active torsions:
REMARK  status: ('A' for Active; 'I' for Inactive)
REMARK    1  A    between atoms: C2_2  and  C3_3 
REMARK    2  A    between atoms: C3_3  and  O9_9 
ROOT
HETATM    1  C1  UNL     1     -34.408  15.611  -3.163  1.00 20.00    -0.013 C 
HETATM    2  C2  UNL     1     -35.485  14.926  -3.564  1.00 20.00     0.013 C 
HETATM    3  C4  UNL     1     -33.142  14.903  -3.515  1.00 20.00     0.028 C 
HETATM    4  C5  UNL     1     -35.109  13.649  -4.245  1.00 20.00     0.045 C 
HETATM    5  C6  UNL     1     -33.629  13.504  -3.891  1.00 20.00     0.009 C 
ENDROOT
BRANCH   2   6
HETATM    6  C3  UNL     1     -36.848  15.324  -3.403  1.00 20.00     0.288 C 
HETATM    7  O8  UNL     1     -37.202  16.446  -3.049  1.00 20.00    -0.260 OA
BRANCH   6   8
HETATM    8  O9  UNL     1     -37.661  14.273  -3.704  1.00 20.00    -0.323 OA
HETATM    9  C7  UNL     1     -38.958  14.610  -4.207  1.00 20.00     0.213 C 
ENDBRANCH   6   8
ENDBRANCH   2   6
TORSDOF 2
ENDMDL
