MODEL 1
REMARK VINA RESULT:      -5.1      0.000      0.000
REMARK  1 active torsions:
REMARK  status: ('A' for Active; 'I' for Inactive)
REMARK    1  A    between atoms: C1_1  and  C5_5 
ROOT
HETATM    1  C2  UNL     1     -33.447  13.752  -3.874  1.00 20.00     0.006 C 
HETATM    2  C3  UNL     1     -34.439  13.939  -5.030  1.00 20.00     0.006 C 
HETATM    3  C4  UNL     1     -33.309  15.978  -4.689  1.00 20.00     0.011 C 
HETATM    4  C5  UNL     1     -34.480  15.655  -2.610  1.00 20.00     0.067 C 
HETATM    5  C6  UNL     1     -33.219  15.192  -3.379  1.00 20.00    -0.002 C 
HETATM    6  C7  UNL     1     -34.715  15.456  -5.011  1.00 20.00    -0.006 C 
HETATM    7  C8  UNL     1     -35.526  15.893  -3.746  1.00 20.00    -0.033 C 
HETATM    8  C10 UNL     1     -35.980  17.360  -3.896  1.00 20.00     0.016 C 
HETATM    9  C11 UNL     1     -36.790  15.051  -3.511  1.00 20.00     0.016 C 
ENDROOT
BRANCH   4  10
HETATM   10  C1  UNL     1     -34.176  16.857  -1.766  1.00 20.00     0.128 C 
HETATM   11  C9  UNL     1     -34.789  16.892  -0.392  1.00 20.00     0.091 C 
HETATM   12  O12 UNL     1     -33.458  17.768  -2.176  1.00 20.00    -0.298 OA
ENDBRANCH   4  10
TORSDOF 1
ENDMDL
MODEL 2
REMARK VINA RESULT:      -4.9      1.968      3.700
REMARK  1 active torsions:
REMARK  status: ('A' for Active; 'I' for Inactive)
REMARK    1  A    between atoms: C1_1  and  C5_5 
ROOT
HETATM    1  C2  UNL     1     -34.677  16.468  -1.270  1.00 20.00     0.006 C 
HETATM    2  C3  UNL     1     -33.579  17.225  -2.032  1.00 20.00     0.006 C 
HETATM    3  C4  UNL     1     -35.502  17.144  -3.392  1.00 20.00     0.011 C 
HETATM    4  C5  UNL     1     -34.916  14.822  -3.146  1.00 20.00     0.067 C 
HETATM    5  C6  UNL     1     -35.609  15.986  -2.398  1.00 20.00    -0.002 C 
HETATM    6  C7  UNL     1     -33.977  17.023  -3.508  1.00 20.00    -0.006 C 
HETATM    7  C8  UNL     1     -33.799  15.539  -3.969  1.00 20.00    -0.033 C 
HETATM    8  C10 UNL     1     -33.974  15.441  -5.499  1.00 20.00     0.016 C 
HETATM    9  C11 UNL     1     -32.415  14.957  -3.637  1.00 20.00     0.016 C 
ENDROOT
BRANCH   4  10
HETATM   10  C1  UNL     1     -35.910  14.049  -3.962  1.00 20.00     0.128 C 
HETATM   11  C9  UNL     1     -37.267  14.672  -4.143  1.00 20.00     0.091 C 
HETATM   12  O12 UNL     1     -35.626  12.962  -4.462  1.00 20.00    -0.298 OA
ENDBRANCH   4  10
TORSDOF 1
ENDMDL
MODEL 3
REMARK VINA RESULT:      -4.7      1.534      2.980
REMARK  1 active torsions:
REMARK  status: ('A' for Active; 'I' for Inactive)
REMARK    1  A    between atoms: C1_1  and  C5_5 
ROOT
HETATM    1  C2  UNL     1     -35.032  14.080  -6.110  1.00 20.00     0.006 C 
HETATM    2  C3  UNL     1     -34.701  13.192  -4.901  1.00 20.00     0.006 C 
HETATM    3  C4  UNL     1     -36.300  14.788  -4.232  1.00 20.00     0.011 C 
HETATM    4  C5  UNL     1     -34.404  16.143  -4.832  1.00 20.00     0.067 C 
HETATM    5  C6  UNL     1     -35.584  15.360  -5.456  1.00 20.00    -0.002 C 
HETATM    6  C7  UNL     1     -35.036  14.100  -3.701  1.00 20.00    -0.006 C 
HETATM    7  C8  UNL     1     -34.039  15.298  -3.570  1.00 20.00    -0.033 C 
HETATM    8  C10 UNL     1     -34.268  16.026  -2.229  1.00 20.00     0.016 C 
HETATM    9  C11 UNL     1     -32.562  14.871  -3.605  1.00 20.00     0.016 C 
ENDROOT
BRANCH   4  10
HETATM   10  C1  UNL     1     -34.797  17.564  -4.553  1.00 20.00     0.128 C 
HETATM   11  C9  UNL     1     -33.690  18.582  -4.538  1.00 20.00     0.091 C 
HETATM   12  O12 UNL     1     -35.968  17.880  -4.350  1.00 20.00    -0.298 OA
ENDBRANCH   4  10
TORSDOF 1
ENDMDL
MODEL 4
REMARK VINA RESULT:      -4.7      2.042      3.406
REMARK  1 active torsions:
REMARK  status: ('A' for Active; 'I' for Inactive)
REMARK    1  A    between atoms: C1_1  and  C5_5 
ROOT
HETATM    1  C2  UNL     1     -33.401  13.777  -3.797  1.00 20.00     0.006 C 
HETATM    2  C3  UNL     1     -32.711  15.148  -3.765  1.00 20.00     0.006 C 
HETATM    3  C4  UNL     1     -34.728  15.308  -2.558  1.00 20.00     0.011 C 
HETATM    4  C5  UNL     1     -35.473  14.784  -4.787  1.00 20.00     0.067 C 
HETATM    5  C6  UNL     1     -34.875  14.127  -3.519  1.00 20.00    -0.002 C 
HETATM    6  C7  UNL     1     -33.885  16.124  -3.546  1.00 20.00    -0.006 C 
HETATM    7  C8  UNL     1     -34.825  16.206  -4.793  1.00 20.00    -0.033 C 
HETATM    8  C10 UNL     1     -35.831  17.363  -4.616  1.00 20.00     0.016 C 
HETATM    9  C11 UNL     1     -34.074  16.460  -6.110  1.00 20.00     0.016 C 
ENDROOT
BRANCH   4  10
HETATM   10  C1  UNL     1     -36.972  14.769  -4.736  1.00 20.00     0.128 C 
HETATM   11  C9  UNL     1     -37.695  15.256  -5.963  1.00 20.00     0.091 C 
HETATM   12  O12 UNL     1     -37.579  14.375  -3.742  1.00 20.00    -0.298 OA
ENDBRANCH   4  10
TORSDOF 1
ENDMDL
MODEL 5
REMARK VINA RESULT:      -4.7      2.109      3.358
REMARK  1 active torsions:
REMARK  status: ('A' for Active; 'I' for Inactive)
REMARK    1  A    between atoms: C1_1  and  C5_5 
ROOT
HETATM    1  C2  UNL     1     -34.235  16.009  -2.157  1.00 20.00     0.006 C 
HETATM    2  C3  UNL     1     -33.314  15.761  -3.361  1.00 20.00     0.006 C 
HETATM    3  C4  UNL     1     -35.147  17.052  -4.085  1.00 20.00     0.011 C 
HETATM    4  C5  UNL     1     -36.182  14.999  -3.372  1.00 20.00     0.067 C 
HETATM    5  C6  UNL     1     -35.591  16.318  -2.819  1.00 20.00    -0.002 C 
HETATM    6  C7  UNL     1     -34.271  15.887  -4.563  1.00 20.00    -0.006 C 
HETATM    7  C8  UNL     1     -35.298  14.708  -4.626  1.00 20.00    -0.033 C 
HETATM    8  C10 UNL     1     -36.062  14.751  -5.966  1.00 20.00     0.016 C 
HETATM    9  C11 UNL     1     -34.643  13.321  -4.525  1.00 20.00     0.016 C 
ENDROOT
BRANCH   4  10
HETATM   10  C1  UNL     1     -37.649  15.150  -3.649  1.00 20.00     0.128 C 
HETATM   11  C9  UNL     1     -38.197  16.551  -3.647  1.00 20.00     0.091 C 
HETATM   12  O12 UNL     1     -38.365  14.175  -3.870  1.00 20.00    -0.298 OA
ENDBRANCH   4  10
TORSDOF 1
ENDMDL
MODEL 6
REMARK VINA RESULT:      -4.7      1.897      3.693
REMARK  1 active torsions:
REMARK  status: ('A' for Active; 'I' for Inactive)
REMARK    1  A    between atoms: C1_1  and  C5_5 
ROOT
HETATM    1  C2  UNL     1     -34.050  16.707  -1.648  1.00 20.00     0.006 C 
HETATM    2  C3  UNL     1     -34.050  17.963  -2.532  1.00 20.00     0.006 C 
HETATM    3  C4  UNL     1     -36.153  16.920  -2.729  1.00 20.00     0.011 C 
HETATM    4  C5  UNL     1     -34.645  15.263  -3.609  1.00 20.00     0.067 C 
HETATM    5  C6  UNL     1     -35.164  15.846  -2.273  1.00 20.00    -0.002 C 
HETATM    6  C7  UNL     1     -35.114  17.637  -3.599  1.00 20.00    -0.006 C 
HETATM    7  C8  UNL     1     -34.651  16.498  -4.566  1.00 20.00    -0.033 C 
HETATM    8  C10 UNL     1     -35.635  16.382  -5.748  1.00 20.00     0.016 C 
HETATM    9  C11 UNL     1     -33.255  16.734  -5.164  1.00 20.00     0.016 C 
ENDROOT
BRANCH   4  10
HETATM   10  C1  UNL     1     -35.498  14.111  -4.053  1.00 20.00     0.128 C 
HETATM   11  C9  UNL     1     -34.829  13.061  -4.898  1.00 20.00     0.091 C 
HETATM   12  O12 UNL     1     -36.684  14.029  -3.739  1.00 20.00    -0.298 OA
ENDBRANCH   4  10
TORSDOF 1
ENDMDL
MODEL 7
REMARK VINA RESULT:      -4.7      1.981      3.735
REMARK  1 active torsions:
REMARK  status: ('A' for Active; 'I' for Inactive)
REMARK    1  A    between atoms: C1_1  and  C5_5 
ROOT
HETATM    1  C2  UNL     1     -33.957  17.481  -3.406  1.00 20.00     0.006 C 
HETATM    2  C3  UNL     1     -34.200  16.481  -2.267  1.00 20.00     0.006 C 
HETATM    3  C4  UNL     1     -32.972  15.393  -3.957  1.00 20.00     0.011 C 
HETATM    4  C5  UNL     1     -35.040  15.940  -5.061  1.00 20.00     0.067 C 
HETATM    5  C6  UNL     1     -33.696  16.567  -4.617  1.00 20.00    -0.002 C 
HETATM    6  C7  UNL     1     -34.120  15.115  -2.979  1.00 20.00    -0.006 C 
HETATM    7  C8  UNL     1     -35.328  14.883  -3.947  1.00 20.00    -0.033 C 
HETATM    8  C10 UNL     1     -35.328  13.422  -4.442  1.00 20.00     0.016 C 
HETATM    9  C11 UNL     1     -36.695  15.137  -3.291  1.00 20.00     0.016 C 
ENDROOT
BRANCH   4  10
HETATM   10  C1  UNL     1     -34.934  15.385  -6.451  1.00 20.00     0.128 C 
HETATM   11  C9  UNL     1     -36.227  15.112  -7.170  1.00 20.00     0.091 C 
HETATM   12  O12 UNL     1     -33.844  15.168  -6.976  1.00 20.00    -0.298 OA
ENDBRANCH   4  10
TORSDOF 1
ENDMDL
MODEL 8
REMARK VINA RESULT:      -4.6      2.233      3.454
REMARK  1 active torsions:
REMARK  status: ('A' for Active; 'I' for Inactive)
REMARK    1  A    between atoms: C1_1  and  C5_5 
ROOT
HETATM    1  C2  UNL     1     -33.772  17.141  -6.024  1.00 20.00     0.006 C 
HETATM    2  C3  UNL     1     -35.116  17.788  -5.655  1.00 20.00     0.006 C 
HETATM    3  C4  UNL     1     -34.284  16.673  -3.753  1.00 20.00     0.011 C 
HETATM    4  C5  UNL     1     -34.610  14.882  -5.329  1.00 20.00     0.067 C 
HETATM    5  C6  UNL     1     -33.628  16.024  -4.973  1.00 20.00    -0.002 C 
HETATM    6  C7  UNL     1     -35.611  16.917  -4.483  1.00 20.00    -0.006 C 
HETATM    7  C8  UNL     1     -36.003  15.474  -4.944  1.00 20.00    -0.033 C 
HETATM    8  C10 UNL     1     -36.714  14.732  -3.794  1.00 20.00     0.016 C 
HETATM    9  C11 UNL     1     -36.958  15.456  -6.149  1.00 20.00     0.016 C 
ENDROOT
BRANCH   4  10
HETATM   10  C1  UNL     1     -34.237  13.618  -4.613  1.00 20.00     0.128 C 
HETATM   11  C9  UNL     1     -33.115  13.712  -3.615  1.00 20.00     0.091 C 
HETATM   12  O12 UNL     1     -34.823  12.559  -4.828  1.00 20.00    -0.298 OA
ENDBRANCH   4  10
TORSDOF 1
ENDMDL
MODEL 9
REMARK VINA RESULT:      -4.6      2.293      3.805
REMARK  1 active torsions:
REMARK  status: ('A' for Active; 'I' for Inactive)
REMARK    1  A    between atoms: C1_1  and  C5_5 
ROOT
HETATM    1  C2  UNL     1     -36.676  16.648  -3.197  1.00 20.00     0.006 C 
HETATM    2  C3  UNL     1     -36.688  17.380  -4.547  1.00 20.00     0.006 C 
HETATM    3  C4  UNL     1     -37.047  15.086  -4.946  1.00 20.00     0.011 C 
HETATM    4  C5  UNL     1     -34.843  15.127  -3.979  1.00 20.00     0.067 C 
HETATM    5  C6  UNL     1     -36.340  15.199  -3.594  1.00 20.00    -0.002 C 
HETATM    6  C7  UNL     1     -36.287  16.276  -5.546  1.00 20.00    -0.006 C 
HETATM    7  C8  UNL     1     -34.796  15.836  -5.371  1.00 20.00    -0.033 C 
HETATM    8  C10 UNL     1     -34.381  14.916  -6.539  1.00 20.00     0.016 C 
HETATM    9  C11 UNL     1     -33.808  17.014  -5.353  1.00 20.00     0.016 C 
ENDROOT
BRANCH   4  10
HETATM   10  C1  UNL     1     -34.360  13.707  -3.973  1.00 20.00     0.128 C 
HETATM   11  C9  UNL     1     -32.924  13.482  -3.582  1.00 20.00     0.091 C 
HETATM   12  O12 UNL     1     -35.102  12.773  -4.269  1.00 20.00    -0.298 OA
ENDBRANCH   4  10
TORSDOF 1
ENDMDL
