MODEL 1
REMARK VINA RESULT:      -4.4      0.000      0.000
REMARK  0 active torsions:
REMARK  status: ('A' for Active; 'I' for Inactive)
ROOT
HETATM    1  C1  UNL     1     -35.167  13.938  -4.736  1.00 20.00     0.135 C 
HETATM    2  C2  UNL     1     -34.569  14.348  -6.057  1.00 20.00     0.088 C 
HETATM    3  C3  UNL     1     -35.796  16.209  -5.092  1.00 20.00     0.025 C 
HETATM    4  C4  UNL     1     -35.956  15.057  -4.077  1.00 20.00     0.014 C 
HETATM    5  C5  UNL     1     -34.575  15.880  -5.979  1.00 20.00    -0.040 C 
HETATM    6  C6  UNL     1     -37.425  14.646  -3.946  1.00 20.00     0.023 C 
HETATM    7  C7  UNL     1     -35.382  15.391  -2.702  1.00 20.00     0.023 C 
HETATM    8  C8  UNL     1     -34.741  16.499  -7.374  1.00 20.00     0.015 C 
HETATM    9  C9  UNL     1     -33.263  16.402  -5.372  1.00 20.00     0.015 C 
HETATM   10  O10 UNL     1     -35.056  12.809  -4.272  1.00 20.00    -0.297 OA
ENDROOT
TORSDOF 0
ENDMDL
MODEL 2
REMARK VINA RESULT:      -4.4      1.338      3.010
REMARK  0 active torsions:
REMARK  status: ('A' for Active; 'I' for Inactive)
ROOT
HETATM    1  C1  UNL     1     -34.732  13.814  -4.738  1.00 20.00     0.135 C 
HETATM    2  C2  UNL     1     -34.146  14.276  -3.430  1.00 20.00     0.088 C 
HETATM    3  C3  UNL     1     -34.698  16.196  -4.812  1.00 20.00     0.025 C 
HETATM    4  C4  UNL     1     -35.097  14.968  -5.658  1.00 20.00     0.014 C 
HETATM    5  C5  UNL     1     -34.608  15.737  -3.340  1.00 20.00    -0.040 C 
HETATM    6  C6  UNL     1     -34.261  14.893  -6.938  1.00 20.00     0.023 C 
HETATM    7  C7  UNL     1     -36.584  14.939  -6.003  1.00 20.00     0.023 C 
HETATM    8  C8  UNL     1     -33.588  16.588  -2.572  1.00 20.00     0.015 C 
HETATM    9  C9  UNL     1     -35.963  15.839  -2.620  1.00 20.00     0.015 C 
HETATM   10  O10 UNL     1     -34.859  12.631  -5.035  1.00 20.00    -0.297 OA
ENDROOT
TORSDOF 0
ENDMDL
MODEL 3
REMARK VINA RESULT:      -4.4      1.214      2.033
REMARK  0 active torsions:
REMARK  status: ('A' for Active; 'I' for Inactive)
ROOT
HETATM    1  C1  UNL     1     -36.028  14.744  -4.368  1.00 20.00     0.135 C 
HETATM    2  C2  UNL     1     -36.357  15.538  -5.605  1.00 20.00     0.088 C 
HETATM    3  C3  UNL     1     -34.085  16.019  -4.894  1.00 20.00     0.025 C 
HETATM    4  C4  UNL     1     -34.618  15.001  -3.864  1.00 20.00     0.014 C 
HETATM    5  C5  UNL     1     -34.974  15.916  -6.152  1.00 20.00    -0.040 C 
HETATM    6  C6  UNL     1     -34.674  15.620  -2.465  1.00 20.00     0.023 C 
HETATM    7  C7  UNL     1     -33.807  13.707  -3.831  1.00 20.00     0.023 C 
HETATM    8  C8  UNL     1     -35.024  17.262  -6.888  1.00 20.00     0.015 C 
HETATM    9  C9  UNL     1     -34.464  14.848  -7.133  1.00 20.00     0.015 C 
HETATM   10  O10 UNL     1     -36.832  14.003  -3.814  1.00 20.00    -0.297 OA
ENDROOT
TORSDOF 0
ENDMDL
MODEL 4
REMARK VINA RESULT:      -4.3      1.872      2.695
REMARK  0 active torsions:
REMARK  status: ('A' for Active; 'I' for Inactive)
ROOT
HETATM    1  C1  UNL     1     -33.693  15.847  -5.080  1.00 20.00     0.135 C 
HETATM    2  C2  UNL     1     -34.100  15.892  -6.531  1.00 20.00     0.088 C 
HETATM    3  C3  UNL     1     -35.270  14.089  -5.399  1.00 20.00     0.025 C 
HETATM    4  C4  UNL     1     -34.386  14.735  -4.311  1.00 20.00     0.014 C 
HETATM    5  C5  UNL     1     -35.424  15.115  -6.543  1.00 20.00    -0.040 C 
HETATM    6  C6  UNL     1     -33.346  13.739  -3.793  1.00 20.00     0.023 C 
HETATM    7  C7  UNL     1     -35.194  15.301  -3.145  1.00 20.00     0.023 C 
HETATM    8  C8  UNL     1     -35.626  14.399  -7.885  1.00 20.00     0.015 C 
HETATM    9  C9  UNL     1     -36.614  16.060  -6.315  1.00 20.00     0.015 C 
HETATM   10  O10 UNL     1     -32.862  16.605  -4.594  1.00 20.00    -0.297 OA
ENDROOT
TORSDOF 0
ENDMDL
MODEL 5
REMARK VINA RESULT:      -4.3      1.463      2.867
REMARK  0 active torsions:
REMARK  status: ('A' for Active; 'I' for Inactive)
ROOT
HETATM    1  C1  UNL     1     -34.181  14.173  -3.895  1.00 20.00     0.135 C 
HETATM    2  C2  UNL     1     -35.560  13.632  -4.172  1.00 20.00     0.088 C 
HETATM    3  C3  UNL     1     -35.629  16.058  -4.069  1.00 20.00     0.025 C 
HETATM    4  C4  UNL     1     -34.153  15.690  -3.812  1.00 20.00     0.014 C 
HETATM    5  C5  UNL     1     -36.298  14.845  -4.754  1.00 20.00    -0.040 C 
HETATM    6  C6  UNL     1     -33.720  16.124  -2.409  1.00 20.00     0.023 C 
HETATM    7  C7  UNL     1     -33.203  16.274  -4.855  1.00 20.00     0.023 C 
HETATM    8  C8  UNL     1     -37.793  14.792  -4.414  1.00 20.00     0.015 C 
HETATM    9  C9  UNL     1     -36.151  14.892  -6.283  1.00 20.00     0.015 C 
HETATM   10  O10 UNL     1     -33.203  13.456  -3.716  1.00 20.00    -0.297 OA
ENDROOT
TORSDOF 0
ENDMDL
MODEL 6
REMARK VINA RESULT:      -4.3      2.030      3.474
REMARK  0 active torsions:
REMARK  status: ('A' for Active; 'I' for Inactive)
ROOT
HETATM    1  C1  UNL     1     -33.712  16.172  -4.415  1.00 20.00     0.135 C 
HETATM    2  C2  UNL     1     -34.416  17.298  -3.704  1.00 20.00     0.088 C 
HETATM    3  C3  UNL     1     -35.655  15.230  -3.407  1.00 20.00     0.025 C 
HETATM    4  C4  UNL     1     -34.438  14.844  -4.274  1.00 20.00     0.014 C 
HETATM    5  C5  UNL     1     -35.322  16.564  -2.705  1.00 20.00    -0.040 C 
HETATM    6  C6  UNL     1     -34.886  14.352  -5.653  1.00 20.00     0.023 C 
HETATM    7  C7  UNL     1     -33.541  13.801  -3.612  1.00 20.00     0.023 C 
HETATM    8  C8  UNL     1     -36.603  17.366  -2.435  1.00 20.00     0.015 C 
HETATM    9  C9  UNL     1     -34.596  16.348  -1.367  1.00 20.00     0.015 C 
HETATM   10  O10 UNL     1     -32.686  16.329  -5.067  1.00 20.00    -0.297 OA
ENDROOT
TORSDOF 0
ENDMDL
MODEL 7
REMARK VINA RESULT:      -4.2      1.905      3.510
REMARK  0 active torsions:
REMARK  status: ('A' for Active; 'I' for Inactive)
ROOT
HETATM    1  C1  UNL     1     -35.550  15.044  -3.519  1.00 20.00     0.135 C 
HETATM    2  C2  UNL     1     -35.551  16.012  -2.364  1.00 20.00     0.088 C 
HETATM    3  C3  UNL     1     -33.307  15.811  -3.274  1.00 20.00     0.025 C 
HETATM    4  C4  UNL     1     -34.172  14.866  -4.134  1.00 20.00     0.014 C 
HETATM    5  C5  UNL     1     -34.259  16.812  -2.582  1.00 20.00    -0.040 C 
HETATM    6  C6  UNL     1     -33.718  13.414  -3.973  1.00 20.00     0.023 C 
HETATM    7  C7  UNL     1     -34.184  15.249  -5.613  1.00 20.00     0.023 C 
HETATM    8  C8  UNL     1     -33.670  17.278  -1.244  1.00 20.00     0.015 C 
HETATM    9  C9  UNL     1     -34.525  18.052  -3.452  1.00 20.00     0.015 C 
HETATM   10  O10 UNL     1     -36.552  14.440  -3.887  1.00 20.00    -0.297 OA
ENDROOT
TORSDOF 0
ENDMDL
MODEL 8
REMARK VINA RESULT:      -4.2      1.610      2.686
REMARK  0 active torsions:
REMARK  status: ('A' for Active; 'I' for Inactive)
ROOT
HETATM    1  C1  UNL     1     -36.183  14.573  -4.074  1.00 20.00     0.135 C 
HETATM    2  C2  UNL     1     -34.913  14.076  -3.433  1.00 20.00     0.088 C 
HETATM    3  C3  UNL     1     -34.426  15.971  -4.873  1.00 20.00     0.025 C 
HETATM    4  C4  UNL     1     -35.950  15.758  -4.996  1.00 20.00     0.014 C 
HETATM    5  C5  UNL     1     -33.963  15.273  -3.576  1.00 20.00    -0.040 C 
HETATM    6  C6  UNL     1     -36.334  15.382  -6.429  1.00 20.00     0.023 C 
HETATM    7  C7  UNL     1     -36.760  16.970  -4.538  1.00 20.00     0.023 C 
HETATM    8  C8  UNL     1     -32.507  14.804  -3.707  1.00 20.00     0.015 C 
HETATM    9  C9  UNL     1     -34.063  16.199  -2.353  1.00 20.00     0.015 C 
HETATM   10  O10 UNL     1     -37.274  14.043  -3.896  1.00 20.00    -0.297 OA
ENDROOT
TORSDOF 0
ENDMDL
MODEL 9
REMARK VINA RESULT:      -4.2      2.526      3.693
REMARK  0 active torsions:
REMARK  status: ('A' for Active; 'I' for Inactive)
ROOT
HETATM    1  C1  UNL     1     -33.859  17.242  -3.189  1.00 20.00     0.135 C 
HETATM    2  C2  UNL     1     -33.294  16.139  -4.046  1.00 20.00     0.088 C 
HETATM    3  C3  UNL     1     -34.929  15.229  -2.498  1.00 20.00     0.025 C 
HETATM    4  C4  UNL     1     -34.888  16.740  -2.190  1.00 20.00     0.014 C 
HETATM    5  C5  UNL     1     -34.341  15.026  -3.911  1.00 20.00    -0.040 C 
HETATM    6  C6  UNL     1     -34.392  16.993  -0.764  1.00 20.00     0.023 C 
HETATM    7  C7  UNL     1     -36.235  17.429  -2.404  1.00 20.00     0.023 C 
HETATM    8  C8  UNL     1     -33.688  13.642  -4.029  1.00 20.00     0.015 C 
HETATM    9  C9  UNL     1     -35.414  15.149  -5.006  1.00 20.00     0.015 C 
HETATM   10  O10 UNL     1     -33.491  18.409  -3.269  1.00 20.00    -0.297 OA
ENDROOT
TORSDOF 0
ENDMDL
