MODEL 1
REMARK VINA RESULT:      -4.5      0.000      0.000
REMARK  1 active torsions:
REMARK  status: ('A' for Active; 'I' for Inactive)
REMARK    1  A    between atoms: C2_2  and  C7_7 
ROOT
HETATM    1  C1  UNL     1     -34.926   4.567   5.950  1.00 20.00     0.127 C 
HETATM    2  C3  UNL     1     -34.998   4.223   4.481  1.00 20.00     0.079 C 
HETATM    3  C4  UNL     1     -33.893   5.592   6.351  1.00 20.00     0.079 C 
HETATM    4  C5  UNL     1     -35.093   5.487   3.634  1.00 20.00     0.019 C 
HETATM    5  C6  UNL     1     -34.021   6.844   5.492  1.00 20.00     0.019 C 
HETATM    6  C7  UNL     1     -34.049   6.548   3.991  1.00 20.00     0.048 C 
HETATM    7  O8  UNL     1     -35.601   3.969   6.787  1.00 20.00    -0.298 OA
ENDROOT
BRANCH   6   8
HETATM    8  C2  UNL     1     -32.683   6.157   3.507  1.00 20.00     0.235 C 
HETATM    9  O9  UNL     1     -31.754   6.950   3.395  1.00 20.00    -0.306 OA
ENDBRANCH   6   8
TORSDOF 1
ENDMDL
MODEL 2
REMARK VINA RESULT:      -4.3     12.066     12.829
REMARK  1 active torsions:
REMARK  status: ('A' for Active; 'I' for Inactive)
REMARK    1  A    between atoms: C2_2  and  C7_7 
ROOT
HETATM    1  C1  UNL     1     -34.694  13.516  -4.245  1.00 20.00     0.127 C 
HETATM    2  C3  UNL     1     -33.374  13.863  -3.598  1.00 20.00     0.079 C 
HETATM    3  C4  UNL     1     -35.876  14.375  -3.864  1.00 20.00     0.079 C 
HETATM    4  C5  UNL     1     -33.070  15.349  -3.749  1.00 20.00     0.019 C 
HETATM    5  C6  UNL     1     -35.542  15.851  -4.036  1.00 20.00     0.019 C 
HETATM    6  C7  UNL     1     -34.235  16.259  -3.353  1.00 20.00     0.048 C 
HETATM    7  O8  UNL     1     -34.819  12.527  -4.965  1.00 20.00    -0.298 OA
ENDROOT
BRANCH   6   8
HETATM    8  C2  UNL     1     -34.413  16.304  -1.862  1.00 20.00     0.235 C 
HETATM    9  O9  UNL     1     -33.745  17.020  -1.124  1.00 20.00    -0.306 OA
ENDBRANCH   6   8
TORSDOF 1
ENDMDL
MODEL 3
REMARK VINA RESULT:      -4.3      1.115      3.822
REMARK  1 active torsions:
REMARK  status: ('A' for Active; 'I' for Inactive)
REMARK    1  A    between atoms: C2_2  and  C7_7 
ROOT
HETATM    1  C1  UNL     1     -33.075   6.539   3.370  1.00 20.00     0.127 C 
HETATM    2  C3  UNL     1     -32.754   6.563   4.845  1.00 20.00     0.079 C 
HETATM    3  C4  UNL     1     -34.059   5.489   2.912  1.00 20.00     0.079 C 
HETATM    4  C5  UNL     1     -34.032   6.579   5.677  1.00 20.00     0.019 C 
HETATM    5  C6  UNL     1     -35.326   5.539   3.757  1.00 20.00     0.019 C 
HETATM    6  C7  UNL     1     -35.051   5.515   5.262  1.00 20.00     0.048 C 
HETATM    7  O8  UNL     1     -32.490   7.269   2.570  1.00 20.00    -0.298 OA
ENDROOT
BRANCH   6   8
HETATM    8  C2  UNL     1     -34.619   4.144   5.695  1.00 20.00     0.235 C 
HETATM    9  O9  UNL     1     -34.911   3.120   5.085  1.00 20.00    -0.306 OA
ENDBRANCH   6   8
TORSDOF 1
ENDMDL
MODEL 4
REMARK VINA RESULT:      -4.3     12.167     13.052
REMARK  1 active torsions:
REMARK  status: ('A' for Active; 'I' for Inactive)
REMARK    1  A    between atoms: C2_2  and  C7_7 
ROOT
HETATM    1  C1  UNL     1     -36.455  14.547  -3.833  1.00 20.00     0.127 C 
HETATM    2  C3  UNL     1     -36.074  15.943  -3.400  1.00 20.00     0.079 C 
HETATM    3  C4  UNL     1     -35.379  13.738  -4.515  1.00 20.00     0.079 C 
HETATM    4  C5  UNL     1     -34.780  15.925  -2.594  1.00 20.00     0.019 C 
HETATM    5  C6  UNL     1     -34.104  13.733  -3.681  1.00 20.00     0.019 C 
HETATM    6  C7  UNL     1     -33.652  15.132  -3.259  1.00 20.00     0.048 C 
HETATM    7  O8  UNL     1     -37.608  14.131  -3.728  1.00 20.00    -0.298 OA
ENDROOT
BRANCH   6   8
HETATM    8  C2  UNL     1     -33.078  15.874  -4.432  1.00 20.00     0.235 C 
HETATM    9  O9  UNL     1     -33.040  17.098  -4.503  1.00 20.00    -0.306 OA
ENDBRANCH   6   8
TORSDOF 1
ENDMDL
MODEL 5
REMARK VINA RESULT:      -4.2     12.238     13.690
REMARK  1 active torsions:
REMARK  status: ('A' for Active; 'I' for Inactive)
REMARK    1  A    between atoms: C2_2  and  C7_7 
ROOT
HETATM    1  C1  UNL     1     -34.637  13.714  -4.692  1.00 20.00     0.127 C 
HETATM    2  C3  UNL     1     -33.986  14.226  -3.429  1.00 20.00     0.079 C 
HETATM    3  C4  UNL     1     -35.060  14.755  -5.701  1.00 20.00     0.079 C 
HETATM    4  C5  UNL     1     -32.853  15.193  -3.758  1.00 20.00     0.019 C 
HETATM    5  C6  UNL     1     -33.904  15.698  -6.013  1.00 20.00     0.019 C 
HETATM    6  C7  UNL     1     -33.244  16.281  -4.762  1.00 20.00     0.048 C 
HETATM    7  O8  UNL     1     -34.899  12.522  -4.845  1.00 20.00    -0.298 OA
ENDROOT
BRANCH   6   8
HETATM    8  C2  UNL     1     -34.133  17.314  -4.132  1.00 20.00     0.235 C 
HETATM    9  O9  UNL     1     -33.891  17.847  -3.054  1.00 20.00    -0.306 OA
ENDBRANCH   6   8
TORSDOF 1
ENDMDL
MODEL 6
REMARK VINA RESULT:      -4.1     12.161     13.787
REMARK  1 active torsions:
REMARK  status: ('A' for Active; 'I' for Inactive)
REMARK    1  A    between atoms: C2_2  and  C7_7 
ROOT
HETATM    1  C1  UNL     1     -33.923  17.305  -4.234  1.00 20.00     0.127 C 
HETATM    2  C3  UNL     1     -33.107  16.158  -4.779  1.00 20.00     0.079 C 
HETATM    3  C4  UNL     1     -35.267  16.953  -3.642  1.00 20.00     0.079 C 
HETATM    4  C5  UNL     1     -32.999  15.034  -3.753  1.00 20.00     0.019 C 
HETATM    5  C6  UNL     1     -35.123  15.836  -2.616  1.00 20.00     0.019 C 
HETATM    6  C7  UNL     1     -34.343  14.629  -3.142  1.00 20.00     0.048 C 
HETATM    7  O8  UNL     1     -33.558  18.473  -4.359  1.00 20.00    -0.298 OA
ENDROOT
BRANCH   6   8
HETATM    8  C2  UNL     1     -35.176  13.849  -4.117  1.00 20.00     0.235 C 
HETATM    9  O9  UNL     1     -34.919  12.699  -4.456  1.00 20.00    -0.306 OA
ENDBRANCH   6   8
TORSDOF 1
ENDMDL
MODEL 7
REMARK VINA RESULT:      -4.1     12.249     13.026
REMARK  1 active torsions:
REMARK  status: ('A' for Active; 'I' for Inactive)
REMARK    1  A    between atoms: C2_2  and  C7_7 
ROOT
HETATM    1  C1  UNL     1     -34.696  15.614  -2.576  1.00 20.00     0.127 C 
HETATM    2  C3  UNL     1     -33.401  15.239  -3.255  1.00 20.00     0.079 C 
HETATM    3  C4  UNL     1     -35.957  15.442  -3.389  1.00 20.00     0.079 C 
HETATM    4  C5  UNL     1     -33.495  13.846  -3.870  1.00 20.00     0.019 C 
HETATM    5  C6  UNL     1     -36.024  14.039  -3.980  1.00 20.00     0.019 C 
HETATM    6  C7  UNL     1     -34.749  13.634  -4.722  1.00 20.00     0.048 C 
HETATM    7  O8  UNL     1     -34.714  16.127  -1.458  1.00 20.00    -0.298 OA
ENDROOT
BRANCH   6   8
HETATM    8  C2  UNL     1     -34.651  14.359  -6.033  1.00 20.00     0.235 C 
HETATM    9  O9  UNL     1     -35.406  14.152  -6.977  1.00 20.00    -0.306 OA
ENDBRANCH   6   8
TORSDOF 1
ENDMDL
MODEL 8
REMARK VINA RESULT:      -4.0     12.273     13.713
REMARK  1 active torsions:
REMARK  status: ('A' for Active; 'I' for Inactive)
REMARK    1  A    between atoms: C2_2  and  C7_7 
ROOT
HETATM    1  C1  UNL     1     -34.441  14.809  -6.091  1.00 20.00     0.127 C 
HETATM    2  C3  UNL     1     -34.658  13.730  -5.056  1.00 20.00     0.079 C 
HETATM    3  C4  UNL     1     -34.316  16.222  -5.574  1.00 20.00     0.079 C 
HETATM    4  C5  UNL     1     -33.627  13.838  -3.938  1.00 20.00     0.019 C 
HETATM    5  C6  UNL     1     -33.272  16.295  -4.466  1.00 20.00     0.019 C 
HETATM    6  C7  UNL     1     -33.482  15.251  -3.368  1.00 20.00     0.048 C 
HETATM    7  O8  UNL     1     -34.466  14.562  -7.296  1.00 20.00    -0.298 OA
ENDROOT
BRANCH   6   8
HETATM    8  C2  UNL     1     -34.658  15.619  -2.510  1.00 20.00     0.235 C 
HETATM    9  O9  UNL     1     -34.550  16.154  -1.411  1.00 20.00    -0.306 OA
ENDBRANCH   6   8
TORSDOF 1
ENDMDL
MODEL 9
REMARK VINA RESULT:      -4.0     12.187     13.884
REMARK  1 active torsions:
REMARK  status: ('A' for Active; 'I' for Inactive)
REMARK    1  A    between atoms: C2_2  and  C7_7 
ROOT
HETATM    1  C1  UNL     1     -33.733  16.947  -4.450  1.00 20.00     0.127 C 
HETATM    2  C3  UNL     1     -33.629  16.319  -3.080  1.00 20.00     0.079 C 
HETATM    3  C4  UNL     1     -34.230  16.055  -5.563  1.00 20.00     0.079 C 
HETATM    4  C5  UNL     1     -34.929  15.615  -2.707  1.00 20.00     0.019 C 
HETATM    5  C6  UNL     1     -35.533  15.376  -5.162  1.00 20.00     0.019 C 
HETATM    6  C7  UNL     1     -35.460  14.683  -3.800  1.00 20.00     0.048 C 
HETATM    7  O8  UNL     1     -33.337  18.091  -4.667  1.00 20.00    -0.298 OA
ENDROOT
BRANCH   6   8
HETATM    8  C2  UNL     1     -34.642  13.427  -3.893  1.00 20.00     0.235 C 
HETATM    9  O9  UNL     1     -34.793  12.587  -4.775  1.00 20.00    -0.306 OA
ENDBRANCH   6   8
TORSDOF 1
ENDMDL
