MODEL 1
REMARK VINA RESULT:      -4.2      0.000      0.000
REMARK  2 active torsions:
REMARK  status: ('A' for Active; 'I' for Inactive)
REMARK    1  A    between atoms: C1_1  and  C4_4 
REMARK    2  A    between atoms: C1_1  and  O8_8 
ROOT
HETATM    1  C2  UNL     1     -35.178   4.987   6.285  1.00 20.00     0.020 A 
HETATM    2  C3  UNL     1     -34.484   3.930   5.482  1.00 20.00     0.020 A 
HETATM    3  C4  UNL     1     -34.721   5.297   4.876  1.00 20.00     0.044 A 
HETATM    4  C5  UNL     1     -35.790   5.401   3.816  1.00 20.00     0.026 C 
ENDROOT
BRANCH   3   5
HETATM    5  C1  UNL     1     -33.540   6.182   4.732  1.00 20.00     0.266 C 
HETATM    6  O7  UNL     1     -33.111   6.903   5.622  1.00 20.00    -0.264 OA
BRANCH   5   7
HETATM    7  O8  UNL     1     -33.028   6.059   3.473  1.00 20.00    -0.326 OA
HETATM    8  C6  UNL     1     -32.177   7.128   3.048  1.00 20.00     0.213 C 
ENDBRANCH   5   7
ENDBRANCH   3   5
TORSDOF 2
ENDMDL
MODEL 2
REMARK VINA RESULT:      -4.1      1.071      1.871
REMARK  2 active torsions:
REMARK  status: ('A' for Active; 'I' for Inactive)
REMARK    1  A    between atoms: C1_1  and  C4_4 
REMARK    2  A    between atoms: C1_1  and  O8_8 
ROOT
HETATM    1  C2  UNL     1     -34.188   4.103   5.621  1.00 20.00     0.020 A 
HETATM    2  C3  UNL     1     -35.475   4.764   5.232  1.00 20.00     0.020 A 
HETATM    3  C4  UNL     1     -34.187   5.560   5.209  1.00 20.00     0.044 A 
HETATM    4  C5  UNL     1     -33.993   6.582   6.302  1.00 20.00     0.026 C 
ENDROOT
BRANCH   3   5
HETATM    5  C1  UNL     1     -33.618   5.881   3.877  1.00 20.00     0.266 C 
HETATM    6  O7  UNL     1     -34.054   5.442   2.822  1.00 20.00    -0.264 OA
BRANCH   5   7
HETATM    7  O8  UNL     1     -32.558   6.727   4.026  1.00 20.00    -0.326 OA
HETATM    8  C6  UNL     1     -32.149   7.414   2.839  1.00 20.00     0.213 C 
ENDBRANCH   5   7
ENDBRANCH   3   5
TORSDOF 2
ENDMDL
MODEL 3
REMARK VINA RESULT:      -3.7      1.374      3.175
REMARK  2 active torsions:
REMARK  status: ('A' for Active; 'I' for Inactive)
REMARK    1  A    between atoms: C1_1  and  C4_4 
REMARK    2  A    between atoms: C1_1  and  O8_8 
ROOT
HETATM    1  C2  UNL     1     -32.054   6.109   3.319  1.00 20.00     0.020 A 
HETATM    2  C3  UNL     1     -32.882   7.325   3.035  1.00 20.00     0.020 A 
HETATM    3  C4  UNL     1     -33.552   6.059   3.527  1.00 20.00     0.044 A 
HETATM    4  C5  UNL     1     -34.359   5.276   2.521  1.00 20.00     0.026 C 
ENDROOT
BRANCH   3   5
HETATM    5  C1  UNL     1     -34.036   6.057   4.929  1.00 20.00     0.266 C 
HETATM    6  O7  UNL     1     -33.520   6.698   5.833  1.00 20.00    -0.264 OA
BRANCH   5   7
HETATM    7  O8  UNL     1     -35.124   5.240   5.034  1.00 20.00    -0.326 OA
HETATM    8  C6  UNL     1     -34.983   4.141   5.940  1.00 20.00     0.213 C 
ENDBRANCH   5   7
ENDBRANCH   3   5
TORSDOF 2
ENDMDL
MODEL 4
REMARK VINA RESULT:      -3.7     12.264     13.182
REMARK  2 active torsions:
REMARK  status: ('A' for Active; 'I' for Inactive)
REMARK    1  A    between atoms: C1_1  and  C4_4 
REMARK    2  A    between atoms: C1_1  and  O8_8 
ROOT
HETATM    1  C2  UNL     1     -33.198  15.949  -4.495  1.00 20.00     0.020 A 
HETATM    2  C3  UNL     1     -32.692  14.887  -3.568  1.00 20.00     0.020 A 
HETATM    3  C4  UNL     1     -34.135  14.858  -4.023  1.00 20.00     0.044 A 
HETATM    4  C5  UNL     1     -35.182  15.245  -3.008  1.00 20.00     0.026 C 
ENDROOT
BRANCH   3   5
HETATM    5  C1  UNL     1     -34.507  13.817  -5.012  1.00 20.00     0.266 C 
HETATM    6  O7  UNL     1     -34.799  12.666  -4.719  1.00 20.00    -0.264 OA
BRANCH   5   7
HETATM    7  O8  UNL     1     -34.468  14.348  -6.269  1.00 20.00    -0.326 OA
HETATM    8  C6  UNL     1     -35.743  14.618  -6.861  1.00 20.00     0.213 C 
ENDBRANCH   5   7
ENDBRANCH   3   5
TORSDOF 2
ENDMDL
MODEL 5
REMARK VINA RESULT:      -3.6      1.302      2.592
REMARK  2 active torsions:
REMARK  status: ('A' for Active; 'I' for Inactive)
REMARK    1  A    between atoms: C1_1  and  C4_4 
REMARK    2  A    between atoms: C1_1  and  O8_8 
ROOT
HETATM    1  C2  UNL     1     -34.535   4.999   3.089  1.00 20.00     0.020 A 
HETATM    2  C3  UNL     1     -35.728   5.714   3.647  1.00 20.00     0.020 A 
HETATM    3  C4  UNL     1     -34.633   5.241   4.580  1.00 20.00     0.044 A 
HETATM    4  C5  UNL     1     -34.941   4.048   5.449  1.00 20.00     0.026 C 
ENDROOT
BRANCH   3   5
HETATM    5  C1  UNL     1     -33.743   6.281   5.152  1.00 20.00     0.266 C 
HETATM    6  O7  UNL     1     -32.831   6.816   4.537  1.00 20.00    -0.264 OA
BRANCH   5   7
HETATM    7  O8  UNL     1     -34.103   6.530   6.444  1.00 20.00    -0.326 OA
HETATM    8  C6  UNL     1     -33.360   7.561   7.102  1.00 20.00     0.213 C 
ENDBRANCH   5   7
ENDBRANCH   3   5
TORSDOF 2
ENDMDL
MODEL 6
REMARK VINA RESULT:      -3.5     12.163     13.009
REMARK  2 active torsions:
REMARK  status: ('A' for Active; 'I' for Inactive)
REMARK    1  A    between atoms: C1_1  and  C4_4 
REMARK    2  A    between atoms: C1_1  and  O8_8 
ROOT
HETATM    1  C2  UNL     1     -32.879  14.528  -3.669  1.00 20.00     0.020 A 
HETATM    2  C3  UNL     1     -33.855  15.492  -3.067  1.00 20.00     0.020 A 
HETATM    3  C4  UNL     1     -34.121  14.917  -4.442  1.00 20.00     0.044 A 
HETATM    4  C5  UNL     1     -33.934  15.840  -5.620  1.00 20.00     0.026 C 
ENDROOT
BRANCH   3   5
HETATM    5  C1  UNL     1     -35.193  13.897  -4.549  1.00 20.00     0.266 C 
HETATM    6  O7  UNL     1     -35.037  12.711  -4.295  1.00 20.00    -0.264 OA
BRANCH   5   7
HETATM    7  O8  UNL     1     -36.348  14.491  -4.966  1.00 20.00    -0.326 OA
HETATM    8  C6  UNL     1     -37.347  14.669  -3.956  1.00 20.00     0.213 C 
ENDBRANCH   5   7
ENDBRANCH   3   5
TORSDOF 2
ENDMDL
MODEL 7
REMARK VINA RESULT:      -3.4     11.946     12.754
REMARK  2 active torsions:
REMARK  status: ('A' for Active; 'I' for Inactive)
REMARK    1  A    between atoms: C1_1  and  C4_4 
REMARK    2  A    between atoms: C1_1  and  O8_8 
ROOT
HETATM    1  C2  UNL     1     -33.393  15.679  -4.454  1.00 20.00     0.020 A 
HETATM    2  C3  UNL     1     -32.762  14.661  -3.555  1.00 20.00     0.020 A 
HETATM    3  C4  UNL     1     -34.235  14.979  -3.408  1.00 20.00     0.044 A 
HETATM    4  C5  UNL     1     -34.645  15.789  -2.204  1.00 20.00     0.026 C 
ENDROOT
BRANCH   3   5
HETATM    5  C1  UNL     1     -35.195  13.957  -3.892  1.00 20.00     0.266 C 
HETATM    6  O7  UNL     1     -34.873  12.838  -4.268  1.00 20.00    -0.264 OA
BRANCH   5   7
HETATM    7  O8  UNL     1     -36.461  14.463  -3.848  1.00 20.00    -0.326 OA
HETATM    8  C6  UNL     1     -36.949  15.005  -5.080  1.00 20.00     0.213 C 
ENDBRANCH   5   7
ENDBRANCH   3   5
TORSDOF 2
ENDMDL
MODEL 8
REMARK VINA RESULT:      -3.4     12.465     13.457
REMARK  2 active torsions:
REMARK  status: ('A' for Active; 'I' for Inactive)
REMARK    1  A    between atoms: C1_1  and  C4_4 
REMARK    2  A    between atoms: C1_1  and  O8_8 
ROOT
HETATM    1  C2  UNL     1     -35.663  14.870  -3.512  1.00 20.00     0.020 A 
HETATM    2  C3  UNL     1     -34.698  15.582  -2.614  1.00 20.00     0.020 A 
HETATM    3  C4  UNL     1     -34.197  14.934  -3.887  1.00 20.00     0.044 A 
HETATM    4  C5  UNL     1     -33.396  13.665  -3.742  1.00 20.00     0.026 C 
ENDROOT
BRANCH   3   5
HETATM    5  C1  UNL     1     -33.829  15.840  -5.002  1.00 20.00     0.266 C 
HETATM    6  O7  UNL     1     -32.813  16.521  -5.025  1.00 20.00    -0.264 OA
BRANCH   5   7
HETATM    7  O8  UNL     1     -34.789  15.787  -5.970  1.00 20.00    -0.326 OA
HETATM    8  C6  UNL     1     -34.446  15.031  -7.136  1.00 20.00     0.213 C 
ENDBRANCH   5   7
ENDBRANCH   3   5
TORSDOF 2
ENDMDL
MODEL 9
REMARK VINA RESULT:      -3.4     12.400     13.576
REMARK  2 active torsions:
REMARK  status: ('A' for Active; 'I' for Inactive)
REMARK    1  A    between atoms: C1_1  and  C4_4 
REMARK    2  A    between atoms: C1_1  and  O8_8 
ROOT
HETATM    1  C2  UNL     1     -35.413  14.265  -7.204  1.00 20.00     0.020 A 
HETATM    2  C3  UNL     1     -34.289  15.212  -6.909  1.00 20.00     0.020 A 
HETATM    3  C4  UNL     1     -35.241  14.812  -5.802  1.00 20.00     0.044 A 
HETATM    4  C5  UNL     1     -36.236  15.849  -5.344  1.00 20.00     0.026 C 
ENDROOT
BRANCH   3   5
HETATM    5  C1  UNL     1     -34.722  13.876  -4.775  1.00 20.00     0.266 C 
HETATM    6  O7  UNL     1     -34.684  12.661  -4.911  1.00 20.00    -0.264 OA
BRANCH   5   7
HETATM    7  O8  UNL     1     -34.305  14.582  -3.684  1.00 20.00    -0.326 OA
HETATM    8  C6  UNL     1     -32.898  14.834  -3.616  1.00 20.00     0.213 C 
ENDBRANCH   5   7
ENDBRANCH   3   5
TORSDOF 2
ENDMDL
