MODEL 1
REMARK VINA RESULT:      -4.8      0.000      0.000
REMARK  1 active torsions:
REMARK  status: ('A' for Active; 'I' for Inactive)
REMARK    1  A    between atoms: C9_9  and  O10_10 
ROOT
HETATM    1  C1  UNL     1     -35.156   4.872   6.485  1.00 20.00     0.001 C 
HETATM    2  C2  UNL     1     -35.291   4.385   5.034  1.00 20.00     0.005 C 
HETATM    3  C3  UNL     1     -34.136   6.023   6.469  1.00 20.00     0.005 C 
HETATM    4  C4  UNL     1     -34.186   5.157   2.815  1.00 20.00     0.007 C 
HETATM    5  C5  UNL     1     -32.962   5.926   2.304  1.00 20.00     0.032 C 
HETATM    6  C6  UNL     1     -32.755   7.111   4.560  1.00 20.00     0.036 C 
HETATM    7  C7  UNL     1     -34.099   5.011   4.326  1.00 20.00    -0.010 C 
HETATM    8  C8  UNL     1     -34.015   6.381   4.996  1.00 20.00    -0.008 C 
HETATM    9  C9  UNL     1     -32.752   7.263   3.032  1.00 20.00     0.118 C 
ENDROOT
BRANCH   9  10
HETATM   10  O10 UNL     1     -31.509   7.833   2.636  1.00 20.00    -0.396 OA
HETATM   11  H26 UNL     1     -31.152   8.290   3.414  1.00 20.00     0.210 HD
ENDBRANCH   9  10
TORSDOF 1
ENDMDL
MODEL 2
REMARK VINA RESULT:      -4.7     11.527     13.184
REMARK  1 active torsions:
REMARK  status: ('A' for Active; 'I' for Inactive)
REMARK    1  A    between atoms: C9_9  and  O10_10 
ROOT
HETATM    1  C1  UNL     1     -33.682  18.250  -2.851  1.00 20.00     0.001 C 
HETATM    2  C2  UNL     1     -33.650  17.988  -4.364  1.00 20.00     0.005 C 
HETATM    3  C3  UNL     1     -34.029  16.909  -2.181  1.00 20.00     0.005 C 
HETATM    4  C4  UNL     1     -34.032  15.847  -5.783  1.00 20.00     0.007 C 
HETATM    5  C5  UNL     1     -34.689  14.465  -5.691  1.00 20.00     0.032 C 
HETATM    6  C6  UNL     1     -34.535  14.552  -3.141  1.00 20.00     0.036 C 
HETATM    7  C7  UNL     1     -34.327  16.634  -4.516  1.00 20.00    -0.010 C 
HETATM    8  C8  UNL     1     -33.820  15.885  -3.286  1.00 20.00    -0.008 C 
HETATM    9  C9  UNL     1     -34.313  13.711  -4.406  1.00 20.00     0.118 C 
ENDROOT
BRANCH   9  10
HETATM   10  O10 UNL     1     -35.093  12.524  -4.303  1.00 20.00    -0.396 OA
HETATM   11  H26 UNL     1     -35.430  12.335  -5.193  1.00 20.00     0.210 HD
ENDBRANCH   9  10
TORSDOF 1
ENDMDL
MODEL 3
REMARK VINA RESULT:      -4.6      2.212      4.200
REMARK  1 active torsions:
REMARK  status: ('A' for Active; 'I' for Inactive)
REMARK    1  A    between atoms: C9_9  and  O10_10 
ROOT
HETATM    1  C1  UNL     1     -31.746   7.604   2.877  1.00 20.00     0.001 C 
HETATM    2  C2  UNL     1     -32.075   7.872   4.353  1.00 20.00     0.005 C 
HETATM    3  C3  UNL     1     -32.588   6.389   2.453  1.00 20.00     0.005 C 
HETATM    4  C4  UNL     1     -33.683   6.713   6.030  1.00 20.00     0.007 C 
HETATM    5  C5  UNL     1     -34.417   5.384   6.245  1.00 20.00     0.032 C 
HETATM    6  C6  UNL     1     -34.270   4.889   3.741  1.00 20.00     0.036 C 
HETATM    7  C7  UNL     1     -32.790   6.607   4.804  1.00 20.00    -0.010 C 
HETATM    8  C8  UNL     1     -33.613   6.249   3.568  1.00 20.00    -0.008 C 
HETATM    9  C9  UNL     1     -35.164   4.906   4.989  1.00 20.00     0.118 C 
ENDROOT
BRANCH   9  10
HETATM   10  O10 UNL     1     -35.667   3.592   5.204  1.00 20.00    -0.396 OA
HETATM   11  H26 UNL     1     -36.474   3.512   4.671  1.00 20.00     0.210 HD
ENDBRANCH   9  10
TORSDOF 1
ENDMDL
MODEL 4
REMARK VINA RESULT:      -4.6     11.966     14.065
REMARK  1 active torsions:
REMARK  status: ('A' for Active; 'I' for Inactive)
REMARK    1  A    between atoms: C9_9  and  O10_10 
ROOT
HETATM    1  C1  UNL     1     -34.210  17.872  -6.910  1.00 20.00     0.001 C 
HETATM    2  C2  UNL     1     -33.516  17.768  -5.543  1.00 20.00     0.005 C 
HETATM    3  C3  UNL     1     -34.966  16.549  -7.121  1.00 20.00     0.005 C 
HETATM    4  C4  UNL     1     -33.463  15.899  -3.741  1.00 20.00     0.007 C 
HETATM    5  C5  UNL     1     -33.704  14.393  -3.586  1.00 20.00     0.032 C 
HETATM    6  C6  UNL     1     -35.182  14.407  -5.672  1.00 20.00     0.036 C 
HETATM    7  C7  UNL     1     -33.595  16.286  -5.206  1.00 20.00    -0.010 C 
HETATM    8  C8  UNL     1     -34.975  15.911  -5.740  1.00 20.00    -0.008 C 
HETATM    9  C9  UNL     1     -35.026  13.933  -4.220  1.00 20.00     0.118 C 
ENDROOT
BRANCH   9  10
HETATM   10  O10 UNL     1     -35.098  12.511  -4.197  1.00 20.00    -0.396 OA
HETATM   11  H26 UNL     1     -35.522  12.267  -3.359  1.00 20.00     0.210 HD
ENDBRANCH   9  10
TORSDOF 1
ENDMDL
MODEL 5
REMARK VINA RESULT:      -4.5     11.909     13.141
REMARK  1 active torsions:
REMARK  status: ('A' for Active; 'I' for Inactive)
REMARK    1  A    between atoms: C9_9  and  O10_10 
ROOT
HETATM    1  C1  UNL     1     -34.071  17.725  -1.491  1.00 20.00     0.001 C 
HETATM    2  C2  UNL     1     -34.544  16.263  -1.481  1.00 20.00     0.005 C 
HETATM    3  C3  UNL     1     -33.701  18.056  -2.946  1.00 20.00     0.005 C 
HETATM    4  C4  UNL     1     -34.796  14.488  -3.359  1.00 20.00     0.007 C 
HETATM    5  C5  UNL     1     -34.291  14.177  -4.773  1.00 20.00     0.032 C 
HETATM    6  C6  UNL     1     -33.733  16.647  -5.125  1.00 20.00     0.036 C 
HETATM    7  C7  UNL     1     -34.083  15.721  -2.826  1.00 20.00    -0.010 C 
HETATM    8  C8  UNL     1     -34.313  16.917  -3.747  1.00 20.00    -0.008 C 
HETATM    9  C9  UNL     1     -34.381  15.387  -5.717  1.00 20.00     0.118 C 
ENDROOT
BRANCH   9  10
HETATM   10  O10 UNL     1     -33.735  15.081  -6.948  1.00 20.00    -0.396 OA
HETATM   11  H26 UNL     1     -33.213  14.278  -6.796  1.00 20.00     0.210 HD
ENDBRANCH   9  10
TORSDOF 1
ENDMDL
MODEL 6
REMARK VINA RESULT:      -4.2     11.859     12.652
REMARK  1 active torsions:
REMARK  status: ('A' for Active; 'I' for Inactive)
REMARK    1  A    between atoms: C9_9  and  O10_10 
ROOT
HETATM    1  C1  UNL     1     -34.195  13.277  -4.599  1.00 20.00     0.001 C 
HETATM    2  C2  UNL     1     -33.313  14.216  -3.761  1.00 20.00     0.005 C 
HETATM    3  C3  UNL     1     -35.636  13.800  -4.473  1.00 20.00     0.005 C 
HETATM    4  C4  UNL     1     -33.848  16.327  -2.347  1.00 20.00     0.007 C 
HETATM    5  C5  UNL     1     -35.023  17.018  -1.644  1.00 20.00     0.032 C 
HETATM    6  C6  UNL     1     -36.667  15.796  -3.173  1.00 20.00     0.036 C 
HETATM    7  C7  UNL     1     -34.309  14.993  -2.913  1.00 20.00    -0.010 C 
HETATM    8  C8  UNL     1     -35.468  15.194  -3.888  1.00 20.00    -0.008 C 
HETATM    9  C9  UNL     1     -36.267  17.135  -2.539  1.00 20.00     0.118 C 
ENDROOT
BRANCH   9  10
HETATM   10  O10 UNL     1     -37.364  17.619  -1.771  1.00 20.00    -0.396 OA
HETATM   11  H26 UNL     1     -37.294  18.586  -1.765  1.00 20.00     0.210 HD
ENDBRANCH   9  10
TORSDOF 1
ENDMDL
MODEL 7
REMARK VINA RESULT:      -4.2     11.498     13.264
REMARK  1 active torsions:
REMARK  status: ('A' for Active; 'I' for Inactive)
REMARK    1  A    between atoms: C9_9  and  O10_10 
ROOT
HETATM    1  C1  UNL     1     -34.599  13.225  -4.906  1.00 20.00     0.001 C 
HETATM    2  C2  UNL     1     -34.603  14.416  -5.876  1.00 20.00     0.005 C 
HETATM    3  C3  UNL     1     -34.311  13.799  -3.508  1.00 20.00     0.005 C 
HETATM    4  C4  UNL     1     -34.257  16.966  -5.526  1.00 20.00     0.007 C 
HETATM    5  C5  UNL     1     -33.648  17.953  -4.524  1.00 20.00     0.032 C 
HETATM    6  C6  UNL     1     -33.859  16.211  -2.665  1.00 20.00     0.036 C 
HETATM    7  C7  UNL     1     -33.967  15.542  -5.075  1.00 20.00    -0.010 C 
HETATM    8  C8  UNL     1     -34.527  15.295  -3.677  1.00 20.00    -0.008 C 
HETATM    9  C9  UNL     1     -34.078  17.675  -3.075  1.00 20.00     0.118 C 
ENDROOT
BRANCH   9  10
HETATM   10  O10 UNL     1     -33.340  18.509  -2.189  1.00 20.00    -0.396 OA
HETATM   11  H26 UNL     1     -33.252  18.020  -1.355  1.00 20.00     0.210 HD
ENDBRANCH   9  10
TORSDOF 1
ENDMDL
MODEL 8
REMARK VINA RESULT:      -4.2     12.036     13.390
REMARK  1 active torsions:
REMARK  status: ('A' for Active; 'I' for Inactive)
REMARK    1  A    between atoms: C9_9  and  O10_10 
ROOT
HETATM    1  C1  UNL     1     -34.618  18.093  -0.253  1.00 20.00     0.001 C 
HETATM    2  C2  UNL     1     -34.205  18.961  -1.451  1.00 20.00     0.005 C 
HETATM    3  C3  UNL     1     -34.600  16.635  -0.740  1.00 20.00     0.005 C 
HETATM    4  C4  UNL     1     -33.536  18.378  -3.892  1.00 20.00     0.007 C 
HETATM    5  C5  UNL     1     -33.676  17.252  -4.923  1.00 20.00     0.032 C 
HETATM    6  C6  UNL     1     -34.058  15.564  -3.041  1.00 20.00     0.036 C 
HETATM    7  C7  UNL     1     -34.327  18.021  -2.642  1.00 20.00    -0.010 C 
HETATM    8  C8  UNL     1     -33.838  16.699  -2.054  1.00 20.00    -0.008 C 
HETATM    9  C9  UNL     1     -33.317  15.871  -4.350  1.00 20.00     0.118 C 
ENDROOT
BRANCH   9  10
HETATM   10  O10 UNL     1     -33.639  14.862  -5.301  1.00 20.00    -0.396 OA
HETATM   11  H26 UNL     1     -33.141  15.069  -6.107  1.00 20.00     0.210 HD
ENDBRANCH   9  10
TORSDOF 1
ENDMDL
MODEL 9
REMARK VINA RESULT:      -4.2     11.401     12.342
REMARK  1 active torsions:
REMARK  status: ('A' for Active; 'I' for Inactive)
REMARK    1  A    between atoms: C9_9  and  O10_10 
ROOT
HETATM    1  C1  UNL     1     -37.775  16.132  -3.438  1.00 20.00     0.001 C 
HETATM    2  C2  UNL     1     -37.490  14.737  -4.016  1.00 20.00     0.005 C 
HETATM    3  C3  UNL     1     -36.410  16.760  -3.113  1.00 20.00     0.005 C 
HETATM    4  C4  UNL     1     -35.284  13.451  -4.487  1.00 20.00     0.007 C 
HETATM    5  C5  UNL     1     -33.807  13.438  -4.074  1.00 20.00     0.032 C 
HETATM    6  C6  UNL     1     -33.979  15.884  -3.352  1.00 20.00     0.036 C 
HETATM    7  C7  UNL     1     -36.032  14.486  -3.660  1.00 20.00    -0.010 C 
HETATM    8  C8  UNL     1     -35.416  15.871  -3.845  1.00 20.00    -0.008 C 
HETATM    9  C9  UNL     1     -33.163  14.833  -4.119  1.00 20.00     0.118 C 
ENDROOT
BRANCH   9  10
HETATM   10  O10 UNL     1     -31.857  14.774  -3.557  1.00 20.00    -0.396 OA
HETATM   11  H26 UNL     1     -31.765  15.553  -2.985  1.00 20.00     0.210 HD
ENDBRANCH   9  10
TORSDOF 1
ENDMDL
