MODEL 1
REMARK VINA RESULT:      -5.5      0.000      0.000
REMARK  2 active torsions:
REMARK  status: ('A' for Active; 'I' for Inactive)
REMARK    1  A    between atoms: C1_1  and  C2_2 
REMARK    2  A    between atoms: C1_1  and  C3_3 
ROOT
HETATM    1  C1  UNL     1     -34.140   6.263   4.629  1.00 20.00     0.341 C 
HETATM    2  F4  UNL     1     -32.885   6.330   4.102  1.00 20.00    -0.234 F 
ENDROOT
BRANCH   1   3
HETATM    3  C2  UNL     1     -34.015   5.907   6.093  1.00 20.00     0.395 C 
HETATM    4  F5  UNL     1     -35.238   5.586   6.584  1.00 20.00    -0.211 F 
HETATM    5  F6  UNL     1     -33.577   6.977   6.799  1.00 20.00    -0.211 F 
ENDBRANCH   1   3
BRANCH   1   6
HETATM    6  C3  UNL     1     -34.926   5.243   3.840  1.00 20.00     0.423 C 
HETATM    7  F7  UNL     1     -34.371   5.053   2.624  1.00 20.00    -0.168 F 
HETATM    8  F8  UNL     1     -36.199   5.651   3.649  1.00 20.00    -0.168 F 
HETATM    9  F9  UNL     1     -34.962   4.050   4.469  1.00 20.00    -0.168 F 
ENDBRANCH   1   6
TORSDOF 2
ENDMDL
MODEL 2
REMARK VINA RESULT:      -5.4      0.926      2.769
REMARK  2 active torsions:
REMARK  status: ('A' for Active; 'I' for Inactive)
REMARK    1  A    between atoms: C1_1  and  C2_2 
REMARK    2  A    between atoms: C1_1  and  C3_3 
ROOT
HETATM    1  C1  UNL     1     -33.858   5.606   4.976  1.00 20.00     0.341 C 
HETATM    2  F4  UNL     1     -33.920   6.611   5.895  1.00 20.00    -0.234 F 
ENDROOT
BRANCH   1   3
HETATM    3  C2  UNL     1     -33.687   6.231   3.610  1.00 20.00     0.395 C 
HETATM    4  F5  UNL     1     -33.843   5.278   2.657  1.00 20.00    -0.211 F 
HETATM    5  F6  UNL     1     -32.430   6.720   3.473  1.00 20.00    -0.211 F 
ENDBRANCH   1   3
BRANCH   1   6
HETATM    6  C3  UNL     1     -35.119   4.784   5.094  1.00 20.00     0.423 C 
HETATM    7  F7  UNL     1     -35.598   4.827   6.356  1.00 20.00    -0.168 F 
HETATM    8  F8  UNL     1     -34.886   3.490   4.790  1.00 20.00    -0.168 F 
HETATM    9  F9  UNL     1     -36.085   5.238   4.270  1.00 20.00    -0.168 F 
ENDBRANCH   1   6
TORSDOF 2
ENDMDL
MODEL 3
REMARK VINA RESULT:      -5.3      1.037      2.137
REMARK  2 active torsions:
REMARK  status: ('A' for Active; 'I' for Inactive)
REMARK    1  A    between atoms: C1_1  and  C2_2 
REMARK    2  A    between atoms: C1_1  and  C3_3 
ROOT
HETATM    1  C1  UNL     1     -34.505   4.697   4.768  1.00 20.00     0.341 C 
HETATM    2  F4  UNL     1     -35.151   3.519   4.537  1.00 20.00    -0.234 F 
ENDROOT
BRANCH   1   3
HETATM    3  C2  UNL     1     -35.004   5.255   6.082  1.00 20.00     0.395 C 
HETATM    4  F5  UNL     1     -33.955   5.746   6.789  1.00 20.00    -0.211 F 
HETATM    5  F6  UNL     1     -35.554   4.269   6.831  1.00 20.00    -0.211 F 
ENDBRANCH   1   3
BRANCH   1   6
HETATM    6  C3  UNL     1     -34.770   5.615   3.600  1.00 20.00     0.423 C 
HETATM    7  F7  UNL     1     -34.288   6.852   3.849  1.00 20.00    -0.168 F 
HETATM    8  F8  UNL     1     -36.094   5.732   3.364  1.00 20.00    -0.168 F 
HETATM    9  F9  UNL     1     -34.185   5.163   2.471  1.00 20.00    -0.168 F 
ENDBRANCH   1   6
TORSDOF 2
ENDMDL
MODEL 4
REMARK VINA RESULT:      -5.3      1.225      3.248
REMARK  2 active torsions:
REMARK  status: ('A' for Active; 'I' for Inactive)
REMARK    1  A    between atoms: C1_1  and  C2_2 
REMARK    2  A    between atoms: C1_1  and  C3_3 
ROOT
HETATM    1  C1  UNL     1     -35.118   5.008   4.689  1.00 20.00     0.341 C 
HETATM    2  F4  UNL     1     -35.226   3.701   4.317  1.00 20.00    -0.234 F 
ENDROOT
BRANCH   1   3
HETATM    3  C2  UNL     1     -34.065   5.657   3.819  1.00 20.00     0.395 C 
HETATM    4  F5  UNL     1     -34.265   6.999   3.797  1.00 20.00    -0.211 F 
HETATM    5  F6  UNL     1     -34.179   5.221   2.541  1.00 20.00    -0.211 F 
ENDBRANCH   1   3
BRANCH   1   6
HETATM    6  C3  UNL     1     -34.778   5.052   6.158  1.00 20.00     0.423 C 
HETATM    7  F7  UNL     1     -33.724   4.250   6.426  1.00 20.00    -0.168 F 
HETATM    8  F8  UNL     1     -35.815   4.627   6.912  1.00 20.00    -0.168 F 
HETATM    9  F9  UNL     1     -34.458   6.301   6.556  1.00 20.00    -0.168 F 
ENDBRANCH   1   6
TORSDOF 2
ENDMDL
MODEL 5
REMARK VINA RESULT:      -5.3      1.073      2.156
REMARK  2 active torsions:
REMARK  status: ('A' for Active; 'I' for Inactive)
REMARK    1  A    between atoms: C1_1  and  C2_2 
REMARK    2  A    between atoms: C1_1  and  C3_3 
ROOT
HETATM    1  C1  UNL     1     -34.852   4.852   4.427  1.00 20.00     0.341 C 
HETATM    2  F4  UNL     1     -36.143   5.252   4.243  1.00 20.00    -0.234 F 
ENDROOT
BRANCH   1   3
HETATM    3  C2  UNL     1     -34.570   4.852   5.912  1.00 20.00     0.395 C 
HETATM    4  F5  UNL     1     -35.517   4.120   6.550  1.00 20.00    -0.211 F 
HETATM    5  F6  UNL     1     -34.651   6.113   6.404  1.00 20.00    -0.211 F 
ENDBRANCH   1   3
BRANCH   1   6
HETATM    6  C3  UNL     1     -33.955   5.791   3.657  1.00 20.00     0.423 C 
HETATM    7  F7  UNL     1     -34.417   7.058   3.733  1.00 20.00    -0.168 F 
HETATM    8  F8  UNL     1     -33.904   5.453   2.351  1.00 20.00    -0.168 F 
HETATM    9  F9  UNL     1     -32.696   5.781   4.140  1.00 20.00    -0.168 F 
ENDBRANCH   1   6
TORSDOF 2
ENDMDL
MODEL 6
REMARK VINA RESULT:      -5.3      1.147      2.996
REMARK  2 active torsions:
REMARK  status: ('A' for Active; 'I' for Inactive)
REMARK    1  A    between atoms: C1_1  and  C2_2 
REMARK    2  A    between atoms: C1_1  and  C3_3 
ROOT
HETATM    1  C1  UNL     1     -34.046   5.567   4.956  1.00 20.00     0.341 C 
HETATM    2  F4  UNL     1     -34.135   6.698   5.713  1.00 20.00    -0.234 F 
ENDROOT
BRANCH   1   3
HETATM    3  C2  UNL     1     -34.775   5.816   3.655  1.00 20.00     0.395 C 
HETATM    4  F5  UNL     1     -36.080   5.475   3.799  1.00 20.00    -0.211 F 
HETATM    5  F6  UNL     1     -34.269   5.026   2.677  1.00 20.00    -0.211 F 
ENDBRANCH   1   3
BRANCH   1   6
HETATM    6  C3  UNL     1     -34.631   4.424   5.750  1.00 20.00     0.423 C 
HETATM    7  F7  UNL     1     -35.681   4.846   6.488  1.00 20.00    -0.168 F 
HETATM    8  F8  UNL     1     -33.719   3.903   6.598  1.00 20.00    -0.168 F 
HETATM    9  F9  UNL     1     -35.064   3.432   4.945  1.00 20.00    -0.168 F 
ENDBRANCH   1   6
TORSDOF 2
ENDMDL
MODEL 7
REMARK VINA RESULT:      -5.2      1.058      3.273
REMARK  2 active torsions:
REMARK  status: ('A' for Active; 'I' for Inactive)
REMARK    1  A    between atoms: C1_1  and  C2_2 
REMARK    2  A    between atoms: C1_1  and  C3_3 
ROOT
HETATM    1  C1  UNL     1     -34.920   5.731   4.615  1.00 20.00     0.341 C 
HETATM    2  F4  UNL     1     -35.938   5.005   4.071  1.00 20.00    -0.234 F 
ENDROOT
BRANCH   1   3
HETATM    3  C2  UNL     1     -33.756   5.702   3.650  1.00 20.00     0.395 C 
HETATM    4  F5  UNL     1     -33.325   6.969   3.427  1.00 20.00    -0.211 F 
HETATM    5  F6  UNL     1     -34.153   5.206   2.453  1.00 20.00    -0.211 F 
ENDBRANCH   1   3
BRANCH   1   6
HETATM    6  C3  UNL     1     -34.585   5.135   5.960  1.00 20.00     0.423 C 
HETATM    7  F7  UNL     1     -35.712   4.791   6.621  1.00 20.00    -0.168 F 
HETATM    8  F8  UNL     1     -33.914   6.018   6.730  1.00 20.00    -0.168 F 
HETATM    9  F9  UNL     1     -33.825   4.028   5.837  1.00 20.00    -0.168 F 
ENDBRANCH   1   6
TORSDOF 2
ENDMDL
MODEL 8
REMARK VINA RESULT:      -5.1      1.158      2.320
REMARK  2 active torsions:
REMARK  status: ('A' for Active; 'I' for Inactive)
REMARK    1  A    between atoms: C1_1  and  C2_2 
REMARK    2  A    between atoms: C1_1  and  C3_3 
ROOT
HETATM    1  C1  UNL     1     -34.017   6.362   4.582  1.00 20.00     0.341 C 
HETATM    2  F4  UNL     1     -33.196   6.715   5.611  1.00 20.00    -0.234 F 
ENDROOT
BRANCH   1   3
HETATM    3  C2  UNL     1     -34.717   5.077   4.961  1.00 20.00     0.395 C 
HETATM    4  F5  UNL     1     -35.932   5.033   4.358  1.00 20.00    -0.211 F 
HETATM    5  F6  UNL     1     -34.941   5.042   6.297  1.00 20.00    -0.211 F 
ENDBRANCH   1   3
BRANCH   1   6
HETATM    6  C3  UNL     1     -33.176   6.228   3.335  1.00 20.00     0.423 C 
HETATM    7  F7  UNL     1     -32.988   7.435   2.757  1.00 20.00    -0.168 F 
HETATM    8  F8  UNL     1     -33.775   5.429   2.427  1.00 20.00    -0.168 F 
HETATM    9  F9  UNL     1     -31.961   5.709   3.610  1.00 20.00    -0.168 F 
ENDBRANCH   1   6
TORSDOF 2
ENDMDL
MODEL 9
REMARK VINA RESULT:      -5.1      1.446      3.372
REMARK  2 active torsions:
REMARK  status: ('A' for Active; 'I' for Inactive)
REMARK    1  A    between atoms: C1_1  and  C2_2 
REMARK    2  A    between atoms: C1_1  and  C3_3 
ROOT
HETATM    1  C1  UNL     1     -33.773   6.593   4.028  1.00 20.00     0.341 C 
HETATM    2  F4  UNL     1     -33.599   6.548   5.380  1.00 20.00    -0.234 F 
ENDROOT
BRANCH   1   3
HETATM    3  C2  UNL     1     -34.468   5.320   3.603  1.00 20.00     0.395 C 
HETATM    4  F5  UNL     1     -34.408   5.205   2.252  1.00 20.00    -0.211 F 
HETATM    5  F6  UNL     1     -35.780   5.369   3.935  1.00 20.00    -0.211 F 
ENDBRANCH   1   3
BRANCH   1   6
HETATM    6  C3  UNL     1     -32.418   6.768   3.386  1.00 20.00     0.423 C 
HETATM    7  F7  UNL     1     -31.611   7.513   4.174  1.00 20.00    -0.168 F 
HETATM    8  F8  UNL     1     -32.520   7.396   2.196  1.00 20.00    -0.168 F 
HETATM    9  F9  UNL     1     -31.811   5.581   3.179  1.00 20.00    -0.168 F 
ENDBRANCH   1   6
TORSDOF 2
ENDMDL
