MODEL 1
REMARK VINA RESULT:      -3.7      0.000      0.000
REMARK  1 active torsions:
REMARK  status: ('A' for Active; 'I' for Inactive)
REMARK    1  A    between atoms: C2_2  and  C3_3 
ROOT
HETATM    1  C1  UNL     1     -34.827  14.997  -3.434  1.00 20.00     0.101 A 
HETATM    2  C2  UNL     1     -35.960  14.355  -3.892  1.00 20.00     0.118 A 
HETATM    3  N4  UNL     1     -35.748  13.120  -4.483  1.00 20.00    -0.166 NA
HETATM    4  N5  UNL     1     -34.465  12.798  -4.489  1.00 20.00    -0.037 NA
HETATM    5  S7  UNL     1     -33.497  13.971  -3.785  1.00 20.00    -0.008 SA
ENDROOT
BRANCH   2   6
HETATM    6  C3  UNL     1     -37.286  14.893  -3.785  1.00 20.00     0.292 C 
HETATM    7  O6  UNL     1     -38.316  14.194  -3.753  1.00 20.00    -0.300 OA
ENDBRANCH   2   6
TORSDOF 1
ENDMDL
MODEL 2
REMARK VINA RESULT:      -3.4     11.892     12.043
REMARK  1 active torsions:
REMARK  status: ('A' for Active; 'I' for Inactive)
REMARK    1  A    between atoms: C2_2  and  C3_3 
ROOT
HETATM    1  C1  UNL     1     -33.613   6.219   5.394  1.00 20.00     0.101 A 
HETATM    2  C2  UNL     1     -33.655   6.138   4.017  1.00 20.00     0.118 A 
HETATM    3  N4  UNL     1     -34.614   5.280   3.498  1.00 20.00    -0.166 NA
HETATM    4  N5  UNL     1     -35.313   4.697   4.458  1.00 20.00    -0.037 NA
HETATM    5  S7  UNL     1     -34.831   5.168   5.993  1.00 20.00    -0.008 SA
ENDROOT
BRANCH   2   6
HETATM    6  C3  UNL     1     -32.787   6.872   3.142  1.00 20.00     0.292 C 
HETATM    7  O6  UNL     1     -31.695   7.354   3.494  1.00 20.00    -0.300 OA
ENDBRANCH   2   6
TORSDOF 1
ENDMDL
MODEL 3
REMARK VINA RESULT:      -3.4     12.174     12.348
REMARK  1 active torsions:
REMARK  status: ('A' for Active; 'I' for Inactive)
REMARK    1  A    between atoms: C2_2  and  C3_3 
ROOT
HETATM    1  C1  UNL     1     -34.462   5.052   4.028  1.00 20.00     0.101 A 
HETATM    2  C2  UNL     1     -33.672   6.150   4.302  1.00 20.00     0.118 A 
HETATM    3  N4  UNL     1     -33.640   6.547   5.630  1.00 20.00    -0.166 NA
HETATM    4  N5  UNL     1     -34.397   5.769   6.386  1.00 20.00    -0.037 NA
HETATM    5  S7  UNL     1     -35.155   4.553   5.516  1.00 20.00    -0.008 SA
ENDROOT
BRANCH   2   6
HETATM    6  C3  UNL     1     -32.917   6.864   3.312  1.00 20.00     0.292 C 
HETATM    7  O6  UNL     1     -31.756   7.277   3.491  1.00 20.00    -0.300 OA
ENDBRANCH   2   6
TORSDOF 1
ENDMDL
MODEL 4
REMARK VINA RESULT:      -3.3      2.377      2.639
REMARK  1 active torsions:
REMARK  status: ('A' for Active; 'I' for Inactive)
REMARK    1  A    between atoms: C2_2  and  C3_3 
ROOT
HETATM    1  C1  UNL     1     -34.759  15.311  -4.877  1.00 20.00     0.101 A 
HETATM    2  C2  UNL     1     -34.335  14.861  -3.642  1.00 20.00     0.118 A 
HETATM    3  N4  UNL     1     -34.262  13.483  -3.502  1.00 20.00    -0.166 NA
HETATM    4  N5  UNL     1     -34.624  12.863  -4.613  1.00 20.00    -0.037 NA
HETATM    5  S7  UNL     1     -35.056  13.921  -5.839  1.00 20.00    -0.008 SA
ENDROOT
BRANCH   2   6
HETATM    6  C3  UNL     1     -33.984  15.722  -2.550  1.00 20.00     0.292 C 
HETATM    7  O6  UNL     1     -34.764  16.024  -1.627  1.00 20.00    -0.300 OA
ENDBRANCH   2   6
TORSDOF 1
ENDMDL
MODEL 5
REMARK VINA RESULT:      -3.2      3.040      3.312
REMARK  1 active torsions:
REMARK  status: ('A' for Active; 'I' for Inactive)
REMARK    1  A    between atoms: C2_2  and  C3_3 
ROOT
HETATM    1  C1  UNL     1     -34.898  15.283  -5.662  1.00 20.00     0.101 A 
HETATM    2  C2  UNL     1     -34.184  14.844  -4.565  1.00 20.00     0.118 A 
HETATM    3  N4  UNL     1     -33.119  15.646  -4.186  1.00 20.00    -0.166 NA
HETATM    4  N5  UNL     1     -33.000  16.700  -4.977  1.00 20.00    -0.037 NA
HETATM    5  S7  UNL     1     -34.163  16.743  -6.183  1.00 20.00    -0.008 SA
ENDROOT
BRANCH   2   6
HETATM    6  C3  UNL     1     -34.488  13.646  -3.836  1.00 20.00     0.292 C 
HETATM    7  O6  UNL     1     -35.018  12.640  -4.345  1.00 20.00    -0.300 OA
ENDBRANCH   2   6
TORSDOF 1
ENDMDL
MODEL 6
REMARK VINA RESULT:      -3.2      2.624      2.708
REMARK  1 active torsions:
REMARK  status: ('A' for Active; 'I' for Inactive)
REMARK    1  A    between atoms: C2_2  and  C3_3 
ROOT
HETATM    1  C1  UNL     1     -34.030  15.227  -4.953  1.00 20.00     0.101 A 
HETATM    2  C2  UNL     1     -34.701  14.170  -5.535  1.00 20.00     0.118 A 
HETATM    3  N4  UNL     1     -34.625  12.966  -4.851  1.00 20.00    -0.166 NA
HETATM    4  N5  UNL     1     -33.904  13.080  -3.748  1.00 20.00    -0.037 NA
HETATM    5  S7  UNL     1     -33.308  14.629  -3.516  1.00 20.00    -0.008 SA
ENDROOT
BRANCH   2   6
HETATM    6  C3  UNL     1     -35.439  14.264  -6.762  1.00 20.00     0.292 C 
HETATM    7  O6  UNL     1     -34.929  14.571  -7.856  1.00 20.00    -0.300 OA
ENDBRANCH   2   6
TORSDOF 1
ENDMDL
MODEL 7
REMARK VINA RESULT:      -3.2      2.801      3.155
REMARK  1 active torsions:
REMARK  status: ('A' for Active; 'I' for Inactive)
REMARK    1  A    between atoms: C2_2  and  C3_3 
ROOT
HETATM    1  C1  UNL     1     -35.898  15.967  -3.765  1.00 20.00     0.101 A 
HETATM    2  C2  UNL     1     -35.996  14.599  -3.926  1.00 20.00     0.118 A 
HETATM    3  N4  UNL     1     -37.267  14.069  -3.771  1.00 20.00    -0.166 NA
HETATM    4  N5  UNL     1     -38.155  15.010  -3.492  1.00 20.00    -0.037 NA
HETATM    5  S7  UNL     1     -37.476  16.541  -3.412  1.00 20.00    -0.008 SA
ENDROOT
BRANCH   2   6
HETATM    6  C3  UNL     1     -34.885  13.745  -4.233  1.00 20.00     0.292 C 
HETATM    7  O6  UNL     1     -34.999  12.546  -4.551  1.00 20.00    -0.300 OA
ENDBRANCH   2   6
TORSDOF 1
ENDMDL
MODEL 8
REMARK VINA RESULT:      -3.0     12.120     12.230
REMARK  1 active torsions:
REMARK  status: ('A' for Active; 'I' for Inactive)
REMARK    1  A    between atoms: C2_2  and  C3_3 
ROOT
HETATM    1  C1  UNL     1     -33.170   6.479   4.777  1.00 20.00     0.101 A 
HETATM    2  C2  UNL     1     -34.235   5.607   4.881  1.00 20.00     0.118 A 
HETATM    3  N4  UNL     1     -34.699   5.086   3.682  1.00 20.00    -0.166 NA
HETATM    4  N5  UNL     1     -34.006   5.545   2.653  1.00 20.00    -0.037 NA
HETATM    5  S7  UNL     1     -32.790   6.605   3.108  1.00 20.00    -0.008 SA
ENDROOT
BRANCH   2   6
HETATM    6  C3  UNL     1     -34.852   5.236   6.122  1.00 20.00     0.292 C 
HETATM    7  O6  UNL     1     -35.360   4.120   6.337  1.00 20.00    -0.300 OA
ENDBRANCH   2   6
TORSDOF 1
ENDMDL
MODEL 9
REMARK VINA RESULT:      -3.0     11.147     11.444
REMARK  1 active torsions:
REMARK  status: ('A' for Active; 'I' for Inactive)
REMARK    1  A    between atoms: C2_2  and  C3_3 
ROOT
HETATM    1  C1  UNL     1     -42.593   5.558  -2.780  1.00 20.00     0.101 A 
HETATM    2  C2  UNL     1     -41.851   4.491  -2.314  1.00 20.00     0.118 A 
HETATM    3  N4  UNL     1     -40.829   4.814  -1.435  1.00 20.00    -0.166 NA
HETATM    4  N5  UNL     1     -40.771   6.117  -1.215  1.00 20.00    -0.037 NA
HETATM    5  S7  UNL     1     -41.940   6.972  -2.059  1.00 20.00    -0.008 SA
ENDROOT
BRANCH   2   6
HETATM    6  C3  UNL     1     -42.086   3.126  -2.687  1.00 20.00     0.292 C 
HETATM    7  O6  UNL     1     -41.270   2.430  -3.320  1.00 20.00    -0.300 OA
ENDBRANCH   2   6
TORSDOF 1
ENDMDL
