MODEL 1
REMARK VINA RESULT:      -5.0      0.000      0.000
REMARK  1 active torsions:
REMARK  status: ('A' for Active; 'I' for Inactive)
REMARK    1  A    between atoms: C1_1  and  C4_4 
ROOT
HETATM    1  C3  UNL     1     -34.645   4.934   4.829  1.00 20.00    -0.024 C 
HETATM    2  C4  UNL     1     -34.044   6.124   5.030  1.00 20.00    -0.066 C 
HETATM    3  C6  UNL     1     -35.184   3.975   5.843  1.00 20.00     0.036 C 
HETATM    4  C7  UNL     1     -33.793   6.724   6.390  1.00 20.00     0.048 C 
ENDROOT
BRANCH   2   5
HETATM    5  C1  UNL     1     -33.601   6.889   3.862  1.00 20.00     0.002 C 
HETATM    6  C2  UNL     1     -32.348   6.980   3.387  1.00 20.00    -0.030 C 
HETATM    7  C5  UNL     1     -31.978   7.787   2.184  1.00 20.00     0.036 C 
ENDBRANCH   2   5
TORSDOF 1
ENDMDL
MODEL 2
REMARK VINA RESULT:      -4.6      0.876      1.483
REMARK  1 active torsions:
REMARK  status: ('A' for Active; 'I' for Inactive)
REMARK    1  A    between atoms: C1_1  and  C4_4 
ROOT
HETATM    1  C3  UNL     1     -34.299   5.258   5.827  1.00 20.00    -0.024 C 
HETATM    2  C4  UNL     1     -34.380   5.755   4.576  1.00 20.00    -0.066 C 
HETATM    3  C6  UNL     1     -35.196   4.268   6.500  1.00 20.00     0.036 C 
HETATM    4  C7  UNL     1     -35.452   5.380   3.587  1.00 20.00     0.048 C 
ENDROOT
BRANCH   2   5
HETATM    5  C1  UNL     1     -33.368   6.722   4.142  1.00 20.00     0.002 C 
HETATM    6  C2  UNL     1     -32.735   6.748   2.958  1.00 20.00    -0.030 C 
HETATM    7  C5  UNL     1     -31.711   7.773   2.592  1.00 20.00     0.036 C 
ENDBRANCH   2   5
TORSDOF 1
ENDMDL
MODEL 3
REMARK VINA RESULT:      -4.3      0.947      4.256
REMARK  1 active torsions:
REMARK  status: ('A' for Active; 'I' for Inactive)
REMARK    1  A    between atoms: C1_1  and  C4_4 
ROOT
HETATM    1  C3  UNL     1     -32.563   7.150   3.466  1.00 20.00    -0.024 C 
HETATM    2  C4  UNL     1     -33.479   6.164   3.557  1.00 20.00    -0.066 C 
HETATM    3  C6  UNL     1     -31.972   7.767   2.238  1.00 20.00     0.036 C 
HETATM    4  C7  UNL     1     -34.094   5.472   2.368  1.00 20.00     0.048 C 
ENDROOT
BRANCH   2   5
HETATM    5  C1  UNL     1     -33.907   5.729   4.889  1.00 20.00     0.002 C 
HETATM    6  C2  UNL     1     -34.831   4.797   5.173  1.00 20.00    -0.030 C 
HETATM    7  C5  UNL     1     -35.213   4.411   6.565  1.00 20.00     0.036 C 
ENDBRANCH   2   5
TORSDOF 1
ENDMDL
MODEL 4
REMARK VINA RESULT:      -4.1      1.244      4.308
REMARK  1 active torsions:
REMARK  status: ('A' for Active; 'I' for Inactive)
REMARK    1  A    between atoms: C1_1  and  C4_4 
ROOT
HETATM    1  C3  UNL     1     -32.512   7.790   1.835  1.00 20.00    -0.024 C 
HETATM    2  C4  UNL     1     -32.288   7.224   3.038  1.00 20.00    -0.066 C 
HETATM    3  C6  UNL     1     -31.811   8.949   1.200  1.00 20.00     0.036 C 
HETATM    4  C7  UNL     1     -31.234   7.694   4.008  1.00 20.00     0.048 C 
ENDROOT
BRANCH   2   5
HETATM    5  C1  UNL     1     -33.114   6.083   3.439  1.00 20.00     0.002 C 
HETATM    6  C2  UNL     1     -34.245   6.123   4.161  1.00 20.00    -0.030 C 
HETATM    7  C5  UNL     1     -35.033   4.907   4.529  1.00 20.00     0.036 C 
ENDBRANCH   2   5
TORSDOF 1
ENDMDL
MODEL 5
REMARK VINA RESULT:      -4.0     11.609     12.411
REMARK  1 active torsions:
REMARK  status: ('A' for Active; 'I' for Inactive)
REMARK    1  A    between atoms: C1_1  and  C4_4 
ROOT
HETATM    1  C3  UNL     1     -34.345  14.404  -3.434  1.00 20.00    -0.024 C 
HETATM    2  C4  UNL     1     -33.796  15.635  -3.483  1.00 20.00    -0.066 C 
HETATM    3  C6  UNL     1     -34.446  13.381  -4.521  1.00 20.00     0.036 C 
HETATM    4  C7  UNL     1     -33.159  16.227  -4.714  1.00 20.00     0.048 C 
ENDROOT
BRANCH   2   5
HETATM    5  C1  UNL     1     -33.817  16.458  -2.271  1.00 20.00     0.002 C 
HETATM    6  C2  UNL     1     -34.700  16.382  -1.262  1.00 20.00    -0.030 C 
HETATM    7  C5  UNL     1     -34.652  17.263  -0.055  1.00 20.00     0.036 C 
ENDBRANCH   2   5
TORSDOF 1
ENDMDL
MODEL 6
REMARK VINA RESULT:      -3.9     11.878     12.235
REMARK  1 active torsions:
REMARK  status: ('A' for Active; 'I' for Inactive)
REMARK    1  A    between atoms: C1_1  and  C4_4 
ROOT
HETATM    1  C3  UNL     1     -35.376  15.077  -3.187  1.00 20.00    -0.024 C 
HETATM    2  C4  UNL     1     -34.138  15.557  -2.949  1.00 20.00    -0.066 C 
HETATM    3  C6  UNL     1     -35.804  14.050  -4.188  1.00 20.00     0.036 C 
HETATM    4  C7  UNL     1     -32.905  15.119  -3.696  1.00 20.00     0.048 C 
ENDROOT
BRANCH   2   5
HETATM    5  C1  UNL     1     -33.971  16.568  -1.902  1.00 20.00     0.002 C 
HETATM    6  C2  UNL     1     -34.669  16.666  -0.759  1.00 20.00    -0.030 C 
HETATM    7  C5  UNL     1     -34.436  17.733   0.261  1.00 20.00     0.036 C 
ENDBRANCH   2   5
TORSDOF 1
ENDMDL
MODEL 7
REMARK VINA RESULT:      -3.8     11.422     12.820
REMARK  1 active torsions:
REMARK  status: ('A' for Active; 'I' for Inactive)
REMARK    1  A    between atoms: C1_1  and  C4_4 
ROOT
HETATM    1  C3  UNL     1     -34.171  15.801  -5.079  1.00 20.00    -0.024 C 
HETATM    2  C4  UNL     1     -33.832  15.154  -3.945  1.00 20.00    -0.066 C 
HETATM    3  C6  UNL     1     -34.322  15.248  -6.461  1.00 20.00     0.036 C 
HETATM    4  C7  UNL     1     -33.526  13.680  -3.873  1.00 20.00     0.048 C 
ENDROOT
BRANCH   2   5
HETATM    5  C1  UNL     1     -33.752  15.922  -2.700  1.00 20.00     0.002 C 
HETATM    6  C2  UNL     1     -34.740  16.125  -1.815  1.00 20.00    -0.030 C 
HETATM    7  C5  UNL     1     -34.576  16.926  -0.563  1.00 20.00     0.036 C 
ENDBRANCH   2   5
TORSDOF 1
ENDMDL
MODEL 8
REMARK VINA RESULT:      -3.8     11.846     12.561
REMARK  1 active torsions:
REMARK  status: ('A' for Active; 'I' for Inactive)
REMARK    1  A    between atoms: C1_1  and  C4_4 
ROOT
HETATM    1  C3  UNL     1     -33.155  18.054  -0.751  1.00 20.00    -0.024 C 
HETATM    2  C4  UNL     1     -34.264  17.355  -0.432  1.00 20.00    -0.066 C 
HETATM    3  C6  UNL     1     -32.468  19.126   0.034  1.00 20.00     0.036 C 
HETATM    4  C7  UNL     1     -35.048  17.550   0.841  1.00 20.00     0.048 C 
ENDROOT
BRANCH   2   5
HETATM    5  C1  UNL     1     -34.747  16.342  -1.374  1.00 20.00     0.002 C 
HETATM    6  C2  UNL     1     -34.106  15.885  -2.461  1.00 20.00    -0.030 C 
HETATM    7  C5  UNL     1     -34.670  14.846  -3.376  1.00 20.00     0.036 C 
ENDBRANCH   2   5
TORSDOF 1
ENDMDL
MODEL 9
REMARK VINA RESULT:      -3.8     11.615     12.351
REMARK  1 active torsions:
REMARK  status: ('A' for Active; 'I' for Inactive)
REMARK    1  A    between atoms: C1_1  and  C4_4 
ROOT
HETATM    1  C3  UNL     1     -34.618  16.584  -0.757  1.00 20.00    -0.024 C 
HETATM    2  C4  UNL     1     -34.008  16.947  -1.903  1.00 20.00    -0.066 C 
HETATM    3  C6  UNL     1     -35.048  17.446   0.388  1.00 20.00     0.036 C 
HETATM    4  C7  UNL     1     -33.627  18.365  -2.244  1.00 20.00     0.048 C 
ENDROOT
BRANCH   2   5
HETATM    5  C1  UNL     1     -33.688  15.907  -2.884  1.00 20.00     0.002 C 
HETATM    6  C2  UNL     1     -34.388  14.787  -3.127  1.00 20.00    -0.030 C 
HETATM    7  C5  UNL     1     -33.992  13.772  -4.149  1.00 20.00     0.036 C 
ENDBRANCH   2   5
TORSDOF 1
ENDMDL
