MODEL 1
REMARK VINA RESULT:      -4.8      0.000      0.000
REMARK  1 active torsions:
REMARK  status: ('A' for Active; 'I' for Inactive)
REMARK    1  A    between atoms: C1_1  and  C6_6 
ROOT
HETATM    1  C2  UNL     1     -33.885  13.974  -3.474  1.00 20.00     0.002 C 
HETATM    2  C3  UNL     1     -35.255  13.848  -4.132  1.00 20.00     0.012 C 
HETATM    3  C4  UNL     1     -33.351  15.404  -3.547  1.00 20.00     0.009 C 
HETATM    4  C5  UNL     1     -35.722  16.284  -3.630  1.00 20.00     0.021 C 
HETATM    5  C6  UNL     1     -36.255  14.850  -3.554  1.00 20.00     0.055 C 
HETATM    6  C7  UNL     1     -34.331  16.455  -2.977  1.00 20.00    -0.047 C 
HETATM    7  C9  UNL     1     -33.796  17.863  -3.301  1.00 20.00     0.015 C 
HETATM    8  C10 UNL     1     -34.432  16.329  -1.445  1.00 20.00     0.015 C 
ENDROOT
BRANCH   5   9
HETATM    9  C1  UNL     1     -37.542  14.748  -4.314  1.00 20.00     0.127 C 
HETATM   10  C8  UNL     1     -37.560  15.343  -5.696  1.00 20.00     0.091 C 
HETATM   11  O11 UNL     1     -38.535  14.205  -3.833  1.00 20.00    -0.298 OA
ENDBRANCH   5   9
TORSDOF 1
ENDMDL
MODEL 2
REMARK VINA RESULT:      -4.7      2.367      3.193
REMARK  1 active torsions:
REMARK  status: ('A' for Active; 'I' for Inactive)
REMARK    1  A    between atoms: C1_1  and  C6_6 
ROOT
HETATM    1  C2  UNL     1     -33.373  17.572  -4.408  1.00 20.00     0.002 C 
HETATM    2  C3  UNL     1     -33.475  16.079  -4.705  1.00 20.00     0.012 C 
HETATM    3  C4  UNL     1     -34.535  18.057  -3.543  1.00 20.00     0.009 C 
HETATM    4  C5  UNL     1     -34.771  15.738  -2.559  1.00 20.00     0.021 C 
HETATM    5  C6  UNL     1     -33.603  15.254  -3.424  1.00 20.00     0.055 C 
HETATM    6  C7  UNL     1     -34.709  17.249  -2.236  1.00 20.00    -0.047 C 
HETATM    7  C9  UNL     1     -36.026  17.671  -1.559  1.00 20.00     0.015 C 
HETATM    8  C10 UNL     1     -33.557  17.547  -1.257  1.00 20.00     0.015 C 
ENDROOT
BRANCH   5   9
HETATM    9  C1  UNL     1     -33.807  13.815  -3.789  1.00 20.00     0.127 C 
HETATM   10  C8  UNL     1     -35.192  13.417  -4.223  1.00 20.00     0.091 C 
HETATM   11  O11 UNL     1     -32.888  12.999  -3.737  1.00 20.00    -0.298 OA
ENDBRANCH   5   9
TORSDOF 1
ENDMDL
MODEL 3
REMARK VINA RESULT:      -4.5      2.374      4.009
REMARK  1 active torsions:
REMARK  status: ('A' for Active; 'I' for Inactive)
REMARK    1  A    between atoms: C1_1  and  C6_6 
ROOT
HETATM    1  C2  UNL     1     -33.906  13.510  -4.326  1.00 20.00     0.002 C 
HETATM    2  C3  UNL     1     -33.875  14.565  -3.224  1.00 20.00     0.012 C 
HETATM    3  C4  UNL     1     -35.133  13.664  -5.223  1.00 20.00     0.009 C 
HETATM    4  C5  UNL     1     -35.212  16.136  -4.689  1.00 20.00     0.021 C 
HETATM    5  C6  UNL     1     -33.979  15.980  -3.792  1.00 20.00     0.055 C 
HETATM    6  C7  UNL     1     -35.285  15.083  -5.818  1.00 20.00    -0.047 C 
HETATM    7  C9  UNL     1     -36.655  15.189  -6.514  1.00 20.00     0.015 C 
HETATM    8  C10 UNL     1     -34.196  15.346  -6.876  1.00 20.00     0.015 C 
ENDROOT
BRANCH   5   9
HETATM    9  C1  UNL     1     -34.052  16.957  -2.659  1.00 20.00     0.127 C 
HETATM   10  C8  UNL     1     -34.590  16.438  -1.352  1.00 20.00     0.091 C 
HETATM   11  O11 UNL     1     -33.689  18.125  -2.789  1.00 20.00    -0.298 OA
ENDBRANCH   5   9
TORSDOF 1
ENDMDL
MODEL 4
REMARK VINA RESULT:      -4.4      2.089      3.181
REMARK  1 active torsions:
REMARK  status: ('A' for Active; 'I' for Inactive)
REMARK    1  A    between atoms: C1_1  and  C6_6 
ROOT
HETATM    1  C2  UNL     1     -36.225  17.076  -3.922  1.00 20.00     0.002 C 
HETATM    2  C3  UNL     1     -35.774  15.678  -4.334  1.00 20.00     0.012 C 
HETATM    3  C4  UNL     1     -36.112  17.286  -2.412  1.00 20.00     0.009 C 
HETATM    4  C5  UNL     1     -34.253  15.572  -2.315  1.00 20.00     0.021 C 
HETATM    5  C6  UNL     1     -34.365  15.366  -3.829  1.00 20.00     0.055 C 
HETATM    6  C7  UNL     1     -34.704  16.977  -1.853  1.00 20.00    -0.047 C 
HETATM    7  C9  UNL     1     -34.762  17.004  -0.314  1.00 20.00     0.015 C 
HETATM    8  C10 UNL     1     -33.694  18.047  -2.307  1.00 20.00     0.015 C 
ENDROOT
BRANCH   5   9
HETATM    9  C1  UNL     1     -34.027  13.947  -4.171  1.00 20.00     0.127 C 
HETATM   10  C8  UNL     1     -34.889  13.278  -5.209  1.00 20.00     0.091 C 
HETATM   11  O11 UNL     1     -33.091  13.358  -3.633  1.00 20.00    -0.298 OA
ENDBRANCH   5   9
TORSDOF 1
ENDMDL
MODEL 5
REMARK VINA RESULT:      -4.4      2.288      4.063
REMARK  1 active torsions:
REMARK  status: ('A' for Active; 'I' for Inactive)
REMARK    1  A    between atoms: C1_1  and  C6_6 
ROOT
HETATM    1  C2  UNL     1     -37.041  14.792  -3.887  1.00 20.00     0.002 C 
HETATM    2  C3  UNL     1     -36.382  15.819  -2.972  1.00 20.00     0.012 C 
HETATM    3  C4  UNL     1     -36.441  14.819  -5.292  1.00 20.00     0.009 C 
HETATM    4  C5  UNL     1     -34.261  15.685  -4.344  1.00 20.00     0.021 C 
HETATM    5  C6  UNL     1     -34.863  15.654  -2.936  1.00 20.00     0.055 C 
HETATM    6  C7  UNL     1     -34.903  14.660  -5.308  1.00 20.00    -0.047 C 
HETATM    7  C9  UNL     1     -34.389  14.924  -6.735  1.00 20.00     0.015 C 
HETATM    8  C10 UNL     1     -34.503  13.225  -4.918  1.00 20.00     0.015 C 
ENDROOT
BRANCH   5   9
HETATM    9  C1  UNL     1     -34.271  16.755  -2.109  1.00 20.00     0.127 C 
HETATM   10  C8  UNL     1     -34.595  16.746  -0.640  1.00 20.00     0.091 C 
HETATM   11  O11 UNL     1     -33.556  17.622  -2.607  1.00 20.00    -0.298 OA
ENDBRANCH   5   9
TORSDOF 1
ENDMDL
MODEL 6
REMARK VINA RESULT:      -4.4      1.960      2.535
REMARK  1 active torsions:
REMARK  status: ('A' for Active; 'I' for Inactive)
REMARK    1  A    between atoms: C1_1  and  C6_6 
ROOT
HETATM    1  C2  UNL     1     -34.483  15.977  -2.154  1.00 20.00     0.002 C 
HETATM    2  C3  UNL     1     -34.476  14.755  -3.067  1.00 20.00     0.012 C 
HETATM    3  C4  UNL     1     -33.828  17.186  -2.820  1.00 20.00     0.009 C 
HETATM    4  C5  UNL     1     -34.451  16.269  -5.095  1.00 20.00     0.021 C 
HETATM    5  C6  UNL     1     -35.110  15.059  -4.425  1.00 20.00     0.055 C 
HETATM    6  C7  UNL     1     -34.434  17.530  -4.201  1.00 20.00    -0.047 C 
HETATM    7  C9  UNL     1     -33.563  18.609  -4.873  1.00 20.00     0.015 C 
HETATM    8  C10 UNL     1     -35.855  18.101  -4.041  1.00 20.00     0.015 C 
ENDROOT
BRANCH   5   9
HETATM    9  C1  UNL     1     -34.974  13.856  -5.307  1.00 20.00     0.127 C 
HETATM   10  C8  UNL     1     -35.086  14.089  -6.790  1.00 20.00     0.091 C 
HETATM   11  O11 UNL     1     -34.779  12.734  -4.844  1.00 20.00    -0.298 OA
ENDBRANCH   5   9
TORSDOF 1
ENDMDL
MODEL 7
REMARK VINA RESULT:      -4.4     11.361     12.720
REMARK  1 active torsions:
REMARK  status: ('A' for Active; 'I' for Inactive)
REMARK    1  A    between atoms: C1_1  and  C6_6 
ROOT
HETATM    1  C2  UNL     1     -40.502   5.306  -0.419  1.00 20.00     0.002 C 
HETATM    2  C3  UNL     1     -40.876   4.452  -1.627  1.00 20.00     0.012 C 
HETATM    3  C4  UNL     1     -41.238   6.645  -0.423  1.00 20.00     0.009 C 
HETATM    4  C5  UNL     1     -43.126   5.603  -1.745  1.00 20.00     0.021 C 
HETATM    5  C6  UNL     1     -42.389   4.260  -1.738  1.00 20.00     0.055 C 
HETATM    6  C7  UNL     1     -42.773   6.503  -0.539  1.00 20.00    -0.047 C 
HETATM    7  C9  UNL     1     -43.389   7.898  -0.757  1.00 20.00     0.015 C 
HETATM    8  C10 UNL     1     -43.363   5.923   0.761  1.00 20.00     0.015 C 
ENDROOT
BRANCH   5   9
HETATM    9  C1  UNL     1     -42.694   3.509  -2.997  1.00 20.00     0.127 C 
HETATM   10  C8  UNL     1     -42.075   2.144  -3.138  1.00 20.00     0.091 C 
HETATM   11  O11 UNL     1     -43.417   3.982  -3.872  1.00 20.00    -0.298 OA
ENDBRANCH   5   9
TORSDOF 1
ENDMDL
MODEL 8
REMARK VINA RESULT:      -4.3      1.329      1.932
REMARK  1 active torsions:
REMARK  status: ('A' for Active; 'I' for Inactive)
REMARK    1  A    between atoms: C1_1  and  C6_6 
ROOT
HETATM    1  C2  UNL     1     -34.398  15.517  -6.301  1.00 20.00     0.002 C 
HETATM    2  C3  UNL     1     -35.912  15.464  -6.125  1.00 20.00     0.012 C 
HETATM    3  C4  UNL     1     -33.707  16.115  -5.077  1.00 20.00     0.009 C 
HETATM    4  C5  UNL     1     -35.618  15.332  -3.616  1.00 20.00     0.021 C 
HETATM    5  C6  UNL     1     -36.309  14.730  -4.844  1.00 20.00     0.055 C 
HETATM    6  C7  UNL     1     -34.080  15.408  -3.754  1.00 20.00    -0.047 C 
HETATM    7  C9  UNL     1     -33.511  16.221  -2.576  1.00 20.00     0.015 C 
HETATM    8  C10 UNL     1     -33.460  13.998  -3.699  1.00 20.00     0.015 C 
ENDROOT
BRANCH   5   9
HETATM    9  C1  UNL     1     -37.795  14.808  -4.676  1.00 20.00     0.127 C 
HETATM   10  C8  UNL     1     -38.547  15.638  -5.681  1.00 20.00     0.091 C 
HETATM   11  O11 UNL     1     -38.374  14.221  -3.763  1.00 20.00    -0.298 OA
ENDBRANCH   5   9
TORSDOF 1
ENDMDL
MODEL 9
REMARK VINA RESULT:      -4.2     10.434     12.168
REMARK  1 active torsions:
REMARK  status: ('A' for Active; 'I' for Inactive)
REMARK    1  A    between atoms: C1_1  and  C6_6 
ROOT
HETATM    1  C2  UNL     1     -40.538   5.805  -0.317  1.00 20.00     0.002 C 
HETATM    2  C3  UNL     1     -41.208   7.021  -0.947  1.00 20.00     0.012 C 
HETATM    3  C4  UNL     1     -41.529   4.663  -0.095  1.00 20.00     0.009 C 
HETATM    4  C5  UNL     1     -42.940   5.516  -2.015  1.00 20.00     0.021 C 
HETATM    5  C6  UNL     1     -41.943   6.658  -2.238  1.00 20.00     0.055 C 
HETATM    6  C7  UNL     1     -42.301   4.262  -1.373  1.00 20.00    -0.047 C 
HETATM    7  C9  UNL     1     -43.417   3.271  -0.992  1.00 20.00     0.015 C 
HETATM    8  C10 UNL     1     -41.365   3.558  -2.373  1.00 20.00     0.015 C 
ENDROOT
BRANCH   5   9
HETATM    9  C1  UNL     1     -42.666   7.868  -2.745  1.00 20.00     0.127 C 
HETATM   10  C8  UNL     1     -42.441   8.235  -4.187  1.00 20.00     0.091 C 
HETATM   11  O11 UNL     1     -43.409   8.527  -2.020  1.00 20.00    -0.298 OA
ENDBRANCH   5   9
TORSDOF 1
ENDMDL
