MODEL 1
REMARK VINA RESULT:      -5.7      0.000      0.000
REMARK  0 active torsions:
REMARK  status: ('A' for Active; 'I' for Inactive)
ROOT
HETATM    1  C1  UNL     1     -32.815   6.323   3.454  1.00 20.00     0.071 C 
HETATM    2  C2  UNL     1     -34.393   4.706   6.593  1.00 20.00    -0.000 C 
HETATM    3  C3  UNL     1     -34.967   3.965   5.638  1.00 20.00    -0.000 C 
HETATM    4  C4  UNL     1     -34.128   6.122   6.572  1.00 20.00    -0.002 C 
HETATM    5  C5  UNL     1     -35.457   4.401   4.357  1.00 20.00    -0.002 C 
HETATM    6  C6  UNL     1     -33.984   6.912   5.499  1.00 20.00    -0.004 C 
HETATM    7  C7  UNL     1     -35.085   5.486   3.663  1.00 20.00    -0.004 C 
HETATM    8  C8  UNL     1     -34.137   6.591   4.038  1.00 20.00     0.138 C 
HETATM    9  N9  UNL     1     -31.771   6.111   2.992  1.00 20.00    -0.196 NA
ENDROOT
TORSDOF 0
ENDMDL
MODEL 2
REMARK VINA RESULT:      -4.8     12.206     13.633
REMARK  0 active torsions:
REMARK  status: ('A' for Active; 'I' for Inactive)
ROOT
HETATM    1  C1  UNL     1     -36.372  14.058  -4.151  1.00 20.00     0.071 C 
HETATM    2  C2  UNL     1     -33.157  16.178  -4.502  1.00 20.00    -0.000 C 
HETATM    3  C3  UNL     1     -33.658  16.314  -5.735  1.00 20.00    -0.000 C 
HETATM    4  C4  UNL     1     -33.151  14.998  -3.676  1.00 20.00    -0.002 C 
HETATM    5  C5  UNL     1     -34.316  15.314  -6.535  1.00 20.00    -0.002 C 
HETATM    6  C6  UNL     1     -33.981  13.948  -3.742  1.00 20.00    -0.004 C 
HETATM    7  C7  UNL     1     -34.947  14.210  -6.112  1.00 20.00    -0.004 C 
HETATM    8  C8  UNL     1     -35.081  13.650  -4.723  1.00 20.00     0.138 C 
HETATM    9  N9  UNL     1     -37.392  14.380  -3.700  1.00 20.00    -0.196 NA
ENDROOT
TORSDOF 0
ENDMDL
MODEL 3
REMARK VINA RESULT:      -4.5     12.146     13.513
REMARK  0 active torsions:
REMARK  status: ('A' for Active; 'I' for Inactive)
ROOT
HETATM    1  C1  UNL     1     -34.137  15.842  -2.515  1.00 20.00     0.071 C 
HETATM    2  C2  UNL     1     -34.854  15.235  -6.267  1.00 20.00    -0.000 C 
HETATM    3  C3  UNL     1     -35.075  14.006  -5.789  1.00 20.00    -0.000 C 
HETATM    4  C4  UNL     1     -33.825  16.164  -5.875  1.00 20.00    -0.002 C 
HETATM    5  C5  UNL     1     -34.341  13.312  -4.763  1.00 20.00    -0.002 C 
HETATM    6  C6  UNL     1     -33.164  16.209  -4.710  1.00 20.00    -0.004 C 
HETATM    7  C7  UNL     1     -33.592  13.847  -3.788  1.00 20.00    -0.004 C 
HETATM    8  C8  UNL     1     -33.230  15.283  -3.528  1.00 20.00     0.138 C 
HETATM    9  N9  UNL     1     -34.854  16.283  -1.716  1.00 20.00    -0.196 NA
ENDROOT
TORSDOF 0
ENDMDL
MODEL 4
REMARK VINA RESULT:      -4.5     12.126     13.450
REMARK  0 active torsions:
REMARK  status: ('A' for Active; 'I' for Inactive)
ROOT
HETATM    1  C1  UNL     1     -36.630  14.423  -4.211  1.00 20.00     0.071 C 
HETATM    2  C2  UNL     1     -32.869  15.149  -3.679  1.00 20.00    -0.000 C 
HETATM    3  C3  UNL     1     -33.180  16.147  -4.514  1.00 20.00    -0.000 C 
HETATM    4  C4  UNL     1     -33.338  13.788  -3.716  1.00 20.00    -0.002 C 
HETATM    5  C5  UNL     1     -34.062  16.104  -5.651  1.00 20.00    -0.002 C 
HETATM    6  C6  UNL     1     -34.465  13.325  -4.275  1.00 20.00    -0.004 C 
HETATM    7  C7  UNL     1     -35.065  15.245  -5.878  1.00 20.00    -0.004 C 
HETATM    8  C8  UNL     1     -35.507  14.047  -5.082  1.00 20.00     0.138 C 
HETATM    9  N9  UNL     1     -37.517  14.720  -3.524  1.00 20.00    -0.196 NA
ENDROOT
TORSDOF 0
ENDMDL
MODEL 5
REMARK VINA RESULT:      -4.4     12.356     13.828
REMARK  0 active torsions:
REMARK  status: ('A' for Active; 'I' for Inactive)
ROOT
HETATM    1  C1  UNL     1     -34.128  17.105  -3.677  1.00 20.00     0.071 C 
HETATM    2  C2  UNL     1     -35.005  13.959  -5.750  1.00 20.00    -0.000 C 
HETATM    3  C3  UNL     1     -34.573  13.380  -4.624  1.00 20.00    -0.000 C 
HETATM    4  C4  UNL     1     -34.468  15.124  -6.406  1.00 20.00    -0.002 C 
HETATM    5  C5  UNL     1     -33.469  13.781  -3.793  1.00 20.00    -0.002 C 
HETATM    6  C6  UNL     1     -33.745  16.111  -5.860  1.00 20.00    -0.004 C 
HETATM    7  C7  UNL     1     -32.917  14.998  -3.694  1.00 20.00    -0.004 C 
HETATM    8  C8  UNL     1     -33.217  16.257  -4.460  1.00 20.00     0.138 C 
HETATM    9  N9  UNL     1     -34.847  17.773  -3.059  1.00 20.00    -0.196 NA
ENDROOT
TORSDOF 0
ENDMDL
MODEL 6
REMARK VINA RESULT:      -4.3     12.459     13.179
REMARK  0 active torsions:
REMARK  status: ('A' for Active; 'I' for Inactive)
ROOT
HETATM    1  C1  UNL     1     -33.533  17.010  -4.417  1.00 20.00     0.071 C 
HETATM    2  C2  UNL     1     -34.865  13.379  -4.408  1.00 20.00    -0.000 C 
HETATM    3  C3  UNL     1     -35.988  14.037  -4.099  1.00 20.00    -0.000 C 
HETATM    4  C4  UNL     1     -33.527  13.653  -3.951  1.00 20.00    -0.002 C 
HETATM    5  C5  UNL     1     -36.132  15.181  -3.237  1.00 20.00    -0.002 C 
HETATM    6  C6  UNL     1     -33.038  14.816  -3.500  1.00 20.00    -0.004 C 
HETATM    7  C7  UNL     1     -35.197  16.082  -2.909  1.00 20.00    -0.004 C 
HETATM    8  C8  UNL     1     -33.735  16.126  -3.259  1.00 20.00     0.138 C 
HETATM    9  N9  UNL     1     -33.375  17.708  -5.330  1.00 20.00    -0.196 NA
ENDROOT
TORSDOF 0
ENDMDL
MODEL 7
REMARK VINA RESULT:      -4.3     12.397     13.047
REMARK  0 active torsions:
REMARK  status: ('A' for Active; 'I' for Inactive)
ROOT
HETATM    1  C1  UNL     1     -36.289  14.816  -5.508  1.00 20.00     0.071 C 
HETATM    2  C2  UNL     1     -33.660  15.948  -2.907  1.00 20.00    -0.000 C 
HETATM    3  C3  UNL     1     -32.992  14.946  -3.490  1.00 20.00    -0.000 C 
HETATM    4  C4  UNL     1     -35.061  16.002  -2.580  1.00 20.00    -0.002 C 
HETATM    5  C5  UNL     1     -33.511  13.679  -3.934  1.00 20.00    -0.002 C 
HETATM    6  C6  UNL     1     -36.060  15.307  -3.141  1.00 20.00    -0.004 C 
HETATM    7  C7  UNL     1     -34.776  13.382  -4.263  1.00 20.00    -0.004 C 
HETATM    8  C8  UNL     1     -36.015  14.230  -4.188  1.00 20.00     0.138 C 
HETATM    9  N9  UNL     1     -36.505  15.279  -6.550  1.00 20.00    -0.196 NA
ENDROOT
TORSDOF 0
ENDMDL
MODEL 8
REMARK VINA RESULT:      -4.3     12.000     12.964
REMARK  0 active torsions:
REMARK  status: ('A' for Active; 'I' for Inactive)
ROOT
HETATM    1  C1  UNL     1     -34.231  16.496  -1.845  1.00 20.00     0.071 C 
HETATM    2  C2  UNL     1     -35.910  14.076  -4.352  1.00 20.00    -0.000 C 
HETATM    3  C3  UNL     1     -34.817  13.369  -4.045  1.00 20.00    -0.000 C 
HETATM    4  C4  UNL     1     -36.015  15.499  -4.549  1.00 20.00    -0.002 C 
HETATM    5  C5  UNL     1     -33.479  13.857  -3.836  1.00 20.00    -0.002 C 
HETATM    6  C6  UNL     1     -35.207  16.454  -4.069  1.00 20.00    -0.004 C 
HETATM    7  C7  UNL     1     -33.105  15.094  -3.478  1.00 20.00    -0.004 C 
HETATM    8  C8  UNL     1     -33.936  16.331  -3.275  1.00 20.00     0.138 C 
HETATM    9  N9  UNL     1     -34.464  16.626  -0.715  1.00 20.00    -0.196 NA
ENDROOT
TORSDOF 0
ENDMDL
MODEL 9
REMARK VINA RESULT:      -4.3     12.150     13.650
REMARK  0 active torsions:
REMARK  status: ('A' for Active; 'I' for Inactive)
ROOT
HETATM    1  C1  UNL     1     -34.417  13.632  -4.002  1.00 20.00     0.071 C 
HETATM    2  C2  UNL     1     -35.650  17.279  -4.374  1.00 20.00    -0.000 C 
HETATM    3  C3  UNL     1     -34.567  17.321  -5.159  1.00 20.00    -0.000 C 
HETATM    4  C4  UNL     1     -35.803  16.596  -3.115  1.00 20.00    -0.002 C 
HETATM    5  C5  UNL     1     -33.293  16.690  -4.938  1.00 20.00    -0.002 C 
HETATM    6  C6  UNL     1     -35.110  15.540  -2.668  1.00 20.00    -0.004 C 
HETATM    7  C7  UNL     1     -33.029  15.618  -4.178  1.00 20.00    -0.004 C 
HETATM    8  C8  UNL     1     -33.940  14.824  -3.284  1.00 20.00     0.138 C 
HETATM    9  N9  UNL     1     -34.793  12.692  -4.569  1.00 20.00    -0.196 NA
ENDROOT
TORSDOF 0
ENDMDL
