MODEL 1
REMARK VINA RESULT:      -5.3      0.000      0.000
REMARK  5 active torsions:
REMARK  status: ('A' for Active; 'I' for Inactive)
REMARK    1  A    between atoms: C3_3  and  C7_7 
REMARK    2  A    between atoms: C4_4  and  C8_8 
REMARK    3  A    between atoms: C7_7  and  C9_9 
REMARK    4  A    between atoms: C8_8  and  C10_10 
REMARK    5  A    between atoms: C9_9  and  C10_10 
ROOT
HETATM    1  C9  UNL     1     -34.948   5.616   3.711  1.00 20.00     0.004 C 
ENDROOT
BRANCH   1   2
HETATM    2  C7  UNL     1     -34.887   4.712   4.943  1.00 20.00     0.026 C 
BRANCH   2   3
HETATM    3  C3  UNL     1     -34.454   5.477   6.160  1.00 20.00    -0.031 C 
HETATM    4  C1  UNL     1     -33.955   6.721   6.120  1.00 20.00    -0.035 C 
HETATM    5  C5  UNL     1     -33.520   7.481   7.329  1.00 20.00     0.035 C 
ENDBRANCH   2   3
ENDBRANCH   1   2
BRANCH   1   6
HETATM    6  C10 UNL     1     -33.825   5.286   2.724  1.00 20.00     0.004 C 
BRANCH   6   7
HETATM    7  C8  UNL     1     -32.517   5.975   3.121  1.00 20.00     0.026 C 
BRANCH   7   8
HETATM    8  C4  UNL     1     -32.576   7.451   2.852  1.00 20.00    -0.031 C 
HETATM    9  C2  UNL     1     -32.153   8.019   1.714  1.00 20.00    -0.035 C 
HETATM   10  C6  UNL     1     -32.216   9.486   1.444  1.00 20.00     0.035 C 
ENDBRANCH   7   8
ENDBRANCH   6   7
ENDBRANCH   1   6
TORSDOF 5
ENDMDL
MODEL 2
REMARK VINA RESULT:      -5.2      0.038      4.381
REMARK  5 active torsions:
REMARK  status: ('A' for Active; 'I' for Inactive)
REMARK    1  A    between atoms: C3_3  and  C7_7 
REMARK    2  A    between atoms: C4_4  and  C8_8 
REMARK    3  A    between atoms: C7_7  and  C9_9 
REMARK    4  A    between atoms: C8_8  and  C10_10 
REMARK    5  A    between atoms: C9_9  and  C10_10 
ROOT
HETATM    1  C9  UNL     1     -33.832   5.332   2.711  1.00 20.00     0.004 C 
ENDROOT
BRANCH   1   2
HETATM    2  C7  UNL     1     -32.535   6.013   3.153  1.00 20.00     0.026 C 
BRANCH   2   3
HETATM    3  C3  UNL     1     -32.570   7.486   2.869  1.00 20.00    -0.031 C 
HETATM    4  C1  UNL     1     -32.174   8.032   1.711  1.00 20.00    -0.035 C 
HETATM    5  C5  UNL     1     -32.203   9.498   1.429  1.00 20.00     0.035 C 
ENDBRANCH   2   3
ENDBRANCH   1   2
BRANCH   1   6
HETATM    6  C10 UNL     1     -34.974   5.627   3.686  1.00 20.00     0.004 C 
BRANCH   6   7
HETATM    7  C8  UNL     1     -34.907   4.715   4.913  1.00 20.00     0.026 C 
BRANCH   7   8
HETATM    8  C4  UNL     1     -34.491   5.478   6.138  1.00 20.00    -0.031 C 
HETATM    9  C2  UNL     1     -33.938   6.699   6.103  1.00 20.00    -0.035 C 
HETATM   10  C6  UNL     1     -33.530   7.461   7.320  1.00 20.00     0.035 C 
ENDBRANCH   7   8
ENDBRANCH   6   7
ENDBRANCH   1   6
TORSDOF 5
ENDMDL
MODEL 3
REMARK VINA RESULT:      -4.8      1.564      5.094
REMARK  5 active torsions:
REMARK  status: ('A' for Active; 'I' for Inactive)
REMARK    1  A    between atoms: C3_3  and  C7_7 
REMARK    2  A    between atoms: C4_4  and  C8_8 
REMARK    3  A    between atoms: C7_7  and  C9_9 
REMARK    4  A    between atoms: C8_8  and  C10_10 
REMARK    5  A    between atoms: C9_9  and  C10_10 
ROOT
HETATM    1  C9  UNL     1     -32.598   6.593   3.919  1.00 20.00     0.004 C 
ENDROOT
BRANCH   1   2
HETATM    2  C7  UNL     1     -31.622   7.666   3.437  1.00 20.00     0.026 C 
BRANCH   2   3
HETATM    3  C3  UNL     1     -31.863   8.014   1.997  1.00 20.00    -0.031 C 
HETATM    4  C1  UNL     1     -32.338   9.198   1.586  1.00 20.00    -0.035 C 
HETATM    5  C5  UNL     1     -32.583   9.544   0.154  1.00 20.00     0.035 C 
ENDBRANCH   2   3
ENDBRANCH   1   2
BRANCH   1   6
HETATM    6  C10 UNL     1     -33.135   5.763   2.749  1.00 20.00     0.004 C 
BRANCH   6   7
HETATM    7  C8  UNL     1     -34.586   5.341   2.988  1.00 20.00     0.026 C 
BRANCH   7   8
HETATM    8  C4  UNL     1     -34.937   5.395   4.447  1.00 20.00    -0.031 C 
HETATM    9  C2  UNL     1     -34.941   4.324   5.253  1.00 20.00    -0.035 C 
HETATM   10  C6  UNL     1     -35.283   4.378   6.705  1.00 20.00     0.035 C 
ENDBRANCH   7   8
ENDBRANCH   6   7
ENDBRANCH   1   6
TORSDOF 5
ENDMDL
MODEL 4
REMARK VINA RESULT:      -4.8      1.557      2.135
REMARK  5 active torsions:
REMARK  status: ('A' for Active; 'I' for Inactive)
REMARK    1  A    between atoms: C3_3  and  C7_7 
REMARK    2  A    between atoms: C4_4  and  C8_8 
REMARK    3  A    between atoms: C7_7  and  C9_9 
REMARK    4  A    between atoms: C8_8  and  C10_10 
REMARK    5  A    between atoms: C9_9  and  C10_10 
ROOT
HETATM    1  C9  UNL     1     -33.128   5.770   2.746  1.00 20.00     0.004 C 
ENDROOT
BRANCH   1   2
HETATM    2  C7  UNL     1     -34.585   5.363   2.970  1.00 20.00     0.026 C 
BRANCH   2   3
HETATM    3  C3  UNL     1     -34.946   5.409   4.426  1.00 20.00    -0.031 C 
HETATM    4  C1  UNL     1     -34.899   4.344   5.239  1.00 20.00    -0.035 C 
HETATM    5  C5  UNL     1     -35.263   4.386   6.686  1.00 20.00     0.035 C 
ENDBRANCH   2   3
ENDBRANCH   1   2
BRANCH   1   6
HETATM    6  C10 UNL     1     -32.594   6.593   3.922  1.00 20.00     0.004 C 
BRANCH   6   7
HETATM    7  C8  UNL     1     -31.638   7.688   3.444  1.00 20.00     0.026 C 
BRANCH   7   8
HETATM    8  C4  UNL     1     -31.874   8.026   2.000  1.00 20.00    -0.031 C 
HETATM    9  C2  UNL     1     -32.353   9.205   1.579  1.00 20.00    -0.035 C 
HETATM   10  C6  UNL     1     -32.581   9.544   0.143  1.00 20.00     0.035 C 
ENDBRANCH   7   8
ENDBRANCH   6   7
ENDBRANCH   1   6
TORSDOF 5
ENDMDL
MODEL 5
REMARK VINA RESULT:      -4.5     10.851     11.852
REMARK  5 active torsions:
REMARK  status: ('A' for Active; 'I' for Inactive)
REMARK    1  A    between atoms: C3_3  and  C7_7 
REMARK    2  A    between atoms: C4_4  and  C8_8 
REMARK    3  A    between atoms: C7_7  and  C9_9 
REMARK    4  A    between atoms: C8_8  and  C10_10 
REMARK    5  A    between atoms: C9_9  and  C10_10 
ROOT
HETATM    1  C9  UNL     1     -33.508  16.109  -2.966  1.00 20.00     0.004 C 
ENDROOT
BRANCH   1   2
HETATM    2  C7  UNL     1     -34.748  15.857  -2.107  1.00 20.00     0.026 C 
BRANCH   2   3
HETATM    3  C3  UNL     1     -34.697  16.645  -0.831  1.00 20.00    -0.031 C 
HETATM    4  C1  UNL     1     -33.792  17.602  -0.582  1.00 20.00    -0.035 C 
HETATM    5  C5  UNL     1     -33.737  18.384   0.689  1.00 20.00     0.035 C 
ENDBRANCH   2   3
ENDBRANCH   1   2
BRANCH   1   6
HETATM    6  C10 UNL     1     -33.088  14.846  -3.720  1.00 20.00     0.004 C 
BRANCH   6   7
HETATM    7  C8  UNL     1     -34.212  13.808  -3.736  1.00 20.00     0.026 C 
BRANCH   7   8
HETATM    8  C4  UNL     1     -34.768  13.627  -5.119  1.00 20.00    -0.031 C 
HETATM    9  C2  UNL     1     -34.752  14.582  -6.059  1.00 20.00    -0.035 C 
HETATM   10  C6  UNL     1     -35.299  14.401  -7.436  1.00 20.00     0.035 C 
ENDBRANCH   7   8
ENDBRANCH   6   7
ENDBRANCH   1   6
TORSDOF 5
ENDMDL
MODEL 6
REMARK VINA RESULT:      -4.4     10.805     12.388
REMARK  5 active torsions:
REMARK  status: ('A' for Active; 'I' for Inactive)
REMARK    1  A    between atoms: C3_3  and  C7_7 
REMARK    2  A    between atoms: C4_4  and  C8_8 
REMARK    3  A    between atoms: C7_7  and  C9_9 
REMARK    4  A    between atoms: C8_8  and  C10_10 
REMARK    5  A    between atoms: C9_9  and  C10_10 
ROOT
HETATM    1  C9  UNL     1     -33.147  14.734  -3.611  1.00 20.00     0.004 C 
ENDROOT
BRANCH   1   2
HETATM    2  C7  UNL     1     -34.302  13.738  -3.722  1.00 20.00     0.026 C 
BRANCH   2   3
HETATM    3  C3  UNL     1     -34.721  13.546  -5.150  1.00 20.00    -0.031 C 
HETATM    4  C1  UNL     1     -34.911  14.554  -6.014  1.00 20.00    -0.035 C 
HETATM    5  C5  UNL     1     -35.331  14.364  -7.434  1.00 20.00     0.035 C 
ENDBRANCH   2   3
ENDBRANCH   1   2
BRANCH   1   6
HETATM    6  C10 UNL     1     -33.626  16.082  -3.067  1.00 20.00     0.004 C 
BRANCH   6   7
HETATM    7  C8  UNL     1     -34.826  15.909  -2.133  1.00 20.00     0.026 C 
BRANCH   7   8
HETATM    8  C4  UNL     1     -34.616  16.635  -0.835  1.00 20.00    -0.031 C 
HETATM    9  C2  UNL     1     -33.759  17.654  -0.681  1.00 20.00    -0.035 C 
HETATM   10  C6  UNL     1     -33.554  18.379   0.607  1.00 20.00     0.035 C 
ENDBRANCH   7   8
ENDBRANCH   6   7
ENDBRANCH   1   6
TORSDOF 5
ENDMDL
MODEL 7
REMARK VINA RESULT:      -4.2     10.927     12.370
REMARK  5 active torsions:
REMARK  status: ('A' for Active; 'I' for Inactive)
REMARK    1  A    between atoms: C3_3  and  C7_7 
REMARK    2  A    between atoms: C4_4  and  C8_8 
REMARK    3  A    between atoms: C7_7  and  C9_9 
REMARK    4  A    between atoms: C8_8  and  C10_10 
REMARK    5  A    between atoms: C9_9  and  C10_10 
ROOT
HETATM    1  C9  UNL     1     -34.739  17.008  -0.334  1.00 20.00     0.004 C 
ENDROOT
BRANCH   1   2
HETATM    2  C7  UNL     1     -34.072  16.653  -1.663  1.00 20.00     0.026 C 
BRANCH   2   3
HETATM    3  C3  UNL     1     -34.776  15.513  -2.339  1.00 20.00    -0.031 C 
HETATM    4  C1  UNL     1     -34.216  14.748  -3.287  1.00 20.00    -0.035 C 
HETATM    5  C5  UNL     1     -34.918  13.616  -3.963  1.00 20.00     0.035 C 
ENDBRANCH   2   3
ENDBRANCH   1   2
BRANCH   1   6
HETATM    6  C10 UNL     1     -34.128  18.273   0.275  1.00 20.00     0.004 C 
BRANCH   6   7
HETATM    7  C8  UNL     1     -32.796  18.623  -0.393  1.00 20.00     0.026 C 
BRANCH   7   8
HETATM    8  C4  UNL     1     -31.734  18.913   0.628  1.00 20.00    -0.031 C 
HETATM    9  C2  UNL     1     -31.966  18.980   1.946  1.00 20.00    -0.035 C 
HETATM   10  C6  UNL     1     -30.909  19.262   2.962  1.00 20.00     0.035 C 
ENDBRANCH   7   8
ENDBRANCH   6   7
ENDBRANCH   1   6
TORSDOF 5
ENDMDL
MODEL 8
REMARK VINA RESULT:      -4.1     10.951     13.095
REMARK  5 active torsions:
REMARK  status: ('A' for Active; 'I' for Inactive)
REMARK    1  A    between atoms: C3_3  and  C7_7 
REMARK    2  A    between atoms: C4_4  and  C8_8 
REMARK    3  A    between atoms: C7_7  and  C9_9 
REMARK    4  A    between atoms: C8_8  and  C10_10 
REMARK    5  A    between atoms: C9_9  and  C10_10 
ROOT
HETATM    1  C9  UNL     1     -35.479  14.311  -5.598  1.00 20.00     0.004 C 
ENDROOT
BRANCH   1   2
HETATM    2  C7  UNL     1     -34.797  14.671  -6.918  1.00 20.00     0.026 C 
BRANCH   2   3
HETATM    3  C3  UNL     1     -34.073  15.982  -6.818  1.00 20.00    -0.031 C 
HETATM    4  C1  UNL     1     -34.504  17.017  -6.082  1.00 20.00    -0.035 C 
HETATM    5  C5  UNL     1     -33.787  18.323  -5.986  1.00 20.00     0.035 C 
ENDBRANCH   2   3
ENDBRANCH   1   2
BRANCH   1   6
HETATM    6  C10 UNL     1     -34.718  13.206  -4.862  1.00 20.00     0.004 C 
BRANCH   6   7
HETATM    7  C8  UNL     1     -33.720  13.792  -3.860  1.00 20.00     0.026 C 
BRANCH   7   8
HETATM    8  C4  UNL     1     -34.346  14.885  -3.042  1.00 20.00    -0.031 C 
HETATM    9  C2  UNL     1     -33.695  15.988  -2.650  1.00 20.00    -0.035 C 
HETATM   10  C6  UNL     1     -34.318  17.078  -1.842  1.00 20.00     0.035 C 
ENDBRANCH   7   8
ENDBRANCH   6   7
ENDBRANCH   1   6
TORSDOF 5
ENDMDL
MODEL 9
REMARK VINA RESULT:      -4.0     11.279     13.010
REMARK  5 active torsions:
REMARK  status: ('A' for Active; 'I' for Inactive)
REMARK    1  A    between atoms: C3_3  and  C7_7 
REMARK    2  A    between atoms: C4_4  and  C8_8 
REMARK    3  A    between atoms: C7_7  and  C9_9 
REMARK    4  A    between atoms: C8_8  and  C10_10 
REMARK    5  A    between atoms: C9_9  and  C10_10 
ROOT
HETATM    1  C9  UNL     1     -33.597  15.239  -3.470  1.00 20.00     0.004 C 
ENDROOT
BRANCH   1   2
HETATM    2  C7  UNL     1     -33.213  16.284  -4.517  1.00 20.00     0.026 C 
BRANCH   2   3
HETATM    3  C3  UNL     1     -33.858  15.991  -5.841  1.00 20.00    -0.031 C 
HETATM    4  C1  UNL     1     -34.522  14.859  -6.112  1.00 20.00    -0.035 C 
HETATM    5  C5  UNL     1     -35.159  14.564  -7.430  1.00 20.00     0.035 C 
ENDBRANCH   2   3
ENDBRANCH   1   2
BRANCH   1   6
HETATM    6  C10 UNL     1     -34.327  15.879  -2.287  1.00 20.00     0.004 C 
BRANCH   6   7
HETATM    7  C8  UNL     1     -33.744  17.254  -1.952  1.00 20.00     0.026 C 
BRANCH   7   8
HETATM    8  C4  UNL     1     -33.945  17.594  -0.503  1.00 20.00    -0.031 C 
HETATM    9  C2  UNL     1     -35.038  17.256   0.196  1.00 20.00    -0.035 C 
HETATM   10  C6  UNL     1     -35.236  17.588   1.638  1.00 20.00     0.035 C 
ENDBRANCH   7   8
ENDBRANCH   6   7
ENDBRANCH   1   6
TORSDOF 5
ENDMDL
