MODEL 1
REMARK VINA RESULT:      -5.1      0.000      0.000
REMARK  2 active torsions:
REMARK  status: ('A' for Active; 'I' for Inactive)
REMARK    1  A    between atoms: C1_1  and  C4_4 
REMARK    2  A    between atoms: C3_3  and  C4_4 
ROOT
HETATM    1  C4  UNL     1     -33.949   6.137   4.295  1.00 20.00     0.359 C 
HETATM    2  F8  UNL     1     -34.241   7.415   3.933  1.00 20.00    -0.191 F 
HETATM    3  F9  UNL     1     -32.642   5.940   3.978  1.00 20.00    -0.191 F 
ENDROOT
BRANCH   1   4
HETATM    4  C1  UNL     1     -34.184   5.935   5.775  1.00 20.00     0.200 C 
HETATM    5  C2  UNL     1     -34.861   4.659   6.202  1.00 20.00     0.098 C 
HETATM    6  O5  UNL     1     -33.867   6.795   6.597  1.00 20.00    -0.292 OA
ENDBRANCH   1   4
BRANCH   1   7
HETATM    7  C3  UNL     1     -34.796   5.197   3.471  1.00 20.00     0.432 C 
HETATM    8  F6  UNL     1     -36.041   5.711   3.316  1.00 20.00    -0.207 F 
HETATM    9  F7  UNL     1     -34.262   5.088   2.228  1.00 20.00    -0.207 F 
ENDBRANCH   1   7
TORSDOF 2
ENDMDL
MODEL 2
REMARK VINA RESULT:      -4.9      1.067      2.273
REMARK  2 active torsions:
REMARK  status: ('A' for Active; 'I' for Inactive)
REMARK    1  A    between atoms: C1_1  and  C4_4 
REMARK    2  A    between atoms: C3_3  and  C4_4 
ROOT
HETATM    1  C4  UNL     1     -33.999   6.159   3.945  1.00 20.00     0.359 C 
HETATM    2  F8  UNL     1     -34.381   5.164   3.099  1.00 20.00    -0.191 F 
HETATM    3  F9  UNL     1     -34.768   7.236   3.638  1.00 20.00    -0.191 F 
ENDROOT
BRANCH   1   4
HETATM    4  C1  UNL     1     -34.200   5.742   5.384  1.00 20.00     0.200 C 
HETATM    5  C2  UNL     1     -34.811   4.387   5.635  1.00 20.00     0.098 C 
HETATM    6  O5  UNL     1     -33.908   6.492   6.315  1.00 20.00    -0.292 OA
ENDBRANCH   1   4
BRANCH   1   7
HETATM    7  C3  UNL     1     -32.553   6.498   3.668  1.00 20.00     0.432 C 
HETATM    8  F6  UNL     1     -31.982   5.519   2.923  1.00 20.00    -0.207 F 
HETATM    9  F7  UNL     1     -32.495   7.634   2.929  1.00 20.00    -0.207 F 
ENDBRANCH   1   7
TORSDOF 2
ENDMDL
MODEL 3
REMARK VINA RESULT:      -4.8      1.728      2.802
REMARK  2 active torsions:
REMARK  status: ('A' for Active; 'I' for Inactive)
REMARK    1  A    between atoms: C1_1  and  C4_4 
REMARK    2  A    between atoms: C3_3  and  C4_4 
ROOT
HETATM    1  C4  UNL     1     -34.853   5.121   4.285  1.00 20.00     0.359 C 
HETATM    2  F8  UNL     1     -36.071   5.680   4.051  1.00 20.00    -0.191 F 
HETATM    3  F9  UNL     1     -34.485   4.511   3.128  1.00 20.00    -0.191 F 
ENDROOT
BRANCH   1   4
HETATM    4  C1  UNL     1     -33.848   6.179   4.683  1.00 20.00     0.200 C 
HETATM    5  C2  UNL     1     -32.789   6.544   3.675  1.00 20.00     0.098 C 
HETATM    6  O5  UNL     1     -33.872   6.696   5.800  1.00 20.00    -0.292 OA
ENDBRANCH   1   4
BRANCH   1   7
HETATM    7  C3  UNL     1     -35.003   4.073   5.362  1.00 20.00     0.432 C 
HETATM    8  F6  UNL     1     -33.781   3.698   5.817  1.00 20.00    -0.207 F 
HETATM    9  F7  UNL     1     -35.663   4.610   6.419  1.00 20.00    -0.207 F 
ENDBRANCH   1   7
TORSDOF 2
ENDMDL
MODEL 4
REMARK VINA RESULT:      -4.7      1.999      2.721
REMARK  2 active torsions:
REMARK  status: ('A' for Active; 'I' for Inactive)
REMARK    1  A    between atoms: C1_1  and  C4_4 
REMARK    2  A    between atoms: C3_3  and  C4_4 
ROOT
HETATM    1  C4  UNL     1     -34.510   5.139   5.912  1.00 20.00     0.359 C 
HETATM    2  F8  UNL     1     -33.775   4.182   6.541  1.00 20.00    -0.191 F 
HETATM    3  F9  UNL     1     -35.603   5.353   6.692  1.00 20.00    -0.191 F 
ENDROOT
BRANCH   1   4
HETATM    4  C1  UNL     1     -33.705   6.408   5.747  1.00 20.00     0.200 C 
HETATM    5  C2  UNL     1     -33.165   6.712   4.373  1.00 20.00     0.098 C 
HETATM    6  O5  UNL     1     -33.471   7.146   6.703  1.00 20.00    -0.292 OA
ENDBRANCH   1   4
BRANCH   1   7
HETATM    7  C3  UNL     1     -34.964   4.598   4.577  1.00 20.00     0.432 C 
HETATM    8  F6  UNL     1     -35.227   3.271   4.679  1.00 20.00    -0.207 F 
HETATM    9  F7  UNL     1     -36.127   5.199   4.223  1.00 20.00    -0.207 F 
ENDBRANCH   1   7
TORSDOF 2
ENDMDL
MODEL 5
REMARK VINA RESULT:      -4.6      2.411      3.127
REMARK  2 active torsions:
REMARK  status: ('A' for Active; 'I' for Inactive)
REMARK    1  A    between atoms: C1_1  and  C4_4 
REMARK    2  A    between atoms: C3_3  and  C4_4 
ROOT
HETATM    1  C4  UNL     1     -34.611   5.653   4.601  1.00 20.00     0.359 C 
HETATM    2  F8  UNL     1     -34.464   6.752   5.390  1.00 20.00    -0.191 F 
HETATM    3  F9  UNL     1     -35.916   5.629   4.221  1.00 20.00    -0.191 F 
ENDROOT
BRANCH   1   4
HETATM    4  C1  UNL     1     -33.698   5.734   3.398  1.00 20.00     0.200 C 
HETATM    5  C2  UNL     1     -32.440   6.552   3.537  1.00 20.00     0.098 C 
HETATM    6  O5  UNL     1     -33.988   5.183   2.336  1.00 20.00    -0.292 OA
ENDBRANCH   1   4
BRANCH   1   7
HETATM    7  C3  UNL     1     -34.322   4.423   5.428  1.00 20.00     0.432 C 
HETATM    8  F6  UNL     1     -34.663   4.645   6.722  1.00 20.00    -0.207 F 
HETATM    9  F7  UNL     1     -35.096   3.399   4.991  1.00 20.00    -0.207 F 
ENDBRANCH   1   7
TORSDOF 2
ENDMDL
MODEL 6
REMARK VINA RESULT:      -4.4      1.982      3.072
REMARK  2 active torsions:
REMARK  status: ('A' for Active; 'I' for Inactive)
REMARK    1  A    between atoms: C1_1  and  C4_4 
REMARK    2  A    between atoms: C3_3  and  C4_4 
ROOT
HETATM    1  C4  UNL     1     -33.895   6.128   4.698  1.00 20.00     0.359 C 
HETATM    2  F8  UNL     1     -32.778   5.710   4.043  1.00 20.00    -0.191 F 
HETATM    3  F9  UNL     1     -34.220   7.336   4.166  1.00 20.00    -0.191 F 
ENDROOT
BRANCH   1   4
HETATM    4  C1  UNL     1     -35.022   5.136   4.518  1.00 20.00     0.200 C 
HETATM    5  C2  UNL     1     -34.939   3.845   5.291  1.00 20.00     0.098 C 
HETATM    6  O5  UNL     1     -35.952   5.357   3.743  1.00 20.00    -0.292 OA
ENDBRANCH   1   4
BRANCH   1   7
HETATM    7  C3  UNL     1     -33.556   6.314   6.158  1.00 20.00     0.432 C 
HETATM    8  F6  UNL     1     -32.778   7.413   6.316  1.00 20.00    -0.207 F 
HETATM    9  F7  UNL     1     -34.697   6.540   6.856  1.00 20.00    -0.207 F 
ENDBRANCH   1   7
TORSDOF 2
ENDMDL
MODEL 7
REMARK VINA RESULT:      -4.4      1.687      2.844
REMARK  2 active torsions:
REMARK  status: ('A' for Active; 'I' for Inactive)
REMARK    1  A    between atoms: C1_1  and  C4_4 
REMARK    2  A    between atoms: C3_3  and  C4_4 
ROOT
HETATM    1  C4  UNL     1     -32.911   6.123   3.300  1.00 20.00     0.359 C 
HETATM    2  F8  UNL     1     -31.801   5.349   3.444  1.00 20.00    -0.191 F 
HETATM    3  F9  UNL     1     -33.528   5.699   2.166  1.00 20.00    -0.191 F 
ENDROOT
BRANCH   1   4
HETATM    4  C1  UNL     1     -33.821   5.979   4.499  1.00 20.00     0.200 C 
HETATM    5  C2  UNL     1     -35.026   5.087   4.351  1.00 20.00     0.098 C 
HETATM    6  O5  UNL     1     -33.605   6.593   5.544  1.00 20.00    -0.292 OA
ENDBRANCH   1   4
BRANCH   1   7
HETATM    7  C3  UNL     1     -32.476   7.557   3.111  1.00 20.00     0.432 C 
HETATM    8  F6  UNL     1     -31.297   7.772   3.744  1.00 20.00    -0.207 F 
HETATM    9  F7  UNL     1     -32.257   7.786   1.791  1.00 20.00    -0.207 F 
ENDBRANCH   1   7
TORSDOF 2
ENDMDL
MODEL 8
REMARK VINA RESULT:      -4.3      2.177      3.031
REMARK  2 active torsions:
REMARK  status: ('A' for Active; 'I' for Inactive)
REMARK    1  A    between atoms: C1_1  and  C4_4 
REMARK    2  A    between atoms: C3_3  and  C4_4 
ROOT
HETATM    1  C4  UNL     1     -34.485   5.639   5.046  1.00 20.00     0.359 C 
HETATM    2  F8  UNL     1     -34.457   6.603   6.006  1.00 20.00    -0.191 F 
HETATM    3  F9  UNL     1     -35.775   5.556   4.626  1.00 20.00    -0.191 F 
ENDROOT
BRANCH   1   4
HETATM    4  C1  UNL     1     -33.564   5.998   3.903  1.00 20.00     0.200 C 
HETATM    5  C2  UNL     1     -33.860   5.391   2.556  1.00 20.00     0.098 C 
HETATM    6  O5  UNL     1     -32.589   6.730   4.072  1.00 20.00    -0.292 OA
ENDBRANCH   1   4
BRANCH   1   7
HETATM    7  C3  UNL     1     -34.093   4.322   5.675  1.00 20.00     0.432 C 
HETATM    8  F6  UNL     1     -33.992   4.462   7.020  1.00 20.00    -0.207 F 
HETATM    9  F7  UNL     1     -35.073   3.411   5.450  1.00 20.00    -0.207 F 
ENDBRANCH   1   7
TORSDOF 2
ENDMDL
MODEL 9
REMARK VINA RESULT:      -4.3      2.055      2.924
REMARK  2 active torsions:
REMARK  status: ('A' for Active; 'I' for Inactive)
REMARK    1  A    between atoms: C1_1  and  C4_4 
REMARK    2  A    between atoms: C3_3  and  C4_4 
ROOT
HETATM    1  C4  UNL     1     -33.903   6.423   4.040  1.00 20.00     0.359 C 
HETATM    2  F8  UNL     1     -33.628   6.382   5.372  1.00 20.00    -0.191 F 
HETATM    3  F9  UNL     1     -34.618   7.560   3.834  1.00 20.00    -0.191 F 
ENDROOT
BRANCH   1   4
HETATM    4  C1  UNL     1     -32.625   6.433   3.232  1.00 20.00     0.200 C 
HETATM    5  C2  UNL     1     -32.234   7.728   2.568  1.00 20.00     0.098 C 
HETATM    6  O5  UNL     1     -31.948   5.414   3.092  1.00 20.00    -0.292 OA
ENDBRANCH   1   4
BRANCH   1   7
HETATM    7  C3  UNL     1     -34.766   5.235   3.689  1.00 20.00     0.432 C 
HETATM    8  F6  UNL     1     -34.842   4.389   4.746  1.00 20.00    -0.207 F 
HETATM    9  F7  UNL     1     -36.030   5.659   3.438  1.00 20.00    -0.207 F 
ENDBRANCH   1   7
TORSDOF 2
ENDMDL
