MODEL 1
REMARK VINA RESULT:      -4.4      0.000      0.000
REMARK  1 active torsions:
REMARK  status: ('A' for Active; 'I' for Inactive)
REMARK    1  A    between atoms: C4_4  and  C7_7 
ROOT
HETATM    1  C1  UNL     1     -34.753  13.877  -4.954  1.00 20.00     0.063 C 
HETATM    2  C7  UNL     1     -34.750  15.331  -5.188  1.00 20.00     0.165 C 
HETATM    3  N8  UNL     1     -34.755  12.733  -4.770  1.00 20.00    -0.197 NA
ENDROOT
BRANCH   2   4
HETATM    4  C4  UNL     1     -34.497  16.067  -3.917  1.00 20.00    -0.006 A 
HETATM    5  C3  UNL     1     -34.855  15.487  -2.711  1.00 20.00     0.128 A 
HETATM    6  N9  UNL     1     -34.669  16.071  -1.506  1.00 20.00    -0.248 NA
HETATM    7  C6  UNL     1     -34.098  17.297  -1.515  1.00 20.00     0.127 A 
HETATM    8  C2  UNL     1     -33.705  17.961  -2.665  1.00 20.00     0.068 A 
HETATM    9 CL11 UNL     1     -33.881  18.000   0.036  1.00 20.00    -0.062 Cl
HETATM   10  C5  UNL     1     -33.912  17.328  -3.886  1.00 20.00     0.045 A 
HETATM   11 CL10 UNL     1     -33.432  18.133  -5.333  1.00 20.00    -0.084 Cl
ENDBRANCH   2   4
TORSDOF 1
ENDMDL
MODEL 2
REMARK VINA RESULT:      -4.4      2.577      3.040
REMARK  1 active torsions:
REMARK  status: ('A' for Active; 'I' for Inactive)
REMARK    1  A    between atoms: C4_4  and  C7_7 
ROOT
HETATM    1  C1  UNL     1     -35.687  15.028  -7.374  1.00 20.00     0.063 C 
HETATM    2  C7  UNL     1     -34.269  15.112  -6.989  1.00 20.00     0.165 C 
HETATM    3  N8  UNL     1     -36.804  14.960  -7.677  1.00 20.00    -0.197 NA
ENDROOT
BRANCH   2   4
HETATM    4  C4  UNL     1     -34.136  15.520  -5.562  1.00 20.00    -0.006 A 
HETATM    5  C3  UNL     1     -33.818  16.833  -5.255  1.00 20.00     0.128 A 
HETATM    6  N9  UNL     1     -33.674  17.302  -3.994  1.00 20.00    -0.248 NA
HETATM    7  C6  UNL     1     -33.857  16.408  -2.997  1.00 20.00     0.127 A 
HETATM    8  C2  UNL     1     -34.176  15.075  -3.199  1.00 20.00     0.068 A 
HETATM    9 CL11 UNL     1     -33.664  17.046  -1.416  1.00 20.00    -0.062 Cl
HETATM   10  C5  UNL     1     -34.316  14.630  -4.509  1.00 20.00     0.045 A 
HETATM   11 CL10 UNL     1     -34.712  12.975  -4.788  1.00 20.00    -0.084 Cl
ENDBRANCH   2   4
TORSDOF 1
ENDMDL
MODEL 3
REMARK VINA RESULT:      -4.3      2.354      2.718
REMARK  1 active torsions:
REMARK  status: ('A' for Active; 'I' for Inactive)
REMARK    1  A    between atoms: C4_4  and  C7_7 
ROOT
HETATM    1  C1  UNL     1     -34.933  14.318  -6.741  1.00 20.00     0.063 C 
HETATM    2  C7  UNL     1     -35.011  13.606  -5.455  1.00 20.00     0.165 C 
HETATM    3  N8  UNL     1     -34.872  14.878  -7.755  1.00 20.00    -0.197 NA
ENDROOT
BRANCH   2   4
HETATM    4  C4  UNL     1     -34.776  14.545  -4.321  1.00 20.00    -0.006 A 
HETATM    5  C3  UNL     1     -33.482  14.930  -4.012  1.00 20.00     0.128 A 
HETATM    6  N9  UNL     1     -33.164  15.775  -3.005  1.00 20.00    -0.248 NA
HETATM    7  C6  UNL     1     -34.196  16.253  -2.274  1.00 20.00     0.127 A 
HETATM    8  C2  UNL     1     -35.523  15.929  -2.502  1.00 20.00     0.068 A 
HETATM    9 CL11 UNL     1     -33.746  17.320  -1.007  1.00 20.00    -0.062 Cl
HETATM   10  C5  UNL     1     -35.811  15.058  -3.547  1.00 20.00     0.045 A 
HETATM   11 CL10 UNL     1     -37.456  14.638  -3.852  1.00 20.00    -0.084 Cl
ENDBRANCH   2   4
TORSDOF 1
ENDMDL
MODEL 4
REMARK VINA RESULT:      -4.2      2.656      3.088
REMARK  1 active torsions:
REMARK  status: ('A' for Active; 'I' for Inactive)
REMARK    1  A    between atoms: C4_4  and  C7_7 
ROOT
HETATM    1  C1  UNL     1     -34.911  16.356  -7.323  1.00 20.00     0.063 C 
HETATM    2  C7  UNL     1     -34.074  15.408  -6.569  1.00 20.00     0.165 C 
HETATM    3  N8  UNL     1     -35.570  17.103  -7.916  1.00 20.00    -0.197 NA
ENDROOT
BRANCH   2   4
HETATM    4  C4  UNL     1     -34.091  15.735  -5.115  1.00 20.00    -0.006 A 
HETATM    5  C3  UNL     1     -33.697  16.994  -4.695  1.00 20.00     0.128 A 
HETATM    6  N9  UNL     1     -33.675  17.388  -3.401  1.00 20.00    -0.248 NA
HETATM    7  C6  UNL     1     -34.066  16.472  -2.488  1.00 20.00     0.127 A 
HETATM    8  C2  UNL     1     -34.477  15.187  -2.805  1.00 20.00     0.068 A 
HETATM    9 CL11 UNL     1     -34.022  17.014  -0.861  1.00 20.00    -0.062 Cl
HETATM   10  C5  UNL     1     -34.487  14.819  -4.146  1.00 20.00     0.045 A 
HETATM   11 CL10 UNL     1     -34.994  13.225  -4.569  1.00 20.00    -0.084 Cl
ENDBRANCH   2   4
TORSDOF 1
ENDMDL
MODEL 5
REMARK VINA RESULT:      -4.2      1.859      3.384
REMARK  1 active torsions:
REMARK  status: ('A' for Active; 'I' for Inactive)
REMARK    1  A    between atoms: C4_4  and  C7_7 
ROOT
HETATM    1  C1  UNL     1     -34.565  13.636  -3.924  1.00 20.00     0.063 C 
HETATM    2  C7  UNL     1     -34.246  14.853  -3.160  1.00 20.00     0.165 C 
HETATM    3  N8  UNL     1     -34.817  12.677  -4.526  1.00 20.00    -0.197 NA
ENDROOT
BRANCH   2   4
HETATM    4  C4  UNL     1     -34.059  16.014  -4.076  1.00 20.00    -0.006 A 
HETATM    5  C3  UNL     1     -34.159  15.825  -5.444  1.00 20.00     0.128 A 
HETATM    6  N9  UNL     1     -34.006  16.811  -6.357  1.00 20.00    -0.248 NA
HETATM    7  C6  UNL     1     -33.739  18.044  -5.870  1.00 20.00     0.127 A 
HETATM    8  C2  UNL     1     -33.620  18.336  -4.521  1.00 20.00     0.068 A 
HETATM    9 CL11 UNL     1     -33.552  19.263  -7.064  1.00 20.00    -0.062 Cl
HETATM   10  C5  UNL     1     -33.784  17.296  -3.613  1.00 20.00     0.045 A 
HETATM   11 CL10 UNL     1     -33.641  17.632  -1.927  1.00 20.00    -0.084 Cl
ENDBRANCH   2   4
TORSDOF 1
ENDMDL
MODEL 6
REMARK VINA RESULT:      -4.1      3.093      4.713
REMARK  1 active torsions:
REMARK  status: ('A' for Active; 'I' for Inactive)
REMARK    1  A    between atoms: C4_4  and  C7_7 
ROOT
HETATM    1  C1  UNL     1     -34.499  16.865  -0.716  1.00 20.00     0.063 C 
HETATM    2  C7  UNL     1     -34.125  16.376  -2.053  1.00 20.00     0.165 C 
HETATM    3  N8  UNL     1     -34.793  17.250   0.338  1.00 20.00    -0.197 NA
ENDROOT
BRANCH   2   4
HETATM    4  C4  UNL     1     -35.329  15.907  -2.796  1.00 20.00    -0.006 A 
HETATM    5  C3  UNL     1     -36.476  16.684  -2.795  1.00 20.00     0.128 A 
HETATM    6  N9  UNL     1     -37.619  16.347  -3.435  1.00 20.00    -0.248 NA
HETATM    7  C6  UNL     1     -37.607  15.174  -4.107  1.00 20.00     0.127 A 
HETATM    8  C2  UNL     1     -36.513  14.327  -4.169  1.00 20.00     0.068 A 
HETATM    9 CL11 UNL     1     -39.077  14.787  -4.904  1.00 20.00    -0.062 Cl
HETATM   10  C5  UNL     1     -35.356  14.707  -3.498  1.00 20.00     0.045 A 
HETATM   11 CL10 UNL     1     -33.979  13.670  -3.559  1.00 20.00    -0.084 Cl
ENDBRANCH   2   4
TORSDOF 1
ENDMDL
MODEL 7
REMARK VINA RESULT:      -4.1      2.524      2.719
REMARK  1 active torsions:
REMARK  status: ('A' for Active; 'I' for Inactive)
REMARK    1  A    between atoms: C4_4  and  C7_7 
ROOT
HETATM    1  C1  UNL     1     -37.691  15.087  -4.051  1.00 20.00     0.063 C 
HETATM    2  C7  UNL     1     -36.685  16.139  -4.276  1.00 20.00     0.165 C 
HETATM    3  N8  UNL     1     -38.482  14.259  -3.875  1.00 20.00    -0.197 NA
ENDROOT
BRANCH   2   4
HETATM    4  C4  UNL     1     -36.078  16.569  -2.984  1.00 20.00    -0.006 A 
HETATM    5  C3  UNL     1     -36.643  17.622  -2.283  1.00 20.00     0.128 A 
HETATM    6  N9  UNL     1     -36.168  18.087  -1.105  1.00 20.00    -0.248 NA
HETATM    7  C6  UNL     1     -35.074  17.466  -0.611  1.00 20.00     0.127 A 
HETATM    8  C2  UNL     1     -34.437  16.405  -1.234  1.00 20.00     0.068 A 
HETATM    9 CL11 UNL     1     -34.507  18.089   0.884  1.00 20.00    -0.062 Cl
HETATM   10  C5  UNL     1     -34.954  15.954  -2.443  1.00 20.00     0.045 A 
HETATM   11 CL10 UNL     1     -34.179  14.635  -3.240  1.00 20.00    -0.084 Cl
ENDBRANCH   2   4
TORSDOF 1
ENDMDL
MODEL 8
REMARK VINA RESULT:      -4.1      1.721      1.812
REMARK  1 active torsions:
REMARK  status: ('A' for Active; 'I' for Inactive)
REMARK    1  A    between atoms: C4_4  and  C7_7 
ROOT
HETATM    1  C1  UNL     1     -36.805  14.372  -3.893  1.00 20.00     0.063 C 
HETATM    2  C7  UNL     1     -35.337  14.343  -3.992  1.00 20.00     0.165 C 
HETATM    3  N8  UNL     1     -37.962  14.394  -3.814  1.00 20.00    -0.197 NA
ENDROOT
BRANCH   2   4
HETATM    4  C4  UNL     1     -34.750  15.606  -3.458  1.00 20.00    -0.006 A 
HETATM    5  C3  UNL     1     -34.759  15.837  -2.093  1.00 20.00     0.128 A 
HETATM    6  N9  UNL     1     -34.254  16.949  -1.511  1.00 20.00    -0.248 NA
HETATM    7  C6  UNL     1     -33.716  17.870  -2.341  1.00 20.00     0.127 A 
HETATM    8  C2  UNL     1     -33.659  17.733  -3.718  1.00 20.00     0.068 A 
HETATM    9 CL11 UNL     1     -33.088  19.262  -1.560  1.00 20.00    -0.062 Cl
HETATM   10  C5  UNL     1     -34.189  16.576  -4.280  1.00 20.00     0.045 A 
HETATM   11 CL10 UNL     1     -34.131  16.381  -5.993  1.00 20.00    -0.084 Cl
ENDBRANCH   2   4
TORSDOF 1
ENDMDL
MODEL 9
REMARK VINA RESULT:      -4.1     12.338     13.934
REMARK  1 active torsions:
REMARK  status: ('A' for Active; 'I' for Inactive)
REMARK    1  A    between atoms: C4_4  and  C7_7 
ROOT
HETATM    1  C1  UNL     1     -42.726   8.307  -3.370  1.00 20.00     0.063 C 
HETATM    2  C7  UNL     1     -42.602   7.612  -2.079  1.00 20.00     0.165 C 
HETATM    3  N8  UNL     1     -42.823   8.855  -4.387  1.00 20.00    -0.197 NA
ENDROOT
BRANCH   2   4
HETATM    4  C4  UNL     1     -42.415   6.148  -2.287  1.00 20.00    -0.006 A 
HETATM    5  C3  UNL     1     -43.156   5.498  -3.260  1.00 20.00     0.128 A 
HETATM    6  N9  UNL     1     -43.062   4.175  -3.526  1.00 20.00    -0.248 NA
HETATM    7  C6  UNL     1     -42.183   3.474  -2.776  1.00 20.00     0.127 A 
HETATM    8  C2  UNL     1     -41.396   4.029  -1.780  1.00 20.00     0.068 A 
HETATM    9 CL11 UNL     1     -42.096   1.800  -3.148  1.00 20.00    -0.062 Cl
HETATM   10  C5  UNL     1     -41.521   5.392  -1.536  1.00 20.00     0.045 A 
HETATM   11 CL10 UNL     1     -40.554   6.109  -0.301  1.00 20.00    -0.084 Cl
ENDBRANCH   2   4
TORSDOF 1
ENDMDL
