MODEL 1
REMARK VINA RESULT:      -4.2      0.000      0.000
REMARK  4 active torsions:
REMARK  status: ('A' for Active; 'I' for Inactive)
REMARK    1  A    between atoms: C1_1  and  C6_6 
REMARK    2  A    between atoms: C6_6  and  C8_8 
REMARK    3  A    between atoms: C7_7  and  C8_8 
REMARK    4  A    between atoms: C7_7  and  C9_9 
ROOT
HETATM    1  C2  UNL     1     -34.402  16.312  -1.709  1.00 20.00     0.010 C 
HETATM    2  C8  UNL     1     -34.556  15.899  -3.179  1.00 20.00    -0.010 C 
ENDROOT
BRANCH   2   3
HETATM    3  C6  UNL     1     -34.176  14.407  -3.299  1.00 20.00     0.100 C 
BRANCH   3   4
HETATM    4  C1  UNL     1     -35.179  13.589  -4.099  1.00 20.00     0.219 C 
HETATM    5  O10 UNL     1     -34.871  12.574  -4.715  1.00 20.00    -0.280 OA
HETATM    6 CL11 UNL     1     -36.766  14.305  -4.065  1.00 20.00    -0.044 Cl
ENDBRANCH   3   4
ENDBRANCH   2   3
BRANCH   2   7
HETATM    7  C7  UNL     1     -33.661  16.768  -4.101  1.00 20.00     0.013 C 
BRANCH   7   8
HETATM    8  C9  UNL     1     -34.280  17.249  -5.447  1.00 20.00    -0.051 C 
HETATM    9  C3  UNL     1     -35.774  17.550  -5.201  1.00 20.00     0.014 C 
HETATM   10  C4  UNL     1     -34.178  16.192  -6.554  1.00 20.00     0.014 C 
HETATM   11  C5  UNL     1     -33.605  18.547  -5.927  1.00 20.00     0.014 C 
ENDBRANCH   7   8
ENDBRANCH   2   7
TORSDOF 4
ENDMDL
MODEL 2
REMARK VINA RESULT:      -4.1      2.152      3.103
REMARK  4 active torsions:
REMARK  status: ('A' for Active; 'I' for Inactive)
REMARK    1  A    between atoms: C1_1  and  C6_6 
REMARK    2  A    between atoms: C6_6  and  C8_8 
REMARK    3  A    between atoms: C7_7  and  C8_8 
REMARK    4  A    between atoms: C7_7  and  C9_9 
ROOT
HETATM    1  C2  UNL     1     -36.423  15.182  -3.305  1.00 20.00     0.010 C 
HETATM    2  C8  UNL     1     -34.953  15.609  -3.187  1.00 20.00    -0.010 C 
ENDROOT
BRANCH   2   3
HETATM    3  C6  UNL     1     -34.071  14.388  -3.526  1.00 20.00     0.100 C 
BRANCH   3   4
HETATM    4  C1  UNL     1     -34.491  13.674  -4.802  1.00 20.00     0.219 C 
HETATM    5  O10 UNL     1     -34.835  12.497  -4.825  1.00 20.00    -0.280 OA
HETATM    6 CL11 UNL     1     -34.367  14.715  -6.193  1.00 20.00    -0.044 Cl
ENDBRANCH   3   4
ENDBRANCH   2   3
BRANCH   2   7
HETATM    7  C7  UNL     1     -34.636  16.134  -1.762  1.00 20.00     0.013 C 
BRANCH   7   8
HETATM    8  C9  UNL     1     -34.378  17.662  -1.607  1.00 20.00    -0.051 C 
HETATM    9  C3  UNL     1     -35.727  18.342  -1.297  1.00 20.00     0.014 C 
HETATM   10  C4  UNL     1     -33.802  18.294  -2.881  1.00 20.00     0.014 C 
HETATM   11  C5  UNL     1     -33.422  17.939  -0.432  1.00 20.00     0.014 C 
ENDBRANCH   7   8
ENDBRANCH   2   7
TORSDOF 4
ENDMDL
MODEL 3
REMARK VINA RESULT:      -3.9      2.031      3.228
REMARK  4 active torsions:
REMARK  status: ('A' for Active; 'I' for Inactive)
REMARK    1  A    between atoms: C1_1  and  C6_6 
REMARK    2  A    between atoms: C6_6  and  C8_8 
REMARK    3  A    between atoms: C7_7  and  C8_8 
REMARK    4  A    between atoms: C7_7  and  C9_9 
ROOT
HETATM    1  C2  UNL     1     -37.171  15.281  -4.929  1.00 20.00     0.010 C 
HETATM    2  C8  UNL     1     -35.749  15.706  -4.536  1.00 20.00    -0.010 C 
ENDROOT
BRANCH   2   3
HETATM    3  C6  UNL     1     -34.753  14.782  -5.269  1.00 20.00     0.100 C 
BRANCH   3   4
HETATM    4  C1  UNL     1     -34.366  13.550  -4.466  1.00 20.00     0.219 C 
HETATM    5  O10 UNL     1     -35.062  12.542  -4.415  1.00 20.00    -0.280 OA
HETATM    6 CL11 UNL     1     -32.867  13.785  -3.609  1.00 20.00    -0.044 Cl
ENDBRANCH   3   4
ENDBRANCH   2   3
BRANCH   2   7
HETATM    7  C7  UNL     1     -35.545  15.622  -3.001  1.00 20.00     0.013 C 
BRANCH   7   8
HETATM    8  C9  UNL     1     -35.021  16.899  -2.280  1.00 20.00    -0.051 C 
HETATM    9  C3  UNL     1     -36.166  17.932  -2.254  1.00 20.00     0.014 C 
HETATM   10  C4  UNL     1     -33.820  17.530  -2.999  1.00 20.00     0.014 C 
HETATM   11  C5  UNL     1     -34.627  16.585  -0.826  1.00 20.00     0.014 C 
ENDBRANCH   7   8
ENDBRANCH   2   7
TORSDOF 4
ENDMDL
MODEL 4
REMARK VINA RESULT:      -3.9      1.430      2.122
REMARK  4 active torsions:
REMARK  status: ('A' for Active; 'I' for Inactive)
REMARK    1  A    between atoms: C1_1  and  C6_6 
REMARK    2  A    between atoms: C6_6  and  C8_8 
REMARK    3  A    between atoms: C7_7  and  C8_8 
REMARK    4  A    between atoms: C7_7  and  C9_9 
ROOT
HETATM    1  C2  UNL     1     -33.835  17.582  -3.131  1.00 20.00     0.010 C 
HETATM    2  C8  UNL     1     -33.954  16.419  -4.126  1.00 20.00    -0.010 C 
ENDROOT
BRANCH   2   3
HETATM    3  C6  UNL     1     -32.966  15.315  -3.692  1.00 20.00     0.100 C 
BRANCH   3   4
HETATM    4  C1  UNL     1     -33.563  13.917  -3.738  1.00 20.00     0.219 C 
HETATM    5  O10 UNL     1     -32.878  12.899  -3.742  1.00 20.00    -0.280 OA
HETATM    6 CL11 UNL     1     -35.302  13.962  -3.838  1.00 20.00    -0.044 Cl
ENDBRANCH   3   4
ENDBRANCH   2   3
BRANCH   2   7
HETATM    7  C7  UNL     1     -33.650  16.888  -5.573  1.00 20.00     0.013 C 
BRANCH   7   8
HETATM    8  C9  UNL     1     -34.679  16.503  -6.678  1.00 20.00    -0.051 C 
HETATM    9  C3  UNL     1     -34.508  17.491  -7.850  1.00 20.00     0.014 C 
HETATM   10  C4  UNL     1     -36.130  16.586  -6.186  1.00 20.00     0.014 C 
HETATM   11  C5  UNL     1     -34.408  15.083  -7.207  1.00 20.00     0.014 C 
ENDBRANCH   7   8
ENDBRANCH   2   7
TORSDOF 4
ENDMDL
MODEL 5
REMARK VINA RESULT:      -3.9      1.963      3.308
REMARK  4 active torsions:
REMARK  status: ('A' for Active; 'I' for Inactive)
REMARK    1  A    between atoms: C1_1  and  C6_6 
REMARK    2  A    between atoms: C6_6  and  C8_8 
REMARK    3  A    between atoms: C7_7  and  C8_8 
REMARK    4  A    between atoms: C7_7  and  C9_9 
ROOT
HETATM    1  C2  UNL     1     -36.887  15.566  -5.415  1.00 20.00     0.010 C 
HETATM    2  C8  UNL     1     -35.494  15.771  -4.803  1.00 20.00    -0.010 C 
ENDROOT
BRANCH   2   3
HETATM    3  C6  UNL     1     -34.542  14.723  -5.419  1.00 20.00     0.100 C 
BRANCH   3   4
HETATM    4  C1  UNL     1     -34.293  13.526  -4.514  1.00 20.00     0.219 C 
HETATM    5  O10 UNL     1     -35.058  12.570  -4.448  1.00 20.00    -0.280 OA
HETATM    6 CL11 UNL     1     -32.840  13.722  -3.573  1.00 20.00    -0.044 Cl
ENDBRANCH   3   4
ENDBRANCH   2   3
BRANCH   2   7
HETATM    7  C7  UNL     1     -35.535  15.632  -3.259  1.00 20.00     0.013 C 
BRANCH   7   8
HETATM    8  C9  UNL     1     -35.094  16.869  -2.420  1.00 20.00    -0.051 C 
HETATM    9  C3  UNL     1     -33.906  17.534  -3.146  1.00 20.00     0.014 C 
HETATM   10  C4  UNL     1     -34.640  16.488  -1.005  1.00 20.00     0.014 C 
HETATM   11  C5  UNL     1     -36.232  17.900  -2.323  1.00 20.00     0.014 C 
ENDBRANCH   7   8
ENDBRANCH   2   7
TORSDOF 4
ENDMDL
MODEL 6
REMARK VINA RESULT:      -3.9      2.136      3.313
REMARK  4 active torsions:
REMARK  status: ('A' for Active; 'I' for Inactive)
REMARK    1  A    between atoms: C1_1  and  C6_6 
REMARK    2  A    between atoms: C6_6  and  C8_8 
REMARK    3  A    between atoms: C7_7  and  C8_8 
REMARK    4  A    between atoms: C7_7  and  C9_9 
ROOT
HETATM    1  C2  UNL     1     -37.393  14.853  -4.086  1.00 20.00     0.010 C 
HETATM    2  C8  UNL     1     -36.044  15.585  -4.045  1.00 20.00    -0.010 C 
ENDROOT
BRANCH   2   3
HETATM    3  C6  UNL     1     -35.079  14.864  -5.011  1.00 20.00     0.100 C 
BRANCH   3   4
HETATM    4  C1  UNL     1     -34.457  13.608  -4.419  1.00 20.00     0.219 C 
HETATM    5  O10 UNL     1     -35.022  12.520  -4.419  1.00 20.00    -0.280 OA
HETATM    6 CL11 UNL     1     -32.899  13.934  -3.711  1.00 20.00    -0.044 Cl
ENDBRANCH   3   4
ENDBRANCH   2   3
BRANCH   2   7
HETATM    7  C7  UNL     1     -35.464  15.608  -2.607  1.00 20.00     0.013 C 
BRANCH   7   8
HETATM    8  C9  UNL     1     -35.053  16.994  -2.027  1.00 20.00    -0.051 C 
HETATM    9  C3  UNL     1     -34.639  16.787  -0.555  1.00 20.00     0.014 C 
HETATM   10  C4  UNL     1     -36.201  18.012  -2.066  1.00 20.00     0.014 C 
HETATM   11  C5  UNL     1     -33.844  17.569  -2.787  1.00 20.00     0.014 C 
ENDBRANCH   7   8
ENDBRANCH   2   7
TORSDOF 4
ENDMDL
MODEL 7
REMARK VINA RESULT:      -3.9      2.239      3.775
REMARK  4 active torsions:
REMARK  status: ('A' for Active; 'I' for Inactive)
REMARK    1  A    between atoms: C1_1  and  C6_6 
REMARK    2  A    between atoms: C6_6  and  C8_8 
REMARK    3  A    between atoms: C7_7  and  C8_8 
REMARK    4  A    between atoms: C7_7  and  C9_9 
ROOT
HETATM    1  C2  UNL     1     -35.254  14.688  -7.287  1.00 20.00     0.010 C 
HETATM    2  C8  UNL     1     -35.701  14.730  -5.819  1.00 20.00    -0.010 C 
ENDROOT
BRANCH   2   3
HETATM    3  C6  UNL     1     -37.161  15.230  -5.777  1.00 20.00     0.100 C 
BRANCH   3   4
HETATM    4  C1  UNL     1     -37.771  15.204  -4.384  1.00 20.00     0.219 C 
HETATM    5  O10 UNL     1     -38.048  14.163  -3.797  1.00 20.00    -0.280 OA
HETATM    6 CL11 UNL     1     -38.063  16.811  -3.778  1.00 20.00    -0.044 Cl
ENDBRANCH   3   4
ENDBRANCH   2   3
BRANCH   2   7
HETATM    7  C7  UNL     1     -34.781  15.656  -4.981  1.00 20.00     0.013 C 
BRANCH   7   8
HETATM    8  C9  UNL     1     -34.143  15.052  -3.694  1.00 20.00    -0.051 C 
HETATM    9  C3  UNL     1     -34.492  13.549  -3.653  1.00 20.00     0.014 C 
HETATM   10  C4  UNL     1     -34.676  15.704  -2.412  1.00 20.00     0.014 C 
HETATM   11  C5  UNL     1     -32.610  15.186  -3.728  1.00 20.00     0.014 C 
ENDBRANCH   7   8
ENDBRANCH   2   7
TORSDOF 4
ENDMDL
MODEL 8
REMARK VINA RESULT:      -3.8      2.102      2.736
REMARK  4 active torsions:
REMARK  status: ('A' for Active; 'I' for Inactive)
REMARK    1  A    between atoms: C1_1  and  C6_6 
REMARK    2  A    between atoms: C6_6  and  C8_8 
REMARK    3  A    between atoms: C7_7  and  C8_8 
REMARK    4  A    between atoms: C7_7  and  C9_9 
ROOT
HETATM    1  C2  UNL     1     -34.602  16.245  -1.596  1.00 20.00     0.010 C 
HETATM    2  C8  UNL     1     -35.211  15.527  -2.809  1.00 20.00    -0.010 C 
ENDROOT
BRANCH   2   3
HETATM    3  C6  UNL     1     -34.085  14.743  -3.516  1.00 20.00     0.100 C 
BRANCH   3   4
HETATM    4  C1  UNL     1     -34.592  13.792  -4.590  1.00 20.00     0.219 C 
HETATM    5  O10 UNL     1     -35.011  12.667  -4.340  1.00 20.00    -0.280 OA
HETATM    6 CL11 UNL     1     -34.448  14.484  -6.182  1.00 20.00    -0.044 Cl
ENDBRANCH   3   4
ENDBRANCH   2   3
BRANCH   2   7
HETATM    7  C7  UNL     1     -35.870  16.538  -3.783  1.00 20.00     0.013 C 
BRANCH   7   8
HETATM    8  C9  UNL     1     -37.384  16.343  -4.096  1.00 20.00    -0.051 C 
HETATM    9  C3  UNL     1     -38.173  17.399  -3.295  1.00 20.00     0.014 C 
HETATM   10  C4  UNL     1     -37.893  14.953  -3.694  1.00 20.00     0.014 C 
HETATM   11  C5  UNL     1     -37.667  16.570  -5.592  1.00 20.00     0.014 C 
ENDBRANCH   7   8
ENDBRANCH   2   7
TORSDOF 4
ENDMDL
MODEL 9
REMARK VINA RESULT:      -3.8      2.481      3.169
REMARK  4 active torsions:
REMARK  status: ('A' for Active; 'I' for Inactive)
REMARK    1  A    between atoms: C1_1  and  C6_6 
REMARK    2  A    between atoms: C6_6  and  C8_8 
REMARK    3  A    between atoms: C7_7  and  C8_8 
REMARK    4  A    between atoms: C7_7  and  C9_9 
ROOT
HETATM    1  C2  UNL     1     -33.277  13.479  -3.755  1.00 20.00     0.010 C 
HETATM    2  C8  UNL     1     -34.154  14.657  -4.204  1.00 20.00    -0.010 C 
ENDROOT
BRANCH   2   3
HETATM    3  C6  UNL     1     -34.908  15.191  -2.966  1.00 20.00     0.100 C 
BRANCH   3   4
HETATM    4  C1  UNL     1     -34.296  16.458  -2.386  1.00 20.00     0.219 C 
HETATM    5  O10 UNL     1     -33.623  17.238  -3.051  1.00 20.00    -0.280 OA
HETATM    6 CL11 UNL     1     -34.630  16.612  -0.683  1.00 20.00    -0.044 Cl
ENDBRANCH   3   4
ENDBRANCH   2   3
BRANCH   2   7
HETATM    7  C7  UNL     1     -35.153  14.221  -5.307  1.00 20.00     0.013 C 
BRANCH   7   8
HETATM    8  C9  UNL     1     -35.374  15.202  -6.496  1.00 20.00    -0.051 C 
HETATM    9  C3  UNL     1     -36.679  15.980  -6.233  1.00 20.00     0.014 C 
HETATM   10  C4  UNL     1     -35.509  14.475  -7.841  1.00 20.00     0.014 C 
HETATM   11  C5  UNL     1     -34.222  16.218  -6.589  1.00 20.00     0.014 C 
ENDBRANCH   7   8
ENDBRANCH   2   7
TORSDOF 4
ENDMDL
