MODEL 1
REMARK VINA RESULT:      -4.6      0.000      0.000
REMARK  1 active torsions:
REMARK  status: ('A' for Active; 'I' for Inactive)
REMARK    1  A    between atoms: C1_1  and  C6_6 
ROOT
HETATM    1  C2  UNL     1     -35.382  17.228  -3.871  1.00 20.00     0.005 C 
HETATM    2  C3  UNL     1     -35.922  15.972  -3.175  1.00 20.00     0.006 C 
HETATM    3  C4  UNL     1     -33.294  16.009  -4.520  1.00 20.00     0.017 C 
HETATM    4  C5  UNL     1     -33.808  16.494  -2.241  1.00 20.00     0.010 C 
HETATM    5  C6  UNL     1     -33.795  14.732  -3.826  1.00 20.00     0.059 C 
HETATM    6  C7  UNL     1     -33.866  17.130  -3.631  1.00 20.00    -0.013 C 
HETATM    7  C8  UNL     1     -34.644  15.281  -2.661  1.00 20.00    -0.003 C 
ENDROOT
BRANCH   5   8
HETATM    8  C1  UNL     1     -34.546  13.816  -4.740  1.00 20.00     0.127 C 
HETATM    9  C9  UNL     1     -34.756  14.292  -6.152  1.00 20.00     0.091 C 
HETATM   10  O10 UNL     1     -34.969  12.726  -4.356  1.00 20.00    -0.298 OA
ENDBRANCH   5   8
TORSDOF 1
ENDMDL
MODEL 2
REMARK VINA RESULT:      -4.4      1.474      2.046
REMARK  1 active torsions:
REMARK  status: ('A' for Active; 'I' for Inactive)
REMARK    1  A    between atoms: C1_1  and  C6_6 
ROOT
HETATM    1  C2  UNL     1     -33.818  16.792  -3.256  1.00 20.00     0.005 C 
HETATM    2  C3  UNL     1     -34.599  15.755  -2.439  1.00 20.00     0.006 C 
HETATM    3  C4  UNL     1     -34.339  15.563  -5.374  1.00 20.00     0.017 C 
HETATM    4  C5  UNL     1     -32.936  14.623  -3.689  1.00 20.00     0.010 C 
HETATM    5  C6  UNL     1     -35.124  14.498  -4.591  1.00 20.00     0.059 C 
HETATM    6  C7  UNL     1     -33.215  15.951  -4.394  1.00 20.00    -0.013 C 
HETATM    7  C8  UNL     1     -34.389  14.453  -3.235  1.00 20.00    -0.003 C 
ENDROOT
BRANCH   5   8
HETATM    8  C1  UNL     1     -36.583  14.803  -4.475  1.00 20.00     0.127 C 
HETATM    9  C9  UNL     1     -37.083  16.016  -5.212  1.00 20.00     0.091 C 
HETATM   10  O10 UNL     1     -37.340  14.095  -3.812  1.00 20.00    -0.298 OA
ENDBRANCH   5   8
TORSDOF 1
ENDMDL
MODEL 3
REMARK VINA RESULT:      -4.3     11.407     12.587
REMARK  1 active torsions:
REMARK  status: ('A' for Active; 'I' for Inactive)
REMARK    1  A    between atoms: C1_1  and  C6_6 
ROOT
HETATM    1  C2  UNL     1     -42.556   5.379   0.382  1.00 20.00     0.005 C 
HETATM    2  C3  UNL     1     -43.109   4.767  -0.911  1.00 20.00     0.006 C 
HETATM    3  C4  UNL     1     -41.148   6.975  -0.936  1.00 20.00     0.017 C 
HETATM    4  C5  UNL     1     -40.745   4.623  -0.966  1.00 20.00     0.010 C 
HETATM    5  C6  UNL     1     -41.670   6.383  -2.255  1.00 20.00     0.059 C 
HETATM    6  C7  UNL     1     -41.114   5.751  -0.001  1.00 20.00    -0.013 C 
HETATM    7  C8  UNL     1     -41.930   4.906  -1.894  1.00 20.00    -0.003 C 
ENDROOT
BRANCH   5   8
HETATM    8  C1  UNL     1     -42.873   7.094  -2.788  1.00 20.00     0.127 C 
HETATM    9  C9  UNL     1     -43.417   8.223  -1.955  1.00 20.00     0.091 C 
HETATM   10  O10 UNL     1     -43.392   6.773  -3.857  1.00 20.00    -0.298 OA
ENDBRANCH   5   8
TORSDOF 1
ENDMDL
MODEL 4
REMARK VINA RESULT:      -4.3      2.014      3.496
REMARK  1 active torsions:
REMARK  status: ('A' for Active; 'I' for Inactive)
REMARK    1  A    between atoms: C1_1  and  C6_6 
ROOT
HETATM    1  C2  UNL     1     -36.529  14.333  -4.175  1.00 20.00     0.005 C 
HETATM    2  C3  UNL     1     -36.180  15.687  -4.808  1.00 20.00     0.006 C 
HETATM    3  C4  UNL     1     -34.174  14.069  -3.365  1.00 20.00     0.017 C 
HETATM    4  C5  UNL     1     -34.713  14.049  -5.690  1.00 20.00     0.010 C 
HETATM    5  C6  UNL     1     -33.782  15.416  -3.993  1.00 20.00     0.059 C 
HETATM    6  C7  UNL     1     -35.231  13.527  -4.349  1.00 20.00    -0.013 C 
HETATM    7  C8  UNL     1     -34.707  15.508  -5.224  1.00 20.00    -0.003 C 
ENDROOT
BRANCH   5   8
HETATM    8  C1  UNL     1     -33.916  16.570  -3.051  1.00 20.00     0.127 C 
HETATM    9  C9  UNL     1     -34.431  16.261  -1.671  1.00 20.00     0.091 C 
HETATM   10  O10 UNL     1     -33.618  17.716  -3.387  1.00 20.00    -0.298 OA
ENDBRANCH   5   8
TORSDOF 1
ENDMDL
MODEL 5
REMARK VINA RESULT:      -4.3      1.870      3.510
REMARK  1 active torsions:
REMARK  status: ('A' for Active; 'I' for Inactive)
REMARK    1  A    between atoms: C1_1  and  C6_6 
ROOT
HETATM    1  C2  UNL     1     -34.280  15.484  -5.626  1.00 20.00     0.005 C 
HETATM    2  C3  UNL     1     -33.305  15.882  -4.510  1.00 20.00     0.006 C 
HETATM    3  C4  UNL     1     -35.927  14.650  -3.935  1.00 20.00     0.017 C 
HETATM    4  C5  UNL     1     -33.819  13.582  -4.269  1.00 20.00     0.010 C 
HETATM    5  C6  UNL     1     -34.975  15.026  -2.788  1.00 20.00     0.059 C 
HETATM    6  C7  UNL     1     -34.960  14.227  -5.058  1.00 20.00    -0.013 C 
HETATM    7  C8  UNL     1     -33.580  14.832  -3.417  1.00 20.00    -0.003 C 
ENDROOT
BRANCH   5   8
HETATM    8  C1  UNL     1     -35.208  16.403  -2.252  1.00 20.00     0.127 C 
HETATM    9  C9  UNL     1     -34.444  16.785  -1.013  1.00 20.00     0.091 C 
HETATM   10  O10 UNL     1     -35.984  17.186  -2.798  1.00 20.00    -0.298 OA
ENDBRANCH   5   8
TORSDOF 1
ENDMDL
MODEL 6
REMARK VINA RESULT:      -4.2      1.196      2.289
REMARK  1 active torsions:
REMARK  status: ('A' for Active; 'I' for Inactive)
REMARK    1  A    between atoms: C1_1  and  C6_6 
ROOT
HETATM    1  C2  UNL     1     -33.655  16.876  -5.334  1.00 20.00     0.005 C 
HETATM    2  C3  UNL     1     -34.391  15.781  -6.117  1.00 20.00     0.006 C 
HETATM    3  C4  UNL     1     -34.516  15.954  -3.172  1.00 20.00     0.017 C 
HETATM    4  C5  UNL     1     -35.971  16.939  -4.785  1.00 20.00     0.010 C 
HETATM    5  C6  UNL     1     -35.276  14.846  -3.919  1.00 20.00     0.059 C 
HETATM    6  C7  UNL     1     -34.596  17.144  -4.148  1.00 20.00    -0.013 C 
HETATM    7  C8  UNL     1     -35.643  15.520  -5.258  1.00 20.00    -0.003 C 
ENDROOT
BRANCH   5   8
HETATM    8  C1  UNL     1     -34.485  13.587  -4.076  1.00 20.00     0.127 C 
HETATM    9  C9  UNL     1     -33.074  13.603  -3.552  1.00 20.00     0.091 C 
HETATM   10  O10 UNL     1     -34.964  12.585  -4.605  1.00 20.00    -0.298 OA
ENDBRANCH   5   8
TORSDOF 1
ENDMDL
MODEL 7
REMARK VINA RESULT:      -4.2      1.791      2.934
REMARK  1 active torsions:
REMARK  status: ('A' for Active; 'I' for Inactive)
REMARK    1  A    between atoms: C1_1  and  C6_6 
ROOT
HETATM    1  C2  UNL     1     -34.019  13.608  -3.795  1.00 20.00     0.005 C 
HETATM    2  C3  UNL     1     -34.596  13.814  -5.201  1.00 20.00     0.006 C 
HETATM    3  C4  UNL     1     -35.385  15.515  -2.920  1.00 20.00     0.017 C 
HETATM    4  C5  UNL     1     -33.618  15.851  -4.488  1.00 20.00     0.010 C 
HETATM    5  C6  UNL     1     -35.981  15.761  -4.316  1.00 20.00     0.059 C 
HETATM    6  C7  UNL     1     -33.954  15.040  -3.236  1.00 20.00    -0.013 C 
HETATM    7  C8  UNL     1     -34.837  15.335  -5.260  1.00 20.00    -0.003 C 
ENDROOT
BRANCH   5   8
HETATM    8  C1  UNL     1     -37.261  15.026  -4.552  1.00 20.00     0.127 C 
HETATM    9  C9  UNL     1     -37.994  15.334  -5.830  1.00 20.00     0.091 C 
HETATM   10  O10 UNL     1     -37.694  14.208  -3.742  1.00 20.00    -0.298 OA
ENDBRANCH   5   8
TORSDOF 1
ENDMDL
MODEL 8
REMARK VINA RESULT:      -4.2      1.594      3.227
REMARK  1 active torsions:
REMARK  status: ('A' for Active; 'I' for Inactive)
REMARK    1  A    between atoms: C1_1  and  C6_6 
ROOT
HETATM    1  C2  UNL     1     -34.267  16.504  -6.677  1.00 20.00     0.005 C 
HETATM    2  C3  UNL     1     -34.415  15.044  -7.125  1.00 20.00     0.006 C 
HETATM    3  C4  UNL     1     -35.703  16.069  -4.673  1.00 20.00     0.017 C 
HETATM    4  C5  UNL     1     -36.580  15.978  -6.891  1.00 20.00     0.010 C 
HETATM    5  C6  UNL     1     -35.884  14.601  -5.092  1.00 20.00     0.059 C 
HETATM    6  C7  UNL     1     -35.627  16.804  -6.025  1.00 20.00    -0.013 C 
HETATM    7  C8  UNL     1     -35.826  14.670  -6.633  1.00 20.00    -0.003 C 
ENDROOT
BRANCH   5   8
HETATM    8  C1  UNL     1     -34.868  13.683  -4.492  1.00 20.00     0.127 C 
HETATM    9  C9  UNL     1     -33.860  14.304  -3.562  1.00 20.00     0.091 C 
HETATM   10  O10 UNL     1     -34.856  12.479  -4.744  1.00 20.00    -0.298 OA
ENDBRANCH   5   8
TORSDOF 1
ENDMDL
MODEL 9
REMARK VINA RESULT:      -4.1      1.840      2.468
REMARK  1 active torsions:
REMARK  status: ('A' for Active; 'I' for Inactive)
REMARK    1  A    between atoms: C1_1  and  C6_6 
ROOT
HETATM    1  C2  UNL     1     -34.944  15.416  -2.899  1.00 20.00     0.005 C 
HETATM    2  C3  UNL     1     -35.687  14.402  -3.778  1.00 20.00     0.006 C 
HETATM    3  C4  UNL     1     -33.425  16.001  -4.800  1.00 20.00     0.017 C 
HETATM    4  C5  UNL     1     -33.384  13.846  -3.777  1.00 20.00     0.010 C 
HETATM    5  C6  UNL     1     -34.137  14.989  -5.712  1.00 20.00     0.059 C 
HETATM    6  C7  UNL     1     -33.499  15.328  -3.416  1.00 20.00    -0.013 C 
HETATM    7  C8  UNL     1     -34.585  13.890  -4.726  1.00 20.00    -0.003 C 
ENDROOT
BRANCH   5   8
HETATM    8  C1  UNL     1     -35.259  15.587  -6.499  1.00 20.00     0.127 C 
HETATM    9  C9  UNL     1     -35.925  14.696  -7.513  1.00 20.00     0.091 C 
HETATM   10  O10 UNL     1     -35.622  16.749  -6.325  1.00 20.00    -0.298 OA
ENDBRANCH   5   8
TORSDOF 1
ENDMDL
