MODEL 1
REMARK VINA RESULT:      -4.7      0.000      0.000
REMARK  4 active torsions:
REMARK  status: ('A' for Active; 'I' for Inactive)
REMARK    1  A    between atoms: C1_1  and  C4_4 
REMARK    2  A    between atoms: C2_2  and  C6_6 
REMARK    3  A    between atoms: C6_6  and  C7_7 
REMARK    4  A    between atoms: C7_7  and  O8_8 
ROOT
HETATM    1  C1  UNL     1     -33.485   6.280   4.110  1.00 20.00    -0.072 C 
HETATM    2  C2  UNL     1     -32.727   6.843   3.367  1.00 20.00    -0.099 C 
ENDROOT
BRANCH   2   3
HETATM    3  C6  UNL     1     -31.799   7.533   2.459  1.00 20.00     0.120 C 
BRANCH   3   4
HETATM    4  C7  UNL     1     -32.389   8.840   1.947  1.00 20.00     0.176 C 
BRANCH   4   5
HETATM    5  O8  UNL     1     -32.222   8.920   0.537  1.00 20.00    -0.400 OA
HETATM    6  H18 UNL     1     -31.296   9.168   0.380  1.00 20.00     0.209 HD
ENDBRANCH   4   5
ENDBRANCH   3   4
ENDBRANCH   2   3
BRANCH   1   7
HETATM    7  C4  UNL     1     -34.382   5.609   4.993  1.00 20.00    -0.018 C 
HETATM    8  C3  UNL     1     -35.237   4.703   4.496  1.00 20.00     0.028 C 
HETATM    9  C5  UNL     1     -34.341   5.937   6.456  1.00 20.00     0.057 C 
ENDBRANCH   1   7
TORSDOF 4
ENDMDL
MODEL 2
REMARK VINA RESULT:      -4.6      0.134      1.244
REMARK  4 active torsions:
REMARK  status: ('A' for Active; 'I' for Inactive)
REMARK    1  A    between atoms: C1_1  and  C4_4 
REMARK    2  A    between atoms: C2_2  and  C6_6 
REMARK    3  A    between atoms: C6_6  and  C7_7 
REMARK    4  A    between atoms: C7_7  and  O8_8 
ROOT
HETATM    1  C1  UNL     1     -33.421   6.368   4.129  1.00 20.00    -0.072 C 
HETATM    2  C2  UNL     1     -32.694   6.912   3.342  1.00 20.00    -0.099 C 
ENDROOT
BRANCH   2   3
HETATM    3  C6  UNL     1     -31.805   7.577   2.378  1.00 20.00     0.120 C 
BRANCH   3   4
HETATM    4  C7  UNL     1     -32.378   8.912   1.922  1.00 20.00     0.176 C 
BRANCH   4   5
HETATM    5  O8  UNL     1     -32.328   8.994   0.504  1.00 20.00    -0.400 OA
HETATM    6  H18 UNL     1     -31.542   8.500   0.223  1.00 20.00     0.209 HD
ENDBRANCH   4   5
ENDBRANCH   3   4
ENDBRANCH   2   3
BRANCH   1   7
HETATM    7  C4  UNL     1     -34.285   5.725   5.065  1.00 20.00    -0.018 C 
HETATM    8  C3  UNL     1     -34.274   6.118   6.347  1.00 20.00     0.028 C 
HETATM    9  C5  UNL     1     -35.186   4.626   4.583  1.00 20.00     0.057 C 
ENDBRANCH   1   7
TORSDOF 4
ENDMDL
MODEL 3
REMARK VINA RESULT:      -4.3      2.717      4.826
REMARK  4 active torsions:
REMARK  status: ('A' for Active; 'I' for Inactive)
REMARK    1  A    between atoms: C1_1  and  C4_4 
REMARK    2  A    between atoms: C2_2  and  C6_6 
REMARK    3  A    between atoms: C6_6  and  C7_7 
REMARK    4  A    between atoms: C7_7  and  O8_8 
ROOT
HETATM    1  C1  UNL     1     -33.134   6.601   3.537  1.00 20.00    -0.072 C 
HETATM    2  C2  UNL     1     -34.030   5.870   3.864  1.00 20.00    -0.099 C 
ENDROOT
BRANCH   2   3
HETATM    3  C6  UNL     1     -35.126   4.975   4.264  1.00 20.00     0.120 C 
BRANCH   3   4
HETATM    4  C7  UNL     1     -34.995   4.551   5.720  1.00 20.00     0.176 C 
BRANCH   4   5
HETATM    5  O8  UNL     1     -34.690   5.684   6.523  1.00 20.00    -0.400 OA
HETATM    6  H18 UNL     1     -33.752   5.613   6.762  1.00 20.00     0.209 HD
ENDBRANCH   4   5
ENDBRANCH   3   4
ENDBRANCH   2   3
BRANCH   1   7
HETATM    7  C4  UNL     1     -32.069   7.469   3.153  1.00 20.00    -0.018 C 
HETATM    8  C3  UNL     1     -31.064   7.694   4.011  1.00 20.00     0.028 C 
HETATM    9  C5  UNL     1     -32.106   8.105   1.794  1.00 20.00     0.057 C 
ENDBRANCH   1   7
TORSDOF 4
ENDMDL
MODEL 4
REMARK VINA RESULT:      -4.2     10.353     11.185
REMARK  4 active torsions:
REMARK  status: ('A' for Active; 'I' for Inactive)
REMARK    1  A    between atoms: C1_1  and  C4_4 
REMARK    2  A    between atoms: C2_2  and  C6_6 
REMARK    3  A    between atoms: C6_6  and  C7_7 
REMARK    4  A    between atoms: C7_7  and  O8_8 
ROOT
HETATM    1  C1  UNL     1     -34.677  16.518  -1.413  1.00 20.00    -0.072 C 
HETATM    2  C2  UNL     1     -34.980  15.806  -2.332  1.00 20.00    -0.099 C 
ENDROOT
BRANCH   2   3
HETATM    3  C6  UNL     1     -35.351  14.936  -3.458  1.00 20.00     0.120 C 
BRANCH   3   4
HETATM    4  C7  UNL     1     -34.356  13.797  -3.632  1.00 20.00     0.176 C 
BRANCH   4   5
HETATM    5  O8  UNL     1     -35.031  12.639  -4.106  1.00 20.00    -0.400 OA
HETATM    6  H18 UNL     1     -34.837  11.926  -3.476  1.00 20.00     0.209 HD
ENDBRANCH   4   5
ENDBRANCH   3   4
ENDBRANCH   2   3
BRANCH   1   7
HETATM    7  C4  UNL     1     -34.319  17.366  -0.323  1.00 20.00    -0.018 C 
HETATM    8  C3  UNL     1     -35.105  17.408   0.762  1.00 20.00     0.028 C 
HETATM    9  C5  UNL     1     -33.067  18.187  -0.424  1.00 20.00     0.057 C 
ENDBRANCH   1   7
TORSDOF 4
ENDMDL
MODEL 5
REMARK VINA RESULT:      -4.2     10.383     11.182
REMARK  4 active torsions:
REMARK  status: ('A' for Active; 'I' for Inactive)
REMARK    1  A    between atoms: C1_1  and  C4_4 
REMARK    2  A    between atoms: C2_2  and  C6_6 
REMARK    3  A    between atoms: C6_6  and  C7_7 
REMARK    4  A    between atoms: C7_7  and  O8_8 
ROOT
HETATM    1  C1  UNL     1     -34.680  16.505  -1.449  1.00 20.00    -0.072 C 
HETATM    2  C2  UNL     1     -35.006  15.790  -2.359  1.00 20.00    -0.099 C 
ENDROOT
BRANCH   2   3
HETATM    3  C6  UNL     1     -35.406  14.915  -3.471  1.00 20.00     0.120 C 
BRANCH   3   4
HETATM    4  C7  UNL     1     -34.403  13.789  -3.682  1.00 20.00     0.176 C 
BRANCH   4   5
HETATM    5  O8  UNL     1     -35.078  12.630  -4.153  1.00 20.00    -0.400 OA
HETATM    6  H18 UNL     1     -35.013  12.644  -5.122  1.00 20.00     0.209 HD
ENDBRANCH   4   5
ENDBRANCH   3   4
ENDBRANCH   2   3
BRANCH   1   7
HETATM    7  C4  UNL     1     -34.295  17.356  -0.371  1.00 20.00    -0.018 C 
HETATM    8  C3  UNL     1     -33.175  18.085  -0.479  1.00 20.00     0.028 C 
HETATM    9  C5  UNL     1     -35.159  17.410   0.854  1.00 20.00     0.057 C 
ENDBRANCH   1   7
TORSDOF 4
ENDMDL
MODEL 6
REMARK VINA RESULT:      -4.0     10.493     11.211
REMARK  4 active torsions:
REMARK  status: ('A' for Active; 'I' for Inactive)
REMARK    1  A    between atoms: C1_1  and  C4_4 
REMARK    2  A    between atoms: C2_2  and  C6_6 
REMARK    3  A    between atoms: C6_6  and  C7_7 
REMARK    4  A    between atoms: C7_7  and  O8_8 
ROOT
HETATM    1  C1  UNL     1     -34.416  16.448  -1.507  1.00 20.00    -0.072 C 
HETATM    2  C2  UNL     1     -34.566  15.670  -2.411  1.00 20.00    -0.099 C 
ENDROOT
BRANCH   2   3
HETATM    3  C6  UNL     1     -34.751  14.720  -3.518  1.00 20.00     0.120 C 
BRANCH   3   4
HETATM    4  C7  UNL     1     -33.500  13.882  -3.746  1.00 20.00     0.176 C 
BRANCH   4   5
HETATM    5  O8  UNL     1     -32.367  14.734  -3.854  1.00 20.00    -0.400 OA
HETATM    6  H18 UNL     1     -32.694  15.596  -4.159  1.00 20.00     0.209 HD
ENDBRANCH   4   5
ENDBRANCH   3   4
ENDBRANCH   2   3
BRANCH   1   7
HETATM    7  C4  UNL     1     -34.237  17.372  -0.436  1.00 20.00    -0.018 C 
HETATM    8  C3  UNL     1     -35.111  17.375   0.582  1.00 20.00     0.028 C 
HETATM    9  C5  UNL     1     -33.072  18.316  -0.479  1.00 20.00     0.057 C 
ENDBRANCH   1   7
TORSDOF 4
ENDMDL
MODEL 7
REMARK VINA RESULT:      -3.8      2.717      4.938
REMARK  4 active torsions:
REMARK  status: ('A' for Active; 'I' for Inactive)
REMARK    1  A    between atoms: C1_1  and  C4_4 
REMARK    2  A    between atoms: C2_2  and  C6_6 
REMARK    3  A    between atoms: C6_6  and  C7_7 
REMARK    4  A    between atoms: C7_7  and  O8_8 
ROOT
HETATM    1  C1  UNL     1     -32.695   7.616   2.550  1.00 20.00    -0.072 C 
HETATM    2  C2  UNL     1     -33.093   6.758   3.291  1.00 20.00    -0.099 C 
ENDROOT
BRANCH   2   3
HETATM    3  C6  UNL     1     -33.580   5.710   4.200  1.00 20.00     0.120 C 
BRANCH   3   4
HETATM    4  C7  UNL     1     -35.031   5.351   3.908  1.00 20.00     0.176 C 
BRANCH   4   5
HETATM    5  O8  UNL     1     -35.486   4.394   4.857  1.00 20.00    -0.400 OA
HETATM    6  H18 UNL     1     -34.741   3.798   5.032  1.00 20.00     0.209 HD
ENDBRANCH   4   5
ENDBRANCH   3   4
ENDBRANCH   2   3
BRANCH   1   7
HETATM    7  C4  UNL     1     -32.225   8.636   1.670  1.00 20.00    -0.018 C 
HETATM    8  C3  UNL     1     -31.401   8.307   0.664  1.00 20.00     0.028 C 
HETATM    9  C5  UNL     1     -32.670  10.051   1.897  1.00 20.00     0.057 C 
ENDBRANCH   1   7
TORSDOF 4
ENDMDL
MODEL 8
REMARK VINA RESULT:      -3.7     10.721     11.340
REMARK  4 active torsions:
REMARK  status: ('A' for Active; 'I' for Inactive)
REMARK    1  A    between atoms: C1_1  and  C4_4 
REMARK    2  A    between atoms: C2_2  and  C6_6 
REMARK    3  A    between atoms: C6_6  and  C7_7 
REMARK    4  A    between atoms: C7_7  and  O8_8 
ROOT
HETATM    1  C1  UNL     1     -34.431  15.502  -2.563  1.00 20.00    -0.072 C 
HETATM    2  C2  UNL     1     -34.270  16.388  -1.767  1.00 20.00    -0.099 C 
ENDROOT
BRANCH   2   3
HETATM    3  C6  UNL     1     -34.073  17.472  -0.793  1.00 20.00     0.120 C 
BRANCH   3   4
HETATM    4  C7  UNL     1     -35.018  17.334   0.393  1.00 20.00     0.176 C 
BRANCH   4   5
HETATM    5  O8  UNL     1     -36.312  17.799   0.030  1.00 20.00    -0.400 OA
HETATM    6  H18 UNL     1     -36.197  18.357  -0.756  1.00 20.00     0.209 HD
ENDBRANCH   4   5
ENDBRANCH   3   4
ENDBRANCH   2   3
BRANCH   1   7
HETATM    7  C4  UNL     1     -34.623  14.453  -3.510  1.00 20.00    -0.018 C 
HETATM    8  C3  UNL     1     -33.578  13.693  -3.869  1.00 20.00     0.028 C 
HETATM    9  C5  UNL     1     -35.994  14.229  -4.077  1.00 20.00     0.057 C 
ENDBRANCH   1   7
TORSDOF 4
ENDMDL
MODEL 9
REMARK VINA RESULT:      -3.6      9.474     10.678
REMARK  4 active torsions:
REMARK  status: ('A' for Active; 'I' for Inactive)
REMARK    1  A    between atoms: C1_1  and  C4_4 
REMARK    2  A    between atoms: C2_2  and  C6_6 
REMARK    3  A    between atoms: C6_6  and  C7_7 
REMARK    4  A    between atoms: C7_7  and  O8_8 
ROOT
HETATM    1  C1  UNL     1     -41.572   3.581  -2.178  1.00 20.00    -0.072 C 
HETATM    2  C2  UNL     1     -41.158   4.457  -1.468  1.00 20.00    -0.099 C 
ENDROOT
BRANCH   2   3
HETATM    3  C6  UNL     1     -40.651   5.530  -0.600  1.00 20.00     0.120 C 
BRANCH   3   4
HETATM    4  C7  UNL     1     -41.314   6.863  -0.917  1.00 20.00     0.176 C 
BRANCH   4   5
HETATM    5  O8  UNL     1     -40.883   7.321  -2.192  1.00 20.00    -0.400 OA
HETATM    6  H18 UNL     1     -40.331   8.104  -2.036  1.00 20.00     0.209 HD
ENDBRANCH   4   5
ENDBRANCH   3   4
ENDBRANCH   2   3
BRANCH   1   7
HETATM    7  C4  UNL     1     -42.064   2.537  -3.018  1.00 20.00    -0.018 C 
HETATM    8  C3  UNL     1     -43.355   2.184  -2.938  1.00 20.00     0.028 C 
HETATM    9  C5  UNL     1     -41.118   1.866  -3.969  1.00 20.00     0.057 C 
ENDBRANCH   1   7
TORSDOF 4
ENDMDL
