MODEL 1
REMARK VINA RESULT:      -5.0      0.000      0.000
REMARK  6 active torsions:
REMARK  status: ('A' for Active; 'I' for Inactive)
REMARK    1  A    between atoms: C2_2  and  C3_3 
REMARK    2  A    between atoms: C3_3  and  C4_4 
REMARK    3  A    between atoms: C4_4  and  C5_5 
REMARK    4  A    between atoms: C5_5  and  C6_6 
REMARK    5  A    between atoms: C6_6  and  C7_7 
REMARK    6  A    between atoms: C7_7  and  C8_8 
ROOT
HETATM    1  C4  UNL     1     -33.940   5.416   2.906  1.00 20.00     0.005 C 
ENDROOT
BRANCH   1   2
HETATM    2  C3  UNL     1     -34.983   5.785   3.969  1.00 20.00     0.050 C 
BRANCH   2   3
HETATM    3  C2  UNL     1     -34.645   5.322   5.359  1.00 20.00     0.002 C 
HETATM    4  C1  UNL     1     -34.826   4.070   5.797  1.00 20.00     0.032 C 
HETATM    5 CL9  UNL     1     -34.039   6.532   6.439  1.00 20.00    -0.090 Cl
ENDBRANCH   2   3
ENDBRANCH   1   2
BRANCH   1   6
HETATM    6  C5  UNL     1     -32.542   5.959   3.217  1.00 20.00     0.000 C 
BRANCH   6   7
HETATM    7  C6  UNL     1     -32.525   7.488   3.193  1.00 20.00     0.001 C 
BRANCH   7   8
HETATM    8  C7  UNL     1     -31.762   8.018   1.977  1.00 20.00     0.015 C 
BRANCH   8   9
HETATM    9  C8  UNL     1     -32.373   9.318   1.471  1.00 20.00     0.114 C 
HETATM   10 CL10 UNL     1     -32.821   9.166  -0.244  1.00 20.00    -0.130 Cl
ENDBRANCH   8   9
ENDBRANCH   7   8
ENDBRANCH   6   7
ENDBRANCH   1   6
TORSDOF 6
ENDMDL
MODEL 2
REMARK VINA RESULT:      -4.8      1.055      5.148
REMARK  6 active torsions:
REMARK  status: ('A' for Active; 'I' for Inactive)
REMARK    1  A    between atoms: C2_2  and  C3_3 
REMARK    2  A    between atoms: C3_3  and  C4_4 
REMARK    3  A    between atoms: C4_4  and  C5_5 
REMARK    4  A    between atoms: C5_5  and  C6_6 
REMARK    5  A    between atoms: C6_6  and  C7_7 
REMARK    6  A    between atoms: C7_7  and  C8_8 
ROOT
HETATM    1  C4  UNL     1     -32.158   6.192   2.976  1.00 20.00     0.005 C 
ENDROOT
BRANCH   1   2
HETATM    2  C3  UNL     1     -31.961   7.699   3.186  1.00 20.00     0.050 C 
BRANCH   2   3
HETATM    3  C2  UNL     1     -32.113   8.527   1.941  1.00 20.00     0.002 C 
HETATM    4  C1  UNL     1     -31.616   8.184   0.746  1.00 20.00     0.032 C 
HETATM    5 CL9  UNL     1     -32.945  10.034   2.125  1.00 20.00    -0.090 Cl
ENDBRANCH   2   3
ENDBRANCH   1   2
BRANCH   1   6
HETATM    6  C5  UNL     1     -33.622   5.799   2.759  1.00 20.00     0.000 C 
BRANCH   6   7
HETATM    7  C6  UNL     1     -34.487   6.209   3.952  1.00 20.00     0.001 C 
BRANCH   7   8
HETATM    8  C7  UNL     1     -35.021   4.986   4.699  1.00 20.00     0.015 C 
BRANCH   8   9
HETATM    9  C8  UNL     1     -34.705   5.070   6.187  1.00 20.00     0.114 C 
HETATM   10 CL10 UNL     1     -33.969   6.643   6.576  1.00 20.00    -0.130 Cl
ENDBRANCH   8   9
ENDBRANCH   7   8
ENDBRANCH   6   7
ENDBRANCH   1   6
TORSDOF 6
ENDMDL
MODEL 3
REMARK VINA RESULT:      -4.8      1.430      1.542
REMARK  6 active torsions:
REMARK  status: ('A' for Active; 'I' for Inactive)
REMARK    1  A    between atoms: C2_2  and  C3_3 
REMARK    2  A    between atoms: C3_3  and  C4_4 
REMARK    3  A    between atoms: C4_4  and  C5_5 
REMARK    4  A    between atoms: C5_5  and  C6_6 
REMARK    5  A    between atoms: C6_6  and  C7_7 
REMARK    6  A    between atoms: C7_7  and  C8_8 
ROOT
HETATM    1  C4  UNL     1     -33.528   5.673   2.956  1.00 20.00     0.005 C 
ENDROOT
BRANCH   1   2
HETATM    2  C3  UNL     1     -34.640   6.112   3.918  1.00 20.00     0.050 C 
BRANCH   2   3
HETATM    3  C2  UNL     1     -34.491   5.593   5.321  1.00 20.00     0.002 C 
HETATM    4  C1  UNL     1     -34.054   6.328   6.350  1.00 20.00     0.032 C 
HETATM    5 CL9  UNL     1     -34.870   3.920   5.558  1.00 20.00    -0.090 Cl
ENDBRANCH   2   3
ENDBRANCH   1   2
BRANCH   1   6
HETATM    6  C5  UNL     1     -32.172   6.312   3.271  1.00 20.00     0.000 C 
BRANCH   6   7
HETATM    7  C6  UNL     1     -32.154   7.792   2.885  1.00 20.00     0.001 C 
BRANCH   7   8
HETATM    8  C7  UNL     1     -31.811   7.978   1.406  1.00 20.00     0.015 C 
BRANCH   8   9
HETATM    9  C8  UNL     1     -32.332   9.312   0.887  1.00 20.00     0.114 C 
HETATM   10 CL10 UNL     1     -32.762  10.381   2.243  1.00 20.00    -0.130 Cl
ENDBRANCH   8   9
ENDBRANCH   7   8
ENDBRANCH   6   7
ENDBRANCH   1   6
TORSDOF 6
ENDMDL
MODEL 4
REMARK VINA RESULT:      -4.6      0.916      5.272
REMARK  6 active torsions:
REMARK  status: ('A' for Active; 'I' for Inactive)
REMARK    1  A    between atoms: C2_2  and  C3_3 
REMARK    2  A    between atoms: C3_3  and  C4_4 
REMARK    3  A    between atoms: C4_4  and  C5_5 
REMARK    4  A    between atoms: C5_5  and  C6_6 
REMARK    5  A    between atoms: C6_6  and  C7_7 
REMARK    6  A    between atoms: C7_7  and  C8_8 
ROOT
HETATM    1  C4  UNL     1     -32.094   6.345   2.860  1.00 20.00     0.005 C 
ENDROOT
BRANCH   1   2
HETATM    2  C3  UNL     1     -32.108   7.851   3.153  1.00 20.00     0.050 C 
BRANCH   2   3
HETATM    3  C2  UNL     1     -32.167   8.723   1.929  1.00 20.00     0.002 C 
HETATM    4  C1  UNL     1     -32.731   9.937   1.899  1.00 20.00     0.032 C 
HETATM    5 CL9  UNL     1     -31.499   8.049   0.481  1.00 20.00    -0.090 Cl
ENDBRANCH   2   3
ENDBRANCH   1   2
BRANCH   1   6
HETATM    6  C5  UNL     1     -33.495   5.735   2.768  1.00 20.00     0.000 C 
BRANCH   6   7
HETATM    7  C6  UNL     1     -34.380   6.202   3.926  1.00 20.00     0.001 C 
BRANCH   7   8
HETATM    8  C7  UNL     1     -35.000   5.016   4.667  1.00 20.00     0.015 C 
BRANCH   8   9
HETATM    9  C8  UNL     1     -34.734   5.106   6.164  1.00 20.00     0.114 C 
HETATM   10 CL10 UNL     1     -33.925   6.641   6.560  1.00 20.00    -0.130 Cl
ENDBRANCH   8   9
ENDBRANCH   7   8
ENDBRANCH   6   7
ENDBRANCH   1   6
TORSDOF 6
ENDMDL
MODEL 5
REMARK VINA RESULT:      -4.5      1.745      4.864
REMARK  6 active torsions:
REMARK  status: ('A' for Active; 'I' for Inactive)
REMARK    1  A    between atoms: C2_2  and  C3_3 
REMARK    2  A    between atoms: C3_3  and  C4_4 
REMARK    3  A    between atoms: C4_4  and  C5_5 
REMARK    4  A    between atoms: C5_5  and  C6_6 
REMARK    5  A    between atoms: C6_6  and  C7_7 
REMARK    6  A    between atoms: C7_7  and  C8_8 
ROOT
HETATM    1  C4  UNL     1     -33.847   5.607   2.649  1.00 20.00     0.005 C 
ENDROOT
BRANCH   1   2
HETATM    2  C3  UNL     1     -32.442   5.895   3.194  1.00 20.00     0.050 C 
BRANCH   2   3
HETATM    3  C2  UNL     1     -32.013   7.331   3.082  1.00 20.00     0.002 C 
HETATM    4  C1  UNL     1     -32.260   8.107   2.019  1.00 20.00     0.032 C 
HETATM    5 CL9  UNL     1     -31.098   7.959   4.411  1.00 20.00    -0.090 Cl
ENDBRANCH   2   3
ENDBRANCH   1   2
BRANCH   1   6
HETATM    6  C5  UNL     1     -34.945   5.735   3.709  1.00 20.00     0.000 C 
BRANCH   6   7
HETATM    7  C6  UNL     1     -35.145   4.417   4.461  1.00 20.00     0.001 C 
BRANCH   7   8
HETATM    8  C7  UNL     1     -35.182   4.639   5.973  1.00 20.00     0.015 C 
BRANCH   8   9
HETATM    9  C8  UNL     1     -33.838   5.139   6.488  1.00 20.00     0.114 C 
HETATM   10 CL10 UNL     1     -33.851   6.912   6.636  1.00 20.00    -0.130 Cl
ENDBRANCH   8   9
ENDBRANCH   7   8
ENDBRANCH   6   7
ENDBRANCH   1   6
TORSDOF 6
ENDMDL
MODEL 6
REMARK VINA RESULT:      -4.1     10.737     11.972
REMARK  6 active torsions:
REMARK  status: ('A' for Active; 'I' for Inactive)
REMARK    1  A    between atoms: C2_2  and  C3_3 
REMARK    2  A    between atoms: C3_3  and  C4_4 
REMARK    3  A    between atoms: C4_4  and  C5_5 
REMARK    4  A    between atoms: C5_5  and  C6_6 
REMARK    5  A    between atoms: C6_6  and  C7_7 
REMARK    6  A    between atoms: C7_7  and  C8_8 
ROOT
HETATM    1  C4  UNL     1     -34.120  13.924  -3.550  1.00 20.00     0.005 C 
ENDROOT
BRANCH   1   2
HETATM    2  C3  UNL     1     -34.490  13.379  -4.936  1.00 20.00     0.050 C 
BRANCH   2   3
HETATM    3  C2  UNL     1     -35.106  14.393  -5.860  1.00 20.00     0.002 C 
HETATM    4  C1  UNL     1     -34.581  14.749  -7.039  1.00 20.00     0.032 C 
HETATM    5 CL9  UNL     1     -36.553  15.158  -5.296  1.00 20.00    -0.090 Cl
ENDBRANCH   2   3
ENDBRANCH   1   2
BRANCH   1   6
HETATM    6  C5  UNL     1     -33.121  15.084  -3.604  1.00 20.00     0.000 C 
BRANCH   6   7
HETATM    7  C6  UNL     1     -33.691  16.337  -2.937  1.00 20.00     0.001 C 
BRANCH   7   8
HETATM    8  C7  UNL     1     -34.823  15.987  -1.970  1.00 20.00     0.015 C 
BRANCH   8   9
HETATM    9  C8  UNL     1     -34.671  16.738  -0.653  1.00 20.00     0.114 C 
HETATM   10 CL10 UNL     1     -33.271  17.834  -0.722  1.00 20.00    -0.130 Cl
ENDBRANCH   8   9
ENDBRANCH   7   8
ENDBRANCH   6   7
ENDBRANCH   1   6
TORSDOF 6
ENDMDL
MODEL 7
REMARK VINA RESULT:      -3.9     10.453     11.675
REMARK  6 active torsions:
REMARK  status: ('A' for Active; 'I' for Inactive)
REMARK    1  A    between atoms: C2_2  and  C3_3 
REMARK    2  A    between atoms: C3_3  and  C4_4 
REMARK    3  A    between atoms: C4_4  and  C5_5 
REMARK    4  A    between atoms: C5_5  and  C6_6 
REMARK    5  A    between atoms: C6_6  and  C7_7 
REMARK    6  A    between atoms: C7_7  and  C8_8 
ROOT
HETATM    1  C4  UNL     1     -34.571  16.681  -0.826  1.00 20.00     0.005 C 
ENDROOT
BRANCH   1   2
HETATM    2  C3  UNL     1     -33.599  17.856  -1.003  1.00 20.00     0.050 C 
BRANCH   2   3
HETATM    3  C2  UNL     1     -33.108  18.457   0.284  1.00 20.00     0.002 C 
HETATM    4  C1  UNL     1     -31.910  19.036   0.433  1.00 20.00     0.032 C 
HETATM    5 CL9  UNL     1     -34.172  18.321   1.643  1.00 20.00    -0.090 Cl
ENDBRANCH   2   3
ENDBRANCH   1   2
BRANCH   1   6
HETATM    6  C5  UNL     1     -34.779  15.872  -2.110  1.00 20.00     0.000 C 
BRANCH   6   7
HETATM    7  C6  UNL     1     -33.691  16.180  -3.141  1.00 20.00     0.001 C 
BRANCH   7   8
HETATM    8  C7  UNL     1     -33.074  14.897  -3.699  1.00 20.00     0.015 C 
BRANCH   8   9
HETATM    9  C8  UNL     1     -34.058  13.737  -3.624  1.00 20.00     0.114 C 
HETATM   10 CL10 UNL     1     -34.847  13.489  -5.199  1.00 20.00    -0.130 Cl
ENDBRANCH   8   9
ENDBRANCH   7   8
ENDBRANCH   6   7
ENDBRANCH   1   6
TORSDOF 6
ENDMDL
MODEL 8
REMARK VINA RESULT:      -3.8     10.876     11.581
REMARK  6 active torsions:
REMARK  status: ('A' for Active; 'I' for Inactive)
REMARK    1  A    between atoms: C2_2  and  C3_3 
REMARK    2  A    between atoms: C3_3  and  C4_4 
REMARK    3  A    between atoms: C4_4  and  C5_5 
REMARK    4  A    between atoms: C5_5  and  C6_6 
REMARK    5  A    between atoms: C6_6  and  C7_7 
REMARK    6  A    between atoms: C7_7  and  C8_8 
ROOT
HETATM    1  C4  UNL     1     -33.795  16.502  -2.795  1.00 20.00     0.005 C 
ENDROOT
BRANCH   1   2
HETATM    2  C3  UNL     1     -34.634  16.262  -1.533  1.00 20.00     0.050 C 
BRANCH   2   3
HETATM    3  C2  UNL     1     -34.368  17.231  -0.415  1.00 20.00     0.002 C 
HETATM    4  C1  UNL     1     -35.171  17.393   0.645  1.00 20.00     0.032 C 
HETATM    5 CL9  UNL     1     -32.952  18.214  -0.579  1.00 20.00    -0.090 Cl
ENDBRANCH   2   3
ENDBRANCH   1   2
BRANCH   1   6
HETATM    6  C5  UNL     1     -33.189  15.218  -3.370  1.00 20.00     0.000 C 
BRANCH   6   7
HETATM    7  C6  UNL     1     -34.239  14.111  -3.479  1.00 20.00     0.001 C 
BRANCH   7   8
HETATM    8  C7  UNL     1     -34.387  13.623  -4.921  1.00 20.00     0.015 C 
BRANCH   8   9
HETATM    9  C8  UNL     1     -35.364  14.496  -5.697  1.00 20.00     0.114 C 
HETATM   10 CL10 UNL     1     -34.829  14.677  -7.385  1.00 20.00    -0.130 Cl
ENDBRANCH   8   9
ENDBRANCH   7   8
ENDBRANCH   6   7
ENDBRANCH   1   6
TORSDOF 6
ENDMDL
MODEL 9
REMARK VINA RESULT:      -3.7     10.720     12.386
REMARK  6 active torsions:
REMARK  status: ('A' for Active; 'I' for Inactive)
REMARK    1  A    between atoms: C2_2  and  C3_3 
REMARK    2  A    between atoms: C3_3  and  C4_4 
REMARK    3  A    between atoms: C4_4  and  C5_5 
REMARK    4  A    between atoms: C5_5  and  C6_6 
REMARK    5  A    between atoms: C6_6  and  C7_7 
REMARK    6  A    between atoms: C7_7  and  C8_8 
ROOT
HETATM    1  C4  UNL     1     -34.785  13.484  -5.265  1.00 20.00     0.005 C 
ENDROOT
BRANCH   1   2
HETATM    2  C3  UNL     1     -35.105  13.809  -3.799  1.00 20.00     0.050 C 
BRANCH   2   3
HETATM    3  C2  UNL     1     -34.241  14.882  -3.197  1.00 20.00     0.002 C 
HETATM    4  C1  UNL     1     -34.695  15.836  -2.375  1.00 20.00     0.032 C 
HETATM    5 CL9  UNL     1     -32.575  14.872  -3.666  1.00 20.00    -0.090 Cl
ENDBRANCH   2   3
ENDBRANCH   1   2
BRANCH   1   6
HETATM    6  C5  UNL     1     -35.397  14.483  -6.251  1.00 20.00     0.000 C 
BRANCH   6   7
HETATM    7  C6  UNL     1     -34.324  15.101  -7.150  1.00 20.00     0.001 C 
BRANCH   7   8
HETATM    8  C7  UNL     1     -34.532  16.607  -7.311  1.00 20.00     0.015 C 
BRANCH   8   9
HETATM    9  C8  UNL     1     -34.907  17.254  -5.984  1.00 20.00     0.114 C 
HETATM   10 CL10 UNL     1     -33.462  17.925  -5.191  1.00 20.00    -0.130 Cl
ENDBRANCH   8   9
ENDBRANCH   7   8
ENDBRANCH   6   7
ENDBRANCH   1   6
TORSDOF 6
ENDMDL
