MODEL 1
REMARK VINA RESULT:      -4.1      0.000      0.000
REMARK  0 active torsions:
REMARK  status: ('A' for Active; 'I' for Inactive)
ROOT
HETATM    1  C1  UNL     1     -33.950   4.948   5.654  1.00 20.00     0.018 A 
HETATM    2  C2  UNL     1     -34.318   6.379   5.955  1.00 20.00     0.018 A 
HETATM    3  C3  UNL     1     -34.111   5.939   4.521  1.00 20.00     0.083 A 
HETATM    4  C4  UNL     1     -34.928   3.858   5.934  1.00 20.00     0.012 C 
HETATM    5  C5  UNL     1     -33.357   7.252   6.690  1.00 20.00     0.012 C 
HETATM    6 BR6  UNL     1     -32.541   6.446   3.555  1.00 20.00    -0.072 Br
HETATM    7 BR7  UNL     1     -35.646   5.884   3.380  1.00 20.00    -0.072 Br
ENDROOT
TORSDOF 0
ENDMDL
MODEL 2
REMARK VINA RESULT:      -4.1      0.025      2.768
REMARK  0 active torsions:
REMARK  status: ('A' for Active; 'I' for Inactive)
ROOT
HETATM    1  C1  UNL     1     -34.330   6.381   5.949  1.00 20.00     0.018 A 
HETATM    2  C2  UNL     1     -33.942   4.956   5.643  1.00 20.00     0.018 A 
HETATM    3  C3  UNL     1     -34.113   5.950   4.513  1.00 20.00     0.083 A 
HETATM    4  C4  UNL     1     -33.385   7.262   6.692  1.00 20.00     0.012 C 
HETATM    5  C5  UNL     1     -34.905   3.851   5.914  1.00 20.00     0.012 C 
HETATM    6 BR6  UNL     1     -35.641   5.880   3.368  1.00 20.00    -0.072 Br
HETATM    7 BR7  UNL     1     -32.546   6.484   3.556  1.00 20.00    -0.072 Br
ENDROOT
TORSDOF 0
ENDMDL
MODEL 3
REMARK VINA RESULT:      -3.9      2.179      3.423
REMARK  0 active torsions:
REMARK  status: ('A' for Active; 'I' for Inactive)
ROOT
HETATM    1  C1  UNL     1     -33.341   5.874   3.838  1.00 20.00     0.018 A 
HETATM    2  C2  UNL     1     -34.727   6.459   3.936  1.00 20.00     0.018 A 
HETATM    3  C3  UNL     1     -34.064   5.883   5.169  1.00 20.00     0.083 A 
HETATM    4  C4  UNL     1     -32.183   6.761   3.528  1.00 20.00     0.012 C 
HETATM    5  C5  UNL     1     -35.863   5.796   3.232  1.00 20.00     0.012 C 
HETATM    6 BR6  UNL     1     -34.620   4.203   5.889  1.00 20.00    -0.072 Br
HETATM    7 BR7  UNL     1     -33.555   7.102   6.553  1.00 20.00    -0.072 Br
ENDROOT
TORSDOF 0
ENDMDL
MODEL 4
REMARK VINA RESULT:      -3.9      2.179      2.830
REMARK  0 active torsions:
REMARK  status: ('A' for Active; 'I' for Inactive)
ROOT
HETATM    1  C1  UNL     1     -34.745   6.452   3.949  1.00 20.00     0.018 A 
HETATM    2  C2  UNL     1     -33.360   5.864   3.844  1.00 20.00     0.018 A 
HETATM    3  C3  UNL     1     -34.072   5.882   5.180  1.00 20.00     0.083 A 
HETATM    4  C4  UNL     1     -35.886   5.787   3.257  1.00 20.00     0.012 C 
HETATM    5  C5  UNL     1     -32.203   6.747   3.520  1.00 20.00     0.012 C 
HETATM    6 BR6  UNL     1     -33.550   7.105   6.553  1.00 20.00    -0.072 Br
HETATM    7 BR7  UNL     1     -34.626   4.204   5.913  1.00 20.00    -0.072 Br
ENDROOT
TORSDOF 0
ENDMDL
MODEL 5
REMARK VINA RESULT:      -3.5     12.448     13.235
REMARK  0 active torsions:
REMARK  status: ('A' for Active; 'I' for Inactive)
ROOT
HETATM    1  C1  UNL     1     -34.192  15.660  -2.755  1.00 20.00     0.018 A 
HETATM    2  C2  UNL     1     -34.368  16.341  -4.089  1.00 20.00     0.018 A 
HETATM    3  C3  UNL     1     -35.091  15.041  -3.806  1.00 20.00     0.083 A 
HETATM    4  C4  UNL     1     -34.708  16.312  -1.518  1.00 20.00     0.012 C 
HETATM    5  C5  UNL     1     -33.211  16.447  -5.024  1.00 20.00     0.012 C 
HETATM    6 BR6  UNL     1     -34.519  13.404  -4.610  1.00 20.00    -0.072 Br
HETATM    7 BR7  UNL     1     -36.995  15.105  -3.630  1.00 20.00    -0.072 Br
ENDROOT
TORSDOF 0
ENDMDL
MODEL 6
REMARK VINA RESULT:      -3.5     12.451     13.318
REMARK  0 active torsions:
REMARK  status: ('A' for Active; 'I' for Inactive)
ROOT
HETATM    1  C1  UNL     1     -34.368  16.337  -4.100  1.00 20.00     0.018 A 
HETATM    2  C2  UNL     1     -34.190  15.655  -2.766  1.00 20.00     0.018 A 
HETATM    3  C3  UNL     1     -35.091  15.037  -3.815  1.00 20.00     0.083 A 
HETATM    4  C4  UNL     1     -33.213  16.443  -5.036  1.00 20.00     0.012 C 
HETATM    5  C5  UNL     1     -34.704  16.307  -1.527  1.00 20.00     0.012 C 
HETATM    6 BR6  UNL     1     -36.993  15.100  -3.636  1.00 20.00    -0.072 Br
HETATM    7 BR7  UNL     1     -34.520  13.399  -4.621  1.00 20.00    -0.072 Br
ENDROOT
TORSDOF 0
ENDMDL
MODEL 7
REMARK VINA RESULT:      -3.4     12.704     13.544
REMARK  0 active torsions:
REMARK  status: ('A' for Active; 'I' for Inactive)
ROOT
HETATM    1  C1  UNL     1     -34.547  15.756  -2.617  1.00 20.00     0.018 A 
HETATM    2  C2  UNL     1     -33.470  15.156  -3.485  1.00 20.00     0.018 A 
HETATM    3  C3  UNL     1     -34.450  16.147  -4.077  1.00 20.00     0.083 A 
HETATM    4  C4  UNL     1     -34.172  16.668  -1.498  1.00 20.00     0.012 C 
HETATM    5  C5  UNL     1     -33.496  13.697  -3.793  1.00 20.00     0.012 C 
HETATM    6 BR6  UNL     1     -35.847  15.569  -5.245  1.00 20.00    -0.072 Br
HETATM    7 BR7  UNL     1     -33.775  17.862  -4.591  1.00 20.00    -0.072 Br
ENDROOT
TORSDOF 0
ENDMDL
MODEL 8
REMARK VINA RESULT:      -3.4     12.658     13.294
REMARK  0 active torsions:
REMARK  status: ('A' for Active; 'I' for Inactive)
ROOT
HETATM    1  C1  UNL     1     -33.442  15.136  -3.474  1.00 20.00     0.018 A 
HETATM    2  C2  UNL     1     -34.538  15.709  -2.611  1.00 20.00     0.018 A 
HETATM    3  C3  UNL     1     -34.454  16.091  -4.074  1.00 20.00     0.083 A 
HETATM    4  C4  UNL     1     -33.420  13.675  -3.769  1.00 20.00     0.012 C 
HETATM    5  C5  UNL     1     -34.193  16.643  -1.500  1.00 20.00     0.012 C 
HETATM    6 BR6  UNL     1     -33.837  17.821  -4.603  1.00 20.00    -0.072 Br
HETATM    7 BR7  UNL     1     -35.834  15.455  -5.237  1.00 20.00    -0.072 Br
ENDROOT
TORSDOF 0
ENDMDL
MODEL 9
REMARK VINA RESULT:      -3.3     12.443     13.150
REMARK  0 active torsions:
REMARK  status: ('A' for Active; 'I' for Inactive)
ROOT
HETATM    1  C1  UNL     1     -34.980  14.078  -3.737  1.00 20.00     0.018 A 
HETATM    2  C2  UNL     1     -35.979  15.095  -4.229  1.00 20.00     0.018 A 
HETATM    3  C3  UNL     1     -34.687  15.557  -3.587  1.00 20.00     0.083 A 
HETATM    4  C4  UNL     1     -34.278  13.199  -4.714  1.00 20.00     0.012 C 
HETATM    5  C5  UNL     1     -37.309  15.209  -3.563  1.00 20.00     0.012 C 
HETATM    6 BR6  UNL     1     -34.673  16.284  -1.820  1.00 20.00    -0.072 Br
HETATM    7 BR7  UNL     1     -33.399  16.420  -4.708  1.00 20.00    -0.072 Br
ENDROOT
TORSDOF 0
ENDMDL
