MODEL 1
REMARK VINA RESULT:      -4.4      0.000      0.000
REMARK  0 active torsions:
REMARK  status: ('A' for Active; 'I' for Inactive)
ROOT
HETATM    1  C1  UNL     1     -34.699  13.572  -4.039  1.00 20.00     0.064 C 
HETATM    2  C2  UNL     1     -34.480  17.141  -4.656  1.00 20.00     0.005 C 
HETATM    3  C3  UNL     1     -33.299  16.160  -4.623  1.00 20.00     0.006 C 
HETATM    4  C4  UNL     1     -35.789  15.646  -3.135  1.00 20.00     0.024 C 
HETATM    5  C5  UNL     1     -33.822  16.784  -2.396  1.00 20.00     0.010 C 
HETATM    6  C6  UNL     1     -34.619  14.647  -3.047  1.00 20.00     0.097 C 
HETATM    7  C7  UNL     1     -35.075  17.008  -3.244  1.00 20.00    -0.013 C 
HETATM    8  C8  UNL     1     -33.382  15.560  -3.205  1.00 20.00     0.003 C 
HETATM    9  N9  UNL     1     -34.763  12.720  -4.824  1.00 20.00    -0.197 NA
ENDROOT
TORSDOF 0
ENDMDL
MODEL 2
REMARK VINA RESULT:      -4.4      1.793      2.618
REMARK  0 active torsions:
REMARK  status: ('A' for Active; 'I' for Inactive)
ROOT
HETATM    1  C1  UNL     1     -37.117  14.711  -3.632  1.00 20.00     0.064 C 
HETATM    2  C2  UNL     1     -34.406  14.584  -6.041  1.00 20.00     0.005 C 
HETATM    3  C3  UNL     1     -34.838  13.439  -5.114  1.00 20.00     0.006 C 
HETATM    4  C4  UNL     1     -35.306  16.264  -4.421  1.00 20.00     0.024 C 
HETATM    5  C5  UNL     1     -33.418  14.897  -3.898  1.00 20.00     0.010 C 
HETATM    6  C6  UNL     1     -35.732  15.150  -3.443  1.00 20.00     0.097 C 
HETATM    7  C7  UNL     1     -34.020  15.697  -5.054  1.00 20.00    -0.013 C 
HETATM    8  C8  UNL     1     -34.680  14.049  -3.707  1.00 20.00     0.003 C 
HETATM    9  N9  UNL     1     -38.213  14.364  -3.782  1.00 20.00    -0.197 NA
ENDROOT
TORSDOF 0
ENDMDL
MODEL 3
REMARK VINA RESULT:      -4.4      0.903      2.105
REMARK  0 active torsions:
REMARK  status: ('A' for Active; 'I' for Inactive)
ROOT
HETATM    1  C1  UNL     1     -34.486  13.714  -4.736  1.00 20.00     0.064 C 
HETATM    2  C2  UNL     1     -34.786  16.006  -1.940  1.00 20.00     0.005 C 
HETATM    3  C3  UNL     1     -35.857  15.749  -3.009  1.00 20.00     0.006 C 
HETATM    4  C4  UNL     1     -32.990  15.346  -3.550  1.00 20.00     0.024 C 
HETATM    5  C5  UNL     1     -34.300  17.319  -3.865  1.00 20.00     0.010 C 
HETATM    6  C6  UNL     1     -34.025  15.103  -4.666  1.00 20.00     0.097 C 
HETATM    7  C7  UNL     1     -33.597  16.525  -2.764  1.00 20.00    -0.013 C 
HETATM    8  C8  UNL     1     -35.138  16.120  -4.321  1.00 20.00     0.003 C 
HETATM    9  N9  UNL     1     -34.851  12.615  -4.793  1.00 20.00    -0.197 NA
ENDROOT
TORSDOF 0
ENDMDL
MODEL 4
REMARK VINA RESULT:      -4.3      1.493      2.448
REMARK  0 active torsions:
REMARK  status: ('A' for Active; 'I' for Inactive)
ROOT
HETATM    1  C1  UNL     1     -36.693  14.482  -4.090  1.00 20.00     0.064 C 
HETATM    2  C2  UNL     1     -34.033  16.215  -2.334  1.00 20.00     0.005 C 
HETATM    3  C3  UNL     1     -35.099  16.872  -3.223  1.00 20.00     0.006 C 
HETATM    4  C4  UNL     1     -34.263  14.073  -3.605  1.00 20.00     0.024 C 
HETATM    5  C5  UNL     1     -33.365  16.044  -4.613  1.00 20.00     0.010 C 
HETATM    6  C6  UNL     1     -35.315  14.697  -4.542  1.00 20.00     0.097 C 
HETATM    7  C7  UNL     1     -33.322  15.256  -3.303  1.00 20.00    -0.013 C 
HETATM    8  C8  UNL     1     -34.891  16.182  -4.586  1.00 20.00     0.003 C 
HETATM    9  N9  UNL     1     -37.783  14.313  -3.733  1.00 20.00    -0.197 NA
ENDROOT
TORSDOF 0
ENDMDL
MODEL 5
REMARK VINA RESULT:      -4.3      2.194      3.371
REMARK  0 active torsions:
REMARK  status: ('A' for Active; 'I' for Inactive)
ROOT
HETATM    1  C1  UNL     1     -33.461  17.361  -4.869  1.00 20.00     0.064 C 
HETATM    2  C2  UNL     1     -35.625  14.777  -3.524  1.00 20.00     0.005 C 
HETATM    3  C3  UNL     1     -34.589  15.586  -2.729  1.00 20.00     0.006 C 
HETATM    4  C4  UNL     1     -34.311  15.121  -5.625  1.00 20.00     0.024 C 
HETATM    5  C5  UNL     1     -33.474  13.800  -3.819  1.00 20.00     0.010 C 
HETATM    6  C6  UNL     1     -33.229  15.914  -4.864  1.00 20.00     0.097 C 
HETATM    7  C7  UNL     1     -34.767  14.075  -4.589  1.00 20.00    -0.013 C 
HETATM    8  C8  UNL     1     -33.267  15.274  -3.458  1.00 20.00     0.003 C 
HETATM    9  N9  UNL     1     -33.645  18.506  -4.872  1.00 20.00    -0.197 NA
ENDROOT
TORSDOF 0
ENDMDL
MODEL 6
REMARK VINA RESULT:      -4.2      2.112      3.112
REMARK  0 active torsions:
REMARK  status: ('A' for Active; 'I' for Inactive)
ROOT
HETATM    1  C1  UNL     1     -34.792  16.332  -1.878  1.00 20.00     0.064 C 
HETATM    2  C2  UNL     1     -33.504  13.591  -3.876  1.00 20.00     0.005 C 
HETATM    3  C3  UNL     1     -32.773  14.908  -3.581  1.00 20.00     0.006 C 
HETATM    4  C4  UNL     1     -35.713  14.726  -3.575  1.00 20.00     0.024 C 
HETATM    5  C5  UNL     1     -34.259  15.263  -5.394  1.00 20.00     0.010 C 
HETATM    6  C6  UNL     1     -35.025  16.078  -3.302  1.00 20.00     0.097 C 
HETATM    7  C7  UNL     1     -34.775  14.060  -4.602  1.00 20.00    -0.013 C 
HETATM    8  C8  UNL     1     -33.732  15.976  -4.144  1.00 20.00     0.003 C 
HETATM    9  N9  UNL     1     -34.607  16.534  -0.751  1.00 20.00    -0.197 NA
ENDROOT
TORSDOF 0
ENDMDL
MODEL 7
REMARK VINA RESULT:      -4.2      1.728      2.874
REMARK  0 active torsions:
REMARK  status: ('A' for Active; 'I' for Inactive)
ROOT
HETATM    1  C1  UNL     1     -34.744  15.212  -6.622  1.00 20.00     0.064 C 
HETATM    2  C2  UNL     1     -33.202  13.781  -3.665  1.00 20.00     0.005 C 
HETATM    3  C3  UNL     1     -34.604  13.452  -4.195  1.00 20.00     0.006 C 
HETATM    4  C4  UNL     1     -33.304  16.039  -4.737  1.00 20.00     0.024 C 
HETATM    5  C5  UNL     1     -34.732  15.444  -2.916  1.00 20.00     0.010 C 
HETATM    6  C6  UNL     1     -34.726  15.766  -5.266  1.00 20.00     0.097 C 
HETATM    7  C7  UNL     1     -33.286  15.291  -3.389  1.00 20.00    -0.013 C 
HETATM    8  C8  UNL     1     -35.311  14.822  -4.191  1.00 20.00     0.003 C 
HETATM    9  N9  UNL     1     -34.758  14.772  -7.696  1.00 20.00    -0.197 NA
ENDROOT
TORSDOF 0
ENDMDL
MODEL 8
REMARK VINA RESULT:      -4.2     11.324     12.743
REMARK  0 active torsions:
REMARK  status: ('A' for Active; 'I' for Inactive)
ROOT
HETATM    1  C1  UNL     1     -42.902   6.952  -2.886  1.00 20.00     0.064 C 
HETATM    2  C2  UNL     1     -40.762   4.553  -1.204  1.00 20.00     0.005 C 
HETATM    3  C3  UNL     1     -42.231   4.330  -1.591  1.00 20.00     0.006 C 
HETATM    4  C4  UNL     1     -41.145   7.022  -1.093  1.00 20.00     0.024 C 
HETATM    5  C5  UNL     1     -42.165   5.519   0.459  1.00 20.00     0.010 C 
HETATM    6  C6  UNL     1     -42.634   6.847  -1.449  1.00 20.00     0.097 C 
HETATM    7  C7  UNL     1     -40.837   5.763  -0.259  1.00 20.00    -0.013 C 
HETATM    8  C8  UNL     1     -42.966   5.462  -0.846  1.00 20.00     0.003 C 
HETATM    9  N9  UNL     1     -43.115   7.035  -4.023  1.00 20.00    -0.197 NA
ENDROOT
TORSDOF 0
ENDMDL
MODEL 9
REMARK VINA RESULT:      -4.1     11.740     13.031
REMARK  0 active torsions:
REMARK  status: ('A' for Active; 'I' for Inactive)
ROOT
HETATM    1  C1  UNL     1     -42.628   7.731  -0.900  1.00 20.00     0.064 C 
HETATM    2  C2  UNL     1     -42.882   4.120  -0.640  1.00 20.00     0.005 C 
HETATM    3  C3  UNL     1     -42.404   5.070   0.469  1.00 20.00     0.006 C 
HETATM    4  C4  UNL     1     -42.157   5.760  -2.385  1.00 20.00     0.024 C 
HETATM    5  C5  UNL     1     -40.583   4.633  -0.985  1.00 20.00     0.010 C 
HETATM    6  C6  UNL     1     -41.636   6.733  -1.309  1.00 20.00     0.097 C 
HETATM    7  C7  UNL     1     -41.870   4.376  -1.769  1.00 20.00    -0.013 C 
HETATM    8  C8  UNL     1     -41.196   5.779  -0.175  1.00 20.00     0.003 C 
HETATM    9  N9  UNL     1     -43.413   8.520  -0.576  1.00 20.00    -0.197 NA
ENDROOT
TORSDOF 0
ENDMDL
