MODEL 1
REMARK VINA RESULT:      -4.0      0.000      0.000
REMARK  3 active torsions:
REMARK  status: ('A' for Active; 'I' for Inactive)
REMARK    1  A    between atoms: C1_1  and  C3_3 
REMARK    2  A    between atoms: C1_1  and  N4_4 
REMARK    3  A    between atoms: C2_2  and  C3_3 
ROOT
HETATM    1  C1  UNL     1     -32.680   6.093   3.391  1.00 20.00     0.222 C 
ENDROOT
BRANCH   1   2
HETATM    2  C3  UNL     1     -34.007   6.364   4.091  1.00 20.00     0.120 C 
HETATM    3 CL8  UNL     1     -33.762   6.554   5.861  1.00 20.00    -0.122 Cl
BRANCH   2   4
HETATM    4  C2  UNL     1     -35.053   5.281   3.817  1.00 20.00     0.136 C 
HETATM    5 CL7  UNL     1     -35.154   4.046   5.097  1.00 20.00    -0.129 Cl
ENDBRANCH   2   4
ENDBRANCH   1   2
BRANCH   1   6
HETATM    6  N4  UNL     1     -32.002   7.380   3.141  1.00 20.00    -0.154 N 
HETATM    7  O5  UNL     1     -31.184   7.769   3.992  1.00 20.00    -0.536 OA
HETATM    8  O6  UNL     1     -32.278   7.983   2.092  1.00 20.00    -0.536 OA
ENDBRANCH   1   6
TORSDOF 3
ENDMDL
MODEL 2
REMARK VINA RESULT:      -3.9     11.346     11.890
REMARK  3 active torsions:
REMARK  status: ('A' for Active; 'I' for Inactive)
REMARK    1  A    between atoms: C1_1  and  C3_3 
REMARK    2  A    between atoms: C1_1  and  N4_4 
REMARK    3  A    between atoms: C2_2  and  C3_3 
ROOT
HETATM    1  C1  UNL     1     -35.052  14.772  -3.537  1.00 20.00     0.222 C 
ENDROOT
BRANCH   1   2
HETATM    2  C3  UNL     1     -34.031  15.689  -2.873  1.00 20.00     0.120 C 
HETATM    3 CL8  UNL     1     -34.632  16.255  -1.277  1.00 20.00    -0.122 Cl
BRANCH   2   4
HETATM    4  C2  UNL     1     -33.652  16.886  -3.749  1.00 20.00     0.136 C 
HETATM    5 CL7  UNL     1     -33.351  16.457  -5.452  1.00 20.00    -0.129 Cl
ENDBRANCH   2   4
ENDBRANCH   1   2
BRANCH   1   6
HETATM    6  N4  UNL     1     -34.390  13.502  -3.896  1.00 20.00    -0.154 N 
HETATM    7  O5  UNL     1     -33.182  13.394  -3.628  1.00 20.00    -0.536 OA
HETATM    8  O6  UNL     1     -35.083  12.620  -4.426  1.00 20.00    -0.536 OA
ENDBRANCH   1   6
TORSDOF 3
ENDMDL
MODEL 3
REMARK VINA RESULT:      -3.7      1.422      2.393
REMARK  3 active torsions:
REMARK  status: ('A' for Active; 'I' for Inactive)
REMARK    1  A    between atoms: C1_1  and  C3_3 
REMARK    2  A    between atoms: C1_1  and  N4_4 
REMARK    3  A    between atoms: C2_2  and  C3_3 
ROOT
HETATM    1  C1  UNL     1     -34.103   6.544   3.874  1.00 20.00     0.222 C 
ENDROOT
BRANCH   1   2
HETATM    2  C3  UNL     1     -34.040   5.473   4.957  1.00 20.00     0.120 C 
HETATM    3 CL8  UNL     1     -35.175   4.130   4.586  1.00 20.00    -0.122 Cl
BRANCH   2   4
HETATM    4  C2  UNL     1     -34.320   6.029   6.356  1.00 20.00     0.136 C 
HETATM    5 CL7  UNL     1     -33.251   7.379   6.813  1.00 20.00    -0.129 Cl
ENDBRANCH   2   4
ENDBRANCH   1   2
BRANCH   1   6
HETATM    6  N4  UNL     1     -32.774   6.662   3.243  1.00 20.00    -0.154 N 
HETATM    7  O5  UNL     1     -32.017   5.679   3.319  1.00 20.00    -0.536 OA
HETATM    8  O6  UNL     1     -32.502   7.725   2.664  1.00 20.00    -0.536 OA
ENDBRANCH   1   6
TORSDOF 3
ENDMDL
MODEL 4
REMARK VINA RESULT:      -3.7     11.158     11.603
REMARK  3 active torsions:
REMARK  status: ('A' for Active; 'I' for Inactive)
REMARK    1  A    between atoms: C1_1  and  C3_3 
REMARK    2  A    between atoms: C1_1  and  N4_4 
REMARK    3  A    between atoms: C2_2  and  C3_3 
ROOT
HETATM    1  C1  UNL     1     -34.391  14.819  -4.439  1.00 20.00     0.222 C 
ENDROOT
BRANCH   1   2
HETATM    2  C3  UNL     1     -35.002  15.274  -3.118  1.00 20.00     0.120 C 
HETATM    3 CL8  UNL     1     -36.605  16.039  -3.393  1.00 20.00    -0.122 Cl
BRANCH   2   4
HETATM    4  C2  UNL     1     -34.090  16.227  -2.340  1.00 20.00     0.136 C 
HETATM    5 CL7  UNL     1     -34.659  16.567  -0.687  1.00 20.00    -0.129 Cl
ENDBRANCH   2   4
ENDBRANCH   1   2
BRANCH   1   6
HETATM    6  N4  UNL     1     -34.043  13.389  -4.335  1.00 20.00    -0.154 N 
HETATM    7  O5  UNL     1     -34.839  12.571  -4.826  1.00 20.00    -0.536 OA
HETATM    8  O6  UNL     1     -32.973  13.094  -3.779  1.00 20.00    -0.536 OA
ENDBRANCH   1   6
TORSDOF 3
ENDMDL
MODEL 5
REMARK VINA RESULT:      -3.6     11.478     12.052
REMARK  3 active torsions:
REMARK  status: ('A' for Active; 'I' for Inactive)
REMARK    1  A    between atoms: C1_1  and  C3_3 
REMARK    2  A    between atoms: C1_1  and  N4_4 
REMARK    3  A    between atoms: C2_2  and  C3_3 
ROOT
HETATM    1  C1  UNL     1     -34.271  14.405  -3.409  1.00 20.00     0.222 C 
ENDROOT
BRANCH   1   2
HETATM    2  C3  UNL     1     -34.436  15.853  -3.859  1.00 20.00     0.120 C 
HETATM    3 CL8  UNL     1     -33.436  16.181  -5.315  1.00 20.00    -0.122 Cl
BRANCH   2   4
HETATM    4  C2  UNL     1     -34.102  16.858  -2.752  1.00 20.00     0.136 C 
HETATM    5 CL7  UNL     1     -34.642  16.343  -1.135  1.00 20.00    -0.129 Cl
ENDBRANCH   2   4
ENDBRANCH   1   2
BRANCH   1   6
HETATM    6  N4  UNL     1     -35.247  13.567  -4.132  1.00 20.00    -0.154 N 
HETATM    7  O5  UNL     1     -34.807  12.587  -4.756  1.00 20.00    -0.536 OA
HETATM    8  O6  UNL     1     -36.445  13.884  -4.059  1.00 20.00    -0.536 OA
ENDBRANCH   1   6
TORSDOF 3
ENDMDL
MODEL 6
REMARK VINA RESULT:      -3.5      1.500      1.795
REMARK  3 active torsions:
REMARK  status: ('A' for Active; 'I' for Inactive)
REMARK    1  A    between atoms: C1_1  and  C3_3 
REMARK    2  A    between atoms: C1_1  and  N4_4 
REMARK    3  A    between atoms: C2_2  and  C3_3 
ROOT
HETATM    1  C1  UNL     1     -33.481   7.145   4.007  1.00 20.00     0.222 C 
ENDROOT
BRANCH   1   2
HETATM    2  C3  UNL     1     -34.071   5.802   4.424  1.00 20.00     0.120 C 
HETATM    3 CL8  UNL     1     -35.602   5.481   3.538  1.00 20.00    -0.122 Cl
BRANCH   2   4
HETATM    4  C2  UNL     1     -34.304   5.701   5.934  1.00 20.00     0.136 C 
HETATM    5 CL7  UNL     1     -35.237   4.261   6.416  1.00 20.00    -0.129 Cl
ENDBRANCH   2   4
ENDBRANCH   1   2
BRANCH   1   6
HETATM    6  N4  UNL     1     -32.383   6.906   3.051  1.00 20.00    -0.154 N 
HETATM    7  O5  UNL     1     -31.942   5.748   2.966  1.00 20.00    -0.536 OA
HETATM    8  O6  UNL     1     -31.980   7.871   2.381  1.00 20.00    -0.536 OA
ENDBRANCH   1   6
TORSDOF 3
ENDMDL
MODEL 7
REMARK VINA RESULT:      -3.5     12.072     12.540
REMARK  3 active torsions:
REMARK  status: ('A' for Active; 'I' for Inactive)
REMARK    1  A    between atoms: C1_1  and  C3_3 
REMARK    2  A    between atoms: C1_1  and  N4_4 
REMARK    3  A    between atoms: C2_2  and  C3_3 
ROOT
HETATM    1  C1  UNL     1     -34.740  14.883  -3.750  1.00 20.00     0.222 C 
ENDROOT
BRANCH   1   2
HETATM    2  C3  UNL     1     -33.979  15.803  -4.699  1.00 20.00     0.120 C 
HETATM    3 CL8  UNL     1     -33.599  17.366  -3.897  1.00 20.00    -0.122 Cl
BRANCH   2   4
HETATM    4  C2  UNL     1     -34.730  16.052  -6.010  1.00 20.00     0.136 C 
HETATM    5 CL7  UNL     1     -34.396  14.833  -7.266  1.00 20.00    -0.129 Cl
ENDBRANCH   2   4
ENDBRANCH   1   2
BRANCH   1   6
HETATM    6  N4  UNL     1     -34.274  13.498  -3.956  1.00 20.00    -0.154 N 
HETATM    7  O5  UNL     1     -35.097  12.679  -4.397  1.00 20.00    -0.536 OA
HETATM    8  O6  UNL     1     -33.089  13.242  -3.690  1.00 20.00    -0.536 OA
ENDBRANCH   1   6
TORSDOF 3
ENDMDL
MODEL 8
REMARK VINA RESULT:      -3.5     11.340     11.650
REMARK  3 active torsions:
REMARK  status: ('A' for Active; 'I' for Inactive)
REMARK    1  A    between atoms: C1_1  and  C3_3 
REMARK    2  A    between atoms: C1_1  and  N4_4 
REMARK    3  A    between atoms: C2_2  and  C3_3 
ROOT
HETATM    1  C1  UNL     1     -34.671  14.848  -4.276  1.00 20.00     0.222 C 
ENDROOT
BRANCH   1   2
HETATM    2  C3  UNL     1     -35.691  15.105  -3.172  1.00 20.00     0.120 C 
HETATM    3 CL8  UNL     1     -37.363  15.048  -3.829  1.00 20.00    -0.122 Cl
BRANCH   2   4
HETATM    4  C2  UNL     1     -35.455  16.432  -2.445  1.00 20.00     0.136 C 
HETATM    5 CL7  UNL     1     -33.771  16.662  -1.910  1.00 20.00    -0.129 Cl
ENDBRANCH   2   4
ENDBRANCH   1   2
BRANCH   1   6
HETATM    6  N4  UNL     1     -34.226  13.443  -4.196  1.00 20.00    -0.154 N 
HETATM    7  O5  UNL     1     -33.115  13.224  -3.685  1.00 20.00    -0.536 OA
HETATM    8  O6  UNL     1     -34.995  12.569  -4.628  1.00 20.00    -0.536 OA
ENDBRANCH   1   6
TORSDOF 3
ENDMDL
MODEL 9
REMARK VINA RESULT:      -3.5     11.666     12.217
REMARK  3 active torsions:
REMARK  status: ('A' for Active; 'I' for Inactive)
REMARK    1  A    between atoms: C1_1  and  C3_3 
REMARK    2  A    between atoms: C1_1  and  N4_4 
REMARK    3  A    between atoms: C2_2  and  C3_3 
ROOT
HETATM    1  C1  UNL     1     -35.937  15.605  -3.651  1.00 20.00     0.222 C 
ENDROOT
BRANCH   1   2
HETATM    2  C3  UNL     1     -34.641  15.378  -2.881  1.00 20.00     0.120 C 
HETATM    3 CL8  UNL     1     -34.670  16.262  -1.316  1.00 20.00    -0.122 Cl
BRANCH   2   4
HETATM    4  C2  UNL     1     -33.398  15.769  -3.685  1.00 20.00     0.136 C 
HETATM    5 CL7  UNL     1     -33.710  15.973  -5.426  1.00 20.00    -0.129 Cl
ENDBRANCH   2   4
ENDBRANCH   1   2
BRANCH   1   6
HETATM    6  N4  UNL     1     -36.581  14.300  -3.896  1.00 20.00    -0.154 N 
HETATM    7  O5  UNL     1     -35.847  13.357  -4.236  1.00 20.00    -0.536 OA
HETATM    8  O6  UNL     1     -37.809  14.222  -3.731  1.00 20.00    -0.536 OA
ENDBRANCH   1   6
TORSDOF 3
ENDMDL
