MODEL 1
REMARK VINA RESULT:      -5.4      0.000      0.000
REMARK  1 active torsions:
REMARK  status: ('A' for Active; 'I' for Inactive)
REMARK    1  A    between atoms: C1_1  and  C3_3 
ROOT
HETATM    1  C1  UNL     1     -35.727  14.807  -3.860  1.00 20.00     0.038 A 
HETATM    2  C2  UNL     1     -34.743  13.704  -4.100  1.00 20.00     0.160 A 
HETATM    3  C4  UNL     1     -33.385  14.154  -3.597  1.00 20.00     0.090 A 
HETATM    4  C5  UNL     1     -35.072  15.939  -3.187  1.00 20.00     0.039 A 
HETATM    5  C6  UNL     1     -33.613  15.534  -3.021  1.00 20.00     0.011 A 
HETATM    6  C7  UNL     1     -33.979  16.757  -3.846  1.00 20.00    -0.035 A 
HETATM    7  C9  UNL     1     -33.810  16.742  -5.345  1.00 20.00     0.016 C 
HETATM    8  C10 UNL     1     -33.680  18.105  -3.234  1.00 20.00     0.016 C 
HETATM    9  O12 UNL     1     -34.987  12.627  -4.619  1.00 20.00    -0.293 OA
ENDROOT
BRANCH   1  10
HETATM   10  C3  UNL     1     -37.000  14.687  -4.248  1.00 20.00     0.155 C 
HETATM   11  C8  UNL     1     -37.391  15.255  -5.602  1.00 20.00     0.096 C 
HETATM   12  O11 UNL     1     -37.997  14.158  -3.669  1.00 20.00    -0.293 OA
ENDBRANCH   1  10
TORSDOF 1
ENDMDL
MODEL 2
REMARK VINA RESULT:      -5.1      2.179      3.174
REMARK  1 active torsions:
REMARK  status: ('A' for Active; 'I' for Inactive)
REMARK    1  A    between atoms: C1_1  and  C3_3 
ROOT
HETATM    1  C1  UNL     1     -33.752  15.204  -3.662  1.00 20.00     0.038 A 
HETATM    2  C2  UNL     1     -33.691  16.173  -4.803  1.00 20.00     0.160 A 
HETATM    3  C4  UNL     1     -33.685  17.581  -4.237  1.00 20.00     0.090 A 
HETATM    4  C5  UNL     1     -33.748  15.923  -2.380  1.00 20.00     0.039 A 
HETATM    5  C6  UNL     1     -33.705  17.404  -2.735  1.00 20.00     0.011 A 
HETATM    6  C7  UNL     1     -34.879  16.838  -1.954  1.00 20.00    -0.035 A 
HETATM    7  C9  UNL     1     -36.239  16.725  -2.599  1.00 20.00     0.016 C 
HETATM    8  C10 UNL     1     -34.953  17.187  -0.486  1.00 20.00     0.016 C 
HETATM    9  O12 UNL     1     -33.658  15.884  -5.987  1.00 20.00    -0.293 OA
ENDROOT
BRANCH   1  10
HETATM   10  C3  UNL     1     -33.809  13.888  -3.884  1.00 20.00     0.155 C 
HETATM   11  C8  UNL     1     -35.143  13.291  -4.305  1.00 20.00     0.096 C 
HETATM   12  O11 UNL     1     -32.912  12.994  -3.807  1.00 20.00    -0.293 OA
ENDBRANCH   1  10
TORSDOF 1
ENDMDL
MODEL 3
REMARK VINA RESULT:      -5.0      1.159      2.993
REMARK  1 active torsions:
REMARK  status: ('A' for Active; 'I' for Inactive)
REMARK    1  A    between atoms: C1_1  and  C3_3 
ROOT
HETATM    1  C1  UNL     1     -35.202  14.952  -3.794  1.00 20.00     0.038 A 
HETATM    2  C2  UNL     1     -36.684  15.042  -3.596  1.00 20.00     0.160 A 
HETATM    3  C4  UNL     1     -37.048  16.494  -3.347  1.00 20.00     0.090 A 
HETATM    4  C5  UNL     1     -34.594  16.289  -3.721  1.00 20.00     0.039 A 
HETATM    5  C6  UNL     1     -35.742  17.252  -3.445  1.00 20.00     0.011 A 
HETATM    6  C7  UNL     1     -34.598  17.119  -2.453  1.00 20.00    -0.035 A 
HETATM    7  C9  UNL     1     -34.825  16.467  -1.112  1.00 20.00     0.016 C 
HETATM    8  C10 UNL     1     -33.615  18.265  -2.390  1.00 20.00     0.016 C 
HETATM    9  O12 UNL     1     -37.468  14.109  -3.622  1.00 20.00    -0.293 OA
ENDROOT
BRANCH   1  10
HETATM   10  C3  UNL     1     -34.608  13.772  -3.992  1.00 20.00     0.155 C 
HETATM   11  C8  UNL     1     -33.133  13.646  -3.648  1.00 20.00     0.096 C 
HETATM   12  O11 UNL     1     -35.068  12.676  -4.436  1.00 20.00    -0.293 OA
ENDBRANCH   1  10
TORSDOF 1
ENDMDL
MODEL 4
REMARK VINA RESULT:      -4.9      1.825      2.639
REMARK  1 active torsions:
REMARK  status: ('A' for Active; 'I' for Inactive)
REMARK    1  A    between atoms: C1_1  and  C3_3 
ROOT
HETATM    1  C1  UNL     1     -34.809  14.734  -3.863  1.00 20.00     0.038 A 
HETATM    2  C2  UNL     1     -33.507  15.254  -3.335  1.00 20.00     0.160 A 
HETATM    3  C4  UNL     1     -33.801  16.318  -2.295  1.00 20.00     0.090 A 
HETATM    4  C5  UNL     1     -35.935  15.390  -3.181  1.00 20.00     0.039 A 
HETATM    5  C6  UNL     1     -35.310  16.376  -2.203  1.00 20.00     0.011 A 
HETATM    6  C7  UNL     1     -36.219  16.872  -3.316  1.00 20.00    -0.035 A 
HETATM    7  C9  UNL     1     -35.647  17.659  -4.470  1.00 20.00     0.016 C 
HETATM    8  C10 UNL     1     -37.598  17.338  -2.913  1.00 20.00     0.016 C 
HETATM    9  O12 UNL     1     -32.397  14.892  -3.684  1.00 20.00    -0.293 OA
ENDROOT
BRANCH   1  10
HETATM   10  C3  UNL     1     -34.836  13.810  -4.827  1.00 20.00     0.155 C 
HETATM   11  C8  UNL     1     -34.939  14.282  -6.268  1.00 20.00     0.096 C 
HETATM   12  O11 UNL     1     -34.790  12.544  -4.763  1.00 20.00    -0.293 OA
ENDBRANCH   1  10
TORSDOF 1
ENDMDL
MODEL 5
REMARK VINA RESULT:      -4.8      1.969      3.539
REMARK  1 active torsions:
REMARK  status: ('A' for Active; 'I' for Inactive)
REMARK    1  A    between atoms: C1_1  and  C3_3 
ROOT
HETATM    1  C1  UNL     1     -33.874  15.015  -4.985  1.00 20.00     0.038 A 
HETATM    2  C2  UNL     1     -34.700  13.828  -5.374  1.00 20.00     0.160 A 
HETATM    3  C4  UNL     1     -35.290  14.082  -6.748  1.00 20.00     0.090 A 
HETATM    4  C5  UNL     1     -33.872  16.012  -6.066  1.00 20.00     0.039 A 
HETATM    5  C6  UNL     1     -34.753  15.433  -7.166  1.00 20.00     0.011 A 
HETATM    6  C7  UNL     1     -35.125  16.747  -6.500  1.00 20.00    -0.035 A 
HETATM    7  C9  UNL     1     -36.323  16.824  -5.585  1.00 20.00     0.016 C 
HETATM    8  C10 UNL     1     -34.926  18.004  -7.314  1.00 20.00     0.016 C 
HETATM    9  O12 UNL     1     -34.878  12.827  -4.700  1.00 20.00    -0.293 OA
ENDROOT
BRANCH   1  10
HETATM   10  C3  UNL     1     -33.270  15.069  -3.795  1.00 20.00     0.155 C 
HETATM   11  C8  UNL     1     -33.962  15.830  -2.676  1.00 20.00     0.096 C 
HETATM   12  O11 UNL     1     -32.168  14.578  -3.401  1.00 20.00    -0.293 OA
ENDBRANCH   1  10
TORSDOF 1
ENDMDL
MODEL 6
REMARK VINA RESULT:      -4.7      1.531      1.844
REMARK  1 active torsions:
REMARK  status: ('A' for Active; 'I' for Inactive)
REMARK    1  A    between atoms: C1_1  and  C3_3 
ROOT
HETATM    1  C1  UNL     1     -35.758  15.435  -3.499  1.00 20.00     0.038 A 
HETATM    2  C2  UNL     1     -34.880  15.370  -4.711  1.00 20.00     0.160 A 
HETATM    3  C4  UNL     1     -33.462  15.713  -4.296  1.00 20.00     0.090 A 
HETATM    4  C5  UNL     1     -34.961  15.768  -2.308  1.00 20.00     0.039 A 
HETATM    5  C6  UNL     1     -33.530  15.940  -2.802  1.00 20.00     0.011 A 
HETATM    6  C7  UNL     1     -34.258  17.101  -2.144  1.00 20.00    -0.035 A 
HETATM    7  C9  UNL     1     -34.682  18.296  -2.962  1.00 20.00     0.016 C 
HETATM    8  C10 UNL     1     -33.826  17.471  -0.745  1.00 20.00     0.016 C 
HETATM    9  O12 UNL     1     -35.241  15.096  -5.843  1.00 20.00    -0.293 OA
ENDROOT
BRANCH   1  10
HETATM   10  C3  UNL     1     -37.071  15.214  -3.593  1.00 20.00     0.155 C 
HETATM   11  C8  UNL     1     -38.006  16.410  -3.503  1.00 20.00     0.096 C 
HETATM   12  O11 UNL     1     -37.722  14.137  -3.751  1.00 20.00    -0.293 OA
ENDBRANCH   1  10
TORSDOF 1
ENDMDL
MODEL 7
REMARK VINA RESULT:      -4.7      1.125      3.099
REMARK  1 active torsions:
REMARK  status: ('A' for Active; 'I' for Inactive)
REMARK    1  A    between atoms: C1_1  and  C3_3 
ROOT
HETATM    1  C1  UNL     1     -35.266  14.747  -4.929  1.00 20.00     0.038 A 
HETATM    2  C2  UNL     1     -36.677  14.965  -4.475  1.00 20.00     0.160 A 
HETATM    3  C4  UNL     1     -37.144  16.315  -4.987  1.00 20.00     0.090 A 
HETATM    4  C5  UNL     1     -34.812  15.883  -5.746  1.00 20.00     0.039 A 
HETATM    5  C6  UNL     1     -35.979  16.860  -5.785  1.00 20.00     0.011 A 
HETATM    6  C7  UNL     1     -34.649  17.280  -5.183  1.00 20.00    -0.035 A 
HETATM    7  C9  UNL     1     -34.522  17.495  -3.695  1.00 20.00     0.016 C 
HETATM    8  C10 UNL     1     -33.810  18.243  -5.989  1.00 20.00     0.016 C 
HETATM    9  O12 UNL     1     -37.340  14.194  -3.802  1.00 20.00    -0.293 OA
ENDROOT
BRANCH   1  10
HETATM   10  C3  UNL     1     -34.597  13.646  -4.579  1.00 20.00     0.155 C 
HETATM   11  C8  UNL     1     -33.361  13.806  -3.708  1.00 20.00     0.096 C 
HETATM   12  O11 UNL     1     -34.809  12.425  -4.851  1.00 20.00    -0.293 OA
ENDBRANCH   1  10
TORSDOF 1
ENDMDL
MODEL 8
REMARK VINA RESULT:      -4.5      3.002      4.439
REMARK  1 active torsions:
REMARK  status: ('A' for Active; 'I' for Inactive)
REMARK    1  A    between atoms: C1_1  and  C3_3 
ROOT
HETATM    1  C1  UNL     1     -34.847  16.778  -1.785  1.00 20.00     0.038 A 
HETATM    2  C2  UNL     1     -35.820  17.533  -2.637  1.00 20.00     0.160 A 
HETATM    3  C4  UNL     1     -36.273  16.628  -3.767  1.00 20.00     0.090 A 
HETATM    4  C5  UNL     1     -34.678  15.409  -2.293  1.00 20.00     0.039 A 
HETATM    5  C6  UNL     1     -35.566  15.312  -3.527  1.00 20.00     0.011 A 
HETATM    6  C7  UNL     1     -34.065  15.110  -3.646  1.00 20.00    -0.035 A 
HETATM    7  C9  UNL     1     -33.212  16.141  -4.344  1.00 20.00     0.016 C 
HETATM    8  C10 UNL     1     -33.583  13.697  -3.876  1.00 20.00     0.016 C 
HETATM    9  O12 UNL     1     -36.184  18.684  -2.460  1.00 20.00    -0.293 OA
ENDROOT
BRANCH   1  10
HETATM   10  C3  UNL     1     -34.260  17.361  -0.736  1.00 20.00     0.155 C 
HETATM   11  C8  UNL     1     -35.014  17.385   0.584  1.00 20.00     0.096 C 
HETATM   12  O11 UNL     1     -33.130  17.928  -0.627  1.00 20.00    -0.293 OA
ENDBRANCH   1  10
TORSDOF 1
ENDMDL
MODEL 9
REMARK VINA RESULT:      -4.5      2.535      3.965
REMARK  1 active torsions:
REMARK  status: ('A' for Active; 'I' for Inactive)
REMARK    1  A    between atoms: C1_1  and  C3_3 
ROOT
HETATM    1  C1  UNL     1     -34.829  16.808  -3.292  1.00 20.00     0.038 A 
HETATM    2  C2  UNL     1     -33.880  17.705  -4.026  1.00 20.00     0.160 A 
HETATM    3  C4  UNL     1     -33.478  17.022  -5.320  1.00 20.00     0.090 A 
HETATM    4  C5  UNL     1     -35.089  15.590  -4.073  1.00 20.00     0.039 A 
HETATM    5  C6  UNL     1     -34.250  15.721  -5.338  1.00 20.00     0.011 A 
HETATM    6  C7  UNL     1     -34.010  14.569  -4.376  1.00 20.00    -0.035 A 
HETATM    7  C9  UNL     1     -32.750  14.519  -3.548  1.00 20.00     0.016 C 
HETATM    8  C10 UNL     1     -34.475  13.202  -4.821  1.00 20.00     0.016 C 
HETATM    9  O12 UNL     1     -33.488  18.795  -3.647  1.00 20.00    -0.293 OA
ENDROOT
BRANCH   1  10
HETATM   10  C3  UNL     1     -35.309  17.153  -2.094  1.00 20.00     0.155 C 
HETATM   11  C8  UNL     1     -34.591  16.634  -0.858  1.00 20.00     0.096 C 
HETATM   12  O11 UNL     1     -36.305  17.872  -1.775  1.00 20.00    -0.293 OA
ENDBRANCH   1  10
TORSDOF 1
ENDMDL
