MODEL 1
REMARK VINA RESULT:      -5.4      0.000      0.000
REMARK  0 active torsions:
REMARK  status: ('A' for Active; 'I' for Inactive)
ROOT
HETATM    1  C1  UNL     1     -34.609  15.632  -2.646  1.00 20.00     0.009 C 
HETATM    2  C2  UNL     1     -35.936  13.977  -3.982  1.00 20.00     0.012 C 
HETATM    3  C3  UNL     1     -33.442  13.753  -3.833  1.00 20.00     0.012 C 
HETATM    4  C4  UNL     1     -35.679  16.333  -4.804  1.00 20.00     0.051 C 
HETATM    5  C5  UNL     1     -33.186  16.110  -4.654  1.00 20.00     0.051 C 
HETATM    6  C6  UNL     1     -35.840  15.452  -3.553  1.00 20.00    -0.010 C 
HETATM    7  C7  UNL     1     -33.330  15.228  -3.402  1.00 20.00    -0.010 C 
HETATM    8  C8  UNL     1     -34.663  13.562  -4.748  1.00 20.00     0.024 C 
HETATM    9  C9  UNL     1     -34.503  14.456  -5.988  1.00 20.00     0.213 C 
HETATM   10  C10 UNL     1     -34.409  15.924  -5.562  1.00 20.00     0.135 C 
HETATM   11  F11 UNL     1     -35.588  14.293  -6.795  1.00 20.00    -0.246 F 
HETATM   12  F12 UNL     1     -34.269  16.703  -6.663  1.00 20.00    -0.240 F 
ENDROOT
TORSDOF 0
ENDMDL
MODEL 2
REMARK VINA RESULT:      -5.3      0.828      2.501
REMARK  0 active torsions:
REMARK  status: ('A' for Active; 'I' for Inactive)
ROOT
HETATM    1  C1  UNL     1     -33.487  13.735  -3.878  1.00 20.00     0.009 C 
HETATM    2  C2  UNL     1     -34.608  15.601  -2.634  1.00 20.00     0.012 C 
HETATM    3  C3  UNL     1     -35.976  14.029  -4.030  1.00 20.00     0.012 C 
HETATM    4  C4  UNL     1     -33.160  16.109  -4.619  1.00 20.00     0.051 C 
HETATM    5  C5  UNL     1     -34.526  14.536  -6.014  1.00 20.00     0.051 C 
HETATM    6  C6  UNL     1     -33.336  15.190  -3.397  1.00 20.00    -0.010 C 
HETATM    7  C7  UNL     1     -34.711  13.606  -4.803  1.00 20.00    -0.010 C 
HETATM    8  C8  UNL     1     -35.841  15.484  -3.553  1.00 20.00     0.024 C 
HETATM    9  C9  UNL     1     -35.650  16.395  -4.776  1.00 20.00     0.213 C 
HETATM   10  C10 UNL     1     -34.384  15.987  -5.536  1.00 20.00     0.135 C 
HETATM   11  F11 UNL     1     -35.523  17.684  -4.354  1.00 20.00    -0.246 F 
HETATM   12  F12 UNL     1     -34.225  16.798  -6.612  1.00 20.00    -0.240 F 
ENDROOT
TORSDOF 0
ENDMDL
MODEL 3
REMARK VINA RESULT:      -5.3      1.439      2.637
REMARK  0 active torsions:
REMARK  status: ('A' for Active; 'I' for Inactive)
ROOT
HETATM    1  C1  UNL     1     -33.096  16.280  -4.573  1.00 20.00     0.009 C 
HETATM    2  C2  UNL     1     -35.575  16.657  -4.596  1.00 20.00     0.012 C 
HETATM    3  C3  UNL     1     -34.462  15.773  -2.529  1.00 20.00     0.012 C 
HETATM    4  C4  UNL     1     -34.579  14.786  -5.937  1.00 20.00     0.051 C 
HETATM    5  C5  UNL     1     -33.466  13.902  -3.871  1.00 20.00     0.051 C 
HETATM    6  C6  UNL     1     -34.365  16.228  -5.444  1.00 20.00    -0.010 C 
HETATM    7  C7  UNL     1     -33.243  15.337  -3.364  1.00 20.00    -0.010 C 
HETATM    8  C8  UNL     1     -35.738  15.715  -3.385  1.00 20.00     0.024 C 
HETATM    9  C9  UNL     1     -35.938  14.276  -3.886  1.00 20.00     0.213 C 
HETATM   10  C10 UNL     1     -34.734  13.848  -4.732  1.00 20.00     0.135 C 
HETATM   11  F11 UNL     1     -37.063  14.226  -4.652  1.00 20.00    -0.246 F 
HETATM   12  F12 UNL     1     -34.923  12.578  -5.170  1.00 20.00    -0.240 F 
ENDROOT
TORSDOF 0
ENDMDL
MODEL 4
REMARK VINA RESULT:      -5.3      0.940      2.863
REMARK  0 active torsions:
REMARK  status: ('A' for Active; 'I' for Inactive)
ROOT
HETATM    1  C1  UNL     1     -34.542  15.742  -2.436  1.00 20.00     0.009 C 
HETATM    2  C2  UNL     1     -33.377  16.551  -4.504  1.00 20.00     0.012 C 
HETATM    3  C3  UNL     1     -35.870  16.747  -4.314  1.00 20.00     0.012 C 
HETATM    4  C4  UNL     1     -33.531  14.092  -4.033  1.00 20.00     0.051 C 
HETATM    5  C5  UNL     1     -36.023  14.288  -3.842  1.00 20.00     0.051 C 
HETATM    6  C6  UNL     1     -33.365  15.482  -3.396  1.00 20.00    -0.010 C 
HETATM    7  C7  UNL     1     -35.876  15.679  -3.203  1.00 20.00    -0.010 C 
HETATM    8  C8  UNL     1     -34.705  16.494  -5.285  1.00 20.00     0.024 C 
HETATM    9  C9  UNL     1     -34.868  15.097  -5.906  1.00 20.00     0.213 C 
HETATM   10  C10 UNL     1     -34.856  14.033  -4.804  1.00 20.00     0.135 C 
HETATM   11  F11 UNL     1     -33.832  14.869  -6.761  1.00 20.00    -0.246 F 
HETATM   12  F12 UNL     1     -34.999  12.806  -5.364  1.00 20.00    -0.240 F 
ENDROOT
TORSDOF 0
ENDMDL
MODEL 5
REMARK VINA RESULT:      -5.2      1.440      2.662
REMARK  0 active torsions:
REMARK  status: ('A' for Active; 'I' for Inactive)
ROOT
HETATM    1  C1  UNL     1     -33.436  13.786  -3.854  1.00 20.00     0.009 C 
HETATM    2  C2  UNL     1     -34.449  14.503  -6.033  1.00 20.00     0.012 C 
HETATM    3  C3  UNL     1     -33.173  16.155  -4.642  1.00 20.00     0.012 C 
HETATM    4  C4  UNL     1     -35.927  13.988  -4.073  1.00 20.00     0.051 C 
HETATM    5  C5  UNL     1     -34.652  15.638  -2.682  1.00 20.00     0.051 C 
HETATM    6  C6  UNL     1     -34.632  13.593  -4.805  1.00 20.00    -0.010 C 
HETATM    7  C7  UNL     1     -33.348  15.256  -3.403  1.00 20.00    -0.010 C 
HETATM    8  C8  UNL     1     -34.367  15.979  -5.595  1.00 20.00     0.024 C 
HETATM    9  C9  UNL     1     -35.659  16.360  -4.853  1.00 20.00     0.213 C 
HETATM   10  C10 UNL     1     -35.843  15.454  -3.632  1.00 20.00     0.135 C 
HETATM   11  F11 UNL     1     -36.717  16.197  -5.695  1.00 20.00    -0.246 F 
HETATM   12  F12 UNL     1     -36.985  15.798  -2.986  1.00 20.00    -0.240 F 
ENDROOT
TORSDOF 0
ENDMDL
MODEL 6
REMARK VINA RESULT:      -5.2      1.469      2.760
REMARK  0 active torsions:
REMARK  status: ('A' for Active; 'I' for Inactive)
ROOT
HETATM    1  C1  UNL     1     -35.787  16.768  -4.577  1.00 20.00     0.009 C 
HETATM    2  C2  UNL     1     -34.689  15.789  -2.546  1.00 20.00     0.012 C 
HETATM    3  C3  UNL     1     -33.291  16.515  -4.498  1.00 20.00     0.012 C 
HETATM    4  C4  UNL     1     -36.052  14.327  -4.061  1.00 20.00     0.051 C 
HETATM    5  C5  UNL     1     -34.656  15.053  -6.013  1.00 20.00     0.051 C 
HETATM    6  C6  UNL     1     -35.936  15.733  -3.446  1.00 20.00    -0.010 C 
HETATM    7  C7  UNL     1     -34.530  16.463  -5.413  1.00 20.00    -0.010 C 
HETATM    8  C8  UNL     1     -33.423  15.478  -3.370  1.00 20.00     0.024 C 
HETATM    9  C9  UNL     1     -33.554  14.078  -3.992  1.00 20.00     0.213 C 
HETATM   10  C10 UNL     1     -34.796  14.021  -4.886  1.00 20.00     0.135 C 
HETATM   11  F11 UNL     1     -33.679  13.160  -2.993  1.00 20.00    -0.246 F 
HETATM   12  F12 UNL     1     -34.902  12.781  -5.428  1.00 20.00    -0.240 F 
ENDROOT
TORSDOF 0
ENDMDL
MODEL 7
REMARK VINA RESULT:      -5.1      1.856      2.929
REMARK  0 active torsions:
REMARK  status: ('A' for Active; 'I' for Inactive)
ROOT
HETATM    1  C1  UNL     1     -35.880  16.279  -5.518  1.00 20.00     0.009 C 
HETATM    2  C2  UNL     1     -34.687  14.105  -5.890  1.00 20.00     0.012 C 
HETATM    3  C3  UNL     1     -36.502  14.258  -4.165  1.00 20.00     0.012 C 
HETATM    4  C4  UNL     1     -33.489  16.022  -4.803  1.00 20.00     0.051 C 
HETATM    5  C5  UNL     1     -35.303  16.177  -3.081  1.00 20.00     0.051 C 
HETATM    6  C6  UNL     1     -34.526  15.635  -5.872  1.00 20.00    -0.010 C 
HETATM    7  C7  UNL     1     -36.354  15.791  -4.136  1.00 20.00    -0.010 C 
HETATM    8  C8  UNL     1     -35.154  13.603  -4.508  1.00 20.00     0.024 C 
HETATM    9  C9  UNL     1     -34.119  14.006  -3.446  1.00 20.00     0.213 C 
HETATM   10  C10 UNL     1     -33.957  15.529  -3.429  1.00 20.00     0.135 C 
HETATM   11  F11 UNL     1     -32.922  13.432  -3.753  1.00 20.00    -0.246 F 
HETATM   12  F12 UNL     1     -33.041  15.872  -2.489  1.00 20.00    -0.240 F 
ENDROOT
TORSDOF 0
ENDMDL
MODEL 8
REMARK VINA RESULT:      -5.1      1.797      3.236
REMARK  0 active torsions:
REMARK  status: ('A' for Active; 'I' for Inactive)
ROOT
HETATM    1  C1  UNL     1     -34.495  14.551  -6.056  1.00 20.00     0.009 C 
HETATM    2  C2  UNL     1     -33.125  16.094  -4.632  1.00 20.00     0.012 C 
HETATM    3  C3  UNL     1     -33.521  13.730  -3.893  1.00 20.00     0.012 C 
HETATM    4  C4  UNL     1     -35.600  16.447  -4.840  1.00 20.00     0.051 C 
HETATM    5  C5  UNL     1     -35.996  14.084  -4.104  1.00 20.00     0.051 C 
HETATM    6  C6  UNL     1     -34.328  16.009  -5.588  1.00 20.00    -0.010 C 
HETATM    7  C7  UNL     1     -34.728  13.628  -4.846  1.00 20.00    -0.010 C 
HETATM    8  C8  UNL     1     -33.349  15.180  -3.410  1.00 20.00     0.024 C 
HETATM    9  C9  UNL     1     -34.628  15.617  -2.678  1.00 20.00     0.213 C 
HETATM   10  C10 UNL     1     -35.826  15.533  -3.629  1.00 20.00     0.135 C 
HETATM   11  F11 UNL     1     -34.480  16.904  -2.257  1.00 20.00    -0.246 F 
HETATM   12  F12 UNL     1     -36.948  15.922  -2.973  1.00 20.00    -0.240 F 
ENDROOT
TORSDOF 0
ENDMDL
MODEL 9
REMARK VINA RESULT:      -5.1      1.225      2.013
REMARK  0 active torsions:
REMARK  status: ('A' for Active; 'I' for Inactive)
ROOT
HETATM    1  C1  UNL     1     -34.655  17.206  -4.522  1.00 20.00     0.009 C 
HETATM    2  C2  UNL     1     -35.137  15.310  -2.953  1.00 20.00     0.012 C 
HETATM    3  C3  UNL     1     -32.873  15.512  -4.014  1.00 20.00     0.012 C 
HETATM    4  C4  UNL     1     -36.209  15.364  -5.221  1.00 20.00     0.051 C 
HETATM    5  C5  UNL     1     -33.947  15.567  -6.281  1.00 20.00     0.051 C 
HETATM    6  C6  UNL     1     -35.738  16.225  -4.035  1.00 20.00    -0.010 C 
HETATM    7  C7  UNL     1     -33.460  16.430  -5.104  1.00 20.00    -0.010 C 
HETATM    8  C8  UNL     1     -33.943  14.521  -3.526  1.00 20.00     0.024 C 
HETATM    9  C9  UNL     1     -34.420  13.675  -4.718  1.00 20.00     0.213 C 
HETATM   10  C10 UNL     1     -35.019  14.584  -5.795  1.00 20.00     0.135 C 
HETATM   11  F11 UNL     1     -35.373  12.802  -4.288  1.00 20.00    -0.246 F 
HETATM   12  F12 UNL     1     -35.437  13.827  -6.840  1.00 20.00    -0.240 F 
ENDROOT
TORSDOF 0
ENDMDL
