MODEL 1
REMARK VINA RESULT:      -5.4      0.000      0.000
REMARK  1 active torsions:
REMARK  status: ('A' for Active; 'I' for Inactive)
REMARK    1  A    between atoms: C8_8  and  C12_12 
ROOT
HETATM    1  C1  UNL     1     -34.316  15.791  -6.210  1.00 20.00    -0.023 C 
HETATM    2  C2  UNL     1     -33.742  16.628  -5.324  1.00 20.00    -0.081 C 
HETATM    3  C3  UNL     1     -34.623  14.350  -5.901  1.00 20.00     0.034 C 
HETATM    4  C4  UNL     1     -33.120  14.634  -3.933  1.00 20.00     0.018 C 
HETATM    5  C5  UNL     1     -35.614  14.539  -3.570  1.00 20.00     0.173 C 
HETATM    6  C6  UNL     1     -33.331  16.155  -3.931  1.00 20.00     0.043 C 
HETATM    7  C7  UNL     1     -34.432  14.007  -4.410  1.00 20.00     0.014 C 
HETATM    8  C8  UNL     1     -34.435  16.510  -2.900  1.00 20.00     0.133 C 
HETATM    9  C9  UNL     1     -33.463  18.065  -5.655  1.00 20.00     0.043 C 
HETATM   10  O13 UNL     1     -35.168  15.347  -2.481  1.00 20.00    -0.384 OA
ENDROOT
BRANCH   8  11
HETATM   11  C12 UNL     1     -33.830  17.118  -1.639  1.00 20.00     0.007 C 
HETATM   12  C10 UNL     1     -33.572  18.610  -1.833  1.00 20.00     0.012 C 
HETATM   13  C11 UNL     1     -34.744  16.882  -0.439  1.00 20.00     0.012 C 
ENDBRANCH   8  11
TORSDOF 1
ENDMDL
MODEL 2
REMARK VINA RESULT:      -5.0      1.568      2.784
REMARK  1 active torsions:
REMARK  status: ('A' for Active; 'I' for Inactive)
REMARK    1  A    between atoms: C8_8  and  C12_12 
ROOT
HETATM    1  C1  UNL     1     -34.848  13.702  -5.453  1.00 20.00    -0.023 C 
HETATM    2  C2  UNL     1     -34.536  14.866  -6.054  1.00 20.00    -0.081 C 
HETATM    3  C3  UNL     1     -34.666  13.463  -3.977  1.00 20.00     0.034 C 
HETATM    4  C4  UNL     1     -33.253  15.517  -3.998  1.00 20.00     0.018 C 
HETATM    5  C5  UNL     1     -35.569  15.629  -3.006  1.00 20.00     0.173 C 
HETATM    6  C6  UNL     1     -33.939  16.033  -5.271  1.00 20.00     0.043 C 
HETATM    7  C7  UNL     1     -34.315  14.750  -3.205  1.00 20.00     0.014 C 
HETATM    8  C8  UNL     1     -35.056  17.034  -4.873  1.00 20.00     0.133 C 
HETATM    9  C9  UNL     1     -34.744  15.080  -7.525  1.00 20.00     0.043 C 
HETATM   10  O13 UNL     1     -35.361  16.962  -3.470  1.00 20.00    -0.384 OA
ENDROOT
BRANCH   8  11
HETATM   11  C12 UNL     1     -34.625  18.472  -5.148  1.00 20.00     0.007 C 
HETATM   12  C10 UNL     1     -33.986  19.087  -3.906  1.00 20.00     0.012 C 
HETATM   13  C11 UNL     1     -33.662  18.525  -6.331  1.00 20.00     0.012 C 
ENDBRANCH   8  11
TORSDOF 1
ENDMDL
MODEL 3
REMARK VINA RESULT:      -4.9      1.456      4.037
REMARK  1 active torsions:
REMARK  status: ('A' for Active; 'I' for Inactive)
REMARK    1  A    between atoms: C8_8  and  C12_12 
ROOT
HETATM    1  C1  UNL     1     -33.962  17.242  -2.754  1.00 20.00    -0.023 C 
HETATM    2  C2  UNL     1     -34.104  17.489  -4.071  1.00 20.00    -0.081 C 
HETATM    3  C3  UNL     1     -34.588  16.056  -2.067  1.00 20.00     0.034 C 
HETATM    4  C4  UNL     1     -35.981  15.824  -4.122  1.00 20.00     0.018 C 
HETATM    5  C5  UNL     1     -34.093  14.199  -3.728  1.00 20.00     0.173 C 
HETATM    6  C6  UNL     1     -34.948  16.584  -4.966  1.00 20.00     0.043 C 
HETATM    7  C7  UNL     1     -35.197  15.047  -3.061  1.00 20.00     0.014 C 
HETATM    8  C8  UNL     1     -34.039  15.559  -5.695  1.00 20.00     0.133 C 
HETATM    9  C9  UNL     1     -33.455  18.670  -4.731  1.00 20.00     0.043 C 
HETATM   10  O13 UNL     1     -34.184  14.237  -5.152  1.00 20.00    -0.384 OA
ENDROOT
BRANCH   8  11
HETATM   11  C12 UNL     1     -34.403  15.462  -7.174  1.00 20.00     0.007 C 
HETATM   12  C10 UNL     1     -35.445  14.369  -7.398  1.00 20.00     0.012 C 
HETATM   13  C11 UNL     1     -34.912  16.805  -7.691  1.00 20.00     0.012 C 
ENDBRANCH   8  11
TORSDOF 1
ENDMDL
MODEL 4
REMARK VINA RESULT:      -4.8      1.435      2.764
REMARK  1 active torsions:
REMARK  status: ('A' for Active; 'I' for Inactive)
REMARK    1  A    between atoms: C8_8  and  C12_12 
ROOT
HETATM    1  C1  UNL     1     -34.755  14.559  -6.224  1.00 20.00    -0.023 C 
HETATM    2  C2  UNL     1     -34.708  14.563  -4.877  1.00 20.00    -0.081 C 
HETATM    3  C3  UNL     1     -35.055  15.788  -7.040  1.00 20.00     0.034 C 
HETATM    4  C4  UNL     1     -35.843  16.801  -4.903  1.00 20.00     0.018 C 
HETATM    5  C5  UNL     1     -33.628  17.530  -5.865  1.00 20.00     0.173 C 
HETATM    6  C6  UNL     1     -34.990  15.830  -4.073  1.00 20.00     0.043 C 
HETATM    7  C7  UNL     1     -35.067  17.076  -6.194  1.00 20.00     0.014 C 
HETATM    8  C8  UNL     1     -33.657  16.528  -3.692  1.00 20.00     0.133 C 
HETATM    9  C9  UNL     1     -34.389  13.326  -4.090  1.00 20.00     0.043 C 
HETATM   10  O13 UNL     1     -33.441  17.722  -4.463  1.00 20.00    -0.384 OA
ENDROOT
BRANCH   8  11
HETATM   11  C12 UNL     1     -33.662  16.954  -2.228  1.00 20.00     0.007 C 
HETATM   12  C10 UNL     1     -33.792  18.470  -2.111  1.00 20.00     0.012 C 
HETATM   13  C11 UNL     1     -34.790  16.257  -1.471  1.00 20.00     0.012 C 
ENDBRANCH   8  11
TORSDOF 1
ENDMDL
MODEL 5
REMARK VINA RESULT:      -4.8      1.340      2.414
REMARK  1 active torsions:
REMARK  status: ('A' for Active; 'I' for Inactive)
REMARK    1  A    between atoms: C8_8  and  C12_12 
ROOT
HETATM    1  C1  UNL     1     -34.567  14.046  -5.146  1.00 20.00    -0.023 C 
HETATM    2  C2  UNL     1     -34.033  14.280  -3.932  1.00 20.00    -0.081 C 
HETATM    3  C3  UNL     1     -35.799  14.748  -5.654  1.00 20.00     0.034 C 
HETATM    4  C4  UNL     1     -36.159  15.449  -3.288  1.00 20.00     0.018 C 
HETATM    5  C5  UNL     1     -35.328  17.146  -4.959  1.00 20.00     0.173 C 
HETATM    6  C6  UNL     1     -34.670  15.270  -2.958  1.00 20.00     0.043 C 
HETATM    7  C7  UNL     1     -36.235  15.915  -4.745  1.00 20.00     0.014 C 
HETATM    8  C8  UNL     1     -33.961  16.647  -3.059  1.00 20.00     0.133 C 
HETATM    9  C9  UNL     1     -32.795  13.577  -3.460  1.00 20.00     0.043 C 
HETATM   10  O13 UNL     1     -34.780  17.620  -3.729  1.00 20.00    -0.384 OA
ENDROOT
BRANCH   8  11
HETATM   11  C12 UNL     1     -33.664  17.212  -1.674  1.00 20.00     0.007 C 
HETATM   12  C10 UNL     1     -33.681  18.738  -1.702  1.00 20.00     0.012 C 
HETATM   13  C11 UNL     1     -34.668  16.682  -0.652  1.00 20.00     0.012 C 
ENDBRANCH   8  11
TORSDOF 1
ENDMDL
MODEL 6
REMARK VINA RESULT:      -4.8      1.740      4.405
REMARK  1 active torsions:
REMARK  status: ('A' for Active; 'I' for Inactive)
REMARK    1  A    between atoms: C8_8  and  C12_12 
ROOT
HETATM    1  C1  UNL     1     -34.491  15.130  -2.726  1.00 20.00    -0.023 C 
HETATM    2  C2  UNL     1     -34.618  14.686  -3.991  1.00 20.00    -0.081 C 
HETATM    3  C3  UNL     1     -33.975  16.503  -2.384  1.00 20.00     0.034 C 
HETATM    4  C4  UNL     1     -33.186  16.603  -4.747  1.00 20.00     0.018 C 
HETATM    5  C5  UNL     1     -35.216  17.938  -4.073  1.00 20.00     0.173 C 
HETATM    6  C6  UNL     1     -34.212  15.548  -5.184  1.00 20.00     0.043 C 
HETATM    7  C7  UNL     1     -33.836  17.412  -3.622  1.00 20.00     0.014 C 
HETATM    8  C8  UNL     1     -35.457  16.267  -5.769  1.00 20.00     0.133 C 
HETATM    9  C9  UNL     1     -35.151  13.318  -4.302  1.00 20.00     0.043 C 
HETATM   10  O13 UNL     1     -35.460  17.669  -5.454  1.00 20.00    -0.384 OA
ENDROOT
BRANCH   8  11
HETATM   11  C12 UNL     1     -35.482  16.166  -7.291  1.00 20.00     0.007 C 
HETATM   12  C10 UNL     1     -34.714  17.327  -7.918  1.00 20.00     0.012 C 
HETATM   13  C11 UNL     1     -34.904  14.829  -7.749  1.00 20.00     0.012 C 
ENDBRANCH   8  11
TORSDOF 1
ENDMDL
MODEL 7
REMARK VINA RESULT:      -4.8      1.498      1.661
REMARK  1 active torsions:
REMARK  status: ('A' for Active; 'I' for Inactive)
REMARK    1  A    between atoms: C8_8  and  C12_12 
ROOT
HETATM    1  C1  UNL     1     -36.505  15.827  -6.062  1.00 20.00    -0.023 C 
HETATM    2  C2  UNL     1     -36.037  16.734  -5.182  1.00 20.00    -0.081 C 
HETATM    3  C3  UNL     1     -35.750  14.580  -6.439  1.00 20.00     0.034 C 
HETATM    4  C4  UNL     1     -33.773  15.668  -5.378  1.00 20.00     0.018 C 
HETATM    5  C5  UNL     1     -34.935  13.785  -4.168  1.00 20.00     0.173 C 
HETATM    6  C6  UNL     1     -34.671  16.570  -4.519  1.00 20.00     0.043 C 
HETATM    7  C7  UNL     1     -34.516  14.340  -5.547  1.00 20.00     0.014 C 
HETATM    8  C8  UNL     1     -34.834  15.931  -3.115  1.00 20.00     0.133 C 
HETATM    9  C9  UNL     1     -36.819  17.960  -4.814  1.00 20.00     0.043 C 
HETATM   10  O13 UNL     1     -34.397  14.562  -3.099  1.00 20.00    -0.384 OA
ENDROOT
BRANCH   8  11
HETATM   11  C12 UNL     1     -33.991  16.666  -2.078  1.00 20.00     0.007 C 
HETATM   12  C10 UNL     1     -33.739  18.106  -2.517  1.00 20.00     0.012 C 
HETATM   13  C11 UNL     1     -34.671  16.631  -0.712  1.00 20.00     0.012 C 
ENDBRANCH   8  11
TORSDOF 1
ENDMDL
MODEL 8
REMARK VINA RESULT:      -4.8      1.488      3.949
REMARK  1 active torsions:
REMARK  status: ('A' for Active; 'I' for Inactive)
REMARK    1  A    between atoms: C8_8  and  C12_12 
ROOT
HETATM    1  C1  UNL     1     -35.059  18.407  -2.486  1.00 20.00    -0.023 C 
HETATM    2  C2  UNL     1     -34.560  17.197  -2.169  1.00 20.00    -0.081 C 
HETATM    3  C3  UNL     1     -35.126  18.924  -3.899  1.00 20.00     0.034 C 
HETATM    4  C4  UNL     1     -33.556  17.072  -4.466  1.00 20.00     0.018 C 
HETATM    5  C5  UNL     1     -35.979  16.878  -5.139  1.00 20.00     0.173 C 
HETATM    6  C6  UNL     1     -33.992  16.263  -3.235  1.00 20.00     0.043 C 
HETATM    7  C7  UNL     1     -34.789  17.843  -4.945  1.00 20.00     0.014 C 
HETATM    8  C8  UNL     1     -35.067  15.229  -3.665  1.00 20.00     0.133 C 
HETATM    9  C9  UNL     1     -34.520  16.701  -0.752  1.00 20.00     0.043 C 
HETATM   10  O13 UNL     1     -35.588  15.515  -4.973  1.00 20.00    -0.384 OA
ENDROOT
BRANCH   8  11
HETATM   11  C12 UNL     1     -34.477  13.824  -3.732  1.00 20.00     0.007 C 
HETATM   12  C10 UNL     1     -34.790  13.176  -5.079  1.00 20.00     0.012 C 
HETATM   13  C11 UNL     1     -32.970  13.862  -3.491  1.00 20.00     0.012 C 
ENDBRANCH   8  11
TORSDOF 1
ENDMDL
MODEL 9
REMARK VINA RESULT:      -4.7      1.831      4.543
REMARK  1 active torsions:
REMARK  status: ('A' for Active; 'I' for Inactive)
REMARK    1  A    between atoms: C8_8  and  C12_12 
ROOT
HETATM    1  C1  UNL     1     -35.529  16.487  -2.346  1.00 20.00    -0.023 C 
HETATM    2  C2  UNL     1     -36.279  15.866  -3.277  1.00 20.00    -0.081 C 
HETATM    3  C3  UNL     1     -34.047  16.263  -2.202  1.00 20.00     0.034 C 
HETATM    4  C4  UNL     1     -34.384  14.265  -3.654  1.00 20.00     0.018 C 
HETATM    5  C5  UNL     1     -33.294  16.321  -4.627  1.00 20.00     0.173 C 
HETATM    6  C6  UNL     1     -35.673  14.854  -4.247  1.00 20.00     0.043 C 
HETATM    7  C7  UNL     1     -33.452  15.445  -3.365  1.00 20.00     0.014 C 
HETATM    8  C8  UNL     1     -35.339  15.544  -5.596  1.00 20.00     0.133 C 
HETATM    9  C9  UNL     1     -37.753  16.122  -3.408  1.00 20.00     0.043 C 
HETATM   10  O13 UNL     1     -33.924  15.731  -5.764  1.00 20.00    -0.384 OA
ENDROOT
BRANCH   8  11
HETATM   11  C12 UNL     1     -35.805  14.694  -6.774  1.00 20.00     0.007 C 
HETATM   12  C10 UNL     1     -37.185  15.144  -7.246  1.00 20.00     0.012 C 
HETATM   13  C11 UNL     1     -34.796  14.763  -7.918  1.00 20.00     0.012 C 
ENDBRANCH   8  11
TORSDOF 1
ENDMDL
