MODEL 1
REMARK VINA RESULT:      -5.7      0.000      0.000
REMARK  1 active torsions:
REMARK  status: ('A' for Active; 'I' for Inactive)
REMARK    1  A    between atoms: C6_6  and  C7_7 
ROOT
HETATM    1  C1  UNL     1     -35.188   4.592   4.380  1.00 20.00     0.051 A 
HETATM    2  C2  UNL     1     -34.181   5.936   6.281  1.00 20.00     0.051 A 
HETATM    3  C3  UNL     1     -34.618   5.429   3.506  1.00 20.00    -0.013 A 
HETATM    4  C4  UNL     1     -33.624   6.757   5.385  1.00 20.00    -0.013 A 
HETATM    5  C5  UNL     1     -34.994   4.782   5.835  1.00 20.00     0.171 A 
HETATM    6  C6  UNL     1     -33.754   6.599   3.894  1.00 20.00     0.044 A 
HETATM    7  O8  UNL     1     -35.499   4.012   6.646  1.00 20.00    -0.289 OA
ENDROOT
BRANCH   6   8
HETATM    8  C7  UNL     1     -32.370   6.463   3.256  1.00 20.00     0.127 C 
HETATM    9 CL9  UNL     1     -32.022   7.883   2.254  1.00 20.00    -0.130 Cl
ENDBRANCH   6   8
TORSDOF 1
ENDMDL
MODEL 2
REMARK VINA RESULT:      -4.7     12.024     12.430
REMARK  1 active torsions:
REMARK  status: ('A' for Active; 'I' for Inactive)
REMARK    1  A    between atoms: C6_6  and  C7_7 
ROOT
HETATM    1  C1  UNL     1     -33.486  14.228  -3.804  1.00 20.00     0.051 A 
HETATM    2  C2  UNL     1     -36.017  14.391  -3.814  1.00 20.00     0.051 A 
HETATM    3  C3  UNL     1     -33.428  15.399  -3.160  1.00 20.00    -0.013 A 
HETATM    4  C4  UNL     1     -35.930  15.560  -3.171  1.00 20.00    -0.013 A 
HETATM    5  C5  UNL     1     -34.794  13.634  -4.163  1.00 20.00     0.171 A 
HETATM    6  C6  UNL     1     -34.635  16.199  -2.748  1.00 20.00     0.044 A 
HETATM    7  O8  UNL     1     -34.861  12.553  -4.739  1.00 20.00    -0.289 OA
ENDROOT
BRANCH   6   8
HETATM    8  C7  UNL     1     -34.626  16.420  -1.234  1.00 20.00     0.127 C 
HETATM    9 CL9  UNL     1     -33.439  17.663  -0.808  1.00 20.00    -0.130 Cl
ENDBRANCH   6   8
TORSDOF 1
ENDMDL
MODEL 3
REMARK VINA RESULT:      -4.6     11.849     12.755
REMARK  1 active torsions:
REMARK  status: ('A' for Active; 'I' for Inactive)
REMARK    1  A    between atoms: C6_6  and  C7_7 
ROOT
HETATM    1  C1  UNL     1     -33.338  13.894  -3.766  1.00 20.00     0.051 A 
HETATM    2  C2  UNL     1     -35.531  14.832  -4.630  1.00 20.00     0.051 A 
HETATM    3  C3  UNL     1     -32.898  15.142  -3.573  1.00 20.00    -0.013 A 
HETATM    4  C4  UNL     1     -35.064  16.068  -4.428  1.00 20.00    -0.013 A 
HETATM    5  C5  UNL     1     -34.700  13.653  -4.297  1.00 20.00     0.171 A 
HETATM    6  C6  UNL     1     -33.705  16.379  -3.861  1.00 20.00     0.044 A 
HETATM    7  O8  UNL     1     -35.122  12.513  -4.462  1.00 20.00    -0.289 OA
ENDROOT
BRANCH   6   8
HETATM    8  C7  UNL     1     -33.845  17.221  -2.591  1.00 20.00     0.127 C 
HETATM    9 CL9  UNL     1     -34.646  16.279  -1.323  1.00 20.00    -0.130 Cl
ENDBRANCH   6   8
TORSDOF 1
ENDMDL
MODEL 4
REMARK VINA RESULT:      -4.6     12.267     13.393
REMARK  1 active torsions:
REMARK  status: ('A' for Active; 'I' for Inactive)
REMARK    1  A    between atoms: C6_6  and  C7_7 
ROOT
HETATM    1  C1  UNL     1     -33.497  14.064  -3.747  1.00 20.00     0.051 A 
HETATM    2  C2  UNL     1     -34.624  14.538  -5.970  1.00 20.00     0.051 A 
HETATM    3  C3  UNL     1     -32.959  15.288  -3.776  1.00 20.00    -0.013 A 
HETATM    4  C4  UNL     1     -34.072  15.756  -5.972  1.00 20.00    -0.013 A 
HETATM    5  C5  UNL     1     -34.384  13.610  -4.843  1.00 20.00     0.171 A 
HETATM    6  C6  UNL     1     -33.191  16.290  -4.875  1.00 20.00     0.044 A 
HETATM    7  O8  UNL     1     -34.897  12.495  -4.820  1.00 20.00    -0.289 OA
ENDROOT
BRANCH   6   8
HETATM    8  C7  UNL     1     -33.789  17.574  -4.297  1.00 20.00     0.127 C 
HETATM    9 CL9  UNL     1     -33.804  17.494  -2.527  1.00 20.00    -0.130 Cl
ENDBRANCH   6   8
TORSDOF 1
ENDMDL
MODEL 5
REMARK VINA RESULT:      -4.5     12.121     12.741
REMARK  1 active torsions:
REMARK  status: ('A' for Active; 'I' for Inactive)
REMARK    1  A    between atoms: C6_6  and  C7_7 
ROOT
HETATM    1  C1  UNL     1     -35.855  14.572  -3.704  1.00 20.00     0.051 A 
HETATM    2  C2  UNL     1     -33.395  13.963  -3.828  1.00 20.00     0.051 A 
HETATM    3  C3  UNL     1     -35.521  15.751  -3.169  1.00 20.00    -0.013 A 
HETATM    4  C4  UNL     1     -33.090  15.149  -3.291  1.00 20.00    -0.013 A 
HETATM    5  C5  UNL     1     -34.806  13.599  -4.086  1.00 20.00     0.171 A 
HETATM    6  C6  UNL     1     -34.105  16.195  -2.913  1.00 20.00     0.044 A 
HETATM    7  O8  UNL     1     -35.099  12.520  -4.593  1.00 20.00    -0.289 OA
ENDROOT
BRANCH   6   8
HETATM    8  C7  UNL     1     -33.820  17.499  -3.660  1.00 20.00     0.127 C 
HETATM    9 CL9  UNL     1     -33.351  17.151  -5.332  1.00 20.00    -0.130 Cl
ENDBRANCH   6   8
TORSDOF 1
ENDMDL
MODEL 6
REMARK VINA RESULT:      -4.3      3.044      4.052
REMARK  1 active torsions:
REMARK  status: ('A' for Active; 'I' for Inactive)
REMARK    1  A    between atoms: C6_6  and  C7_7 
ROOT
HETATM    1  C1  UNL     1     -33.159   6.960   5.041  1.00 20.00     0.051 A 
HETATM    2  C2  UNL     1     -33.108   6.004   2.692  1.00 20.00     0.051 A 
HETATM    3  C3  UNL     1     -34.296   6.296   5.271  1.00 20.00    -0.013 A 
HETATM    4  C4  UNL     1     -34.246   5.352   2.949  1.00 20.00    -0.013 A 
HETATM    5  C5  UNL     1     -32.475   6.846   3.733  1.00 20.00     0.171 A 
HETATM    6  C6  UNL     1     -34.971   5.399   4.268  1.00 20.00     0.044 A 
HETATM    7  O8  UNL     1     -31.423   7.437   3.515  1.00 20.00    -0.289 OA
ENDROOT
BRANCH   6   8
HETATM    8  C7  UNL     1     -35.115   3.987   4.839  1.00 20.00     0.127 C 
HETATM    9 CL9  UNL     1     -34.369   3.902   6.444  1.00 20.00    -0.130 Cl
ENDBRANCH   6   8
TORSDOF 1
ENDMDL
MODEL 7
REMARK VINA RESULT:      -4.2     12.308     12.723
REMARK  1 active torsions:
REMARK  status: ('A' for Active; 'I' for Inactive)
REMARK    1  A    between atoms: C6_6  and  C7_7 
ROOT
HETATM    1  C1  UNL     1     -36.131  15.603  -3.014  1.00 20.00     0.051 A 
HETATM    2  C2  UNL     1     -35.585  13.503  -4.329  1.00 20.00     0.051 A 
HETATM    3  C3  UNL     1     -34.822  15.853  -2.900  1.00 20.00    -0.013 A 
HETATM    4  C4  UNL     1     -34.283  13.778  -4.198  1.00 20.00    -0.013 A 
HETATM    5  C5  UNL     1     -36.603  14.411  -3.755  1.00 20.00     0.171 A 
HETATM    6  C6  UNL     1     -33.739  14.989  -3.488  1.00 20.00     0.044 A 
HETATM    7  O8  UNL     1     -37.801  14.179  -3.882  1.00 20.00    -0.289 OA
ENDROOT
BRANCH   6   8
HETATM    8  C7  UNL     1     -32.871  15.812  -4.441  1.00 20.00     0.127 C 
HETATM    9 CL9  UNL     1     -33.756  16.138  -5.941  1.00 20.00    -0.130 Cl
ENDBRANCH   6   8
TORSDOF 1
ENDMDL
MODEL 8
REMARK VINA RESULT:      -4.2     12.411     13.471
REMARK  1 active torsions:
REMARK  status: ('A' for Active; 'I' for Inactive)
REMARK    1  A    between atoms: C6_6  and  C7_7 
ROOT
HETATM    1  C1  UNL     1     -34.520  13.631  -4.849  1.00 20.00     0.051 A 
HETATM    2  C2  UNL     1     -34.044  15.786  -6.099  1.00 20.00     0.051 A 
HETATM    3  C3  UNL     1     -33.795  14.085  -3.821  1.00 20.00    -0.013 A 
HETATM    4  C4  UNL     1     -33.324  16.214  -5.057  1.00 20.00    -0.013 A 
HETATM    5  C5  UNL     1     -34.707  14.464  -6.059  1.00 20.00     0.171 A 
HETATM    6  C6  UNL     1     -33.124  15.432  -3.787  1.00 20.00     0.044 A 
HETATM    7  O8  UNL     1     -35.384  14.066  -7.002  1.00 20.00    -0.289 OA
ENDROOT
BRANCH   6   8
HETATM    8  C7  UNL     1     -33.627  16.238  -2.588  1.00 20.00     0.127 C 
HETATM    9 CL9  UNL     1     -35.345  15.907  -2.311  1.00 20.00    -0.130 Cl
ENDBRANCH   6   8
TORSDOF 1
ENDMDL
MODEL 9
REMARK VINA RESULT:      -4.1      9.992     10.905
REMARK  1 active torsions:
REMARK  status: ('A' for Active; 'I' for Inactive)
REMARK    1  A    between atoms: C6_6  and  C7_7 
ROOT
HETATM    1  C1  UNL     1     -42.753   4.883  -3.018  1.00 20.00     0.051 A 
HETATM    2  C2  UNL     1     -41.891   7.134  -2.225  1.00 20.00     0.051 A 
HETATM    3  C3  UNL     1     -42.029   4.287  -2.064  1.00 20.00    -0.013 A 
HETATM    4  C4  UNL     1     -41.177   6.510  -1.281  1.00 20.00    -0.013 A 
HETATM    5  C5  UNL     1     -42.744   6.358  -3.153  1.00 20.00     0.171 A 
HETATM    6  C6  UNL     1     -41.169   5.020  -1.070  1.00 20.00     0.044 A 
HETATM    7  O8  UNL     1     -43.417   6.918  -4.012  1.00 20.00    -0.289 OA
ENDROOT
BRANCH   6   8
HETATM    8  C7  UNL     1     -41.615   4.688   0.355  1.00 20.00     0.127 C 
HETATM    9 CL9  UNL     1     -43.057   5.628   0.774  1.00 20.00    -0.130 Cl
ENDBRANCH   6   8
TORSDOF 1
ENDMDL
