MODEL 1
REMARK VINA RESULT:      -4.7      0.000      0.000
REMARK  2 active torsions:
REMARK  status: ('A' for Active; 'I' for Inactive)
REMARK    1  A    between atoms: C7_7  and  C8_8 
REMARK    2  A    between atoms: C9_9  and  C10_10 
ROOT
HETATM    1  C1  UNL     1     -34.441  14.352  -3.291  1.00 20.00     0.047 C 
HETATM    2  C2  UNL     1     -33.985  15.605  -3.508  1.00 20.00    -0.017 C 
HETATM    3  C5  UNL     1     -34.527  13.726  -4.655  1.00 20.00     0.154 C 
HETATM    4  C7  UNL     1     -33.487  15.728  -4.907  1.00 20.00     0.028 C 
HETATM    5  C10 UNL     1     -34.554  14.861  -5.619  1.00 20.00     0.075 C 
HETATM    6  O11 UNL     1     -34.660  12.540  -4.889  1.00 20.00    -0.293 OA
ENDROOT
BRANCH   5   7
HETATM    7  C9  UNL     1     -34.299  15.153  -7.089  1.00 20.00     0.021 C 
HETATM    8  C4  UNL     1     -34.655  16.554  -7.532  1.00 20.00    -0.025 C 
HETATM    9  C3  UNL     1     -35.993  16.683  -7.452  1.00 20.00    -0.025 C 
HETATM   10  C8  UNL     1     -36.537  15.402  -6.822  1.00 20.00     0.017 C 
HETATM   11  C6  UNL     1     -35.601  14.460  -7.597  1.00 20.00     0.018 C 
ENDBRANCH   5   7
TORSDOF 2
ENDMDL
MODEL 2
REMARK VINA RESULT:      -4.7      3.141      4.504
REMARK  2 active torsions:
REMARK  status: ('A' for Active; 'I' for Inactive)
REMARK    1  A    between atoms: C7_7  and  C8_8 
REMARK    2  A    between atoms: C9_9  and  C10_10 
ROOT
HETATM    1  C1  UNL     1     -33.679  17.996  -0.860  1.00 20.00     0.047 C 
HETATM    2  C2  UNL     1     -34.415  16.927  -0.485  1.00 20.00    -0.017 C 
HETATM    3  C5  UNL     1     -33.748  18.010  -2.361  1.00 20.00     0.154 C 
HETATM    4  C7  UNL     1     -35.203  16.422  -1.644  1.00 20.00     0.028 C 
HETATM    5  C10 UNL     1     -34.150  16.633  -2.760  1.00 20.00     0.075 C 
HETATM    6  O11 UNL     1     -33.427  18.936  -3.081  1.00 20.00    -0.293 OA
ENDROOT
BRANCH   5   7
HETATM    7  C9  UNL     1     -34.754  15.887  -3.938  1.00 20.00     0.021 C 
HETATM    8  C4  UNL     1     -34.900  14.395  -3.741  1.00 20.00    -0.025 C 
HETATM    9  C3  UNL     1     -33.663  13.864  -3.681  1.00 20.00    -0.025 C 
HETATM   10  C8  UNL     1     -32.670  15.025  -3.705  1.00 20.00     0.017 C 
HETATM   11  C6  UNL     1     -33.432  15.837  -4.765  1.00 20.00     0.018 C 
ENDBRANCH   5   7
TORSDOF 2
ENDMDL
MODEL 3
REMARK VINA RESULT:      -4.7      2.918      4.448
REMARK  2 active torsions:
REMARK  status: ('A' for Active; 'I' for Inactive)
REMARK    1  A    between atoms: C7_7  and  C8_8 
REMARK    2  A    between atoms: C9_9  and  C10_10 
ROOT
HETATM    1  C1  UNL     1     -34.399  13.645  -3.709  1.00 20.00     0.047 C 
HETATM    2  C2  UNL     1     -33.196  14.259  -3.754  1.00 20.00    -0.017 C 
HETATM    3  C5  UNL     1     -35.396  14.753  -3.519  1.00 20.00     0.154 C 
HETATM    4  C7  UNL     1     -33.383  15.730  -3.903  1.00 20.00     0.028 C 
HETATM    5  C10 UNL     1     -34.620  15.909  -2.989  1.00 20.00     0.075 C 
HETATM    6  O11 UNL     1     -36.599  14.663  -3.668  1.00 20.00    -0.293 OA
ENDROOT
BRANCH   5   7
HETATM    7  C9  UNL     1     -34.720  17.419  -2.850  1.00 20.00     0.021 C 
HETATM    8  C4  UNL     1     -33.553  18.073  -2.147  1.00 20.00    -0.025 C 
HETATM    9  C3  UNL     1     -33.571  17.674  -0.860  1.00 20.00    -0.025 C 
HETATM   10  C8  UNL     1     -34.683  16.635  -0.722  1.00 20.00     0.017 C 
HETATM   11  C6  UNL     1     -35.681  17.382  -1.621  1.00 20.00     0.018 C 
ENDBRANCH   5   7
TORSDOF 2
ENDMDL
MODEL 4
REMARK VINA RESULT:      -4.6     12.582     14.097
REMARK  2 active torsions:
REMARK  status: ('A' for Active; 'I' for Inactive)
REMARK    1  A    between atoms: C7_7  and  C8_8 
REMARK    2  A    between atoms: C9_9  and  C10_10 
ROOT
HETATM    1  C1  UNL     1     -34.459   4.746   6.791  1.00 20.00     0.047 C 
HETATM    2  C2  UNL     1     -34.959   3.974   5.802  1.00 20.00    -0.017 C 
HETATM    3  C5  UNL     1     -34.182   6.075   6.147  1.00 20.00     0.154 C 
HETATM    4  C7  UNL     1     -35.301   4.818   4.623  1.00 20.00     0.028 C 
HETATM    5  C10 UNL     1     -34.111   5.807   4.683  1.00 20.00     0.075 C 
HETATM    6  O11 UNL     1     -33.955   7.117   6.730  1.00 20.00    -0.293 OA
ENDROOT
BRANCH   5   7
HETATM    7  C9  UNL     1     -34.214   6.539   3.355  1.00 20.00     0.021 C 
HETATM    8  C4  UNL     1     -33.921   5.693   2.137  1.00 20.00    -0.025 C 
HETATM    9  C3  UNL     1     -32.615   5.361   2.171  1.00 20.00    -0.025 C 
HETATM   10  C8  UNL     1     -32.050   5.876   3.494  1.00 20.00     0.017 C 
HETATM   11  C6  UNL     1     -32.810   7.212   3.458  1.00 20.00     0.018 C 
ENDBRANCH   5   7
TORSDOF 2
ENDMDL
MODEL 5
REMARK VINA RESULT:      -4.5      2.046      4.028
REMARK  2 active torsions:
REMARK  status: ('A' for Active; 'I' for Inactive)
REMARK    1  A    between atoms: C7_7  and  C8_8 
REMARK    2  A    between atoms: C9_9  and  C10_10 
ROOT
HETATM    1  C1  UNL     1     -35.036  13.971  -5.624  1.00 20.00     0.047 C 
HETATM    2  C2  UNL     1     -35.141  13.350  -4.429  1.00 20.00    -0.017 C 
HETATM    3  C5  UNL     1     -34.245  15.218  -5.348  1.00 20.00     0.154 C 
HETATM    4  C7  UNL     1     -34.207  13.973  -3.450  1.00 20.00     0.028 C 
HETATM    5  C10 UNL     1     -34.359  15.452  -3.881  1.00 20.00     0.075 C 
HETATM    6  O11 UNL     1     -33.723  15.932  -6.183  1.00 20.00    -0.293 OA
ENDROOT
BRANCH   5   7
HETATM    7  C9  UNL     1     -33.660  16.204  -2.760  1.00 20.00     0.021 C 
HETATM    8  C4  UNL     1     -34.455  16.319  -1.479  1.00 20.00    -0.025 C 
HETATM    9  C3  UNL     1     -35.517  17.111  -1.723  1.00 20.00    -0.025 C 
HETATM   10  C8  UNL     1     -35.514  17.426  -3.218  1.00 20.00     0.017 C 
HETATM   11  C6  UNL     1     -33.993  17.624  -3.315  1.00 20.00     0.018 C 
ENDBRANCH   5   7
TORSDOF 2
ENDMDL
MODEL 6
REMARK VINA RESULT:      -4.5      1.590      3.822
REMARK  2 active torsions:
REMARK  status: ('A' for Active; 'I' for Inactive)
REMARK    1  A    between atoms: C7_7  and  C8_8 
REMARK    2  A    between atoms: C9_9  and  C10_10 
ROOT
HETATM    1  C1  UNL     1     -36.059  14.688  -7.573  1.00 20.00     0.047 C 
HETATM    2  C2  UNL     1     -34.729  14.859  -7.736  1.00 20.00    -0.017 C 
HETATM    3  C5  UNL     1     -36.354  15.206  -6.193  1.00 20.00     0.154 C 
HETATM    4  C7  UNL     1     -34.195  15.735  -6.655  1.00 20.00     0.028 C 
HETATM    5  C10 UNL     1     -35.049  15.208  -5.475  1.00 20.00     0.075 C 
HETATM    6  O11 UNL     1     -37.456  15.458  -5.746  1.00 20.00    -0.293 OA
ENDROOT
BRANCH   5   7
HETATM    7  C9  UNL     1     -34.381  15.843  -4.266  1.00 20.00     0.021 C 
HETATM    8  C4  UNL     1     -32.983  15.346  -3.977  1.00 20.00    -0.025 C 
HETATM    9  C3  UNL     1     -33.073  14.056  -3.599  1.00 20.00    -0.025 C 
HETATM   10  C8  UNL     1     -34.533  13.637  -3.762  1.00 20.00     0.017 C 
HETATM   11  C6  UNL     1     -35.116  14.951  -3.217  1.00 20.00     0.018 C 
ENDBRANCH   5   7
TORSDOF 2
ENDMDL
MODEL 7
REMARK VINA RESULT:      -4.4      1.521      2.322
REMARK  2 active torsions:
REMARK  status: ('A' for Active; 'I' for Inactive)
REMARK    1  A    between atoms: C7_7  and  C8_8 
REMARK    2  A    between atoms: C9_9  and  C10_10 
ROOT
HETATM    1  C1  UNL     1     -33.359  14.145  -3.760  1.00 20.00     0.047 C 
HETATM    2  C2  UNL     1     -34.565  13.536  -3.778  1.00 20.00    -0.017 C 
HETATM    3  C5  UNL     1     -33.553  15.418  -4.536  1.00 20.00     0.154 C 
HETATM    4  C7  UNL     1     -35.605  14.485  -4.267  1.00 20.00     0.028 C 
HETATM    5  C10 UNL     1     -34.777  15.208  -5.358  1.00 20.00     0.075 C 
HETATM    6  O11 UNL     1     -32.790  16.365  -4.555  1.00 20.00    -0.293 OA
ENDROOT
BRANCH   5   7
HETATM    7  C9  UNL     1     -35.832  16.004  -6.109  1.00 20.00     0.021 C 
HETATM    8  C4  UNL     1     -36.809  15.172  -6.907  1.00 20.00    -0.025 C 
HETATM    9  C3  UNL     1     -36.129  14.592  -7.916  1.00 20.00    -0.025 C 
HETATM   10  C8  UNL     1     -34.651  14.928  -7.719  1.00 20.00     0.017 C 
HETATM   11  C6  UNL     1     -34.897  16.387  -7.298  1.00 20.00     0.018 C 
ENDBRANCH   5   7
TORSDOF 2
ENDMDL
MODEL 8
REMARK VINA RESULT:      -4.3      1.829      2.238
REMARK  2 active torsions:
REMARK  status: ('A' for Active; 'I' for Inactive)
REMARK    1  A    between atoms: C7_7  and  C8_8 
REMARK    2  A    between atoms: C9_9  and  C10_10 
ROOT
HETATM    1  C1  UNL     1     -33.191  13.804  -3.627  1.00 20.00     0.047 C 
HETATM    2  C2  UNL     1     -32.917  15.124  -3.719  1.00 20.00    -0.017 C 
HETATM    3  C5  UNL     1     -34.415  13.599  -4.474  1.00 20.00     0.154 C 
HETATM    4  C7  UNL     1     -33.718  15.732  -4.818  1.00 20.00     0.028 C 
HETATM    5  C10 UNL     1     -35.037  14.945  -4.618  1.00 20.00     0.075 C 
HETATM    6  O11 UNL     1     -34.847  12.529  -4.856  1.00 20.00    -0.293 OA
ENDROOT
BRANCH   5   7
HETATM    7  C9  UNL     1     -36.014  15.692  -5.511  1.00 20.00     0.021 C 
HETATM    8  C4  UNL     1     -36.322  17.106  -5.075  1.00 20.00    -0.025 C 
HETATM    9  C3  UNL     1     -37.002  17.041  -3.914  1.00 20.00    -0.025 C 
HETATM   10  C8  UNL     1     -37.038  15.572  -3.492  1.00 20.00     0.017 C 
HETATM   11  C6  UNL     1     -37.290  15.028  -4.907  1.00 20.00     0.018 C 
ENDBRANCH   5   7
TORSDOF 2
ENDMDL
MODEL 9
REMARK VINA RESULT:      -4.3      1.450      1.769
REMARK  2 active torsions:
REMARK  status: ('A' for Active; 'I' for Inactive)
REMARK    1  A    between atoms: C7_7  and  C8_8 
REMARK    2  A    between atoms: C9_9  and  C10_10 
ROOT
HETATM    1  C1  UNL     1     -35.119  15.539  -2.561  1.00 20.00     0.047 C 
HETATM    2  C2  UNL     1     -33.893  15.457  -3.123  1.00 20.00    -0.017 C 
HETATM    3  C5  UNL     1     -36.056  14.952  -3.579  1.00 20.00     0.154 C 
HETATM    4  C7  UNL     1     -33.944  14.578  -4.325  1.00 20.00     0.028 C 
HETATM    5  C10 UNL     1     -35.326  15.006  -4.877  1.00 20.00     0.075 C 
HETATM    6  O11 UNL     1     -37.207  14.616  -3.380  1.00 20.00    -0.293 OA
ENDROOT
BRANCH   5   7
HETATM    7  C9  UNL     1     -35.349  14.371  -6.257  1.00 20.00     0.021 C 
HETATM    8  C4  UNL     1     -34.370  14.962  -7.246  1.00 20.00    -0.025 C 
HETATM    9  C3  UNL     1     -34.764  16.222  -7.515  1.00 20.00    -0.025 C 
HETATM   10  C8  UNL     1     -35.946  16.532  -6.596  1.00 20.00     0.017 C 
HETATM   11  C6  UNL     1     -36.606  15.153  -6.750  1.00 20.00     0.018 C 
ENDBRANCH   5   7
TORSDOF 2
ENDMDL
