MODEL 1
REMARK VINA RESULT:      -4.9      0.000      0.000
REMARK  5 active torsions:
REMARK  status: ('A' for Active; 'I' for Inactive)
REMARK    1  A    between atoms: C1_1  and  C2_2 
REMARK    2  A    between atoms: C1_1  and  C3_3 
REMARK    3  A    between atoms: C2_2  and  C7_7 
REMARK    4  A    between atoms: C7_7  and  C8_8 
REMARK    5  A    between atoms: C8_8  and  O9_9 
ROOT
HETATM    1  C2  UNL     1     -33.811   5.439   3.214  1.00 20.00     0.070 C 
ENDROOT
BRANCH   1   2
HETATM    2  C1  UNL     1     -32.968   6.424   3.091  1.00 20.00    -0.166 C 
BRANCH   2   3
HETATM    3  C3  UNL     1     -32.119   7.408   2.976  1.00 20.00     0.022 C 
HETATM    4  C4  UNL     1     -32.034   8.251   1.735  1.00 20.00     0.029 C 
HETATM    5  C5  UNL     1     -31.161   7.777   4.072  1.00 20.00     0.029 C 
ENDBRANCH   2   3
ENDBRANCH   1   2
BRANCH   1   6
HETATM    6  C7  UNL     1     -35.214   5.574   3.735  1.00 20.00     0.048 C 
BRANCH   6   7
HETATM    7  C8  UNL     1     -35.379   4.901   5.100  1.00 20.00     0.115 C 
HETATM    8  C6  UNL     1     -34.392   5.466   6.114  1.00 20.00     0.039 C 
BRANCH   7   9
HETATM    9  O9  UNL     1     -35.130   3.503   4.957  1.00 20.00    -0.396 OA
HETATM   10  H23 UNL     1     -34.758   3.202   5.801  1.00 20.00     0.210 HD
ENDBRANCH   7   9
ENDBRANCH   6   7
ENDBRANCH   1   6
TORSDOF 5
ENDMDL
MODEL 2
REMARK VINA RESULT:      -4.9      2.157      4.507
REMARK  5 active torsions:
REMARK  status: ('A' for Active; 'I' for Inactive)
REMARK    1  A    between atoms: C1_1  and  C2_2 
REMARK    2  A    between atoms: C1_1  and  C3_3 
REMARK    3  A    between atoms: C2_2  and  C7_7 
REMARK    4  A    between atoms: C7_7  and  C8_8 
REMARK    5  A    between atoms: C8_8  and  O9_9 
ROOT
HETATM    1  C2  UNL     1     -33.833   5.681   3.025  1.00 20.00     0.070 C 
ENDROOT
BRANCH   1   2
HETATM    2  C1  UNL     1     -34.119   5.605   4.293  1.00 20.00    -0.166 C 
BRANCH   2   3
HETATM    3  C3  UNL     1     -34.401   5.523   5.564  1.00 20.00     0.022 C 
HETATM    4  C4  UNL     1     -34.037   6.607   6.537  1.00 20.00     0.029 C 
HETATM    5  C5  UNL     1     -35.113   4.339   6.155  1.00 20.00     0.029 C 
ENDBRANCH   2   3
ENDBRANCH   1   2
BRANCH   1   6
HETATM    6  C7  UNL     1     -32.525   6.172   2.470  1.00 20.00     0.048 C 
BRANCH   6   7
HETATM    7  C8  UNL     1     -32.294   7.652   2.788  1.00 20.00     0.115 C 
HETATM    8  C6  UNL     1     -31.888   8.425   1.540  1.00 20.00     0.039 C 
BRANCH   7   9
HETATM    9  O9  UNL     1     -31.243   7.758   3.748  1.00 20.00    -0.396 OA
HETATM   10  H23 UNL     1     -30.492   7.261   3.389  1.00 20.00     0.210 HD
ENDBRANCH   7   9
ENDBRANCH   6   7
ENDBRANCH   1   6
TORSDOF 5
ENDMDL
MODEL 3
REMARK VINA RESULT:      -4.8      2.674      4.936
REMARK  5 active torsions:
REMARK  status: ('A' for Active; 'I' for Inactive)
REMARK    1  A    between atoms: C1_1  and  C2_2 
REMARK    2  A    between atoms: C1_1  and  C3_3 
REMARK    3  A    between atoms: C2_2  and  C7_7 
REMARK    4  A    between atoms: C7_7  and  C8_8 
REMARK    5  A    between atoms: C8_8  and  O9_9 
ROOT
HETATM    1  C2  UNL     1     -32.547   6.529   3.012  1.00 20.00     0.070 C 
ENDROOT
BRANCH   1   2
HETATM    2  C1  UNL     1     -33.345   6.177   3.980  1.00 20.00    -0.166 C 
BRANCH   2   3
HETATM    3  C3  UNL     1     -34.149   5.831   4.947  1.00 20.00     0.022 C 
HETATM    4  C4  UNL     1     -35.238   4.814   4.758  1.00 20.00     0.029 C 
HETATM    5  C5  UNL     1     -34.050   6.419   6.325  1.00 20.00     0.029 C 
ENDBRANCH   2   3
ENDBRANCH   1   2
BRANCH   1   6
HETATM    6  C7  UNL     1     -31.904   7.880   2.880  1.00 20.00     0.048 C 
BRANCH   6   7
HETATM    7  C8  UNL     1     -32.446   8.651   1.673  1.00 20.00     0.115 C 
HETATM    8  C6  UNL     1     -31.483   8.573   0.495  1.00 20.00     0.039 C 
BRANCH   7   9
HETATM    9  O9  UNL     1     -32.606  10.022   2.036  1.00 20.00    -0.396 OA
HETATM   10  H23 UNL     1     -31.784  10.288   2.477  1.00 20.00     0.210 HD
ENDBRANCH   7   9
ENDBRANCH   6   7
ENDBRANCH   1   6
TORSDOF 5
ENDMDL
MODEL 4
REMARK VINA RESULT:      -4.6      1.228      1.743
REMARK  5 active torsions:
REMARK  status: ('A' for Active; 'I' for Inactive)
REMARK    1  A    between atoms: C1_1  and  C2_2 
REMARK    2  A    between atoms: C1_1  and  C3_3 
REMARK    3  A    between atoms: C2_2  and  C7_7 
REMARK    4  A    between atoms: C7_7  and  C8_8 
REMARK    5  A    between atoms: C8_8  and  O9_9 
ROOT
HETATM    1  C2  UNL     1     -33.963   5.565   2.937  1.00 20.00     0.070 C 
ENDROOT
BRANCH   1   2
HETATM    2  C1  UNL     1     -33.056   6.498   2.889  1.00 20.00    -0.166 C 
BRANCH   2   3
HETATM    3  C3  UNL     1     -32.151   7.437   2.848  1.00 20.00     0.022 C 
HETATM    4  C4  UNL     1     -31.226   7.709   4.000  1.00 20.00     0.029 C 
HETATM    5  C5  UNL     1     -31.961   8.318   1.647  1.00 20.00     0.029 C 
ENDBRANCH   2   3
ENDBRANCH   1   2
BRANCH   1   6
HETATM    6  C7  UNL     1     -34.977   5.411   4.035  1.00 20.00     0.048 C 
BRANCH   6   7
HETATM    7  C8  UNL     1     -34.311   5.191   5.396  1.00 20.00     0.115 C 
HETATM    8  C6  UNL     1     -35.126   4.237   6.259  1.00 20.00     0.039 C 
BRANCH   7   9
HETATM    9  O9  UNL     1     -34.219   6.445   6.071  1.00 20.00    -0.396 OA
HETATM   10  H23 UNL     1     -35.080   6.878   5.967  1.00 20.00     0.210 HD
ENDBRANCH   7   9
ENDBRANCH   6   7
ENDBRANCH   1   6
TORSDOF 5
ENDMDL
MODEL 5
REMARK VINA RESULT:      -4.5      1.531      2.101
REMARK  5 active torsions:
REMARK  status: ('A' for Active; 'I' for Inactive)
REMARK    1  A    between atoms: C1_1  and  C2_2 
REMARK    2  A    between atoms: C1_1  and  C3_3 
REMARK    3  A    between atoms: C2_2  and  C7_7 
REMARK    4  A    between atoms: C7_7  and  C8_8 
REMARK    5  A    between atoms: C8_8  and  O9_9 
ROOT
HETATM    1  C2  UNL     1     -32.608   6.613   3.410  1.00 20.00     0.070 C 
ENDROOT
BRANCH   1   2
HETATM    2  C1  UNL     1     -32.405   7.604   2.589  1.00 20.00    -0.166 C 
BRANCH   2   3
HETATM    3  C3  UNL     1     -32.201   8.591   1.760  1.00 20.00     0.022 C 
HETATM    4  C4  UNL     1     -31.435   8.417   0.480  1.00 20.00     0.029 C 
HETATM    5  C5  UNL     1     -32.718   9.977   2.019  1.00 20.00     0.029 C 
ENDBRANCH   2   3
ENDBRANCH   1   2
BRANCH   1   6
HETATM    6  C7  UNL     1     -33.960   6.143   3.867  1.00 20.00     0.048 C 
BRANCH   6   7
HETATM    7  C8  UNL     1     -33.906   5.546   5.276  1.00 20.00     0.115 C 
HETATM    8  C6  UNL     1     -35.050   4.566   5.501  1.00 20.00     0.039 C 
BRANCH   7   9
HETATM    9  O9  UNL     1     -34.022   6.603   6.228  1.00 20.00    -0.396 OA
HETATM   10  H23 UNL     1     -34.752   7.166   5.927  1.00 20.00     0.210 HD
ENDBRANCH   7   9
ENDBRANCH   6   7
ENDBRANCH   1   6
TORSDOF 5
ENDMDL
MODEL 6
REMARK VINA RESULT:      -4.5      1.022      1.870
REMARK  5 active torsions:
REMARK  status: ('A' for Active; 'I' for Inactive)
REMARK    1  A    between atoms: C1_1  and  C2_2 
REMARK    2  A    between atoms: C1_1  and  C3_3 
REMARK    3  A    between atoms: C2_2  and  C7_7 
REMARK    4  A    between atoms: C7_7  and  C8_8 
REMARK    5  A    between atoms: C8_8  and  O9_9 
ROOT
HETATM    1  C2  UNL     1     -32.574   6.660   3.460  1.00 20.00     0.070 C 
ENDROOT
BRANCH   1   2
HETATM    2  C1  UNL     1     -32.388   7.633   2.614  1.00 20.00    -0.166 C 
BRANCH   2   3
HETATM    3  C3  UNL     1     -32.206   8.604   1.761  1.00 20.00     0.022 C 
HETATM    4  C4  UNL     1     -32.716   9.995   2.010  1.00 20.00     0.029 C 
HETATM    5  C5  UNL     1     -31.473   8.408   0.465  1.00 20.00     0.029 C 
ENDBRANCH   2   3
ENDBRANCH   1   2
BRANCH   1   6
HETATM    6  C7  UNL     1     -33.677   5.644   3.367  1.00 20.00     0.048 C 
BRANCH   6   7
HETATM    7  C8  UNL     1     -34.718   5.834   4.474  1.00 20.00     0.115 C 
HETATM    8  C6  UNL     1     -34.050   6.114   5.814  1.00 20.00     0.039 C 
BRANCH   7   9
HETATM    9  O9  UNL     1     -35.486   4.637   4.594  1.00 20.00    -0.396 OA
HETATM   10  H23 UNL     1     -34.914   3.912   4.298  1.00 20.00     0.210 HD
ENDBRANCH   7   9
ENDBRANCH   6   7
ENDBRANCH   1   6
TORSDOF 5
ENDMDL
MODEL 7
REMARK VINA RESULT:      -4.4     11.255     11.988
REMARK  5 active torsions:
REMARK  status: ('A' for Active; 'I' for Inactive)
REMARK    1  A    between atoms: C1_1  and  C2_2 
REMARK    2  A    between atoms: C1_1  and  C3_3 
REMARK    3  A    between atoms: C2_2  and  C7_7 
REMARK    4  A    between atoms: C7_7  and  C8_8 
REMARK    5  A    between atoms: C8_8  and  O9_9 
ROOT
HETATM    1  C2  UNL     1     -34.783  15.069  -2.940  1.00 20.00     0.070 C 
ENDROOT
BRANCH   1   2
HETATM    2  C1  UNL     1     -34.545  16.061  -2.131  1.00 20.00    -0.166 C 
BRANCH   2   3
HETATM    3  C3  UNL     1     -34.314  17.055  -1.318  1.00 20.00     0.022 C 
HETATM    4  C4  UNL     1     -34.867  17.092   0.078  1.00 20.00     0.029 C 
HETATM    5  C5  UNL     1     -33.476  18.237  -1.711  1.00 20.00     0.029 C 
ENDBRANCH   2   3
ENDBRANCH   1   2
BRANCH   1   6
HETATM    6  C7  UNL     1     -33.727  14.275  -3.656  1.00 20.00     0.048 C 
BRANCH   6   7
HETATM    7  C8  UNL     1     -34.332  13.357  -4.721  1.00 20.00     0.115 C 
HETATM    8  C6  UNL     1     -34.937  14.164  -5.863  1.00 20.00     0.039 C 
BRANCH   7   9
HETATM    9  O9  UNL     1     -35.366  12.576  -4.123  1.00 20.00    -0.396 OA
HETATM   10  H23 UNL     1     -35.977  13.202  -3.705  1.00 20.00     0.210 HD
ENDBRANCH   7   9
ENDBRANCH   6   7
ENDBRANCH   1   6
TORSDOF 5
ENDMDL
MODEL 8
REMARK VINA RESULT:      -4.4     11.224     11.961
REMARK  5 active torsions:
REMARK  status: ('A' for Active; 'I' for Inactive)
REMARK    1  A    between atoms: C1_1  and  C2_2 
REMARK    2  A    between atoms: C1_1  and  C3_3 
REMARK    3  A    between atoms: C2_2  and  C7_7 
REMARK    4  A    between atoms: C7_7  and  C8_8 
REMARK    5  A    between atoms: C8_8  and  O9_9 
ROOT
HETATM    1  C2  UNL     1     -34.783  15.124  -2.974  1.00 20.00     0.070 C 
ENDROOT
BRANCH   1   2
HETATM    2  C1  UNL     1     -34.541  16.096  -2.141  1.00 20.00    -0.166 C 
BRANCH   2   3
HETATM    3  C3  UNL     1     -34.306  17.071  -1.306  1.00 20.00     0.022 C 
HETATM    4  C4  UNL     1     -33.454  18.253  -1.674  1.00 20.00     0.029 C 
HETATM    5  C5  UNL     1     -34.869  17.091   0.086  1.00 20.00     0.029 C 
ENDBRANCH   2   3
ENDBRANCH   1   2
BRANCH   1   6
HETATM    6  C7  UNL     1     -33.732  14.259  -3.609  1.00 20.00     0.048 C 
BRANCH   6   7
HETATM    7  C8  UNL     1     -34.321  13.359  -4.699  1.00 20.00     0.115 C 
HETATM    8  C6  UNL     1     -34.896  14.186  -5.842  1.00 20.00     0.039 C 
BRANCH   7   9
HETATM    9  O9  UNL     1     -35.372  12.578  -4.132  1.00 20.00    -0.396 OA
HETATM   10  H23 UNL     1     -35.527  11.841  -4.742  1.00 20.00     0.210 HD
ENDBRANCH   7   9
ENDBRANCH   6   7
ENDBRANCH   1   6
TORSDOF 5
ENDMDL
MODEL 9
REMARK VINA RESULT:      -4.2     11.323     11.918
REMARK  5 active torsions:
REMARK  status: ('A' for Active; 'I' for Inactive)
REMARK    1  A    between atoms: C1_1  and  C2_2 
REMARK    2  A    between atoms: C1_1  and  C3_3 
REMARK    3  A    between atoms: C2_2  and  C7_7 
REMARK    4  A    between atoms: C7_7  and  C8_8 
REMARK    5  A    between atoms: C8_8  and  O9_9 
ROOT
HETATM    1  C2  UNL     1     -34.519  15.687  -2.443  1.00 20.00     0.070 C 
ENDROOT
BRANCH   1   2
HETATM    2  C1  UNL     1     -34.368  16.524  -1.457  1.00 20.00    -0.166 C 
BRANCH   2   3
HETATM    3  C3  UNL     1     -34.216  17.357  -0.464  1.00 20.00     0.022 C 
HETATM    4  C4  UNL     1     -33.076  18.333  -0.404  1.00 20.00     0.029 C 
HETATM    5  C5  UNL     1     -35.168  17.407   0.697  1.00 20.00     0.029 C 
ENDBRANCH   2   3
ENDBRANCH   1   2
BRANCH   1   6
HETATM    6  C7  UNL     1     -33.472  15.383  -3.477  1.00 20.00     0.048 C 
BRANCH   6   7
HETATM    7  C8  UNL     1     -33.823  14.134  -4.290  1.00 20.00     0.115 C 
HETATM    8  C6  UNL     1     -35.261  13.700  -4.035  1.00 20.00     0.039 C 
BRANCH   7   9
HETATM    9  O9  UNL     1     -32.954  13.072  -3.899  1.00 20.00    -0.396 OA
HETATM   10  H23 UNL     1     -32.116  13.483  -3.638  1.00 20.00     0.210 HD
ENDBRANCH   7   9
ENDBRANCH   6   7
ENDBRANCH   1   6
TORSDOF 5
ENDMDL
