MODEL 1
REMARK VINA RESULT:      -3.6      0.000      0.000
REMARK  0 active torsions:
REMARK  status: ('A' for Active; 'I' for Inactive)
ROOT
HETATM    1  C1  UNL     1     -34.417   5.817   6.328  1.00 20.00     0.028 C 
HETATM    2  C2  UNL     1     -34.865   4.442   5.904  1.00 20.00     0.028 C 
HETATM    3  C3  UNL     1     -33.765   6.337   5.065  1.00 20.00     0.167 C 
HETATM    4  C4  UNL     1     -35.291   4.681   4.472  1.00 20.00     0.167 C 
HETATM    5  O5  UNL     1     -34.461   5.735   3.964  1.00 20.00    -0.391 OA
ENDROOT
TORSDOF 0
ENDMDL
MODEL 2
REMARK VINA RESULT:      -3.6      0.024      1.754
REMARK  0 active torsions:
REMARK  status: ('A' for Active; 'I' for Inactive)
ROOT
HETATM    1  C1  UNL     1     -34.863   4.448   5.891  1.00 20.00     0.028 C 
HETATM    2  C2  UNL     1     -34.395   5.818   6.310  1.00 20.00     0.028 C 
HETATM    3  C3  UNL     1     -35.311   4.694   4.467  1.00 20.00     0.167 C 
HETATM    4  C4  UNL     1     -33.759   6.332   5.038  1.00 20.00     0.167 C 
HETATM    5  O5  UNL     1     -34.478   5.740   3.948  1.00 20.00    -0.391 OA
ENDROOT
TORSDOF 0
ENDMDL
MODEL 3
REMARK VINA RESULT:      -3.5      1.323      2.462
REMARK  0 active torsions:
REMARK  status: ('A' for Active; 'I' for Inactive)
ROOT
HETATM    1  C1  UNL     1     -35.175   4.993   4.379  1.00 20.00     0.028 C 
HETATM    2  C2  UNL     1     -34.093   6.041   4.433  1.00 20.00     0.028 C 
HETATM    3  C3  UNL     1     -34.913   4.208   5.646  1.00 20.00     0.167 C 
HETATM    4  C4  UNL     1     -34.028   6.345   5.913  1.00 20.00     0.167 C 
HETATM    5  O5  UNL     1     -34.373   5.134   6.600  1.00 20.00    -0.391 OA
ENDROOT
TORSDOF 0
ENDMDL
MODEL 4
REMARK VINA RESULT:      -3.5      1.323      1.809
REMARK  0 active torsions:
REMARK  status: ('A' for Active; 'I' for Inactive)
ROOT
HETATM    1  C1  UNL     1     -34.049   6.037   4.458  1.00 20.00     0.028 C 
HETATM    2  C2  UNL     1     -35.135   4.996   4.364  1.00 20.00     0.028 C 
HETATM    3  C3  UNL     1     -34.029   6.334   5.942  1.00 20.00     0.167 C 
HETATM    4  C4  UNL     1     -34.917   4.204   5.634  1.00 20.00     0.167 C 
HETATM    5  O5  UNL     1     -34.403   5.121   6.610  1.00 20.00    -0.391 OA
ENDROOT
TORSDOF 0
ENDMDL
MODEL 5
REMARK VINA RESULT:      -3.3      1.174      1.848
REMARK  0 active torsions:
REMARK  status: ('A' for Active; 'I' for Inactive)
ROOT
HETATM    1  C1  UNL     1     -34.412   5.287   3.567  1.00 20.00     0.028 C 
HETATM    2  C2  UNL     1     -35.353   4.851   4.661  1.00 20.00     0.028 C 
HETATM    3  C3  UNL     1     -33.861   6.580   4.127  1.00 20.00     0.167 C 
HETATM    4  C4  UNL     1     -34.601   5.271   5.904  1.00 20.00     0.167 C 
HETATM    5  O5  UNL     1     -33.842   6.436   5.555  1.00 20.00    -0.391 OA
ENDROOT
TORSDOF 0
ENDMDL
MODEL 6
REMARK VINA RESULT:      -3.1      1.084      1.798
REMARK  0 active torsions:
REMARK  status: ('A' for Active; 'I' for Inactive)
ROOT
HETATM    1  C1  UNL     1     -34.026   5.960   5.787  1.00 20.00     0.028 C 
HETATM    2  C2  UNL     1     -34.306   6.449   4.389  1.00 20.00     0.028 C 
HETATM    3  C3  UNL     1     -35.040   4.848   5.938  1.00 20.00     0.167 C 
HETATM    4  C4  UNL     1     -34.631   5.160   3.668  1.00 20.00     0.167 C 
HETATM    5  O5  UNL     1     -35.235   4.287   4.632  1.00 20.00    -0.391 OA
ENDROOT
TORSDOF 0
ENDMDL
MODEL 7
REMARK VINA RESULT:      -2.7     12.161     12.572
REMARK  0 active torsions:
REMARK  status: ('A' for Active; 'I' for Inactive)
ROOT
HETATM    1  C1  UNL     1     -33.817  14.922  -3.722  1.00 20.00     0.028 C 
HETATM    2  C2  UNL     1     -35.282  14.958  -3.370  1.00 20.00     0.028 C 
HETATM    3  C3  UNL     1     -33.566  13.436  -3.863  1.00 20.00     0.167 C 
HETATM    4  C4  UNL     1     -35.833  13.831  -4.216  1.00 20.00     0.167 C 
HETATM    5  O5  UNL     1     -34.790  12.855  -4.334  1.00 20.00    -0.391 OA
ENDROOT
TORSDOF 0
ENDMDL
MODEL 8
REMARK VINA RESULT:      -2.7     12.192     12.629
REMARK  0 active torsions:
REMARK  status: ('A' for Active; 'I' for Inactive)
ROOT
HETATM    1  C1  UNL     1     -35.372  14.855  -3.393  1.00 20.00     0.028 C 
HETATM    2  C2  UNL     1     -33.889  14.940  -3.653  1.00 20.00     0.028 C 
HETATM    3  C3  UNL     1     -35.788  13.738  -4.325  1.00 20.00     0.167 C 
HETATM    4  C4  UNL     1     -33.524  13.485  -3.848  1.00 20.00     0.167 C 
HETATM    5  O5  UNL     1     -34.670  12.844  -4.422  1.00 20.00    -0.391 OA
ENDROOT
TORSDOF 0
ENDMDL
MODEL 9
REMARK VINA RESULT:      -2.6      8.782      9.397
REMARK  0 active torsions:
REMARK  status: ('A' for Active; 'I' for Inactive)
ROOT
HETATM    1  C1  UNL     1     -40.833   5.897  -0.204  1.00 20.00     0.028 C 
HETATM    2  C2  UNL     1     -40.737   4.640  -1.030  1.00 20.00     0.028 C 
HETATM    3  C3  UNL     1     -41.156   6.937  -1.255  1.00 20.00     0.167 C 
HETATM    4  C4  UNL     1     -41.828   4.856  -2.055  1.00 20.00     0.167 C 
HETATM    5  O5  UNL     1     -41.915   6.271  -2.274  1.00 20.00    -0.391 OA
ENDROOT
TORSDOF 0
ENDMDL
