MODEL 1
REMARK VINA RESULT:      -3.8      0.000      0.000
REMARK  0 active torsions:
REMARK  status: ('A' for Active; 'I' for Inactive)
ROOT
HETATM    1  C1  UNL     1     -34.489  13.621  -4.670  1.00 20.00     0.260 C 
HETATM    2  C2  UNL     1     -33.318  14.148  -3.881  1.00 20.00     0.137 C 
HETATM    3  C3  UNL     1     -33.590  15.537  -3.331  1.00 20.00     0.177 C 
HETATM    4  C4  UNL     1     -34.055  15.416  -6.285  1.00 20.00     0.205 C 
HETATM    5  C5  UNL     1     -34.181  16.623  -5.372  1.00 20.00     0.194 C 
HETATM    6  O6  UNL     1     -35.104  12.617  -4.320  1.00 20.00    -0.265 OA
HETATM    7  O7  UNL     1     -34.832  14.306  -5.788  1.00 20.00    -0.319 OA
HETATM    8  O8  UNL     1     -33.267  16.547  -4.281  1.00 20.00    -0.389 OA
ENDROOT
TORSDOF 0
ENDMDL
MODEL 2
REMARK VINA RESULT:      -3.8      1.384      3.178
REMARK  0 active torsions:
REMARK  status: ('A' for Active; 'I' for Inactive)
ROOT
HETATM    1  C1  UNL     1     -33.598  15.433  -4.121  1.00 20.00     0.260 C 
HETATM    2  C2  UNL     1     -33.514  13.943  -3.911  1.00 20.00     0.137 C 
HETATM    3  C3  UNL     1     -34.483  13.193  -4.808  1.00 20.00     0.177 C 
HETATM    4  C4  UNL     1     -35.875  15.312  -3.218  1.00 20.00     0.205 C 
HETATM    5  C5  UNL     1     -36.491  14.328  -4.196  1.00 20.00     0.194 C 
HETATM    6  O6  UNL     1     -32.642  16.081  -4.540  1.00 20.00    -0.265 OA
HETATM    7  O7  UNL     1     -34.778  16.028  -3.823  1.00 20.00    -0.319 OA
HETATM    8  O8  UNL     1     -35.774  13.096  -4.217  1.00 20.00    -0.389 OA
ENDROOT
TORSDOF 0
ENDMDL
MODEL 3
REMARK VINA RESULT:      -3.8     12.317     13.800
REMARK  0 active torsions:
REMARK  status: ('A' for Active; 'I' for Inactive)
ROOT
HETATM    1  C1  UNL     1     -33.882   6.534   6.245  1.00 20.00     0.260 C 
HETATM    2  C2  UNL     1     -33.160   6.463   4.924  1.00 20.00     0.137 C 
HETATM    3  C3  UNL     1     -34.126   6.486   3.753  1.00 20.00     0.177 C 
HETATM    4  C4  UNL     1     -34.826   4.334   5.712  1.00 20.00     0.205 C 
HETATM    5  C5  UNL     1     -35.518   4.659   4.401  1.00 20.00     0.194 C 
HETATM    6  O6  UNL     1     -33.724   7.476   7.017  1.00 20.00    -0.265 OA
HETATM    7  O7  UNL     1     -34.713   5.507   6.545  1.00 20.00    -0.319 OA
HETATM    8  O8  UNL     1     -34.601   5.180   3.443  1.00 20.00    -0.389 OA
ENDROOT
TORSDOF 0
ENDMDL
MODEL 4
REMARK VINA RESULT:      -3.8      1.412      1.909
REMARK  0 active torsions:
REMARK  status: ('A' for Active; 'I' for Inactive)
ROOT
HETATM    1  C1  UNL     1     -34.730  13.657  -4.069  1.00 20.00     0.260 C 
HETATM    2  C2  UNL     1     -35.672  14.763  -3.667  1.00 20.00     0.137 C 
HETATM    3  C3  UNL     1     -35.625  15.925  -4.644  1.00 20.00     0.177 C 
HETATM    4  C4  UNL     1     -32.894  15.226  -3.637  1.00 20.00     0.205 C 
HETATM    5  C5  UNL     1     -33.276  16.342  -4.593  1.00 20.00     0.194 C 
HETATM    6  O6  UNL     1     -35.137  12.536  -4.361  1.00 20.00    -0.265 OA
HETATM    7  O7  UNL     1     -33.408  13.956  -4.090  1.00 20.00    -0.319 OA
HETATM    8  O8  UNL     1     -34.583  16.839  -4.318  1.00 20.00    -0.389 OA
ENDROOT
TORSDOF 0
ENDMDL
MODEL 5
REMARK VINA RESULT:      -3.8     12.260     13.466
REMARK  0 active torsions:
REMARK  status: ('A' for Active; 'I' for Inactive)
ROOT
HETATM    1  C1  UNL     1     -33.256   6.446   4.176  1.00 20.00     0.260 C 
HETATM    2  C2  UNL     1     -33.791   6.736   5.554  1.00 20.00     0.137 C 
HETATM    3  C3  UNL     1     -33.957   5.467   6.372  1.00 20.00     0.177 C 
HETATM    4  C4  UNL     1     -35.362   5.268   3.736  1.00 20.00     0.205 C 
HETATM    5  C5  UNL     1     -35.319   4.234   4.848  1.00 20.00     0.194 C 
HETATM    6  O6  UNL     1     -32.169   6.877   3.800  1.00 20.00    -0.265 OA
HETATM    7  O7  UNL     1     -34.032   5.687   3.365  1.00 20.00    -0.319 OA
HETATM    8  O8  UNL     1     -35.218   4.852   6.129  1.00 20.00    -0.389 OA
ENDROOT
TORSDOF 0
ENDMDL
MODEL 6
REMARK VINA RESULT:      -3.7      1.056      2.908
REMARK  0 active torsions:
REMARK  status: ('A' for Active; 'I' for Inactive)
ROOT
HETATM    1  C1  UNL     1     -33.655  16.067  -4.758  1.00 20.00     0.260 C 
HETATM    2  C2  UNL     1     -33.395  15.417  -3.424  1.00 20.00     0.137 C 
HETATM    3  C3  UNL     1     -33.001  13.958  -3.577  1.00 20.00     0.177 C 
HETATM    4  C4  UNL     1     -35.572  14.554  -4.988  1.00 20.00     0.205 C 
HETATM    5  C5  UNL     1     -34.863  13.217  -4.872  1.00 20.00     0.194 C 
HETATM    6  O6  UNL     1     -32.972  17.004  -5.164  1.00 20.00    -0.265 OA
HETATM    7  O7  UNL     1     -34.681  15.572  -5.491  1.00 20.00    -0.319 OA
HETATM    8  O8  UNL     1     -34.144  13.113  -3.646  1.00 20.00    -0.389 OA
ENDROOT
TORSDOF 0
ENDMDL
MODEL 7
REMARK VINA RESULT:      -3.6      1.796      2.243
REMARK  0 active torsions:
REMARK  status: ('A' for Active; 'I' for Inactive)
ROOT
HETATM    1  C1  UNL     1     -33.579  13.687  -3.785  1.00 20.00     0.260 C 
HETATM    2  C2  UNL     1     -33.392  15.180  -3.718  1.00 20.00     0.137 C 
HETATM    3  C3  UNL     1     -34.288  15.812  -2.666  1.00 20.00     0.177 C 
HETATM    4  C4  UNL     1     -35.859  14.126  -4.577  1.00 20.00     0.205 C 
HETATM    5  C5  UNL     1     -36.383  14.949  -3.414  1.00 20.00     0.194 C 
HETATM    6  O6  UNL     1     -32.665  12.909  -3.525  1.00 20.00    -0.265 OA
HETATM    7  O7  UNL     1     -34.804  13.238  -4.151  1.00 20.00    -0.319 OA
HETATM    8  O8  UNL     1     -35.580  16.104  -3.188  1.00 20.00    -0.389 OA
ENDROOT
TORSDOF 0
ENDMDL
MODEL 8
REMARK VINA RESULT:      -3.6      1.461      2.065
REMARK  0 active torsions:
REMARK  status: ('A' for Active; 'I' for Inactive)
ROOT
HETATM    1  C1  UNL     1     -34.958  13.751  -4.362  1.00 20.00     0.260 C 
HETATM    2  C2  UNL     1     -33.870  14.704  -4.784  1.00 20.00     0.137 C 
HETATM    3  C3  UNL     1     -33.073  15.211  -3.595  1.00 20.00     0.177 C 
HETATM    4  C4  UNL     1     -36.010  15.646  -3.214  1.00 20.00     0.205 C 
HETATM    5  C5  UNL     1     -34.882  16.042  -2.278  1.00 20.00     0.194 C 
HETATM    6  O6  UNL     1     -34.966  12.578  -4.727  1.00 20.00    -0.265 OA
HETATM    7  O7  UNL     1     -35.931  14.247  -3.560  1.00 20.00    -0.319 OA
HETATM    8  O8  UNL     1     -33.690  16.347  -2.999  1.00 20.00    -0.389 OA
ENDROOT
TORSDOF 0
ENDMDL
MODEL 9
REMARK VINA RESULT:      -3.6      1.741      2.616
REMARK  0 active torsions:
REMARK  status: ('A' for Active; 'I' for Inactive)
ROOT
HETATM    1  C1  UNL     1     -33.915  13.642  -3.891  1.00 20.00     0.260 C 
HETATM    2  C2  UNL     1     -34.806  13.249  -5.040  1.00 20.00     0.137 C 
HETATM    3  C3  UNL     1     -34.948  14.373  -6.052  1.00 20.00     0.177 C 
HETATM    4  C4  UNL     1     -35.624  15.293  -3.285  1.00 20.00     0.205 C 
HETATM    5  C5  UNL     1     -35.676  16.098  -4.571  1.00 20.00     0.194 C 
HETATM    6  O6  UNL     1     -32.858  13.058  -3.664  1.00 20.00    -0.265 OA
HETATM    7  O7  UNL     1     -34.334  14.669  -3.114  1.00 20.00    -0.319 OA
HETATM    8  O8  UNL     1     -35.991  15.272  -5.689  1.00 20.00    -0.389 OA
ENDROOT
TORSDOF 0
ENDMDL
