MODEL 1
REMARK VINA RESULT:      -5.3      0.000      0.000
REMARK  3 active torsions:
REMARK  status: ('A' for Active; 'I' for Inactive)
REMARK    1  A    between atoms: C1_1  and  C7_7 
REMARK    2  A    between atoms: C1_1  and  O9_9 
REMARK    3  A    between atoms: C5_5  and  C7_7 
ROOT
HETATM    1  C2  UNL     1     -34.306   3.959   5.464  1.00 20.00     0.011 A 
HETATM    2  C3  UNL     1     -35.078   5.015   6.262  1.00 20.00     0.011 A 
HETATM    3  C4  UNL     1     -35.457   5.610   3.647  1.00 20.00     0.015 A 
HETATM    4  C5  UNL     1     -34.138   6.280   4.058  1.00 20.00     0.005 A 
HETATM    5  C6  UNL     1     -34.738   5.213   4.856  1.00 20.00    -0.036 A 
ENDROOT
BRANCH   4   6
HETATM    6  C7  UNL     1     -32.899   6.029   3.270  1.00 20.00     0.115 C 
BRANCH   6   7
HETATM    7  C1  UNL     1     -32.114   7.295   2.976  1.00 20.00     0.139 C 
HETATM    8  O8  UNL     1     -32.193   7.950   1.946  1.00 20.00    -0.650 OA
BRANCH   7   9
HETATM    9  O9  UNL     1     -31.300   7.618   4.013  1.00 20.00    -0.776 OA
HETATM   10  H19 UNL     1     -31.808   7.899   4.804  1.00 20.00     0.167 HD
ENDBRANCH   7   9
ENDBRANCH   6   7
ENDBRANCH   4   6
TORSDOF 3
ENDMDL
MODEL 2
REMARK VINA RESULT:      -4.8      0.879      1.282
REMARK  3 active torsions:
REMARK  status: ('A' for Active; 'I' for Inactive)
REMARK    1  A    between atoms: C1_1  and  C7_7 
REMARK    2  A    between atoms: C1_1  and  O9_9 
REMARK    3  A    between atoms: C5_5  and  C7_7 
ROOT
HETATM    1  C2  UNL     1     -35.517   4.709   4.757  1.00 20.00     0.011 A 
HETATM    2  C3  UNL     1     -34.540   4.019   5.715  1.00 20.00     0.011 A 
HETATM    3  C4  UNL     1     -34.000   6.669   5.857  1.00 20.00     0.015 A 
HETATM    4  C5  UNL     1     -33.198   6.126   4.665  1.00 20.00     0.005 A 
HETATM    5  C6  UNL     1     -34.316   5.381   5.241  1.00 20.00    -0.036 A 
ENDROOT
BRANCH   4   6
HETATM    6  C7  UNL     1     -33.326   6.767   3.327  1.00 20.00     0.115 C 
BRANCH   6   7
HETATM    7  C1  UNL     1     -32.090   7.550   2.922  1.00 20.00     0.139 C 
HETATM    8  O8  UNL     1     -31.903   8.051   1.822  1.00 20.00    -0.650 OA
BRANCH   7   9
HETATM    9  O9  UNL     1     -31.203   7.628   3.946  1.00 20.00    -0.776 OA
HETATM   10  H19 UNL     1     -30.673   6.807   4.034  1.00 20.00     0.167 HD
ENDBRANCH   7   9
ENDBRANCH   6   7
ENDBRANCH   4   6
TORSDOF 3
ENDMDL
MODEL 3
REMARK VINA RESULT:      -4.5     10.906     12.142
REMARK  3 active torsions:
REMARK  status: ('A' for Active; 'I' for Inactive)
REMARK    1  A    between atoms: C1_1  and  C7_7 
REMARK    2  A    between atoms: C1_1  and  O9_9 
REMARK    3  A    between atoms: C5_5  and  C7_7 
ROOT
HETATM    1  C2  UNL     1     -35.191  17.336  -1.195  1.00 20.00     0.011 A 
HETATM    2  C3  UNL     1     -33.725  17.478  -0.771  1.00 20.00     0.011 A 
HETATM    3  C4  UNL     1     -33.718  17.249  -3.469  1.00 20.00     0.015 A 
HETATM    4  C5  UNL     1     -33.729  15.818  -2.912  1.00 20.00     0.005 A 
HETATM    5  C6  UNL     1     -34.097  16.966  -2.086  1.00 20.00    -0.036 A 
ENDROOT
BRANCH   4   6
HETATM    6  C7  UNL     1     -34.765  14.850  -3.367  1.00 20.00     0.115 C 
BRANCH   6   7
HETATM    7  C1  UNL     1     -34.190  13.497  -3.746  1.00 20.00     0.139 C 
HETATM    8  O8  UNL     1     -33.009  13.190  -3.676  1.00 20.00    -0.650 OA
BRANCH   7   9
HETATM    9  O9  UNL     1     -35.163  12.657  -4.181  1.00 20.00    -0.776 OA
HETATM   10  H19 UNL     1     -35.913  13.143  -4.585  1.00 20.00     0.167 HD
ENDBRANCH   7   9
ENDBRANCH   6   7
ENDBRANCH   4   6
TORSDOF 3
ENDMDL
MODEL 4
REMARK VINA RESULT:      -4.4      2.658      4.397
REMARK  3 active torsions:
REMARK  status: ('A' for Active; 'I' for Inactive)
REMARK    1  A    between atoms: C1_1  and  C7_7 
REMARK    2  A    between atoms: C1_1  and  O9_9 
REMARK    3  A    between atoms: C5_5  and  C7_7 
ROOT
HETATM    1  C2  UNL     1     -32.709   8.023   2.251  1.00 20.00     0.011 A 
HETATM    2  C3  UNL     1     -31.476   8.079   3.159  1.00 20.00     0.011 A 
HETATM    3  C4  UNL     1     -32.136   5.462   2.935  1.00 20.00     0.015 A 
HETATM    4  C5  UNL     1     -32.990   6.029   4.079  1.00 20.00     0.005 A 
HETATM    5  C6  UNL     1     -32.335   6.900   3.105  1.00 20.00    -0.036 A 
ENDROOT
BRANCH   4   6
HETATM    6  C7  UNL     1     -34.468   5.853   4.062  1.00 20.00     0.115 C 
BRANCH   6   7
HETATM    7  C1  UNL     1     -34.984   5.033   5.231  1.00 20.00     0.139 C 
HETATM    8  O8  UNL     1     -34.966   5.387   6.401  1.00 20.00    -0.650 OA
BRANCH   7   9
HETATM    9  O9  UNL     1     -35.474   3.839   4.812  1.00 20.00    -0.776 OA
HETATM   10  H19 UNL     1     -35.881   3.332   5.547  1.00 20.00     0.167 HD
ENDBRANCH   7   9
ENDBRANCH   6   7
ENDBRANCH   4   6
TORSDOF 3
ENDMDL
MODEL 5
REMARK VINA RESULT:      -4.3     11.476     12.171
REMARK  3 active torsions:
REMARK  status: ('A' for Active; 'I' for Inactive)
REMARK    1  A    between atoms: C1_1  and  C7_7 
REMARK    2  A    between atoms: C1_1  and  O9_9 
REMARK    3  A    between atoms: C5_5  and  C7_7 
ROOT
HETATM    1  C2  UNL     1     -35.512  17.420  -1.710  1.00 20.00     0.011 A 
HETATM    2  C3  UNL     1     -34.722  16.694  -0.616  1.00 20.00     0.011 A 
HETATM    3  C4  UNL     1     -33.486  16.118  -2.956  1.00 20.00     0.015 A 
HETATM    4  C5  UNL     1     -34.620  15.095  -2.801  1.00 20.00     0.005 A 
HETATM    5  C6  UNL     1     -34.592  16.332  -2.024  1.00 20.00    -0.036 A 
ENDROOT
BRANCH   4   6
HETATM    6  C7  UNL     1     -35.613  14.912  -3.896  1.00 20.00     0.115 C 
BRANCH   6   7
HETATM    7  C1  UNL     1     -35.293  13.734  -4.798  1.00 20.00     0.139 C 
HETATM    8  O8  UNL     1     -35.099  13.802  -6.004  1.00 20.00    -0.650 OA
BRANCH   7   9
HETATM    9  O9  UNL     1     -35.249  12.575  -4.093  1.00 20.00    -0.776 OA
HETATM   10  H19 UNL     1     -35.640  12.676  -3.198  1.00 20.00     0.167 HD
ENDBRANCH   7   9
ENDBRANCH   6   7
ENDBRANCH   4   6
TORSDOF 3
ENDMDL
MODEL 6
REMARK VINA RESULT:      -4.2      1.733      2.510
REMARK  3 active torsions:
REMARK  status: ('A' for Active; 'I' for Inactive)
REMARK    1  A    between atoms: C1_1  and  C7_7 
REMARK    2  A    between atoms: C1_1  and  O9_9 
REMARK    3  A    between atoms: C5_5  and  C7_7 
ROOT
HETATM    1  C2  UNL     1     -33.974   6.300   5.019  1.00 20.00     0.011 A 
HETATM    2  C3  UNL     1     -34.771   5.528   3.962  1.00 20.00     0.011 A 
HETATM    3  C4  UNL     1     -32.185   5.460   3.163  1.00 20.00     0.015 A 
HETATM    4  C5  UNL     1     -32.770   6.775   2.628  1.00 20.00     0.005 A 
HETATM    5  C6  UNL     1     -33.424   6.023   3.697  1.00 20.00    -0.036 A 
ENDROOT
BRANCH   4   6
HETATM    6  C7  UNL     1     -32.089   8.067   2.921  1.00 20.00     0.115 C 
BRANCH   6   7
HETATM    7  C1  UNL     1     -32.109   9.030   1.747  1.00 20.00     0.139 C 
HETATM    8  O8  UNL     1     -32.630  10.136   1.754  1.00 20.00    -0.650 OA
BRANCH   7   9
HETATM    9  O9  UNL     1     -31.470   8.504   0.672  1.00 20.00    -0.776 OA
HETATM   10  H19 UNL     1     -31.685   7.555   0.546  1.00 20.00     0.167 HD
ENDBRANCH   7   9
ENDBRANCH   6   7
ENDBRANCH   4   6
TORSDOF 3
ENDMDL
MODEL 7
REMARK VINA RESULT:      -4.2     11.271     12.751
REMARK  3 active torsions:
REMARK  status: ('A' for Active; 'I' for Inactive)
REMARK    1  A    between atoms: C1_1  and  C7_7 
REMARK    2  A    between atoms: C1_1  and  O9_9 
REMARK    3  A    between atoms: C5_5  and  C7_7 
ROOT
HETATM    1  C2  UNL     1     -33.670  17.418  -4.452  1.00 20.00     0.011 A 
HETATM    2  C3  UNL     1     -35.040  17.926  -3.987  1.00 20.00     0.011 A 
HETATM    3  C4  UNL     1     -34.028  16.479  -1.933  1.00 20.00     0.015 A 
HETATM    4  C5  UNL     1     -34.728  15.479  -2.865  1.00 20.00     0.005 A 
HETATM    5  C6  UNL     1     -34.363  16.821  -3.314  1.00 20.00    -0.036 A 
ENDROOT
BRANCH   4   6
HETATM    6  C7  UNL     1     -33.989  14.288  -3.367  1.00 20.00     0.115 C 
BRANCH   6   7
HETATM    7  C1  UNL     1     -34.663  13.629  -4.558  1.00 20.00     0.139 C 
HETATM    8  O8  UNL     1     -34.598  14.027  -5.712  1.00 20.00    -0.650 OA
BRANCH   7   9
HETATM    9  O9  UNL     1     -35.357  12.526  -4.179  1.00 20.00    -0.776 OA
HETATM   10  H19 UNL     1     -35.847  12.671  -3.342  1.00 20.00     0.167 HD
ENDBRANCH   7   9
ENDBRANCH   6   7
ENDBRANCH   4   6
TORSDOF 3
ENDMDL
MODEL 8
REMARK VINA RESULT:      -4.1     11.337     13.173
REMARK  3 active torsions:
REMARK  status: ('A' for Active; 'I' for Inactive)
REMARK    1  A    between atoms: C1_1  and  C7_7 
REMARK    2  A    between atoms: C1_1  and  O9_9 
REMARK    3  A    between atoms: C5_5  and  C7_7 
ROOT
HETATM    1  C2  UNL     1     -34.168  15.276  -6.993  1.00 20.00     0.011 A 
HETATM    2  C3  UNL     1     -35.504  14.882  -7.632  1.00 20.00     0.011 A 
HETATM    3  C4  UNL     1     -36.105  16.523  -5.564  1.00 20.00     0.015 A 
HETATM    4  C5  UNL     1     -35.983  15.110  -4.975  1.00 20.00     0.005 A 
HETATM    5  C6  UNL     1     -35.434  15.445  -6.288  1.00 20.00    -0.036 A 
ENDROOT
BRANCH   4   6
HETATM    6  C7  UNL     1     -35.079  14.861  -3.819  1.00 20.00     0.115 C 
BRANCH   6   7
HETATM    7  C1  UNL     1     -34.428  13.489  -3.857  1.00 20.00     0.139 C 
HETATM    8  O8  UNL     1     -33.245  13.266  -3.646  1.00 20.00    -0.650 OA
BRANCH   7   9
HETATM    9  O9  UNL     1     -35.335  12.526  -4.159  1.00 20.00    -0.776 OA
HETATM   10  H19 UNL     1     -35.279  11.764  -3.544  1.00 20.00     0.167 HD
ENDBRANCH   7   9
ENDBRANCH   6   7
ENDBRANCH   4   6
TORSDOF 3
ENDMDL
MODEL 9
REMARK VINA RESULT:      -4.0     11.780     13.712
REMARK  3 active torsions:
REMARK  status: ('A' for Active; 'I' for Inactive)
REMARK    1  A    between atoms: C1_1  and  C7_7 
REMARK    2  A    between atoms: C1_1  and  O9_9 
REMARK    3  A    between atoms: C5_5  and  C7_7 
ROOT
HETATM    1  C2  UNL     1     -35.011  17.253  -5.020  1.00 20.00     0.011 A 
HETATM    2  C3  UNL     1     -33.593  17.562  -5.511  1.00 20.00     0.011 A 
HETATM    3  C4  UNL     1     -34.784  16.133  -7.479  1.00 20.00     0.015 A 
HETATM    4  C5  UNL     1     -34.206  15.111  -6.489  1.00 20.00     0.005 A 
HETATM    5  C6  UNL     1     -34.402  16.511  -6.120  1.00 20.00    -0.036 A 
ENDROOT
BRANCH   4   6
HETATM    6  C7  UNL     1     -35.081  14.049  -5.920  1.00 20.00     0.115 C 
BRANCH   6   7
HETATM    7  C1  UNL     1     -34.532  13.450  -4.637  1.00 20.00     0.139 C 
HETATM    8  O8  UNL     1     -33.461  13.744  -4.126  1.00 20.00    -0.650 OA
BRANCH   7   9
HETATM    9  O9  UNL     1     -35.389  12.534  -4.119  1.00 20.00    -0.776 OA
HETATM   10  H19 UNL     1     -35.049  11.619  -4.216  1.00 20.00     0.167 HD
ENDBRANCH   7   9
ENDBRANCH   6   7
ENDBRANCH   4   6
TORSDOF 3
ENDMDL
