MODEL 1
REMARK VINA RESULT:      -3.6      0.000      0.000
REMARK  0 active torsions:
REMARK  status: ('A' for Active; 'I' for Inactive)
ROOT
HETATM    1  C1  UNL     1     -34.536  13.857  -4.594  1.00 20.00     0.201 C 
HETATM    2  C2  UNL     1     -33.109  15.925  -4.532  1.00 20.00     0.099 C 
HETATM    3  C3  UNL     1     -33.787  14.833  -3.697  1.00 20.00     0.074 C 
HETATM    4  C4  UNL     1     -34.740  15.395  -2.643  1.00 20.00     0.020 C 
HETATM    5  O5  UNL     1     -34.913  12.750  -4.235  1.00 20.00    -0.284 OA
HETATM    6  S6  UNL     1     -34.870  14.476  -6.211  1.00 20.00    -0.019 SA
HETATM    7  S7  UNL     1     -34.257  16.387  -5.839  1.00 20.00    -0.089 SA
ENDROOT
TORSDOF 0
ENDMDL
MODEL 2
REMARK VINA RESULT:      -3.6     12.817     13.329
REMARK  0 active torsions:
REMARK  status: ('A' for Active; 'I' for Inactive)
ROOT
HETATM    1  C1  UNL     1     -33.903   6.313   5.492  1.00 20.00     0.201 C 
HETATM    2  C2  UNL     1     -35.492   5.308   3.825  1.00 20.00     0.099 C 
HETATM    3  C3  UNL     1     -35.077   5.363   5.299  1.00 20.00     0.074 C 
HETATM    4  C4  UNL     1     -34.726   3.990   5.871  1.00 20.00     0.020 C 
HETATM    5  O5  UNL     1     -33.562   6.768   6.576  1.00 20.00    -0.284 OA
HETATM    6  S6  UNL     1     -33.021   6.679   4.010  1.00 20.00    -0.019 SA
HETATM    7  S7  UNL     1     -33.982   5.305   2.846  1.00 20.00    -0.089 SA
ENDROOT
TORSDOF 0
ENDMDL
MODEL 3
REMARK VINA RESULT:      -3.5      1.895      2.468
REMARK  0 active torsions:
REMARK  status: ('A' for Active; 'I' for Inactive)
ROOT
HETATM    1  C1  UNL     1     -34.612  13.804  -4.794  1.00 20.00     0.201 C 
HETATM    2  C2  UNL     1     -35.123  16.225  -5.231  1.00 20.00     0.099 C 
HETATM    3  C3  UNL     1     -35.331  14.785  -5.710  1.00 20.00     0.074 C 
HETATM    4  C4  UNL     1     -34.877  14.566  -7.153  1.00 20.00     0.020 C 
HETATM    5  O5  UNL     1     -34.841  12.602  -4.764  1.00 20.00    -0.284 OA
HETATM    6  S6  UNL     1     -33.361  14.538  -3.791  1.00 20.00    -0.019 SA
HETATM    7  S7  UNL     1     -33.409  16.367  -4.696  1.00 20.00    -0.089 SA
ENDROOT
TORSDOF 0
ENDMDL
MODEL 4
REMARK VINA RESULT:      -3.3      2.181      2.896
REMARK  0 active torsions:
REMARK  status: ('A' for Active; 'I' for Inactive)
ROOT
HETATM    1  C1  UNL     1     -34.154  14.007  -3.677  1.00 20.00     0.201 C 
HETATM    2  C2  UNL     1     -36.595  14.503  -4.013  1.00 20.00     0.099 C 
HETATM    3  C3  UNL     1     -35.388  13.704  -4.516  1.00 20.00     0.074 C 
HETATM    4  C4  UNL     1     -35.079  13.957  -5.991  1.00 20.00     0.020 C 
HETATM    5  O5  UNL     1     -33.148  13.311  -3.664  1.00 20.00    -0.284 OA
HETATM    6  S6  UNL     1     -34.268  15.497  -2.740  1.00 20.00    -0.019 SA
HETATM    7  S7  UNL     1     -36.004  16.150  -3.590  1.00 20.00    -0.089 SA
ENDROOT
TORSDOF 0
ENDMDL
MODEL 5
REMARK VINA RESULT:      -3.2      2.089      2.335
REMARK  0 active torsions:
REMARK  status: ('A' for Active; 'I' for Inactive)
ROOT
HETATM    1  C1  UNL     1     -33.546  14.814  -3.735  1.00 20.00     0.201 C 
HETATM    2  C2  UNL     1     -35.647  16.144  -4.094  1.00 20.00     0.099 C 
HETATM    3  C3  UNL     1     -34.306  16.077  -3.355  1.00 20.00     0.074 C 
HETATM    4  C4  UNL     1     -34.460  16.147  -1.836  1.00 20.00     0.020 C 
HETATM    5  O5  UNL     1     -32.351  14.648  -3.530  1.00 20.00    -0.284 OA
HETATM    6  S6  UNL     1     -34.549  13.560  -4.463  1.00 20.00    -0.019 SA
HETATM    7  S7  UNL     1     -36.335  14.481  -4.104  1.00 20.00    -0.089 SA
ENDROOT
TORSDOF 0
ENDMDL
MODEL 6
REMARK VINA RESULT:      -3.2      1.202      1.220
REMARK  0 active torsions:
REMARK  status: ('A' for Active; 'I' for Inactive)
ROOT
HETATM    1  C1  UNL     1     -35.602  14.546  -4.106  1.00 20.00     0.201 C 
HETATM    2  C2  UNL     1     -33.193  15.219  -3.859  1.00 20.00     0.099 C 
HETATM    3  C3  UNL     1     -34.483  14.850  -3.119  1.00 20.00     0.074 C 
HETATM    4  C4  UNL     1     -34.941  15.933  -2.143  1.00 20.00     0.020 C 
HETATM    5  O5  UNL     1     -36.631  13.953  -3.812  1.00 20.00    -0.284 OA
HETATM    6  S6  UNL     1     -35.318  15.169  -5.731  1.00 20.00    -0.019 SA
HETATM    7  S7  UNL     1     -33.658  16.257  -5.255  1.00 20.00    -0.089 SA
ENDROOT
TORSDOF 0
ENDMDL
MODEL 7
REMARK VINA RESULT:      -3.1      1.883      2.263
REMARK  0 active torsions:
REMARK  status: ('A' for Active; 'I' for Inactive)
ROOT
HETATM    1  C1  UNL     1     -36.554  14.597  -4.438  1.00 20.00     0.201 C 
HETATM    2  C2  UNL     1     -34.613  14.501  -6.031  1.00 20.00     0.099 C 
HETATM    3  C3  UNL     1     -35.291  13.842  -4.825  1.00 20.00     0.074 C 
HETATM    4  C4  UNL     1     -34.368  13.729  -3.612  1.00 20.00     0.020 C 
HETATM    5  O5  UNL     1     -37.432  14.139  -3.718  1.00 20.00    -0.284 OA
HETATM    6  S6  UNL     1     -36.637  16.238  -5.078  1.00 20.00    -0.019 SA
HETATM    7  S7  UNL     1     -34.728  16.283  -5.798  1.00 20.00    -0.089 SA
ENDROOT
TORSDOF 0
ENDMDL
MODEL 8
REMARK VINA RESULT:      -3.1      1.797      2.447
REMARK  0 active torsions:
REMARK  status: ('A' for Active; 'I' for Inactive)
ROOT
HETATM    1  C1  UNL     1     -35.271  15.203  -3.399  1.00 20.00     0.201 C 
HETATM    2  C2  UNL     1     -34.513  13.248  -4.783  1.00 20.00     0.099 C 
HETATM    3  C3  UNL     1     -34.202  14.134  -3.572  1.00 20.00     0.074 C 
HETATM    4  C4  UNL     1     -32.825  14.793  -3.655  1.00 20.00     0.020 C 
HETATM    5  O5  UNL     1     -35.434  15.847  -2.371  1.00 20.00    -0.284 OA
HETATM    6  S6  UNL     1     -36.248  15.486  -4.840  1.00 20.00    -0.019 SA
HETATM    7  S7  UNL     1     -35.126  14.326  -6.089  1.00 20.00    -0.089 SA
ENDROOT
TORSDOF 0
ENDMDL
MODEL 9
REMARK VINA RESULT:      -3.1      2.155      2.451
REMARK  0 active torsions:
REMARK  status: ('A' for Active; 'I' for Inactive)
ROOT
HETATM    1  C1  UNL     1     -36.345  14.484  -3.726  1.00 20.00     0.201 C 
HETATM    2  C2  UNL     1     -34.443  15.683  -2.605  1.00 20.00     0.099 C 
HETATM    3  C3  UNL     1     -35.911  15.770  -3.037  1.00 20.00     0.074 C 
HETATM    4  C4  UNL     1     -36.194  16.962  -3.949  1.00 20.00     0.020 C 
HETATM    5  O5  UNL     1     -37.513  14.165  -3.907  1.00 20.00    -0.284 OA
HETATM    6  S6  UNL     1     -35.009  13.489  -4.303  1.00 20.00    -0.019 SA
HETATM    7  S7  UNL     1     -33.545  14.862  -3.931  1.00 20.00    -0.089 SA
ENDROOT
TORSDOF 0
ENDMDL
