MODEL 1
REMARK VINA RESULT:      -2.9      0.000      0.000
REMARK  0 active torsions:
REMARK  status: ('A' for Active; 'I' for Inactive)
ROOT
HETATM    1  C1  UNL     1     -35.182   4.244   4.624  1.00 20.00     0.177 C 
HETATM    2  C2  UNL     1     -34.208   5.313   6.504  1.00 20.00     0.177 C 
HETATM    3  C3  UNL     1     -34.975   5.385   3.640  1.00 20.00     0.100 C 
HETATM    4  C4  UNL     1     -33.853   6.617   5.805  1.00 20.00     0.100 C 
HETATM    5  O5  UNL     1     -35.385   4.725   5.952  1.00 20.00    -0.390 OA
HETATM    6  S6  UNL     1     -33.472   6.316   4.055  1.00 20.00    -0.165 SA
ENDROOT
TORSDOF 0
ENDMDL
MODEL 2
REMARK VINA RESULT:      -2.9      1.312      2.178
REMARK  0 active torsions:
REMARK  status: ('A' for Active; 'I' for Inactive)
ROOT
HETATM    1  C1  UNL     1     -33.996   6.496   6.019  1.00 20.00     0.177 C 
HETATM    2  C2  UNL     1     -35.180   4.447   6.180  1.00 20.00     0.177 C 
HETATM    3  C3  UNL     1     -33.614   6.369   4.553  1.00 20.00     0.100 C 
HETATM    4  C4  UNL     1     -34.977   4.010   4.737  1.00 20.00     0.100 C 
HETATM    5  O5  UNL     1     -34.078   5.220   6.654  1.00 20.00    -0.390 OA
HETATM    6  S6  UNL     1     -34.890   5.455   3.641  1.00 20.00    -0.165 SA
ENDROOT
TORSDOF 0
ENDMDL
MODEL 3
REMARK VINA RESULT:      -2.8      1.867      3.007
REMARK  0 active torsions:
REMARK  status: ('A' for Active; 'I' for Inactive)
ROOT
HETATM    1  C1  UNL     1     -33.321   6.642   5.127  1.00 20.00     0.177 C 
HETATM    2  C2  UNL     1     -34.450   5.455   3.412  1.00 20.00     0.177 C 
HETATM    3  C3  UNL     1     -34.199   6.174   6.277  1.00 20.00     0.100 C 
HETATM    4  C4  UNL     1     -35.499   4.807   4.302  1.00 20.00     0.100 C 
HETATM    5  O5  UNL     1     -34.057   6.734   3.908  1.00 20.00    -0.390 OA
HETATM    6  S6  UNL     1     -34.823   4.499   5.960  1.00 20.00    -0.165 SA
ENDROOT
TORSDOF 0
ENDMDL
MODEL 4
REMARK VINA RESULT:      -2.8     12.742     12.815
REMARK  0 active torsions:
REMARK  status: ('A' for Active; 'I' for Inactive)
ROOT
HETATM    1  C1  UNL     1     -34.547  13.235  -4.715  1.00 20.00     0.177 C 
HETATM    2  C2  UNL     1     -32.961  14.672  -3.691  1.00 20.00     0.177 C 
HETATM    3  C3  UNL     1     -35.790  13.939  -4.194  1.00 20.00     0.100 C 
HETATM    4  C4  UNL     1     -33.964  15.593  -3.014  1.00 20.00     0.100 C 
HETATM    5  O5  UNL     1     -33.460  13.339  -3.796  1.00 20.00    -0.390 OA
HETATM    6  S6  UNL     1     -35.481  15.718  -4.005  1.00 20.00    -0.165 SA
ENDROOT
TORSDOF 0
ENDMDL
MODEL 5
REMARK VINA RESULT:      -2.8     12.524     12.775
REMARK  0 active torsions:
REMARK  status: ('A' for Active; 'I' for Inactive)
ROOT
HETATM    1  C1  UNL     1     -36.382  14.383  -4.185  1.00 20.00     0.177 C 
HETATM    2  C2  UNL     1     -34.433  13.179  -4.801  1.00 20.00     0.177 C 
HETATM    3  C3  UNL     1     -35.730  15.247  -3.118  1.00 20.00     0.100 C 
HETATM    4  C4  UNL     1     -33.486  13.861  -3.826  1.00 20.00     0.100 C 
HETATM    5  O5  UNL     1     -35.759  13.102  -4.278  1.00 20.00    -0.390 OA
HETATM    6  S6  UNL     1     -33.997  15.581  -3.542  1.00 20.00    -0.165 SA
ENDROOT
TORSDOF 0
ENDMDL
MODEL 6
REMARK VINA RESULT:      -2.7     12.674     13.470
REMARK  0 active torsions:
REMARK  status: ('A' for Active; 'I' for Inactive)
ROOT
HETATM    1  C1  UNL     1     -34.157  13.628  -3.529  1.00 20.00     0.177 C 
HETATM    2  C2  UNL     1     -35.211  13.681  -5.653  1.00 20.00     0.177 C 
HETATM    3  C3  UNL     1     -33.151  14.736  -3.799  1.00 20.00     0.100 C 
HETATM    4  C4  UNL     1     -34.364  14.798  -6.246  1.00 20.00     0.100 C 
HETATM    5  O5  UNL     1     -34.469  12.901  -4.717  1.00 20.00    -0.390 OA
HETATM    6  S6  UNL     1     -33.846  15.958  -4.948  1.00 20.00    -0.165 SA
ENDROOT
TORSDOF 0
ENDMDL
MODEL 7
REMARK VINA RESULT:      -2.7     12.892     13.526
REMARK  0 active torsions:
REMARK  status: ('A' for Active; 'I' for Inactive)
ROOT
HETATM    1  C1  UNL     1     -33.354  14.578  -3.480  1.00 20.00     0.177 C 
HETATM    2  C2  UNL     1     -34.840  13.216  -4.731  1.00 20.00     0.177 C 
HETATM    3  C3  UNL     1     -33.260  15.713  -4.487  1.00 20.00     0.100 C 
HETATM    4  C4  UNL     1     -34.971  14.146  -5.928  1.00 20.00     0.100 C 
HETATM    5  O5  UNL     1     -33.553  13.319  -4.124  1.00 20.00    -0.390 OA
HETATM    6  S6  UNL     1     -34.817  15.879  -5.406  1.00 20.00    -0.165 SA
ENDROOT
TORSDOF 0
ENDMDL
MODEL 8
REMARK VINA RESULT:      -2.7     13.179     13.852
REMARK  0 active torsions:
REMARK  status: ('A' for Active; 'I' for Inactive)
ROOT
HETATM    1  C1  UNL     1     -34.270  16.011  -5.599  1.00 20.00     0.177 C 
HETATM    2  C2  UNL     1     -33.242  15.337  -3.570  1.00 20.00     0.177 C 
HETATM    3  C3  UNL     1     -34.571  14.614  -6.120  1.00 20.00     0.100 C 
HETATM    4  C4  UNL     1     -33.387  13.839  -3.784  1.00 20.00     0.100 C 
HETATM    5  O5  UNL     1     -33.082  16.031  -4.807  1.00 20.00    -0.390 OA
HETATM    6  S6  UNL     1     -34.888  13.477  -4.742  1.00 20.00    -0.165 SA
ENDROOT
TORSDOF 0
ENDMDL
MODEL 9
REMARK VINA RESULT:      -2.6      9.059     10.032
REMARK  0 active torsions:
REMARK  status: ('A' for Active; 'I' for Inactive)
ROOT
HETATM    1  C1  UNL     1     -40.753   5.849  -0.360  1.00 20.00     0.177 C 
HETATM    2  C2  UNL     1     -41.883   4.470  -1.925  1.00 20.00     0.177 C 
HETATM    3  C3  UNL     1     -41.218   7.181  -0.925  1.00 20.00     0.100 C 
HETATM    4  C4  UNL     1     -42.519   5.595  -2.728  1.00 20.00     0.100 C 
HETATM    5  O5  UNL     1     -40.623   4.861  -1.382  1.00 20.00    -0.390 OA
HETATM    6  S6  UNL     1     -42.871   7.019  -1.657  1.00 20.00    -0.165 SA
ENDROOT
TORSDOF 0
ENDMDL
