MODEL 1
REMARK VINA RESULT:      -2.6      0.000      0.000
REMARK  0 active torsions:
REMARK  status: ('A' for Active; 'I' for Inactive)
ROOT
HETATM    1  C1  UNL     1     -33.363  16.359  -5.069  1.00 20.00     0.149 C 
HETATM    2  C2  UNL     1     -34.864  14.314  -6.164  1.00 20.00     0.149 C 
HETATM    3  C3  UNL     1     -33.483  13.904  -3.807  1.00 20.00     0.149 C 
HETATM    4  S4  UNL     1     -34.915  16.115  -5.973  1.00 20.00    -0.149 SA
HETATM    5  S5  UNL     1     -33.404  15.666  -3.395  1.00 20.00    -0.149 SA
HETATM    6  S6  UNL     1     -35.045  13.430  -4.593  1.00 20.00    -0.149 SA
ENDROOT
TORSDOF 0
ENDMDL
MODEL 2
REMARK VINA RESULT:      -2.6      0.016      2.899
REMARK  0 active torsions:
REMARK  status: ('A' for Active; 'I' for Inactive)
ROOT
HETATM    1  C1  UNL     1     -33.483  13.907  -3.806  1.00 20.00     0.149 C 
HETATM    2  C2  UNL     1     -33.354  16.365  -5.060  1.00 20.00     0.149 C 
HETATM    3  C3  UNL     1     -34.845  14.323  -6.174  1.00 20.00     0.149 C 
HETATM    4  S4  UNL     1     -33.408  15.669  -3.389  1.00 20.00    -0.149 SA
HETATM    5  S5  UNL     1     -35.039  13.435  -4.607  1.00 20.00    -0.149 SA
HETATM    6  S6  UNL     1     -34.897  16.124  -5.978  1.00 20.00    -0.149 SA
ENDROOT
TORSDOF 0
ENDMDL
MODEL 3
REMARK VINA RESULT:      -2.6      0.031      2.898
REMARK  0 active torsions:
REMARK  status: ('A' for Active; 'I' for Inactive)
ROOT
HETATM    1  C1  UNL     1     -34.908  14.327  -6.155  1.00 20.00     0.149 C 
HETATM    2  C2  UNL     1     -33.488  13.910  -3.822  1.00 20.00     0.149 C 
HETATM    3  C3  UNL     1     -33.385  16.367  -5.081  1.00 20.00     0.149 C 
HETATM    4  S4  UNL     1     -35.064  13.441  -4.582  1.00 20.00    -0.149 SA
HETATM    5  S5  UNL     1     -34.952  16.128  -5.960  1.00 20.00    -0.149 SA
HETATM    6  S6  UNL     1     -33.399  15.672  -3.408  1.00 20.00    -0.149 SA
ENDROOT
TORSDOF 0
ENDMDL
MODEL 4
REMARK VINA RESULT:      -2.5      1.736      2.466
REMARK  0 active torsions:
REMARK  status: ('A' for Active; 'I' for Inactive)
ROOT
HETATM    1  C1  UNL     1     -34.969  16.164  -5.781  1.00 20.00     0.149 C 
HETATM    2  C2  UNL     1     -33.550  15.567  -3.488  1.00 20.00     0.149 C 
HETATM    3  C3  UNL     1     -35.159  13.649  -4.654  1.00 20.00     0.149 C 
HETATM    4  S4  UNL     1     -33.370  16.530  -5.012  1.00 20.00    -0.149 SA
HETATM    5  S5  UNL     1     -35.131  14.432  -6.288  1.00 20.00    -0.149 SA
HETATM    6  S6  UNL     1     -33.578  13.780  -3.780  1.00 20.00    -0.149 SA
ENDROOT
TORSDOF 0
ENDMDL
MODEL 5
REMARK VINA RESULT:      -2.5      1.750      2.466
REMARK  0 active torsions:
REMARK  status: ('A' for Active; 'I' for Inactive)
ROOT
HETATM    1  C1  UNL     1     -33.557  15.556  -3.465  1.00 20.00     0.149 C 
HETATM    2  C2  UNL     1     -35.141  13.612  -4.626  1.00 20.00     0.149 C 
HETATM    3  C3  UNL     1     -35.014  16.137  -5.740  1.00 20.00     0.149 C 
HETATM    4  S4  UNL     1     -33.553  13.769  -3.768  1.00 20.00    -0.149 SA
HETATM    5  S5  UNL     1     -33.414  16.531  -4.985  1.00 20.00    -0.149 SA
HETATM    6  S6  UNL     1     -35.146  14.405  -6.255  1.00 20.00    -0.149 SA
ENDROOT
TORSDOF 0
ENDMDL
MODEL 6
REMARK VINA RESULT:      -2.5      1.913      2.496
REMARK  0 active torsions:
REMARK  status: ('A' for Active; 'I' for Inactive)
ROOT
HETATM    1  C1  UNL     1     -33.593  13.741  -3.923  1.00 20.00     0.149 C 
HETATM    2  C2  UNL     1     -36.312  14.207  -4.065  1.00 20.00     0.149 C 
HETATM    3  C3  UNL     1     -34.694  15.902  -2.601  1.00 20.00     0.149 C 
HETATM    4  S4  UNL     1     -34.958  13.603  -5.107  1.00 20.00    -0.149 SA
HETATM    5  S5  UNL     1     -33.188  15.457  -3.505  1.00 20.00    -0.149 SA
HETATM    6  S6  UNL     1     -36.162  15.967  -3.661  1.00 20.00    -0.149 SA
ENDROOT
TORSDOF 0
ENDMDL
MODEL 7
REMARK VINA RESULT:      -2.4      1.989      2.722
REMARK  0 active torsions:
REMARK  status: ('A' for Active; 'I' for Inactive)
ROOT
HETATM    1  C1  UNL     1     -33.347  15.435  -3.433  1.00 20.00     0.149 C 
HETATM    2  C2  UNL     1     -35.955  16.343  -3.338  1.00 20.00     0.149 C 
HETATM    3  C3  UNL     1     -35.307  14.165  -4.911  1.00 20.00     0.149 C 
HETATM    4  S4  UNL     1     -34.520  16.148  -2.250  1.00 20.00    -0.149 SA
HETATM    5  S5  UNL     1     -33.810  13.767  -3.970  1.00 20.00    -0.149 SA
HETATM    6  S6  UNL     1     -36.662  14.760  -3.865  1.00 20.00    -0.149 SA
ENDROOT
TORSDOF 0
ENDMDL
MODEL 8
REMARK VINA RESULT:      -2.4      1.581      2.699
REMARK  0 active torsions:
REMARK  status: ('A' for Active; 'I' for Inactive)
ROOT
HETATM    1  C1  UNL     1     -36.056  14.261  -4.161  1.00 20.00     0.149 C 
HETATM    2  C2  UNL     1     -35.057  16.829  -4.361  1.00 20.00     0.149 C 
HETATM    3  C3  UNL     1     -33.358  14.726  -3.789  1.00 20.00     0.149 C 
HETATM    4  S4  UNL     1     -36.317  15.774  -5.124  1.00 20.00    -0.149 SA
HETATM    5  S5  UNL     1     -34.459  13.474  -4.498  1.00 20.00    -0.149 SA
HETATM    6  S6  UNL     1     -33.366  16.282  -4.718  1.00 20.00    -0.149 SA
ENDROOT
TORSDOF 0
ENDMDL
MODEL 9
REMARK VINA RESULT:      -2.4      1.952      2.125
REMARK  0 active torsions:
REMARK  status: ('A' for Active; 'I' for Inactive)
ROOT
HETATM    1  C1  UNL     1     -35.866  16.387  -3.357  1.00 20.00     0.149 C 
HETATM    2  C2  UNL     1     -35.347  14.144  -4.883  1.00 20.00     0.149 C 
HETATM    3  C3  UNL     1     -33.299  15.376  -3.496  1.00 20.00     0.149 C 
HETATM    4  S4  UNL     1     -36.648  14.819  -3.819  1.00 20.00    -0.149 SA
HETATM    5  S5  UNL     1     -34.409  16.168  -2.303  1.00 20.00    -0.149 SA
HETATM    6  S6  UNL     1     -33.841  13.714  -3.972  1.00 20.00    -0.149 SA
ENDROOT
TORSDOF 0
ENDMDL
