MODEL 1
REMARK VINA RESULT:      -4.3      0.000      0.000
REMARK  2 active torsions:
REMARK  status: ('A' for Active; 'I' for Inactive)
REMARK    1  A    between atoms: C1_1  and  O10_10 
REMARK    2  A    between atoms: C8_8  and  O10_10 
ROOT
HETATM    1  C2  UNL     1     -33.532  17.463  -1.377  1.00 20.00     0.005 C 
HETATM    2  C3  UNL     1     -34.691  16.614  -0.829  1.00 20.00     0.007 C 
HETATM    3  C4  UNL     1     -35.285  17.421  -2.985  1.00 20.00     0.012 C 
HETATM    4  C5  UNL     1     -33.415  16.011  -3.417  1.00 20.00     0.037 C 
HETATM    5  C6  UNL     1     -33.760  17.419  -2.899  1.00 20.00    -0.012 C 
HETATM    6  C7  UNL     1     -35.429  16.177  -2.104  1.00 20.00     0.015 C 
HETATM    7  C8  UNL     1     -34.557  15.151  -2.852  1.00 20.00     0.135 C 
ENDROOT
BRANCH   7   8
HETATM    8  O10 UNL     1     -35.285  14.561  -3.919  1.00 20.00    -0.323 OA
BRANCH   8   9
HETATM    9  C1  UNL     1     -34.577  13.722  -4.726  1.00 20.00     0.398 C 
HETATM   10  O9  UNL     1     -34.739  12.520  -4.865  1.00 20.00    -0.276 OA
ENDBRANCH   8   9
ENDBRANCH   7   8
TORSDOF 2
ENDMDL
MODEL 2
REMARK VINA RESULT:      -4.2     12.087     12.927
REMARK  2 active torsions:
REMARK  status: ('A' for Active; 'I' for Inactive)
REMARK    1  A    between atoms: C1_1  and  O10_10 
REMARK    2  A    between atoms: C8_8  and  O10_10 
ROOT
HETATM    1  C2  UNL     1     -35.397   5.032   6.581  1.00 20.00     0.005 C 
HETATM    2  C3  UNL     1     -34.308   6.117   6.585  1.00 20.00     0.007 C 
HETATM    3  C4  UNL     1     -33.527   4.251   5.334  1.00 20.00     0.012 C 
HETATM    4  C5  UNL     1     -35.395   5.021   4.073  1.00 20.00     0.037 C 
HETATM    5  C6  UNL     1     -35.054   4.201   5.331  1.00 20.00    -0.012 C 
HETATM    6  C7  UNL     1     -33.486   5.782   5.330  1.00 20.00     0.015 C 
HETATM    7  C8  UNL     1     -34.325   6.124   4.084  1.00 20.00     0.135 C 
ENDROOT
BRANCH   7   8
HETATM    8  O10 UNL     1     -33.532   6.033   2.909  1.00 20.00    -0.323 OA
BRANCH   8   9
HETATM    9  C1  UNL     1     -32.361   6.729   2.931  1.00 20.00     0.398 C 
HETATM   10  O9  UNL     1     -32.144   7.824   2.437  1.00 20.00    -0.276 OA
ENDBRANCH   8   9
ENDBRANCH   7   8
TORSDOF 2
ENDMDL
MODEL 3
REMARK VINA RESULT:      -4.2      2.307      3.653
REMARK  2 active torsions:
REMARK  status: ('A' for Active; 'I' for Inactive)
REMARK    1  A    between atoms: C1_1  and  O10_10 
REMARK    2  A    between atoms: C8_8  and  O10_10 
ROOT
HETATM    1  C2  UNL     1     -33.484  15.621  -4.392  1.00 20.00     0.005 C 
HETATM    2  C3  UNL     1     -34.321  15.250  -5.627  1.00 20.00     0.007 C 
HETATM    3  C4  UNL     1     -34.509  13.506  -4.020  1.00 20.00     0.012 C 
HETATM    4  C5  UNL     1     -35.506  15.375  -2.931  1.00 20.00     0.037 C 
HETATM    5  C6  UNL     1     -34.127  14.782  -3.273  1.00 20.00    -0.012 C 
HETATM    6  C7  UNL     1     -35.348  14.256  -5.059  1.00 20.00     0.015 C 
HETATM    7  C8  UNL     1     -36.343  15.028  -4.173  1.00 20.00     0.135 C 
ENDROOT
BRANCH   7   8
HETATM    8  O10 UNL     1     -37.430  14.194  -3.800  1.00 20.00    -0.323 OA
BRANCH   8   9
HETATM    9  C1  UNL     1     -38.672  14.679  -4.082  1.00 20.00     0.398 C 
HETATM   10  O9  UNL     1     -39.637  14.048  -4.483  1.00 20.00    -0.276 OA
ENDBRANCH   8   9
ENDBRANCH   7   8
TORSDOF 2
ENDMDL
MODEL 4
REMARK VINA RESULT:      -4.2     11.614     12.426
REMARK  2 active torsions:
REMARK  status: ('A' for Active; 'I' for Inactive)
REMARK    1  A    between atoms: C1_1  and  O10_10 
REMARK    2  A    between atoms: C8_8  and  O10_10 
ROOT
HETATM    1  C2  UNL     1     -34.860   4.794   6.094  1.00 20.00     0.005 C 
HETATM    2  C3  UNL     1     -34.775   3.885   4.858  1.00 20.00     0.007 C 
HETATM    3  C4  UNL     1     -35.521   6.038   4.176  1.00 20.00     0.012 C 
HETATM    4  C5  UNL     1     -33.325   6.448   5.001  1.00 20.00     0.037 C 
HETATM    5  C6  UNL     1     -34.764   6.208   5.492  1.00 20.00    -0.012 C 
HETATM    6  C7  UNL     1     -34.626   4.889   3.703  1.00 20.00     0.015 C 
HETATM    7  C8  UNL     1     -33.223   5.522   3.778  1.00 20.00     0.135 C 
ENDROOT
BRANCH   7   8
HETATM    8  O10 UNL     1     -32.962   6.294   2.615  1.00 20.00    -0.323 OA
BRANCH   8   9
HETATM    9  C1  UNL     1     -32.186   7.399   2.799  1.00 20.00     0.398 C 
HETATM   10  O9  UNL     1     -32.177   8.415   2.123  1.00 20.00    -0.276 OA
ENDBRANCH   8   9
ENDBRANCH   7   8
TORSDOF 2
ENDMDL
MODEL 5
REMARK VINA RESULT:      -4.0      2.165      4.023
REMARK  2 active torsions:
REMARK  status: ('A' for Active; 'I' for Inactive)
REMARK    1  A    between atoms: C1_1  and  O10_10 
REMARK    2  A    between atoms: C8_8  and  O10_10 
ROOT
HETATM    1  C2  UNL     1     -34.663  13.279  -4.533  1.00 20.00     0.005 C 
HETATM    2  C3  UNL     1     -33.356  13.583  -3.783  1.00 20.00     0.007 C 
HETATM    3  C4  UNL     1     -34.033  15.532  -4.966  1.00 20.00     0.012 C 
HETATM    4  C5  UNL     1     -35.785  15.206  -3.387  1.00 20.00     0.037 C 
HETATM    5  C6  UNL     1     -35.277  14.675  -4.740  1.00 20.00    -0.012 C 
HETATM    6  C7  UNL     1     -33.390  15.113  -3.641  1.00 20.00     0.015 C 
HETATM    7  C8  UNL     1     -34.483  15.489  -2.621  1.00 20.00     0.135 C 
ENDROOT
BRANCH   7   8
HETATM    8  O10 UNL     1     -34.408  16.870  -2.298  1.00 20.00    -0.323 OA
BRANCH   8   9
HETATM    9  C1  UNL     1     -34.145  17.159  -0.993  1.00 20.00     0.398 C 
HETATM   10  O9  UNL     1     -34.824  16.865  -0.021  1.00 20.00    -0.276 OA
ENDBRANCH   8   9
ENDBRANCH   7   8
TORSDOF 2
ENDMDL
MODEL 6
REMARK VINA RESULT:      -4.0     11.568     12.701
REMARK  2 active torsions:
REMARK  status: ('A' for Active; 'I' for Inactive)
REMARK    1  A    between atoms: C1_1  and  O10_10 
REMARK    2  A    between atoms: C8_8  and  O10_10 
ROOT
HETATM    1  C2  UNL     1     -42.312   4.422   0.462  1.00 20.00     0.005 C 
HETATM    2  C3  UNL     1     -43.063   5.762   0.423  1.00 20.00     0.007 C 
HETATM    3  C4  UNL     1     -40.789   6.140  -0.162  1.00 20.00     0.012 C 
HETATM    4  C5  UNL     1     -41.588   4.742  -1.916  1.00 20.00     0.037 C 
HETATM    5  C6  UNL     1     -41.103   4.674  -0.456  1.00 20.00    -0.012 C 
HETATM    6  C7  UNL     1     -42.200   6.611  -0.524  1.00 20.00     0.015 C 
HETATM    7  C8  UNL     1     -42.362   6.069  -1.957  1.00 20.00     0.135 C 
ENDROOT
BRANCH   7   8
HETATM    8  O10 UNL     1     -41.756   6.948  -2.894  1.00 20.00    -0.323 OA
BRANCH   8   9
HETATM    9  C1  UNL     1     -42.612   7.710  -3.631  1.00 20.00     0.398 C 
HETATM   10  O9  UNL     1     -43.417   7.320  -4.462  1.00 20.00    -0.276 OA
ENDBRANCH   8   9
ENDBRANCH   7   8
TORSDOF 2
ENDMDL
MODEL 7
REMARK VINA RESULT:      -4.0      0.920      1.833
REMARK  2 active torsions:
REMARK  status: ('A' for Active; 'I' for Inactive)
REMARK    1  A    between atoms: C1_1  and  O10_10 
REMARK    2  A    between atoms: C8_8  and  O10_10 
ROOT
HETATM    1  C2  UNL     1     -35.186  18.383  -2.475  1.00 20.00     0.005 C 
HETATM    2  C3  UNL     1     -33.737  17.968  -2.779  1.00 20.00     0.007 C 
HETATM    3  C4  UNL     1     -34.632  16.490  -1.144  1.00 20.00     0.012 C 
HETATM    4  C5  UNL     1     -35.983  16.079  -3.062  1.00 20.00     0.037 C 
HETATM    5  C6  UNL     1     -35.806  17.091  -1.914  1.00 20.00    -0.012 C 
HETATM    6  C7  UNL     1     -33.712  16.486  -2.369  1.00 20.00     0.015 C 
HETATM    7  C8  UNL     1     -34.536  15.677  -3.388  1.00 20.00     0.135 C 
ENDROOT
BRANCH   7   8
HETATM    8  O10 UNL     1     -34.366  14.284  -3.173  1.00 20.00    -0.323 OA
BRANCH   8   9
HETATM    9  C1  UNL     1     -34.184  13.531  -4.294  1.00 20.00     0.398 C 
HETATM   10  O9  UNL     1     -34.875  12.600  -4.678  1.00 20.00    -0.276 OA
ENDBRANCH   8   9
ENDBRANCH   7   8
TORSDOF 2
ENDMDL
MODEL 8
REMARK VINA RESULT:      -3.9      1.898      2.874
REMARK  2 active torsions:
REMARK  status: ('A' for Active; 'I' for Inactive)
REMARK    1  A    between atoms: C1_1  and  O10_10 
REMARK    2  A    between atoms: C8_8  and  O10_10 
ROOT
HETATM    1  C2  UNL     1     -32.528  15.107  -3.797  1.00 20.00     0.005 C 
HETATM    2  C3  UNL     1     -33.441  13.876  -3.687  1.00 20.00     0.007 C 
HETATM    3  C4  UNL     1     -34.403  15.658  -2.439  1.00 20.00     0.012 C 
HETATM    4  C5  UNL     1     -34.441  16.466  -4.679  1.00 20.00     0.037 C 
HETATM    5  C6  UNL     1     -33.482  16.275  -3.490  1.00 20.00    -0.012 C 
HETATM    6  C7  UNL     1     -34.808  14.492  -3.346  1.00 20.00     0.015 C 
HETATM    7  C8  UNL     1     -35.344  15.224  -4.591  1.00 20.00     0.135 C 
ENDROOT
BRANCH   7   8
HETATM    8  O10 UNL     1     -36.692  15.625  -4.392  1.00 20.00    -0.323 OA
BRANCH   8   9
HETATM    9  C1  UNL     1     -37.543  14.649  -3.970  1.00 20.00     0.398 C 
HETATM   10  O9  UNL     1     -38.571  14.793  -3.327  1.00 20.00    -0.276 OA
ENDBRANCH   8   9
ENDBRANCH   7   8
TORSDOF 2
ENDMDL
MODEL 9
REMARK VINA RESULT:      -3.9     11.758     13.112
REMARK  2 active torsions:
REMARK  status: ('A' for Active; 'I' for Inactive)
REMARK    1  A    between atoms: C1_1  and  O10_10 
REMARK    2  A    between atoms: C8_8  and  O10_10 
ROOT
HETATM    1  C2  UNL     1     -41.171   7.323  -0.833  1.00 20.00     0.005 C 
HETATM    2  C3  UNL     1     -40.553   6.118  -0.105  1.00 20.00     0.007 C 
HETATM    3  C4  UNL     1     -42.913   5.836  -0.190  1.00 20.00     0.012 C 
HETATM    4  C5  UNL     1     -42.267   5.785  -2.482  1.00 20.00     0.037 C 
HETATM    5  C6  UNL     1     -42.520   6.774  -1.330  1.00 20.00    -0.012 C 
HETATM    6  C7  UNL     1     -41.619   5.025  -0.289  1.00 20.00     0.015 C 
HETATM    7  C8  UNL     1     -41.626   4.585  -1.765  1.00 20.00     0.135 C 
ENDROOT
BRANCH   7   8
HETATM    8  O10 UNL     1     -42.439   3.434  -1.938  1.00 20.00    -0.323 OA
BRANCH   8   9
HETATM    9  C1  UNL     1     -42.193   2.699  -3.059  1.00 20.00     0.398 C 
HETATM   10  O9  UNL     1     -41.106   2.337  -3.480  1.00 20.00    -0.276 OA
ENDBRANCH   8   9
ENDBRANCH   7   8
TORSDOF 2
ENDMDL
