MODEL 1
REMARK VINA RESULT:      -3.6      0.000      0.000
REMARK  3 active torsions:
REMARK  status: ('A' for Active; 'I' for Inactive)
REMARK    1  A    between atoms: C1_1  and  C3_3 
REMARK    2  A    between atoms: C1_1  and  O6_6 
REMARK    3  A    between atoms: C3_3  and  C4_4 
ROOT
HETATM    1  C1  UNL     1     -34.976   4.731   5.142  1.00 20.00     0.259 C 
HETATM    2  O5  UNL     1     -35.100   3.536   4.908  1.00 20.00    -0.265 OA
ENDROOT
BRANCH   1   3
HETATM    3  C3  UNL     1     -34.888   5.822   4.095  1.00 20.00     0.122 C 
BRANCH   3   4
HETATM    4  C4  UNL     1     -33.892   5.467   2.986  1.00 20.00     0.096 C 
HETATM    5  S7  UNL     1     -32.407   6.528   3.144  1.00 20.00    -0.097 SA
ENDBRANCH   3   4
ENDBRANCH   1   3
BRANCH   1   6
HETATM    6  O6  UNL     1     -34.897   5.300   6.382  1.00 20.00    -0.326 OA
HETATM    7  C2  UNL     1     -34.075   6.467   6.472  1.00 20.00     0.213 C 
ENDBRANCH   1   6
TORSDOF 3
ENDMDL
MODEL 2
REMARK VINA RESULT:      -3.4      1.633      1.869
REMARK  3 active torsions:
REMARK  status: ('A' for Active; 'I' for Inactive)
REMARK    1  A    between atoms: C1_1  and  C3_3 
REMARK    2  A    between atoms: C1_1  and  O6_6 
REMARK    3  A    between atoms: C3_3  and  C4_4 
ROOT
HETATM    1  C1  UNL     1     -34.404   5.819   4.015  1.00 20.00     0.259 C 
HETATM    2  O5  UNL     1     -35.533   5.400   3.800  1.00 20.00    -0.265 OA
ENDROOT
BRANCH   1   3
HETATM    3  C3  UNL     1     -33.281   5.868   3.000  1.00 20.00     0.122 C 
BRANCH   3   4
HETATM    4  C4  UNL     1     -32.189   6.863   3.406  1.00 20.00     0.096 C 
HETATM    5  S7  UNL     1     -32.066   8.178   2.136  1.00 20.00    -0.097 SA
ENDBRANCH   3   4
ENDBRANCH   1   3
BRANCH   1   6
HETATM    6  O6  UNL     1     -33.948   6.320   5.202  1.00 20.00    -0.326 OA
HETATM    7  C2  UNL     1     -34.456   5.679   6.376  1.00 20.00     0.213 C 
ENDBRANCH   1   6
TORSDOF 3
ENDMDL
MODEL 3
REMARK VINA RESULT:      -3.3     12.493     12.781
REMARK  3 active torsions:
REMARK  status: ('A' for Active; 'I' for Inactive)
REMARK    1  A    between atoms: C1_1  and  C3_3 
REMARK    2  A    between atoms: C1_1  and  O6_6 
REMARK    3  A    between atoms: C3_3  and  C4_4 
ROOT
HETATM    1  C1  UNL     1     -35.142  13.555  -4.157  1.00 20.00     0.259 C 
HETATM    2  O5  UNL     1     -34.579  12.688  -4.812  1.00 20.00    -0.265 OA
ENDROOT
BRANCH   1   3
HETATM    3  C3  UNL     1     -34.452  14.542  -3.238  1.00 20.00     0.122 C 
BRANCH   3   4
HETATM    4  C4  UNL     1     -33.106  15.002  -3.806  1.00 20.00     0.096 C 
HETATM    5  S7  UNL     1     -33.377  16.423  -4.930  1.00 20.00    -0.097 SA
ENDBRANCH   3   4
ENDBRANCH   1   3
BRANCH   1   6
HETATM    6  O6  UNL     1     -36.487  13.793  -4.133  1.00 20.00    -0.326 OA
HETATM    7  C2  UNL     1     -36.877  15.070  -3.616  1.00 20.00     0.213 C 
ENDBRANCH   1   6
TORSDOF 3
ENDMDL
MODEL 4
REMARK VINA RESULT:      -3.3      1.566      2.285
REMARK  3 active torsions:
REMARK  status: ('A' for Active; 'I' for Inactive)
REMARK    1  A    between atoms: C1_1  and  C3_3 
REMARK    2  A    between atoms: C1_1  and  O6_6 
REMARK    3  A    between atoms: C3_3  and  C4_4 
ROOT
HETATM    1  C1  UNL     1     -34.050   5.912   4.663  1.00 20.00     0.259 C 
HETATM    2  O5  UNL     1     -33.816   6.592   5.653  1.00 20.00    -0.265 OA
ENDROOT
BRANCH   1   3
HETATM    3  C3  UNL     1     -33.430   6.117   3.296  1.00 20.00     0.122 C 
BRANCH   3   4
HETATM    4  C4  UNL     1     -32.105   6.881   3.381  1.00 20.00     0.096 C 
HETATM    5  S7  UNL     1     -32.076   8.187   2.097  1.00 20.00    -0.097 SA
ENDBRANCH   3   4
ENDBRANCH   1   3
BRANCH   1   6
HETATM    6  O6  UNL     1     -34.905   4.848   4.606  1.00 20.00    -0.326 OA
HETATM    7  C2  UNL     1     -35.019   4.084   5.811  1.00 20.00     0.213 C 
ENDBRANCH   1   6
TORSDOF 3
ENDMDL
MODEL 5
REMARK VINA RESULT:      -3.3     12.399     13.083
REMARK  3 active torsions:
REMARK  status: ('A' for Active; 'I' for Inactive)
REMARK    1  A    between atoms: C1_1  and  C3_3 
REMARK    2  A    between atoms: C1_1  and  O6_6 
REMARK    3  A    between atoms: C3_3  and  C4_4 
ROOT
HETATM    1  C1  UNL     1     -34.354  13.479  -4.647  1.00 20.00     0.259 C 
HETATM    2  O5  UNL     1     -35.153  12.580  -4.420  1.00 20.00    -0.265 OA
ENDROOT
BRANCH   1   3
HETATM    3  C3  UNL     1     -33.241  13.914  -3.717  1.00 20.00     0.122 C 
BRANCH   3   4
HETATM    4  C4  UNL     1     -33.222  15.433  -3.524  1.00 20.00     0.096 C 
HETATM    5  S7  UNL     1     -34.633  15.925  -2.465  1.00 20.00    -0.097 SA
ENDBRANCH   3   4
ENDBRANCH   1   3
BRANCH   1   6
HETATM    6  O6  UNL     1     -34.317  14.251  -5.774  1.00 20.00    -0.326 OA
HETATM    7  C2  UNL     1     -35.589  14.565  -6.348  1.00 20.00     0.213 C 
ENDBRANCH   1   6
TORSDOF 3
ENDMDL
MODEL 6
REMARK VINA RESULT:      -3.1      3.253      3.784
REMARK  3 active torsions:
REMARK  status: ('A' for Active; 'I' for Inactive)
REMARK    1  A    between atoms: C1_1  and  C3_3 
REMARK    2  A    between atoms: C1_1  and  O6_6 
REMARK    3  A    between atoms: C3_3  and  C4_4 
ROOT
HETATM    1  C1  UNL     1     -32.541   6.463   3.336  1.00 20.00     0.259 C 
HETATM    2  O5  UNL     1     -32.075   5.405   2.938  1.00 20.00    -0.265 OA
ENDROOT
BRANCH   1   3
HETATM    3  C3  UNL     1     -33.869   6.621   4.047  1.00 20.00     0.122 C 
BRANCH   3   4
HETATM    4  C4  UNL     1     -34.743   5.371   3.904  1.00 20.00     0.096 C 
HETATM    5  S7  UNL     1     -34.870   4.534   5.528  1.00 20.00    -0.097 SA
ENDBRANCH   3   4
ENDBRANCH   1   3
BRANCH   1   6
HETATM    6  O6  UNL     1     -31.955   7.692   3.216  1.00 20.00    -0.326 OA
HETATM    7  C2  UNL     1     -32.056   8.299   1.925  1.00 20.00     0.213 C 
ENDBRANCH   1   6
TORSDOF 3
ENDMDL
MODEL 7
REMARK VINA RESULT:      -3.1     12.422     12.822
REMARK  3 active torsions:
REMARK  status: ('A' for Active; 'I' for Inactive)
REMARK    1  A    between atoms: C1_1  and  C3_3 
REMARK    2  A    between atoms: C1_1  and  O6_6 
REMARK    3  A    between atoms: C3_3  and  C4_4 
ROOT
HETATM    1  C1  UNL     1     -34.584  13.601  -3.973  1.00 20.00     0.259 C 
HETATM    2  O5  UNL     1     -35.038  12.577  -4.463  1.00 20.00    -0.265 OA
ENDROOT
BRANCH   1   3
HETATM    3  C3  UNL     1     -35.407  14.768  -3.466  1.00 20.00     0.122 C 
BRANCH   3   4
HETATM    4  C4  UNL     1     -36.861  14.688  -3.943  1.00 20.00     0.096 C 
HETATM    5  S7  UNL     1     -36.991  15.432  -5.612  1.00 20.00    -0.097 SA
ENDBRANCH   3   4
ENDBRANCH   1   3
BRANCH   1   6
HETATM    6  O6  UNL     1     -33.260  13.883  -3.790  1.00 20.00    -0.326 OA
HETATM    7  C2  UNL     1     -32.926  15.273  -3.741  1.00 20.00     0.213 C 
ENDBRANCH   1   6
TORSDOF 3
ENDMDL
MODEL 8
REMARK VINA RESULT:      -3.1      3.793      4.496
REMARK  3 active torsions:
REMARK  status: ('A' for Active; 'I' for Inactive)
REMARK    1  A    between atoms: C1_1  and  C3_3 
REMARK    2  A    between atoms: C1_1  and  O6_6 
REMARK    3  A    between atoms: C3_3  and  C4_4 
ROOT
HETATM    1  C1  UNL     1     -32.060   7.345   2.995  1.00 20.00     0.259 C 
HETATM    2  O5  UNL     1     -31.300   7.715   3.880  1.00 20.00    -0.265 OA
ENDROOT
BRANCH   1   3
HETATM    3  C3  UNL     1     -33.074   6.227   3.125  1.00 20.00     0.122 C 
BRANCH   3   4
HETATM    4  C4  UNL     1     -33.780   6.254   4.484  1.00 20.00     0.096 C 
HETATM    5  S7  UNL     1     -35.076   4.959   4.519  1.00 20.00    -0.097 SA
ENDBRANCH   3   4
ENDBRANCH   1   3
BRANCH   1   6
HETATM    6  O6  UNL     1     -32.137   7.867   1.735  1.00 20.00    -0.326 OA
HETATM    7  C2  UNL     1     -32.341   9.282   1.666  1.00 20.00     0.213 C 
ENDBRANCH   1   6
TORSDOF 3
ENDMDL
MODEL 9
REMARK VINA RESULT:      -3.0      2.827      3.411
REMARK  3 active torsions:
REMARK  status: ('A' for Active; 'I' for Inactive)
REMARK    1  A    between atoms: C1_1  and  C3_3 
REMARK    2  A    between atoms: C1_1  and  O6_6 
REMARK    3  A    between atoms: C3_3  and  C4_4 
ROOT
HETATM    1  C1  UNL     1     -33.558   5.951   3.287  1.00 20.00     0.259 C 
HETATM    2  O5  UNL     1     -33.997   5.152   2.472  1.00 20.00    -0.265 OA
ENDROOT
BRANCH   1   3
HETATM    3  C3  UNL     1     -34.357   6.585   4.407  1.00 20.00     0.122 C 
BRANCH   3   4
HETATM    4  C4  UNL     1     -34.083   5.909   5.754  1.00 20.00     0.096 C 
HETATM    5  S7  UNL     1     -34.902   4.271   5.787  1.00 20.00    -0.097 SA
ENDBRANCH   3   4
ENDBRANCH   1   3
BRANCH   1   6
HETATM    6  O6  UNL     1     -32.274   6.416   3.341  1.00 20.00    -0.326 OA
HETATM    7  C2  UNL     1     -32.033   7.640   2.641  1.00 20.00     0.213 C 
ENDBRANCH   1   6
TORSDOF 3
ENDMDL
