MODEL 1
REMARK VINA RESULT:      -5.6      0.000      0.000
REMARK  3 active torsions:
REMARK  status: ('A' for Active; 'I' for Inactive)
REMARK    1  A    between atoms: C1_1  and  C3_3 
REMARK    2  A    between atoms: C1_1  and  O4_4 
REMARK    3  A    between atoms: C2_2  and  O4_4 
ROOT
HETATM    1  C1  UNL     1     -33.907   5.782   5.187  1.00 20.00     0.330 C 
HETATM    2 CL10 UNL     1     -33.860   6.831   6.628  1.00 20.00    -0.086 Cl
ENDROOT
BRANCH   1   3
HETATM    3  C3  UNL     1     -35.063   4.811   5.302  1.00 20.00     0.427 C 
HETATM    4  F7  UNL     1     -36.026   5.065   4.390  1.00 20.00    -0.167 F 
HETATM    5  F8  UNL     1     -35.628   4.886   6.527  1.00 20.00    -0.167 F 
HETATM    6  F9  UNL     1     -34.650   3.535   5.127  1.00 20.00    -0.167 F 
ENDBRANCH   1   3
BRANCH   1   7
HETATM    7  O4  UNL     1     -34.110   6.575   4.020  1.00 20.00    -0.302 OA
BRANCH   7   8
HETATM    8  C2  UNL     1     -33.266   6.202   2.944  1.00 20.00     0.501 C 
HETATM    9  F5  UNL     1     -32.092   5.776   3.472  1.00 20.00    -0.184 F 
HETATM   10  F6  UNL     1     -33.818   5.144   2.303  1.00 20.00    -0.184 F 
ENDBRANCH   7   8
ENDBRANCH   1   7
TORSDOF 3
ENDMDL
MODEL 2
REMARK VINA RESULT:      -5.5      0.013      1.198
REMARK  3 active torsions:
REMARK  status: ('A' for Active; 'I' for Inactive)
REMARK    1  A    between atoms: C1_1  and  C3_3 
REMARK    2  A    between atoms: C1_1  and  O4_4 
REMARK    3  A    between atoms: C2_2  and  O4_4 
ROOT
HETATM    1  C1  UNL     1     -33.907   5.782   5.189  1.00 20.00     0.330 C 
HETATM    2 CL10 UNL     1     -33.852   6.836   6.625  1.00 20.00    -0.086 Cl
ENDROOT
BRANCH   1   3
HETATM    3  C3  UNL     1     -35.063   4.811   5.313  1.00 20.00     0.427 C 
HETATM    4  F7  UNL     1     -35.633   4.862   6.536  1.00 20.00    -0.167 F 
HETATM    5  F8  UNL     1     -34.643   3.543   5.109  1.00 20.00    -0.167 F 
HETATM    6  F9  UNL     1     -36.021   5.070   4.396  1.00 20.00    -0.167 F 
ENDBRANCH   1   3
BRANCH   1   7
HETATM    7  O4  UNL     1     -34.117   6.571   4.019  1.00 20.00    -0.302 OA
BRANCH   7   8
HETATM    8  C2  UNL     1     -33.272   6.201   2.943  1.00 20.00     0.501 C 
HETATM    9  F5  UNL     1     -32.098   5.775   3.471  1.00 20.00    -0.184 F 
HETATM   10  F6  UNL     1     -33.822   5.143   2.301  1.00 20.00    -0.184 F 
ENDBRANCH   7   8
ENDBRANCH   1   7
TORSDOF 3
ENDMDL
MODEL 3
REMARK VINA RESULT:      -5.5      0.030      1.202
REMARK  3 active torsions:
REMARK  status: ('A' for Active; 'I' for Inactive)
REMARK    1  A    between atoms: C1_1  and  C3_3 
REMARK    2  A    between atoms: C1_1  and  O4_4 
REMARK    3  A    between atoms: C2_2  and  O4_4 
ROOT
HETATM    1  C1  UNL     1     -33.910   5.780   5.202  1.00 20.00     0.330 C 
HETATM    2 CL10 UNL     1     -33.863   6.840   6.635  1.00 20.00    -0.086 Cl
ENDROOT
BRANCH   1   3
HETATM    3  C3  UNL     1     -35.052   4.794   5.335  1.00 20.00     0.427 C 
HETATM    4  F7  UNL     1     -34.637   3.519   5.175  1.00 20.00    -0.167 F 
HETATM    5  F8  UNL     1     -36.001   5.037   4.404  1.00 20.00    -0.167 F 
HETATM    6  F9  UNL     1     -35.643   4.891   6.547  1.00 20.00    -0.167 F 
ENDBRANCH   1   3
BRANCH   1   7
HETATM    7  O4  UNL     1     -34.136   6.562   4.031  1.00 20.00    -0.302 OA
BRANCH   7   8
HETATM    8  C2  UNL     1     -33.282   6.209   2.957  1.00 20.00     0.501 C 
HETATM    9  F5  UNL     1     -32.105   5.793   3.488  1.00 20.00    -0.184 F 
HETATM   10  F6  UNL     1     -33.816   5.149   2.305  1.00 20.00    -0.184 F 
ENDBRANCH   7   8
ENDBRANCH   1   7
TORSDOF 3
ENDMDL
MODEL 4
REMARK VINA RESULT:      -5.3      2.073      3.213
REMARK  3 active torsions:
REMARK  status: ('A' for Active; 'I' for Inactive)
REMARK    1  A    between atoms: C1_1  and  C3_3 
REMARK    2  A    between atoms: C1_1  and  O4_4 
REMARK    3  A    between atoms: C2_2  and  O4_4 
ROOT
HETATM    1  C1  UNL     1     -33.819   6.407   3.953  1.00 20.00     0.330 C 
HETATM    2 CL10 UNL     1     -32.383   6.519   2.901  1.00 20.00    -0.086 Cl
ENDROOT
BRANCH   1   3
HETATM    3  C3  UNL     1     -34.767   5.358   3.410  1.00 20.00     0.427 C 
HETATM    4  F7  UNL     1     -36.023   5.835   3.280  1.00 20.00    -0.167 F 
HETATM    5  F8  UNL     1     -34.817   4.289   4.235  1.00 20.00    -0.167 F 
HETATM    6  F9  UNL     1     -34.363   4.913   2.199  1.00 20.00    -0.167 F 
ENDBRANCH   1   3
BRANCH   1   7
HETATM    7  O4  UNL     1     -33.425   6.009   5.264  1.00 20.00    -0.302 OA
BRANCH   7   8
HETATM    8  C2  UNL     1     -34.070   6.752   6.285  1.00 20.00     0.501 C 
HETATM    9  F5  UNL     1     -34.811   5.884   7.018  1.00 20.00    -0.184 F 
HETATM   10  F6  UNL     1     -33.129   7.264   7.113  1.00 20.00    -0.184 F 
ENDBRANCH   7   8
ENDBRANCH   1   7
TORSDOF 3
ENDMDL
MODEL 5
REMARK VINA RESULT:      -5.0      1.641      1.816
REMARK  3 active torsions:
REMARK  status: ('A' for Active; 'I' for Inactive)
REMARK    1  A    between atoms: C1_1  and  C3_3 
REMARK    2  A    between atoms: C1_1  and  O4_4 
REMARK    3  A    between atoms: C2_2  and  O4_4 
ROOT
HETATM    1  C1  UNL     1     -34.710   5.785   4.927  1.00 20.00     0.330 C 
HETATM    2 CL10 UNL     1     -35.556   5.639   3.364  1.00 20.00    -0.086 Cl
ENDROOT
BRANCH   1   3
HETATM    3  C3  UNL     1     -34.770   4.464   5.664  1.00 20.00     0.427 C 
HETATM    4  F7  UNL     1     -35.114   3.446   4.846  1.00 20.00    -0.167 F 
HETATM    5  F8  UNL     1     -35.682   4.516   6.660  1.00 20.00    -0.167 F 
HETATM    6  F9  UNL     1     -33.578   4.162   6.226  1.00 20.00    -0.167 F 
ENDBRANCH   1   3
BRANCH   1   7
HETATM    7  O4  UNL     1     -33.339   6.105   4.704  1.00 20.00    -0.302 OA
BRANCH   7   8
HETATM    8  C2  UNL     1     -33.004   6.181   3.329  1.00 20.00     0.501 C 
HETATM    9  F5  UNL     1     -32.898   7.494   3.005  1.00 20.00    -0.184 F 
HETATM   10  F6  UNL     1     -31.781   5.630   3.146  1.00 20.00    -0.184 F 
ENDBRANCH   7   8
ENDBRANCH   1   7
TORSDOF 3
ENDMDL
MODEL 6
REMARK VINA RESULT:      -5.0      1.646      1.936
REMARK  3 active torsions:
REMARK  status: ('A' for Active; 'I' for Inactive)
REMARK    1  A    between atoms: C1_1  and  C3_3 
REMARK    2  A    between atoms: C1_1  and  O4_4 
REMARK    3  A    between atoms: C2_2  and  O4_4 
ROOT
HETATM    1  C1  UNL     1     -34.741   5.764   4.956  1.00 20.00     0.330 C 
HETATM    2 CL10 UNL     1     -35.577   5.626   3.388  1.00 20.00    -0.086 Cl
ENDROOT
BRANCH   1   3
HETATM    3  C3  UNL     1     -34.788   4.434   5.677  1.00 20.00     0.427 C 
HETATM    4  F7  UNL     1     -35.681   4.441   6.689  1.00 20.00    -0.167 F 
HETATM    5  F8  UNL     1     -33.578   4.133   6.200  1.00 20.00    -0.167 F 
HETATM    6  F9  UNL     1     -35.121   3.431   4.834  1.00 20.00    -0.167 F 
ENDBRANCH   1   3
BRANCH   1   7
HETATM    7  O4  UNL     1     -33.373   6.105   4.745  1.00 20.00    -0.302 OA
BRANCH   7   8
HETATM    8  C2  UNL     1     -33.026   6.178   3.372  1.00 20.00     0.501 C 
HETATM    9  F5  UNL     1     -32.927   7.490   3.044  1.00 20.00    -0.184 F 
HETATM   10  F6  UNL     1     -31.797   5.635   3.203  1.00 20.00    -0.184 F 
ENDBRANCH   7   8
ENDBRANCH   1   7
TORSDOF 3
ENDMDL
MODEL 7
REMARK VINA RESULT:      -5.0      1.355      3.660
REMARK  3 active torsions:
REMARK  status: ('A' for Active; 'I' for Inactive)
REMARK    1  A    between atoms: C1_1  and  C3_3 
REMARK    2  A    between atoms: C1_1  and  O4_4 
REMARK    3  A    between atoms: C2_2  and  O4_4 
ROOT
HETATM    1  C1  UNL     1     -33.663   6.660   4.078  1.00 20.00     0.330 C 
HETATM    2 CL10 UNL     1     -33.482   6.798   5.846  1.00 20.00    -0.086 Cl
ENDROOT
BRANCH   1   3
HETATM    3  C3  UNL     1     -32.316   6.842   3.412  1.00 20.00     0.427 C 
HETATM    4  F7  UNL     1     -32.426   7.448   2.210  1.00 20.00    -0.167 F 
HETATM    5  F8  UNL     1     -31.717   5.646   3.215  1.00 20.00    -0.167 F 
HETATM    6  F9  UNL     1     -31.487   7.585   4.179  1.00 20.00    -0.167 F 
ENDBRANCH   1   3
BRANCH   1   7
HETATM    7  O4  UNL     1     -34.150   5.362   3.743  1.00 20.00    -0.302 OA
BRANCH   7   8
HETATM    8  C2  UNL     1     -35.199   4.928   4.592  1.00 20.00     0.501 C 
HETATM    9  F5  UNL     1     -36.371   5.272   4.004  1.00 20.00    -0.184 F 
HETATM   10  F6  UNL     1     -35.173   3.576   4.661  1.00 20.00    -0.184 F 
ENDBRANCH   7   8
ENDBRANCH   1   7
TORSDOF 3
ENDMDL
MODEL 8
REMARK VINA RESULT:      -4.9      2.109      3.983
REMARK  3 active torsions:
REMARK  status: ('A' for Active; 'I' for Inactive)
REMARK    1  A    between atoms: C1_1  and  C3_3 
REMARK    2  A    between atoms: C1_1  and  O4_4 
REMARK    3  A    between atoms: C2_2  and  O4_4 
ROOT
HETATM    1  C1  UNL     1     -33.547   5.893   4.187  1.00 20.00     0.330 C 
HETATM    2 CL10 UNL     1     -34.940   5.386   3.197  1.00 20.00    -0.086 Cl
ENDROOT
BRANCH   1   3
HETATM    3  C3  UNL     1     -32.475   6.483   3.294  1.00 20.00     0.427 C 
HETATM    4  F7  UNL     1     -32.998   7.290   2.346  1.00 20.00    -0.167 F 
HETATM    5  F8  UNL     1     -31.788   5.503   2.666  1.00 20.00    -0.167 F 
HETATM    6  F9  UNL     1     -31.584   7.204   4.010  1.00 20.00    -0.167 F 
ENDBRANCH   1   3
BRANCH   1   7
HETATM    7  O4  UNL     1     -33.954   6.899   5.112  1.00 20.00    -0.302 OA
BRANCH   7   8
HETATM    8  C2  UNL     1     -33.873   6.476   6.462  1.00 20.00     0.501 C 
HETATM    9  F5  UNL     1     -33.884   7.585   7.241  1.00 20.00    -0.184 F 
HETATM   10  F6  UNL     1     -34.987   5.769   6.765  1.00 20.00    -0.184 F 
ENDBRANCH   7   8
ENDBRANCH   1   7
TORSDOF 3
ENDMDL
MODEL 9
REMARK VINA RESULT:      -4.9      1.208      3.524
REMARK  3 active torsions:
REMARK  status: ('A' for Active; 'I' for Inactive)
REMARK    1  A    between atoms: C1_1  and  C3_3 
REMARK    2  A    between atoms: C1_1  and  O4_4 
REMARK    3  A    between atoms: C2_2  and  O4_4 
ROOT
HETATM    1  C1  UNL     1     -33.696   6.369   4.525  1.00 20.00     0.330 C 
HETATM    2 CL10 UNL     1     -33.417   6.982   6.175  1.00 20.00    -0.086 Cl
ENDROOT
BRANCH   1   3
HETATM    3  C3  UNL     1     -32.509   6.709   3.648  1.00 20.00     0.427 C 
HETATM    4  F7  UNL     1     -31.628   7.512   4.282  1.00 20.00    -0.167 F 
HETATM    5  F8  UNL     1     -32.914   7.348   2.527  1.00 20.00    -0.167 F 
HETATM    6  F9  UNL     1     -31.852   5.594   3.259  1.00 20.00    -0.167 F 
ENDBRANCH   1   3
BRANCH   1   7
HETATM    7  O4  UNL     1     -33.831   4.949   4.555  1.00 20.00    -0.302 OA
BRANCH   7   8
HETATM    8  C2  UNL     1     -35.172   4.525   4.726  1.00 20.00     0.501 C 
HETATM    9  F5  UNL     1     -35.478   4.655   6.041  1.00 20.00    -0.184 F 
HETATM   10  F6  UNL     1     -35.986   5.366   4.047  1.00 20.00    -0.184 F 
ENDBRANCH   7   8
ENDBRANCH   1   7
TORSDOF 3
ENDMDL
