MODEL 1
REMARK VINA RESULT:      -3.7      0.000      0.000
REMARK  1 active torsions:
REMARK  status: ('A' for Active; 'I' for Inactive)
REMARK    1  A    between atoms: C1_1  and  C2_2 
ROOT
HETATM    1  C2  UNL     1     -34.345  14.954  -4.992  1.00 20.00     0.281 C 
HETATM    2 CL5  UNL     1     -34.362  14.831  -6.760  1.00 20.00    -0.073 Cl
HETATM    3 CL6  UNL     1     -35.903  15.542  -4.389  1.00 20.00    -0.073 Cl
HETATM    4 CL7  UNL     1     -33.025  16.012  -4.465  1.00 20.00    -0.073 Cl
ENDROOT
BRANCH   1   5
HETATM    5  C1  UNL     1     -34.136  13.584  -4.409  1.00 20.00     0.352 C 
HETATM    6  O3  UNL     1     -34.929  12.655  -4.474  1.00 20.00    -0.255 OA
HETATM    7  F4  UNL     1     -32.956  13.314  -3.828  1.00 20.00    -0.160 F 
ENDBRANCH   1   5
TORSDOF 1
ENDMDL
MODEL 2
REMARK VINA RESULT:      -3.6      0.035      1.906
REMARK  1 active torsions:
REMARK  status: ('A' for Active; 'I' for Inactive)
REMARK    1  A    between atoms: C1_1  and  C2_2 
ROOT
HETATM    1  C2  UNL     1     -34.342  14.965  -4.997  1.00 20.00     0.281 C 
HETATM    2 CL5  UNL     1     -35.892  15.598  -4.417  1.00 20.00    -0.073 Cl
HETATM    3 CL6  UNL     1     -33.001  15.980  -4.440  1.00 20.00    -0.073 Cl
HETATM    4 CL7  UNL     1     -34.352  14.849  -6.765  1.00 20.00    -0.073 Cl
ENDROOT
BRANCH   1   5
HETATM    5  C1  UNL     1     -34.126  13.594  -4.418  1.00 20.00     0.352 C 
HETATM    6  O3  UNL     1     -34.908  12.657  -4.498  1.00 20.00    -0.255 OA
HETATM    7  F4  UNL     1     -32.952  13.334  -3.822  1.00 20.00    -0.160 F 
ENDBRANCH   1   5
TORSDOF 1
ENDMDL
MODEL 3
REMARK VINA RESULT:      -3.6      0.031      1.901
REMARK  1 active torsions:
REMARK  status: ('A' for Active; 'I' for Inactive)
REMARK    1  A    between atoms: C1_1  and  C2_2 
ROOT
HETATM    1  C2  UNL     1     -34.350  14.964  -4.966  1.00 20.00     0.281 C 
HETATM    2 CL5  UNL     1     -33.016  16.009  -4.450  1.00 20.00    -0.073 Cl
HETATM    3 CL6  UNL     1     -34.378  14.807  -6.730  1.00 20.00    -0.073 Cl
HETATM    4 CL7  UNL     1     -35.892  15.598  -4.365  1.00 20.00    -0.073 Cl
ENDROOT
BRANCH   1   5
HETATM    5  C1  UNL     1     -34.135  13.585  -4.405  1.00 20.00     0.352 C 
HETATM    6  O3  UNL     1     -34.925  12.654  -4.483  1.00 20.00    -0.255 OA
HETATM    7  F4  UNL     1     -32.954  13.312  -3.828  1.00 20.00    -0.160 F 
ENDBRANCH   1   5
TORSDOF 1
ENDMDL
MODEL 4
REMARK VINA RESULT:      -3.6      1.271      2.017
REMARK  1 active torsions:
REMARK  status: ('A' for Active; 'I' for Inactive)
REMARK    1  A    between atoms: C1_1  and  C2_2 
ROOT
HETATM    1  C2  UNL     1     -34.877  15.010  -3.820  1.00 20.00     0.281 C 
HETATM    2 CL5  UNL     1     -36.609  14.913  -3.461  1.00 20.00    -0.073 Cl
HETATM    3 CL6  UNL     1     -34.002  15.782  -2.487  1.00 20.00    -0.073 Cl
HETATM    4 CL7  UNL     1     -34.615  15.887  -5.338  1.00 20.00    -0.073 Cl
ENDROOT
BRANCH   1   5
HETATM    5  C1  UNL     1     -34.328  13.617  -3.959  1.00 20.00     0.352 C 
HETATM    6  O3  UNL     1     -34.948  12.645  -4.368  1.00 20.00    -0.255 OA
HETATM    7  F4  UNL     1     -33.028  13.417  -3.685  1.00 20.00    -0.160 F 
ENDBRANCH   1   5
TORSDOF 1
ENDMDL
MODEL 5
REMARK VINA RESULT:      -3.5     13.201     13.621
REMARK  1 active torsions:
REMARK  status: ('A' for Active; 'I' for Inactive)
REMARK    1  A    between atoms: C1_1  and  C2_2 
ROOT
HETATM    1  C2  UNL     1     -34.469   5.262   4.675  1.00 20.00     0.281 C 
HETATM    2 CL5  UNL     1     -33.031   5.698   3.736  1.00 20.00    -0.073 Cl
HETATM    3 CL6  UNL     1     -34.509   3.520   4.990  1.00 20.00    -0.073 Cl
HETATM    4 CL7  UNL     1     -35.935   5.783   3.827  1.00 20.00    -0.073 Cl
ENDROOT
BRANCH   1   5
HETATM    5  C1  UNL     1     -34.407   5.950   6.011  1.00 20.00     0.352 C 
HETATM    6  O3  UNL     1     -33.679   6.891   6.293  1.00 20.00    -0.255 OA
HETATM    7  F4  UNL     1     -35.266   5.560   6.967  1.00 20.00    -0.160 F 
ENDBRANCH   1   5
TORSDOF 1
ENDMDL
MODEL 6
REMARK VINA RESULT:      -3.5      2.030      2.708
REMARK  1 active torsions:
REMARK  status: ('A' for Active; 'I' for Inactive)
REMARK    1  A    between atoms: C1_1  and  C2_2 
ROOT
HETATM    1  C2  UNL     1     -34.162  14.711  -3.824  1.00 20.00     0.281 C 
HETATM    2 CL5  UNL     1     -34.653  15.662  -2.411  1.00 20.00    -0.073 Cl
HETATM    3 CL6  UNL     1     -32.676  13.808  -3.488  1.00 20.00    -0.073 Cl
HETATM    4 CL7  UNL     1     -33.952  15.769  -5.230  1.00 20.00    -0.073 Cl
ENDROOT
BRANCH   1   5
HETATM    5  C1  UNL     1     -35.233  13.700  -4.128  1.00 20.00     0.352 C 
HETATM    6  O3  UNL     1     -35.042  12.559  -4.523  1.00 20.00    -0.255 OA
HETATM    7  F4  UNL     1     -36.510  14.035  -3.883  1.00 20.00    -0.160 F 
ENDBRANCH   1   5
TORSDOF 1
ENDMDL
MODEL 7
REMARK VINA RESULT:      -3.5     13.224     13.579
REMARK  1 active torsions:
REMARK  status: ('A' for Active; 'I' for Inactive)
REMARK    1  A    between atoms: C1_1  and  C2_2 
ROOT
HETATM    1  C2  UNL     1     -34.349   5.675   4.810  1.00 20.00     0.281 C 
HETATM    2 CL5  UNL     1     -35.792   6.019   3.841  1.00 20.00    -0.073 Cl
HETATM    3 CL6  UNL     1     -34.201   6.830   6.145  1.00 20.00    -0.073 Cl
HETATM    4 CL7  UNL     1     -32.903   5.707   3.786  1.00 20.00    -0.073 Cl
ENDROOT
BRANCH   1   5
HETATM    5  C1  UNL     1     -34.486   4.309   5.422  1.00 20.00     0.352 C 
HETATM    6  O3  UNL     1     -35.041   3.350   4.905  1.00 20.00    -0.255 OA
HETATM    7  F4  UNL     1     -33.892   4.081   6.605  1.00 20.00    -0.160 F 
ENDBRANCH   1   5
TORSDOF 1
ENDMDL
MODEL 8
REMARK VINA RESULT:      -3.5     13.237     13.565
REMARK  1 active torsions:
REMARK  status: ('A' for Active; 'I' for Inactive)
REMARK    1  A    between atoms: C1_1  and  C2_2 
ROOT
HETATM    1  C2  UNL     1     -34.332   5.677   4.820  1.00 20.00     0.281 C 
HETATM    2 CL5  UNL     1     -32.894   5.702   3.785  1.00 20.00    -0.073 Cl
HETATM    3 CL6  UNL     1     -35.794   5.992   3.871  1.00 20.00    -0.073 Cl
HETATM    4 CL7  UNL     1     -34.164   6.859   6.130  1.00 20.00    -0.073 Cl
ENDROOT
BRANCH   1   5
HETATM    5  C1  UNL     1     -34.481   4.304   5.416  1.00 20.00     0.352 C 
HETATM    6  O3  UNL     1     -35.036   3.354   4.883  1.00 20.00    -0.255 OA
HETATM    7  F4  UNL     1     -33.900   4.060   6.602  1.00 20.00    -0.160 F 
ENDBRANCH   1   5
TORSDOF 1
ENDMDL
MODEL 9
REMARK VINA RESULT:      -3.5     13.183     13.623
REMARK  1 active torsions:
REMARK  status: ('A' for Active; 'I' for Inactive)
REMARK    1  A    between atoms: C1_1  and  C2_2 
ROOT
HETATM    1  C2  UNL     1     -34.477   5.262   4.669  1.00 20.00     0.281 C 
HETATM    2 CL5  UNL     1     -35.944   5.794   3.829  1.00 20.00    -0.073 Cl
HETATM    3 CL6  UNL     1     -33.030   5.707   3.749  1.00 20.00    -0.073 Cl
HETATM    4 CL7  UNL     1     -34.533   3.514   4.950  1.00 20.00    -0.073 Cl
ENDROOT
BRANCH   1   5
HETATM    5  C1  UNL     1     -34.390   5.968   5.994  1.00 20.00     0.352 C 
HETATM    6  O3  UNL     1     -33.652   6.909   6.252  1.00 20.00    -0.255 OA
HETATM    7  F4  UNL     1     -35.237   5.597   6.968  1.00 20.00    -0.160 F 
ENDBRANCH   1   5
TORSDOF 1
ENDMDL
