MODEL 1
REMARK VINA RESULT:      -4.4      0.000      0.000
REMARK  0 active torsions:
REMARK  status: ('A' for Active; 'I' for Inactive)
ROOT
HETATM    1  C1  UNL     1     -33.674  13.525  -3.939  1.00 20.00     0.270 A 
HETATM    2  C2  UNL     1     -34.170  14.999  -4.011  1.00 20.00     0.072 A 
HETATM    3  C3  UNL     1     -35.399  14.326  -4.737  1.00 20.00     0.079 A 
HETATM    4  C4  UNL     1     -33.258  15.899  -4.845  1.00 20.00     0.029 C 
HETATM    5  C5  UNL     1     -34.412  15.618  -2.633  1.00 20.00     0.029 C 
HETATM    6  C6  UNL     1     -35.588  14.617  -6.226  1.00 20.00     0.047 C 
HETATM    7  C7  UNL     1     -36.744  14.335  -4.011  1.00 20.00     0.047 C 
HETATM    8  O8  UNL     1     -32.710  12.930  -3.512  1.00 20.00    -0.264 OA
HETATM    9  O9  UNL     1     -34.764  13.018  -4.573  1.00 20.00    -0.309 OA
ENDROOT
TORSDOF 0
ENDMDL
MODEL 2
REMARK VINA RESULT:      -4.3      1.012      3.011
REMARK  0 active torsions:
REMARK  status: ('A' for Active; 'I' for Inactive)
ROOT
HETATM    1  C1  UNL     1     -34.872  13.633  -4.122  1.00 20.00     0.270 A 
HETATM    2  C2  UNL     1     -35.630  14.982  -4.296  1.00 20.00     0.072 A 
HETATM    3  C3  UNL     1     -34.438  15.521  -3.415  1.00 20.00     0.079 A 
HETATM    4  C4  UNL     1     -37.026  14.969  -3.670  1.00 20.00     0.029 C 
HETATM    5  C5  UNL     1     -35.705  15.445  -5.752  1.00 20.00     0.029 C 
HETATM    6  C6  UNL     1     -34.759  15.989  -1.996  1.00 20.00     0.047 C 
HETATM    7  C7  UNL     1     -33.436  16.466  -4.080  1.00 20.00     0.047 C 
HETATM    8  O8  UNL     1     -35.009  12.483  -4.473  1.00 20.00    -0.264 OA
HETATM    9  O9  UNL     1     -33.877  14.171  -3.368  1.00 20.00    -0.309 OA
ENDROOT
TORSDOF 0
ENDMDL
MODEL 3
REMARK VINA RESULT:      -4.2      1.441      2.205
REMARK  0 active torsions:
REMARK  status: ('A' for Active; 'I' for Inactive)
ROOT
HETATM    1  C1  UNL     1     -35.031  13.832  -4.149  1.00 20.00     0.270 A 
HETATM    2  C2  UNL     1     -34.123  15.086  -4.307  1.00 20.00     0.072 A 
HETATM    3  C3  UNL     1     -35.247  15.749  -3.420  1.00 20.00     0.079 A 
HETATM    4  C4  UNL     1     -33.994  15.555  -5.757  1.00 20.00     0.029 C 
HETATM    5  C5  UNL     1     -32.738  14.906  -3.682  1.00 20.00     0.029 C 
HETATM    6  C6  UNL     1     -36.133  16.810  -4.074  1.00 20.00     0.047 C 
HETATM    7  C7  UNL     1     -34.875  16.161  -1.995  1.00 20.00     0.047 C 
HETATM    8  O8  UNL     1     -35.026  12.678  -4.513  1.00 20.00    -0.264 OA
HETATM    9  O9  UNL     1     -35.959  14.471  -3.389  1.00 20.00    -0.309 OA
ENDROOT
TORSDOF 0
ENDMDL
MODEL 4
REMARK VINA RESULT:      -4.1      1.271      2.335
REMARK  0 active torsions:
REMARK  status: ('A' for Active; 'I' for Inactive)
ROOT
HETATM    1  C1  UNL     1     -34.897  13.740  -4.739  1.00 20.00     0.270 A 
HETATM    2  C2  UNL     1     -35.281  15.082  -4.050  1.00 20.00     0.072 A 
HETATM    3  C3  UNL     1     -34.700  15.688  -5.386  1.00 20.00     0.079 A 
HETATM    4  C4  UNL     1     -34.505  15.337  -2.758  1.00 20.00     0.029 C 
HETATM    5  C5  UNL     1     -36.784  15.221  -3.803  1.00 20.00     0.029 C 
HETATM    6  C6  UNL     1     -33.397  16.483  -5.296  1.00 20.00     0.047 C 
HETATM    7  C7  UNL     1     -35.680  16.368  -6.342  1.00 20.00     0.047 C 
HETATM    8  O8  UNL     1     -34.955  12.559  -4.482  1.00 20.00    -0.264 OA
HETATM    9  O9  UNL     1     -34.413  14.334  -5.861  1.00 20.00    -0.309 OA
ENDROOT
TORSDOF 0
ENDMDL
MODEL 5
REMARK VINA RESULT:      -4.0      1.683      2.989
REMARK  0 active torsions:
REMARK  status: ('A' for Active; 'I' for Inactive)
ROOT
HETATM    1  C1  UNL     1     -36.741  14.448  -3.839  1.00 20.00     0.270 A 
HETATM    2  C2  UNL     1     -35.601  15.508  -3.837  1.00 20.00     0.072 A 
HETATM    3  C3  UNL     1     -34.817  14.354  -4.575  1.00 20.00     0.079 A 
HETATM    4  C4  UNL     1     -35.140  15.892  -2.430  1.00 20.00     0.029 C 
HETATM    5  C5  UNL     1     -35.945  16.761  -4.644  1.00 20.00     0.029 C 
HETATM    6  C6  UNL     1     -33.656  13.696  -3.830  1.00 20.00     0.047 C 
HETATM    7  C7  UNL     1     -34.462  14.567  -6.047  1.00 20.00     0.047 C 
HETATM    8  O8  UNL     1     -37.886  14.372  -3.453  1.00 20.00    -0.264 OA
HETATM    9  O9  UNL     1     -36.004  13.503  -4.478  1.00 20.00    -0.309 OA
ENDROOT
TORSDOF 0
ENDMDL
MODEL 6
REMARK VINA RESULT:      -4.0      2.194      2.830
REMARK  0 active torsions:
REMARK  status: ('A' for Active; 'I' for Inactive)
ROOT
HETATM    1  C1  UNL     1     -36.702  14.675  -4.237  1.00 20.00     0.270 A 
HETATM    2  C2  UNL     1     -35.175  14.784  -3.954  1.00 20.00     0.072 A 
HETATM    3  C3  UNL     1     -35.201  15.608  -5.300  1.00 20.00     0.079 A 
HETATM    4  C4  UNL     1     -34.465  13.430  -3.964  1.00 20.00     0.029 C 
HETATM    5  C5  UNL     1     -34.857  15.541  -2.664  1.00 20.00     0.029 C 
HETATM    6  C6  UNL     1     -34.519  14.992  -6.521  1.00 20.00     0.047 C 
HETATM    7  C7  UNL     1     -34.911  17.107  -5.219  1.00 20.00     0.047 C 
HETATM    8  O8  UNL     1     -37.671  14.173  -3.713  1.00 20.00    -0.264 OA
HETATM    9  O9  UNL     1     -36.646  15.395  -5.388  1.00 20.00    -0.309 OA
ENDROOT
TORSDOF 0
ENDMDL
MODEL 7
REMARK VINA RESULT:      -4.0      2.128      3.159
REMARK  0 active torsions:
REMARK  status: ('A' for Active; 'I' for Inactive)
ROOT
HETATM    1  C1  UNL     1     -36.517  14.839  -3.743  1.00 20.00     0.270 A 
HETATM    2  C2  UNL     1     -35.049  14.761  -4.255  1.00 20.00     0.072 A 
HETATM    3  C3  UNL     1     -34.950  16.164  -3.540  1.00 20.00     0.079 A 
HETATM    4  C4  UNL     1     -34.946  14.733  -5.781  1.00 20.00     0.029 C 
HETATM    5  C5  UNL     1     -34.263  13.597  -3.649  1.00 20.00     0.029 C 
HETATM    6  C6  UNL     1     -34.764  17.399  -4.421  1.00 20.00     0.047 C 
HETATM    7  C7  UNL     1     -34.079  16.261  -2.286  1.00 20.00     0.047 C 
HETATM    8  O8  UNL     1     -37.513  14.153  -3.789  1.00 20.00    -0.264 OA
HETATM    9  O9  UNL     1     -36.356  16.050  -3.149  1.00 20.00    -0.309 OA
ENDROOT
TORSDOF 0
ENDMDL
MODEL 8
REMARK VINA RESULT:      -3.9      1.975      2.686
REMARK  0 active torsions:
REMARK  status: ('A' for Active; 'I' for Inactive)
ROOT
HETATM    1  C1  UNL     1     -33.857  16.302  -4.893  1.00 20.00     0.270 A 
HETATM    2  C2  UNL     1     -33.793  15.392  -3.632  1.00 20.00     0.072 A 
HETATM    3  C3  UNL     1     -35.008  14.682  -4.345  1.00 20.00     0.079 A 
HETATM    4  C4  UNL     1     -34.075  16.147  -2.332  1.00 20.00     0.029 C 
HETATM    5  C5  UNL     1     -32.481  14.613  -3.520  1.00 20.00     0.029 C 
HETATM    6  C6  UNL     1     -36.384  14.803  -3.690  1.00 20.00     0.047 C 
HETATM    7  C7  UNL     1     -34.789  13.266  -4.879  1.00 20.00     0.047 C 
HETATM    8  O8  UNL     1     -33.260  17.260  -5.330  1.00 20.00    -0.264 OA
HETATM    9  O9  UNL     1     -34.907  15.640  -5.446  1.00 20.00    -0.309 OA
ENDROOT
TORSDOF 0
ENDMDL
MODEL 9
REMARK VINA RESULT:      -3.9      1.921      2.946
REMARK  0 active torsions:
REMARK  status: ('A' for Active; 'I' for Inactive)
ROOT
HETATM    1  C1  UNL     1     -32.949  15.295  -3.759  1.00 20.00     0.270 A 
HETATM    2  C2  UNL     1     -34.350  15.795  -3.299  1.00 20.00     0.072 A 
HETATM    3  C3  UNL     1     -34.077  16.902  -4.390  1.00 20.00     0.079 A 
HETATM    4  C4  UNL     1     -34.380  16.234  -1.835  1.00 20.00     0.029 C 
HETATM    5  C5  UNL     1     -35.466  14.786  -3.575  1.00 20.00     0.029 C 
HETATM    6  C6  UNL     1     -33.856  18.335  -3.907  1.00 20.00     0.047 C 
HETATM    7  C7  UNL     1     -34.944  16.886  -5.649  1.00 20.00     0.047 C 
HETATM    8  O8  UNL     1     -32.191  14.393  -3.482  1.00 20.00    -0.264 OA
HETATM    9  O9  UNL     1     -32.784  16.280  -4.680  1.00 20.00    -0.309 OA
ENDROOT
TORSDOF 0
ENDMDL
