MODEL 1
REMARK VINA RESULT:      -4.8      0.000      0.000
REMARK  0 active torsions:
REMARK  status: ('A' for Active; 'I' for Inactive)
ROOT
HETATM    1  C1  UNL     1     -35.147   4.565   4.961  1.00 20.00     0.127 C 
HETATM    2  C2  UNL     1     -34.923   5.297   6.266  1.00 20.00     0.078 C 
HETATM    3  C3  UNL     1     -35.487   5.398   3.744  1.00 20.00     0.078 C 
HETATM    4  C4  UNL     1     -33.578   6.015   6.341  1.00 20.00     0.007 C 
HETATM    5  C5  UNL     1     -34.337   5.472   2.749  1.00 20.00     0.007 C 
HETATM    6  C6  UNL     1     -33.458   7.214   5.396  1.00 20.00     0.000 C 
HETATM    7  C7  UNL     1     -32.938   5.659   3.337  1.00 20.00     0.000 C 
HETATM    8  C8  UNL     1     -32.685   6.962   4.096  1.00 20.00     0.000 C 
HETATM    9  O9  UNL     1     -35.030   3.341   4.885  1.00 20.00    -0.298 OA
ENDROOT
TORSDOF 0
ENDMDL
MODEL 2
REMARK VINA RESULT:      -4.6     12.439     13.358
REMARK  0 active torsions:
REMARK  status: ('A' for Active; 'I' for Inactive)
ROOT
HETATM    1  C1  UNL     1     -34.938  13.631  -4.401  1.00 20.00     0.127 C 
HETATM    2  C2  UNL     1     -34.037  14.122  -3.288  1.00 20.00     0.078 C 
HETATM    3  C3  UNL     1     -35.980  14.592  -4.928  1.00 20.00     0.078 C 
HETATM    4  C4  UNL     1     -32.955  15.089  -3.760  1.00 20.00     0.007 C 
HETATM    5  C5  UNL     1     -35.643  15.113  -6.318  1.00 20.00     0.007 C 
HETATM    6  C6  UNL     1     -33.490  16.448  -4.221  1.00 20.00     0.000 C 
HETATM    7  C7  UNL     1     -34.182  15.484  -6.570  1.00 20.00     0.000 C 
HETATM    8  C8  UNL     1     -33.615  16.634  -5.738  1.00 20.00     0.000 C 
HETATM    9  O9  UNL     1     -34.809  12.503  -4.878  1.00 20.00    -0.298 OA
ENDROOT
TORSDOF 0
ENDMDL
MODEL 3
REMARK VINA RESULT:      -4.5     11.991     12.695
REMARK  0 active torsions:
REMARK  status: ('A' for Active; 'I' for Inactive)
ROOT
HETATM    1  C1  UNL     1     -36.482  14.943  -3.999  1.00 20.00     0.127 C 
HETATM    2  C2  UNL     1     -36.117  16.046  -3.029  1.00 20.00     0.078 C 
HETATM    3  C3  UNL     1     -35.727  14.890  -5.309  1.00 20.00     0.078 C 
HETATM    4  C4  UNL     1     -34.799  15.805  -2.298  1.00 20.00     0.007 C 
HETATM    5  C5  UNL     1     -34.748  13.726  -5.371  1.00 20.00     0.007 C 
HETATM    6  C6  UNL     1     -33.563  15.889  -3.197  1.00 20.00     0.000 C 
HETATM    7  C7  UNL     1     -33.939  13.448  -4.104  1.00 20.00     0.000 C 
HETATM    8  C8  UNL     1     -32.977  14.547  -3.652  1.00 20.00     0.000 C 
HETATM    9  O9  UNL     1     -37.340  14.104  -3.722  1.00 20.00    -0.298 OA
ENDROOT
TORSDOF 0
ENDMDL
MODEL 4
REMARK VINA RESULT:      -4.3     12.384     13.431
REMARK  0 active torsions:
REMARK  status: ('A' for Active; 'I' for Inactive)
ROOT
HETATM    1  C1  UNL     1     -36.154  14.182  -4.669  1.00 20.00     0.127 C 
HETATM    2  C2  UNL     1     -36.298  15.152  -5.821  1.00 20.00     0.078 C 
HETATM    3  C3  UNL     1     -34.894  13.345  -4.617  1.00 20.00     0.078 C 
HETATM    4  C4  UNL     1     -35.434  16.403  -5.679  1.00 20.00     0.007 C 
HETATM    5  C5  UNL     1     -33.948  13.785  -3.508  1.00 20.00     0.007 C 
HETATM    6  C6  UNL     1     -33.930  16.139  -5.803  1.00 20.00     0.000 C 
HETATM    7  C7  UNL     1     -33.776  15.292  -3.317  1.00 20.00     0.000 C 
HETATM    8  C8  UNL     1     -33.156  16.062  -4.482  1.00 20.00     0.000 C 
HETATM    9  O9  UNL     1     -37.014  14.096  -3.793  1.00 20.00    -0.298 OA
ENDROOT
TORSDOF 0
ENDMDL
MODEL 5
REMARK VINA RESULT:      -4.2     12.432     13.488
REMARK  0 active torsions:
REMARK  status: ('A' for Active; 'I' for Inactive)
ROOT
HETATM    1  C1  UNL     1     -35.983  16.090  -4.527  1.00 20.00     0.127 C 
HETATM    2  C2  UNL     1     -36.213  15.022  -5.574  1.00 20.00     0.078 C 
HETATM    3  C3  UNL     1     -35.920  15.647  -3.082  1.00 20.00     0.078 C 
HETATM    4  C4  UNL     1     -34.980  14.168  -5.857  1.00 20.00     0.007 C 
HETATM    5  C5  UNL     1     -34.508  15.711  -2.514  1.00 20.00     0.007 C 
HETATM    6  C6  UNL     1     -34.576  13.253  -4.697  1.00 20.00     0.000 C 
HETATM    7  C7  UNL     1     -33.383  15.226  -3.429  1.00 20.00     0.000 C 
HETATM    8  C8  UNL     1     -33.415  13.751  -3.828  1.00 20.00     0.000 C 
HETATM    9  O9  UNL     1     -35.827  17.271  -4.840  1.00 20.00    -0.298 OA
ENDROOT
TORSDOF 0
ENDMDL
MODEL 6
REMARK VINA RESULT:      -4.2     12.408     13.534
REMARK  0 active torsions:
REMARK  status: ('A' for Active; 'I' for Inactive)
ROOT
HETATM    1  C1  UNL     1     -34.627  13.691  -4.854  1.00 20.00     0.127 C 
HETATM    2  C2  UNL     1     -35.115  14.178  -6.201  1.00 20.00     0.078 C 
HETATM    3  C3  UNL     1     -33.712  14.608  -4.073  1.00 20.00     0.078 C 
HETATM    4  C4  UNL     1     -36.205  15.242  -6.109  1.00 20.00     0.007 C 
HETATM    5  C5  UNL     1     -34.401  15.231  -2.866  1.00 20.00     0.007 C 
HETATM    6  C6  UNL     1     -35.720  16.585  -5.556  1.00 20.00     0.000 C 
HETATM    7  C7  UNL     1     -35.836  15.714  -3.075  1.00 20.00     0.000 C 
HETATM    8  C8  UNL     1     -36.035  16.850  -4.079  1.00 20.00     0.000 C 
HETATM    9  O9  UNL     1     -34.983  12.605  -4.398  1.00 20.00    -0.298 OA
ENDROOT
TORSDOF 0
ENDMDL
MODEL 7
REMARK VINA RESULT:      -4.2     12.548     13.697
REMARK  0 active torsions:
REMARK  status: ('A' for Active; 'I' for Inactive)
ROOT
HETATM    1  C1  UNL     1     -33.226  15.297  -3.774  1.00 20.00     0.127 C 
HETATM    2  C2  UNL     1     -33.267  16.571  -4.591  1.00 20.00     0.078 C 
HETATM    3  C3  UNL     1     -34.542  14.760  -3.256  1.00 20.00     0.078 C 
HETATM    4  C4  UNL     1     -33.782  16.367  -6.014  1.00 20.00     0.007 C 
HETATM    5  C5  UNL     1     -34.987  13.501  -3.987  1.00 20.00     0.007 C 
HETATM    6  C6  UNL     1     -35.269  16.010  -6.093  1.00 20.00     0.000 C 
HETATM    7  C7  UNL     1     -34.793  13.490  -5.503  1.00 20.00     0.000 C 
HETATM    8  C8  UNL     1     -35.587  14.524  -6.301  1.00 20.00     0.000 C 
HETATM    9  O9  UNL     1     -32.167  14.706  -3.562  1.00 20.00    -0.298 OA
ENDROOT
TORSDOF 0
ENDMDL
MODEL 8
REMARK VINA RESULT:      -4.1      8.886     10.390
REMARK  0 active torsions:
REMARK  status: ('A' for Active; 'I' for Inactive)
ROOT
HETATM    1  C1  UNL     1     -42.935   5.976  -2.688  1.00 20.00     0.127 C 
HETATM    2  C2  UNL     1     -42.547   4.519  -2.556  1.00 20.00     0.078 C 
HETATM    3  C3  UNL     1     -43.417   6.683  -1.441  1.00 20.00     0.078 C 
HETATM    4  C4  UNL     1     -41.198   4.305  -1.874  1.00 20.00     0.007 C 
HETATM    5  C5  UNL     1     -42.399   7.681  -0.906  1.00 20.00     0.007 C 
HETATM    6  C6  UNL     1     -41.188   4.669  -0.386  1.00 20.00     0.000 C 
HETATM    7  C7  UNL     1     -40.937   7.234  -0.916  1.00 20.00     0.000 C 
HETATM    8  C8  UNL     1     -40.583   6.034  -0.038  1.00 20.00     0.000 C 
HETATM    9  O9  UNL     1     -42.836   6.570  -3.762  1.00 20.00    -0.298 OA
ENDROOT
TORSDOF 0
ENDMDL
MODEL 9
REMARK VINA RESULT:      -4.1     12.980     14.174
REMARK  0 active torsions:
REMARK  status: ('A' for Active; 'I' for Inactive)
ROOT
HETATM    1  C1  UNL     1     -34.064  16.728  -5.018  1.00 20.00     0.127 C 
HETATM    2  C2  UNL     1     -34.536  16.395  -6.417  1.00 20.00     0.078 C 
HETATM    3  C3  UNL     1     -34.944  16.296  -3.866  1.00 20.00     0.078 C 
HETATM    4  C4  UNL     1     -34.358  14.926  -6.789  1.00 20.00     0.007 C 
HETATM    5  C5  UNL     1     -34.352  15.132  -3.084  1.00 20.00     0.007 C 
HETATM    6  C6  UNL     1     -35.276  13.972  -6.018  1.00 20.00     0.000 C 
HETATM    7  C7  UNL     1     -33.707  14.016  -3.906  1.00 20.00     0.000 C 
HETATM    8  C8  UNL     1     -34.631  13.234  -4.839  1.00 20.00     0.000 C 
HETATM    9  O9  UNL     1     -32.992  17.302  -4.823  1.00 20.00    -0.298 OA
ENDROOT
TORSDOF 0
ENDMDL
