MODEL 1
REMARK VINA RESULT:      -4.7      0.000      0.000
REMARK  0 active torsions:
REMARK  status: ('A' for Active; 'I' for Inactive)
ROOT
HETATM    1  C1  UNL     1     -34.439  18.376  -1.947  1.00 20.00     0.008 C 
HETATM    2  C2  UNL     1     -34.292  18.574  -3.367  1.00 20.00     0.028 C 
HETATM    3  C3  UNL     1     -34.778  15.920  -1.924  1.00 20.00     0.034 C 
HETATM    4  C4  UNL     1     -34.652  17.222  -1.296  1.00 20.00    -0.060 C 
HETATM    5  C5  UNL     1     -33.802  17.713  -4.266  1.00 20.00     0.085 C 
HETATM    6  C6  UNL     1     -34.219  15.498  -3.066  1.00 20.00     0.086 C 
HETATM    7  C7  UNL     1     -33.389  16.310  -3.996  1.00 20.00     0.215 C 
HETATM    8  C8  UNL     1     -34.820  17.211   0.201  1.00 20.00     0.048 C 
HETATM    9  O9  UNL     1     -32.445  15.804  -4.600  1.00 20.00    -0.285 OA
HETATM   10 CL10 UNL     1     -33.585  18.231  -5.909  1.00 20.00    -0.080 Cl
HETATM   11 CL11 UNL     1     -34.424  13.840  -3.542  1.00 20.00    -0.080 Cl
ENDROOT
TORSDOF 0
ENDMDL
MODEL 2
REMARK VINA RESULT:      -4.5      2.634      3.382
REMARK  0 active torsions:
REMARK  status: ('A' for Active; 'I' for Inactive)
ROOT
HETATM    1  C1  UNL     1     -33.685  15.830  -2.645  1.00 20.00     0.008 C 
HETATM    2  C2  UNL     1     -33.912  15.156  -3.898  1.00 20.00     0.028 C 
HETATM    3  C3  UNL     1     -35.872  16.973  -2.408  1.00 20.00     0.034 C 
HETATM    4  C4  UNL     1     -34.531  16.629  -1.976  1.00 20.00    -0.060 C 
HETATM    5  C5  UNL     1     -35.075  14.718  -4.392  1.00 20.00     0.085 C 
HETATM    6  C6  UNL     1     -36.710  16.242  -3.156  1.00 20.00     0.086 C 
HETATM    7  C7  UNL     1     -36.416  14.924  -3.780  1.00 20.00     0.215 C 
HETATM    8  C8  UNL     1     -34.104  17.284  -0.687  1.00 20.00     0.048 C 
HETATM    9  O9  UNL     1     -37.289  14.065  -3.875  1.00 20.00    -0.285 OA
HETATM   10 CL10 UNL     1     -35.081  13.799  -5.865  1.00 20.00    -0.080 Cl
HETATM   11 CL11 UNL     1     -38.321  16.828  -3.433  1.00 20.00    -0.080 Cl
ENDROOT
TORSDOF 0
ENDMDL
MODEL 3
REMARK VINA RESULT:      -4.5      2.804      3.790
REMARK  0 active torsions:
REMARK  status: ('A' for Active; 'I' for Inactive)
ROOT
HETATM    1  C1  UNL     1     -35.699  16.069  -2.855  1.00 20.00     0.008 C 
HETATM    2  C2  UNL     1     -34.431  15.384  -2.846  1.00 20.00     0.028 C 
HETATM    3  C3  UNL     1     -36.294  15.769  -5.243  1.00 20.00     0.034 C 
HETATM    4  C4  UNL     1     -36.529  16.248  -3.895  1.00 20.00    -0.060 C 
HETATM    5  C5  UNL     1     -34.050  14.361  -3.620  1.00 20.00     0.085 C 
HETATM    6  C6  UNL     1     -35.597  14.691  -5.625  1.00 20.00     0.086 C 
HETATM    7  C7  UNL     1     -34.835  13.772  -4.738  1.00 20.00     0.215 C 
HETATM    8  C8  UNL     1     -37.806  17.032  -3.725  1.00 20.00     0.048 C 
HETATM    9  O9  UNL     1     -34.778  12.568  -4.980  1.00 20.00    -0.285 OA
HETATM   10 CL10 UNL     1     -32.518  13.599  -3.326  1.00 20.00    -0.080 Cl
HETATM   11 CL11 UNL     1     -35.569  14.257  -7.307  1.00 20.00    -0.080 Cl
ENDROOT
TORSDOF 0
ENDMDL
MODEL 4
REMARK VINA RESULT:      -4.4      3.018      4.378
REMARK  0 active torsions:
REMARK  status: ('A' for Active; 'I' for Inactive)
ROOT
HETATM    1  C1  UNL     1     -33.668  15.583  -4.727  1.00 20.00     0.008 C 
HETATM    2  C2  UNL     1     -33.736  15.790  -3.303  1.00 20.00     0.028 C 
HETATM    3  C3  UNL     1     -35.976  14.765  -5.119  1.00 20.00     0.034 C 
HETATM    4  C4  UNL     1     -34.638  15.135  -5.540  1.00 20.00    -0.060 C 
HETATM    5  C5  UNL     1     -34.810  16.115  -2.574  1.00 20.00     0.085 C 
HETATM    6  C6  UNL     1     -36.678  15.249  -4.086  1.00 20.00     0.086 C 
HETATM    7  C7  UNL     1     -36.203  16.238  -3.081  1.00 20.00     0.215 C 
HETATM    8  C8  UNL     1     -34.371  14.943  -7.011  1.00 20.00     0.048 C 
HETATM    9  O9  UNL     1     -36.972  17.073  -2.610  1.00 20.00    -0.285 OA
HETATM   10 CL10 UNL     1     -34.618  16.457  -0.883  1.00 20.00    -0.080 Cl
HETATM   11 CL11 UNL     1     -38.320  14.728  -3.865  1.00 20.00    -0.080 Cl
ENDROOT
TORSDOF 0
ENDMDL
MODEL 5
REMARK VINA RESULT:      -4.4      2.364      4.155
REMARK  0 active torsions:
REMARK  status: ('A' for Active; 'I' for Inactive)
ROOT
HETATM    1  C1  UNL     1     -34.291  16.611  -6.749  1.00 20.00     0.008 C 
HETATM    2  C2  UNL     1     -34.607  15.286  -6.278  1.00 20.00     0.028 C 
HETATM    3  C3  UNL     1     -33.967  17.740  -4.565  1.00 20.00     0.034 C 
HETATM    4  C4  UNL     1     -34.007  17.698  -6.014  1.00 20.00    -0.060 C 
HETATM    5  C5  UNL     1     -34.187  14.696  -5.153  1.00 20.00     0.085 C 
HETATM    6  C6  UNL     1     -33.664  16.745  -3.720  1.00 20.00     0.086 C 
HETATM    7  C7  UNL     1     -33.368  15.334  -4.087  1.00 20.00     0.215 C 
HETATM    8  C8  UNL     1     -33.737  19.021  -6.684  1.00 20.00     0.048 C 
HETATM    9  O9  UNL     1     -32.537  14.683  -3.458  1.00 20.00    -0.285 OA
HETATM   10 CL10 UNL     1     -34.584  13.031  -4.867  1.00 20.00    -0.080 Cl
HETATM   11 CL11 UNL     1     -33.563  17.085  -2.020  1.00 20.00    -0.080 Cl
ENDROOT
TORSDOF 0
ENDMDL
MODEL 6
REMARK VINA RESULT:      -4.4      1.853      3.169
REMARK  0 active torsions:
REMARK  status: ('A' for Active; 'I' for Inactive)
ROOT
HETATM    1  C1  UNL     1     -34.708  15.210  -2.717  1.00 20.00     0.008 C 
HETATM    2  C2  UNL     1     -34.554  14.763  -4.079  1.00 20.00     0.028 C 
HETATM    3  C3  UNL     1     -33.834  17.518  -2.958  1.00 20.00     0.034 C 
HETATM    4  C4  UNL     1     -34.399  16.413  -2.207  1.00 20.00    -0.060 C 
HETATM    5  C5  UNL     1     -34.607  15.502  -5.193  1.00 20.00     0.085 C 
HETATM    6  C6  UNL     1     -33.994  17.798  -4.258  1.00 20.00     0.086 C 
HETATM    7  C7  UNL     1     -34.741  16.982  -5.252  1.00 20.00     0.215 C 
HETATM    8  C8  UNL     1     -34.594  16.691  -0.739  1.00 20.00     0.048 C 
HETATM    9  O9  UNL     1     -35.373  17.520  -6.159  1.00 20.00    -0.285 OA
HETATM   10 CL10 UNL     1     -34.539  14.715  -6.738  1.00 20.00    -0.080 Cl
HETATM   11 CL11 UNL     1     -33.308  19.261  -4.895  1.00 20.00    -0.080 Cl
ENDROOT
TORSDOF 0
ENDMDL
MODEL 7
REMARK VINA RESULT:      -4.3      3.832      4.814
REMARK  0 active torsions:
REMARK  status: ('A' for Active; 'I' for Inactive)
ROOT
HETATM    1  C1  UNL     1     -31.698  19.029   1.311  1.00 20.00     0.008 C 
HETATM    2  C2  UNL     1     -32.146  19.117  -0.056  1.00 20.00     0.028 C 
HETATM    3  C3  UNL     1     -33.886  18.678   2.423  1.00 20.00     0.034 C 
HETATM    4  C4  UNL     1     -32.444  18.836   2.410  1.00 20.00    -0.060 C 
HETATM    5  C5  UNL     1     -33.212  18.525  -0.607  1.00 20.00     0.085 C 
HETATM    6  C6  UNL     1     -34.668  18.169   1.461  1.00 20.00     0.086 C 
HETATM    7  C7  UNL     1     -34.229  17.714   0.114  1.00 20.00     0.215 C 
HETATM    8  C8  UNL     1     -31.801  18.810   3.773  1.00 20.00     0.048 C 
HETATM    9  O9  UNL     1     -34.764  16.750  -0.428  1.00 20.00    -0.285 OA
HETATM   10 CL10 UNL     1     -33.470  18.662  -2.318  1.00 20.00    -0.080 Cl
HETATM   11 CL11 UNL     1     -36.365  17.971   1.772  1.00 20.00    -0.080 Cl
ENDROOT
TORSDOF 0
ENDMDL
MODEL 8
REMARK VINA RESULT:      -4.2      1.578      1.578
REMARK  0 active torsions:
REMARK  status: ('A' for Active; 'I' for Inactive)
ROOT
HETATM    1  C1  UNL     1     -35.806  17.615  -2.504  1.00 20.00     0.008 C 
HETATM    2  C2  UNL     1     -36.219  17.486  -3.879  1.00 20.00     0.028 C 
HETATM    3  C3  UNL     1     -34.478  15.531  -2.293  1.00 20.00     0.034 C 
HETATM    4  C4  UNL     1     -35.043  16.769  -1.792  1.00 20.00    -0.060 C 
HETATM    5  C5  UNL     1     -35.566  16.876  -4.875  1.00 20.00     0.085 C 
HETATM    6  C6  UNL     1     -34.123  15.236  -3.551  1.00 20.00     0.086 C 
HETATM    7  C7  UNL     1     -34.301  16.105  -4.745  1.00 20.00     0.215 C 
HETATM    8  C8  UNL     1     -34.744  17.050  -0.342  1.00 20.00     0.048 C 
HETATM    9  O9  UNL     1     -33.467  16.110  -5.648  1.00 20.00    -0.285 OA
HETATM   10 CL10 UNL     1     -36.195  16.977  -6.490  1.00 20.00    -0.080 Cl
HETATM   11 CL11 UNL     1     -33.347  13.717  -3.874  1.00 20.00    -0.080 Cl
ENDROOT
TORSDOF 0
ENDMDL
MODEL 9
REMARK VINA RESULT:      -4.2      2.449      3.951
REMARK  0 active torsions:
REMARK  status: ('A' for Active; 'I' for Inactive)
ROOT
HETATM    1  C1  UNL     1     -34.056  17.962  -5.545  1.00 20.00     0.008 C 
HETATM    2  C2  UNL     1     -33.746  17.783  -4.149  1.00 20.00     0.028 C 
HETATM    3  C3  UNL     1     -34.292  15.583  -6.205  1.00 20.00     0.034 C 
HETATM    4  C4  UNL     1     -34.298  17.011  -6.461  1.00 20.00    -0.060 C 
HETATM    5  C5  UNL     1     -34.140  16.789  -3.345  1.00 20.00     0.085 C 
HETATM    6  C6  UNL     1     -34.583  14.950  -5.061  1.00 20.00     0.086 C 
HETATM    7  C7  UNL     1     -34.913  15.587  -3.758  1.00 20.00     0.215 C 
HETATM    8  C8  UNL     1     -34.568  17.386  -7.896  1.00 20.00     0.048 C 
HETATM    9  O9  UNL     1     -35.735  15.077  -2.999  1.00 20.00    -0.285 OA
HETATM   10 CL10 UNL     1     -33.761  16.864  -1.652  1.00 20.00    -0.080 Cl
HETATM   11 CL11 UNL     1     -34.625  13.214  -5.046  1.00 20.00    -0.080 Cl
ENDROOT
TORSDOF 0
ENDMDL
