MODEL 1
REMARK VINA RESULT:      -5.5      0.000      0.000
REMARK  2 active torsions:
REMARK  status: ('A' for Active; 'I' for Inactive)
REMARK    1  A    between atoms: C1_1  and  C2_2 
REMARK    2  A    between atoms: C1_1  and  C3_3 
ROOT
HETATM    1  C1  UNL     1     -33.792   5.490   5.071  1.00 20.00     0.374 C 
HETATM    2  O4  UNL     1     -33.924   6.498   5.914  1.00 20.00    -0.216 OA
ENDROOT
BRANCH   1   3
HETATM    3  C2  UNL     1     -33.548   6.068   3.671  1.00 20.00     0.424 C 
HETATM    4  F5  UNL     1     -32.226   6.281   3.470  1.00 20.00    -0.168 F 
HETATM    5  F6  UNL     1     -33.978   5.250   2.685  1.00 20.00    -0.168 F 
HETATM    6  F7  UNL     1     -34.164   7.263   3.515  1.00 20.00    -0.168 F 
ENDBRANCH   1   3
BRANCH   1   7
HETATM    7  C3  UNL     1     -35.095   4.679   5.090  1.00 20.00     0.424 C 
HETATM    8  F8  UNL     1     -36.047   5.254   4.318  1.00 20.00    -0.168 F 
HETATM    9  F9  UNL     1     -35.596   4.616   6.347  1.00 20.00    -0.168 F 
HETATM   10  F10 UNL     1     -34.927   3.409   4.660  1.00 20.00    -0.168 F 
ENDBRANCH   1   7
TORSDOF 2
ENDMDL
MODEL 2
REMARK VINA RESULT:      -5.5      1.681      2.340
REMARK  2 active torsions:
REMARK  status: ('A' for Active; 'I' for Inactive)
REMARK    1  A    between atoms: C1_1  and  C2_2 
REMARK    2  A    between atoms: C1_1  and  C3_3 
ROOT
HETATM    1  C1  UNL     1     -35.176   4.991   4.754  1.00 20.00     0.374 C 
HETATM    2  O4  UNL     1     -35.118   3.694   4.509  1.00 20.00    -0.216 OA
ENDROOT
BRANCH   1   3
HETATM    3  C2  UNL     1     -34.218   5.701   3.790  1.00 20.00     0.424 C 
HETATM    4  F5  UNL     1     -34.489   7.027   3.742  1.00 20.00    -0.168 F 
HETATM    5  F6  UNL     1     -32.922   5.570   4.149  1.00 20.00    -0.168 F 
HETATM    6  F7  UNL     1     -34.347   5.231   2.527  1.00 20.00    -0.168 F 
ENDBRANCH   1   3
BRANCH   1   7
HETATM    7  C3  UNL     1     -34.735   5.222   6.206  1.00 20.00     0.424 C 
HETATM    8  F8  UNL     1     -33.770   4.347   6.575  1.00 20.00    -0.168 F 
HETATM    9  F9  UNL     1     -35.776   5.038   7.053  1.00 20.00    -0.168 F 
HETATM   10  F10 UNL     1     -34.261   6.470   6.416  1.00 20.00    -0.168 F 
ENDBRANCH   1   7
TORSDOF 2
ENDMDL
MODEL 3
REMARK VINA RESULT:      -5.5      0.040      1.687
REMARK  2 active torsions:
REMARK  status: ('A' for Active; 'I' for Inactive)
REMARK    1  A    between atoms: C1_1  and  C2_2 
REMARK    2  A    between atoms: C1_1  and  C3_3 
ROOT
HETATM    1  C1  UNL     1     -33.803   5.484   5.086  1.00 20.00     0.374 C 
HETATM    2  O4  UNL     1     -33.920   6.486   5.940  1.00 20.00    -0.216 OA
ENDROOT
BRANCH   1   3
HETATM    3  C2  UNL     1     -33.561   6.073   3.691  1.00 20.00     0.424 C 
HETATM    4  F5  UNL     1     -34.219   7.248   3.551  1.00 20.00    -0.168 F 
HETATM    5  F6  UNL     1     -32.254   6.312   3.445  1.00 20.00    -0.168 F 
HETATM    6  F7  UNL     1     -34.021   5.250   2.720  1.00 20.00    -0.168 F 
ENDBRANCH   1   3
BRANCH   1   7
HETATM    7  C3  UNL     1     -35.115   4.687   5.105  1.00 20.00     0.424 C 
HETATM    8  F8  UNL     1     -35.625   4.603   6.356  1.00 20.00    -0.168 F 
HETATM    9  F9  UNL     1     -34.904   3.417   4.682  1.00 20.00    -0.168 F 
HETATM   10  F10 UNL     1     -36.064   5.224   4.307  1.00 20.00    -0.168 F 
ENDBRANCH   1   7
TORSDOF 2
ENDMDL
MODEL 4
REMARK VINA RESULT:      -5.4      1.692      2.250
REMARK  2 active torsions:
REMARK  status: ('A' for Active; 'I' for Inactive)
REMARK    1  A    between atoms: C1_1  and  C2_2 
REMARK    2  A    between atoms: C1_1  and  C3_3 
ROOT
HETATM    1  C1  UNL     1     -35.184   4.986   4.754  1.00 20.00     0.374 C 
HETATM    2  O4  UNL     1     -35.116   3.692   4.493  1.00 20.00    -0.216 OA
ENDROOT
BRANCH   1   3
HETATM    3  C2  UNL     1     -34.230   5.715   3.798  1.00 20.00     0.424 C 
HETATM    4  F5  UNL     1     -34.355   5.227   2.541  1.00 20.00    -0.168 F 
HETATM    5  F6  UNL     1     -34.466   7.044   3.739  1.00 20.00    -0.168 F 
HETATM    6  F7  UNL     1     -32.938   5.539   4.159  1.00 20.00    -0.168 F 
ENDBRANCH   1   3
BRANCH   1   7
HETATM    7  C3  UNL     1     -34.745   5.202   6.208  1.00 20.00     0.424 C 
HETATM    8  F8  UNL     1     -35.779   5.040   7.067  1.00 20.00    -0.168 F 
HETATM    9  F9  UNL     1     -34.285   6.465   6.382  1.00 20.00    -0.168 F 
HETATM   10  F10 UNL     1     -33.758   4.360   6.587  1.00 20.00    -0.168 F 
ENDBRANCH   1   7
TORSDOF 2
ENDMDL
MODEL 5
REMARK VINA RESULT:      -5.4      1.492      2.779
REMARK  2 active torsions:
REMARK  status: ('A' for Active; 'I' for Inactive)
REMARK    1  A    between atoms: C1_1  and  C2_2 
REMARK    2  A    between atoms: C1_1  and  C3_3 
ROOT
HETATM    1  C1  UNL     1     -34.257   6.188   4.693  1.00 20.00     0.374 C 
HETATM    2  O4  UNL     1     -32.978   6.169   4.360  1.00 20.00    -0.216 OA
ENDROOT
BRANCH   1   3
HETATM    3  C2  UNL     1     -34.376   5.739   6.155  1.00 20.00     0.424 C 
HETATM    4  F5  UNL     1     -34.103   6.769   6.992  1.00 20.00    -0.168 F 
HETATM    5  F6  UNL     1     -35.611   5.286   6.464  1.00 20.00    -0.168 F 
HETATM    6  F7  UNL     1     -33.490   4.757   6.444  1.00 20.00    -0.168 F 
ENDBRANCH   1   3
BRANCH   1   7
HETATM    7  C3  UNL     1     -35.002   5.209   3.776  1.00 20.00     0.424 C 
HETATM    8  F8  UNL     1     -34.406   5.115   2.564  1.00 20.00    -0.168 F 
HETATM    9  F9  UNL     1     -36.270   5.636   3.556  1.00 20.00    -0.168 F 
HETATM   10  F10 UNL     1     -35.081   3.964   4.294  1.00 20.00    -0.168 F 
ENDBRANCH   1   7
TORSDOF 2
ENDMDL
MODEL 6
REMARK VINA RESULT:      -5.4      1.493      2.972
REMARK  2 active torsions:
REMARK  status: ('A' for Active; 'I' for Inactive)
REMARK    1  A    between atoms: C1_1  and  C2_2 
REMARK    2  A    between atoms: C1_1  and  C3_3 
ROOT
HETATM    1  C1  UNL     1     -34.248   6.185   4.687  1.00 20.00     0.374 C 
HETATM    2  O4  UNL     1     -32.971   6.136   4.349  1.00 20.00    -0.216 OA
ENDROOT
BRANCH   1   3
HETATM    3  C2  UNL     1     -34.373   5.723   6.145  1.00 20.00     0.424 C 
HETATM    4  F5  UNL     1     -34.098   6.743   6.991  1.00 20.00    -0.168 F 
HETATM    5  F6  UNL     1     -35.612   5.274   6.446  1.00 20.00    -0.168 F 
HETATM    6  F7  UNL     1     -33.494   4.733   6.427  1.00 20.00    -0.168 F 
ENDBRANCH   1   3
BRANCH   1   7
HETATM    7  C3  UNL     1     -35.023   5.237   3.762  1.00 20.00     0.424 C 
HETATM    8  F8  UNL     1     -35.075   3.983   4.270  1.00 20.00    -0.168 F 
HETATM    9  F9  UNL     1     -34.411   5.146   2.556  1.00 20.00    -0.168 F 
HETATM   10  F10 UNL     1     -36.291   5.645   3.539  1.00 20.00    -0.168 F 
ENDBRANCH   1   7
TORSDOF 2
ENDMDL
MODEL 7
REMARK VINA RESULT:      -5.4      1.500      2.770
REMARK  2 active torsions:
REMARK  status: ('A' for Active; 'I' for Inactive)
REMARK    1  A    between atoms: C1_1  and  C2_2 
REMARK    2  A    between atoms: C1_1  and  C3_3 
ROOT
HETATM    1  C1  UNL     1     -34.225   6.195   4.668  1.00 20.00     0.374 C 
HETATM    2  O4  UNL     1     -32.948   6.163   4.330  1.00 20.00    -0.216 OA
ENDROOT
BRANCH   1   3
HETATM    3  C2  UNL     1     -34.339   5.759   6.135  1.00 20.00     0.424 C 
HETATM    4  F5  UNL     1     -35.592   5.319   6.402  1.00 20.00    -0.168 F 
HETATM    5  F6  UNL     1     -33.487   4.759   6.451  1.00 20.00    -0.168 F 
HETATM    6  F7  UNL     1     -34.099   6.790   6.978  1.00 20.00    -0.168 F 
ENDBRANCH   1   3
BRANCH   1   7
HETATM    7  C3  UNL     1     -34.982   5.215   3.763  1.00 20.00     0.424 C 
HETATM    8  F8  UNL     1     -34.390   5.102   2.551  1.00 20.00    -0.168 F 
HETATM    9  F9  UNL     1     -36.245   5.652   3.542  1.00 20.00    -0.168 F 
HETATM   10  F10 UNL     1     -35.073   3.976   4.295  1.00 20.00    -0.168 F 
ENDBRANCH   1   7
TORSDOF 2
ENDMDL
MODEL 8
REMARK VINA RESULT:      -5.3      1.456      2.434
REMARK  2 active torsions:
REMARK  status: ('A' for Active; 'I' for Inactive)
REMARK    1  A    between atoms: C1_1  and  C2_2 
REMARK    2  A    between atoms: C1_1  and  C3_3 
ROOT
HETATM    1  C1  UNL     1     -33.920   5.666   4.784  1.00 20.00     0.374 C 
HETATM    2  O4  UNL     1     -33.897   6.949   4.470  1.00 20.00    -0.216 OA
ENDROOT
BRANCH   1   3
HETATM    3  C2  UNL     1     -34.916   4.965   3.850  1.00 20.00     0.424 C 
HETATM    4  F5  UNL     1     -35.154   3.701   4.274  1.00 20.00    -0.168 F 
HETATM    5  F6  UNL     1     -36.108   5.599   3.787  1.00 20.00    -0.168 F 
HETATM    6  F7  UNL     1     -34.430   4.870   2.591  1.00 20.00    -0.168 F 
ENDBRANCH   1   3
BRANCH   1   7
HETATM    7  C3  UNL     1     -34.382   5.540   6.242  1.00 20.00     0.424 C 
HETATM    8  F8  UNL     1     -34.234   6.708   6.910  1.00 20.00    -0.168 F 
HETATM    9  F9  UNL     1     -33.639   4.617   6.898  1.00 20.00    -0.168 F 
HETATM   10  F10 UNL     1     -35.676   5.165   6.349  1.00 20.00    -0.168 F 
ENDBRANCH   1   7
TORSDOF 2
ENDMDL
MODEL 9
REMARK VINA RESULT:      -5.2      1.366      3.382
REMARK  2 active torsions:
REMARK  status: ('A' for Active; 'I' for Inactive)
REMARK    1  A    between atoms: C1_1  and  C2_2 
REMARK    2  A    between atoms: C1_1  and  C3_3 
ROOT
HETATM    1  C1  UNL     1     -33.892   6.609   4.103  1.00 20.00     0.374 C 
HETATM    2  O4  UNL     1     -33.710   6.386   5.392  1.00 20.00    -0.216 OA
ENDROOT
BRANCH   1   3
HETATM    3  C2  UNL     1     -34.676   5.425   3.522  1.00 20.00     0.424 C 
HETATM    4  F5  UNL     1     -35.987   5.740   3.393  1.00 20.00    -0.168 F 
HETATM    5  F6  UNL     1     -34.231   5.052   2.301  1.00 20.00    -0.168 F 
HETATM    6  F7  UNL     1     -34.613   4.343   4.333  1.00 20.00    -0.168 F 
ENDBRANCH   1   3
BRANCH   1   7
HETATM    7  C3  UNL     1     -32.514   6.710   3.437  1.00 20.00     0.424 C 
HETATM    8  F8  UNL     1     -31.669   7.479   4.163  1.00 20.00    -0.168 F 
HETATM    9  F9  UNL     1     -32.618   7.288   2.216  1.00 20.00    -0.168 F 
HETATM   10  F10 UNL     1     -31.928   5.505   3.262  1.00 20.00    -0.168 F 
ENDBRANCH   1   7
TORSDOF 2
ENDMDL
