MODEL 1
REMARK VINA RESULT:      -2.8      0.000      0.000
REMARK  0 active torsions:
REMARK  status: ('A' for Active; 'I' for Inactive)
ROOT
HETATM    1  C1  UNL     1     -33.270  15.374  -3.500  1.00 20.00     0.020 C 
HETATM    2  C2  UNL     1     -33.207  16.237  -4.758  1.00 20.00     0.075 C 
HETATM    3  C3  UNL     1     -33.383  13.876  -3.768  1.00 20.00     0.075 C 
HETATM    4  C4  UNL     1     -34.789  14.407  -6.077  1.00 20.00     0.147 C 
HETATM    5  S5  UNL     1     -34.740  16.181  -5.733  1.00 20.00    -0.159 SA
HETATM    6  S6  UNL     1     -34.946  13.416  -4.574  1.00 20.00    -0.159 SA
ENDROOT
TORSDOF 0
ENDMDL
MODEL 2
REMARK VINA RESULT:      -2.8      1.392      2.360
REMARK  0 active torsions:
REMARK  status: ('A' for Active; 'I' for Inactive)
ROOT
HETATM    1  C1  UNL     1     -33.520  13.778  -3.881  1.00 20.00     0.020 C 
HETATM    2  C2  UNL     1     -34.869  13.448  -4.516  1.00 20.00     0.075 C 
HETATM    3  C3  UNL     1     -33.352  15.240  -3.479  1.00 20.00     0.075 C 
HETATM    4  C4  UNL     1     -34.978  15.989  -5.574  1.00 20.00     0.147 C 
HETATM    5  S5  UNL     1     -35.118  14.271  -6.117  1.00 20.00    -0.159 SA
HETATM    6  S6  UNL     1     -33.344  16.370  -4.902  1.00 20.00    -0.159 SA
ENDROOT
TORSDOF 0
ENDMDL
MODEL 3
REMARK VINA RESULT:      -2.8      1.388      1.637
REMARK  0 active torsions:
REMARK  status: ('A' for Active; 'I' for Inactive)
ROOT
HETATM    1  C1  UNL     1     -34.059  14.011  -3.581  1.00 20.00     0.020 C 
HETATM    2  C2  UNL     1     -32.977  15.073  -3.750  1.00 20.00     0.075 C 
HETATM    3  C3  UNL     1     -34.508  13.354  -4.883  1.00 20.00     0.075 C 
HETATM    4  C4  UNL     1     -34.001  15.705  -6.228  1.00 20.00     0.147 C 
HETATM    5  S5  UNL     1     -33.548  16.525  -4.682  1.00 20.00    -0.159 SA
HETATM    6  S6  UNL     1     -35.340  14.512  -6.011  1.00 20.00    -0.159 SA
ENDROOT
TORSDOF 0
ENDMDL
MODEL 4
REMARK VINA RESULT:      -2.7      1.332      2.770
REMARK  0 active torsions:
REMARK  status: ('A' for Active; 'I' for Inactive)
ROOT
HETATM    1  C1  UNL     1     -34.428  16.017  -5.948  1.00 20.00     0.020 C 
HETATM    2  C2  UNL     1     -34.564  14.537  -6.294  1.00 20.00     0.075 C 
HETATM    3  C3  UNL     1     -33.259  16.345  -5.024  1.00 20.00     0.075 C 
HETATM    4  C4  UNL     1     -33.531  13.879  -3.826  1.00 20.00     0.147 C 
HETATM    5  S5  UNL     1     -34.972  13.507  -4.852  1.00 20.00    -0.159 SA
HETATM    6  S6  UNL     1     -33.443  15.625  -3.366  1.00 20.00    -0.159 SA
ENDROOT
TORSDOF 0
ENDMDL
MODEL 5
REMARK VINA RESULT:      -2.7      1.601      2.410
REMARK  0 active torsions:
REMARK  status: ('A' for Active; 'I' for Inactive)
ROOT
HETATM    1  C1  UNL     1     -33.292  15.252  -3.400  1.00 20.00     0.020 C 
HETATM    2  C2  UNL     1     -33.480  13.806  -3.854  1.00 20.00     0.075 C 
HETATM    3  C3  UNL     1     -34.465  15.824  -2.610  1.00 20.00     0.075 C 
HETATM    4  C4  UNL     1     -36.194  14.237  -4.053  1.00 20.00     0.147 C 
HETATM    5  S5  UNL     1     -34.828  13.612  -5.058  1.00 20.00    -0.159 SA
HETATM    6  S6  UNL     1     -35.981  15.973  -3.601  1.00 20.00    -0.159 SA
ENDROOT
TORSDOF 0
ENDMDL
MODEL 6
REMARK VINA RESULT:      -2.7      1.376      2.729
REMARK  0 active torsions:
REMARK  status: ('A' for Active; 'I' for Inactive)
ROOT
HETATM    1  C1  UNL     1     -34.923  13.540  -4.724  1.00 20.00     0.020 C 
HETATM    2  C2  UNL     1     -33.646  13.799  -3.928  1.00 20.00     0.075 C 
HETATM    3  C3  UNL     1     -34.951  14.193  -6.102  1.00 20.00     0.075 C 
HETATM    4  C4  UNL     1     -33.407  16.262  -5.139  1.00 20.00     0.147 C 
HETATM    5  S5  UNL     1     -33.434  15.547  -3.479  1.00 20.00    -0.159 SA
HETATM    6  S6  UNL     1     -34.961  16.009  -6.025  1.00 20.00    -0.159 SA
ENDROOT
TORSDOF 0
ENDMDL
MODEL 7
REMARK VINA RESULT:      -2.6      1.343      2.366
REMARK  0 active torsions:
REMARK  status: ('A' for Active; 'I' for Inactive)
ROOT
HETATM    1  C1  UNL     1     -34.220  15.401  -6.642  1.00 20.00     0.020 C 
HETATM    2  C2  UNL     1     -33.944  16.477  -5.595  1.00 20.00     0.075 C 
HETATM    3  C3  UNL     1     -35.266  14.371  -6.228  1.00 20.00     0.075 C 
HETATM    4  C4  UNL     1     -34.492  14.658  -3.599  1.00 20.00     0.147 C 
HETATM    5  S5  UNL     1     -33.188  15.815  -4.080  1.00 20.00    -0.159 SA
HETATM    6  S6  UNL     1     -34.738  13.349  -4.821  1.00 20.00    -0.159 SA
ENDROOT
TORSDOF 0
ENDMDL
MODEL 8
REMARK VINA RESULT:      -2.6      0.790      2.357
REMARK  0 active torsions:
REMARK  status: ('A' for Active; 'I' for Inactive)
ROOT
HETATM    1  C1  UNL     1     -33.117  15.531  -4.027  1.00 20.00     0.020 C 
HETATM    2  C2  UNL     1     -34.146  14.561  -3.450  1.00 20.00     0.075 C 
HETATM    3  C3  UNL     1     -33.671  16.484  -5.082  1.00 20.00     0.075 C 
HETATM    4  C4  UNL     1     -35.473  14.552  -5.864  1.00 20.00     0.147 C 
HETATM    5  S5  UNL     1     -34.773  13.379  -4.680  1.00 20.00    -0.159 SA
HETATM    6  S6  UNL     1     -34.218  15.631  -6.590  1.00 20.00    -0.159 SA
ENDROOT
TORSDOF 0
ENDMDL
MODEL 9
REMARK VINA RESULT:      -2.6     11.534     12.381
REMARK  0 active torsions:
REMARK  status: ('A' for Active; 'I' for Inactive)
ROOT
HETATM    1  C1  UNL     1     -40.869   5.812  -0.190  1.00 20.00     0.020 C 
HETATM    2  C2  UNL     1     -41.122   7.147  -0.886  1.00 20.00     0.075 C 
HETATM    3  C3  UNL     1     -40.801   4.613  -1.130  1.00 20.00     0.075 C 
HETATM    4  C4  UNL     1     -42.600   5.847  -2.813  1.00 20.00     0.147 C 
HETATM    5  S5  UNL     1     -42.760   7.237  -1.670  1.00 20.00    -0.159 SA
HETATM    6  S6  UNL     1     -42.383   4.270  -1.957  1.00 20.00    -0.159 SA
ENDROOT
TORSDOF 0
ENDMDL
