MODEL 1
REMARK VINA RESULT:      -3.7      0.000      0.000
REMARK  0 active torsions:
REMARK  status: ('A' for Active; 'I' for Inactive)
ROOT
HETATM    1  C1  UNL     1     -33.619  15.779  -3.046  1.00 20.00     0.016 C 
HETATM    2  C2  UNL     1     -35.084  15.603  -2.651  1.00 20.00     0.016 C 
HETATM    3  C3  UNL     1     -33.214  14.488  -3.749  1.00 20.00     0.140 C 
HETATM    4  C4  UNL     1     -35.802  15.106  -3.900  1.00 20.00     0.140 C 
HETATM    5  O5  UNL     1     -34.990  12.636  -4.346  1.00 20.00    -0.228 OA
HETATM    6  O6  UNL     1     -34.471  14.425  -6.069  1.00 20.00    -0.228 OA
HETATM    7  S7  UNL     1     -34.648  13.999  -4.697  1.00 20.00     0.144 S 
ENDROOT
TORSDOF 0
ENDMDL
MODEL 2
REMARK VINA RESULT:      -3.6      0.017      2.130
REMARK  0 active torsions:
REMARK  status: ('A' for Active; 'I' for Inactive)
ROOT
HETATM    1  C1  UNL     1     -35.094  15.608  -2.643  1.00 20.00     0.016 C 
HETATM    2  C2  UNL     1     -33.631  15.784  -3.043  1.00 20.00     0.016 C 
HETATM    3  C3  UNL     1     -35.814  15.105  -3.889  1.00 20.00     0.140 C 
HETATM    4  C4  UNL     1     -33.225  14.492  -3.742  1.00 20.00     0.140 C 
HETATM    5  O5  UNL     1     -34.486  14.417  -6.058  1.00 20.00    -0.228 OA
HETATM    6  O6  UNL     1     -34.999  12.633  -4.327  1.00 20.00    -0.228 OA
HETATM    7  S7  UNL     1     -34.660  13.996  -4.683  1.00 20.00     0.144 S 
ENDROOT
TORSDOF 0
ENDMDL
MODEL 3
REMARK VINA RESULT:      -3.6     12.365     12.845
REMARK  0 active torsions:
REMARK  status: ('A' for Active; 'I' for Inactive)
ROOT
HETATM    1  C1  UNL     1     -34.372   5.830   6.341  1.00 20.00     0.016 C 
HETATM    2  C2  UNL     1     -34.280   4.323   6.114  1.00 20.00     0.016 C 
HETATM    3  C3  UNL     1     -34.109   6.478   4.986  1.00 20.00     0.140 C 
HETATM    4  C4  UNL     1     -35.147   4.026   4.896  1.00 20.00     0.140 C 
HETATM    5  O5  UNL     1     -33.921   5.036   2.789  1.00 20.00    -0.228 OA
HETATM    6  O6  UNL     1     -36.190   5.964   3.447  1.00 20.00    -0.228 OA
HETATM    7  S7  UNL     1     -34.898   5.409   3.792  1.00 20.00     0.144 S 
ENDROOT
TORSDOF 0
ENDMDL
MODEL 4
REMARK VINA RESULT:      -3.6     12.365     12.851
REMARK  0 active torsions:
REMARK  status: ('A' for Active; 'I' for Inactive)
ROOT
HETATM    1  C1  UNL     1     -34.264   4.321   6.110  1.00 20.00     0.016 C 
HETATM    2  C2  UNL     1     -34.370   5.826   6.340  1.00 20.00     0.016 C 
HETATM    3  C3  UNL     1     -35.128   4.019   4.891  1.00 20.00     0.140 C 
HETATM    4  C4  UNL     1     -34.113   6.481   4.988  1.00 20.00     0.140 C 
HETATM    5  O5  UNL     1     -36.188   5.952   3.448  1.00 20.00    -0.228 OA
HETATM    6  O6  UNL     1     -33.912   5.047   2.786  1.00 20.00    -0.228 OA
HETATM    7  S7  UNL     1     -34.891   5.407   3.791  1.00 20.00     0.144 S 
ENDROOT
TORSDOF 0
ENDMDL
MODEL 5
REMARK VINA RESULT:      -3.5      1.611      1.972
REMARK  0 active torsions:
REMARK  status: ('A' for Active; 'I' for Inactive)
ROOT
HETATM    1  C1  UNL     1     -33.471  15.546  -4.167  1.00 20.00     0.016 C 
HETATM    2  C2  UNL     1     -34.401  16.040  -5.273  1.00 20.00     0.016 C 
HETATM    3  C3  UNL     1     -34.333  14.697  -3.240  1.00 20.00     0.140 C 
HETATM    4  C4  UNL     1     -35.155  14.813  -5.772  1.00 20.00     0.140 C 
HETATM    5  O5  UNL     1     -36.818  14.077  -3.861  1.00 20.00    -0.228 OA
HETATM    6  O6  UNL     1     -34.959  12.490  -4.544  1.00 20.00    -0.228 OA
HETATM    7  S7  UNL     1     -35.465  13.827  -4.315  1.00 20.00     0.144 S 
ENDROOT
TORSDOF 0
ENDMDL
MODEL 6
REMARK VINA RESULT:      -3.5      1.661      2.079
REMARK  0 active torsions:
REMARK  status: ('A' for Active; 'I' for Inactive)
ROOT
HETATM    1  C1  UNL     1     -34.128  15.945  -5.343  1.00 20.00     0.016 C 
HETATM    2  C2  UNL     1     -33.363  15.513  -4.094  1.00 20.00     0.016 C 
HETATM    3  C3  UNL     1     -34.850  14.700  -5.846  1.00 20.00     0.140 C 
HETATM    4  C4  UNL     1     -34.361  14.755  -3.227  1.00 20.00     0.140 C 
HETATM    5  O5  UNL     1     -34.886  12.472  -4.440  1.00 20.00    -0.228 OA
HETATM    6  O6  UNL     1     -36.765  14.146  -4.117  1.00 20.00    -0.228 OA
HETATM    7  S7  UNL     1     -35.375  13.834  -4.374  1.00 20.00     0.144 S 
ENDROOT
TORSDOF 0
ENDMDL
MODEL 7
REMARK VINA RESULT:      -3.4      1.556      2.082
REMARK  0 active torsions:
REMARK  status: ('A' for Active; 'I' for Inactive)
ROOT
HETATM    1  C1  UNL     1     -35.001  16.197  -4.073  1.00 20.00     0.016 C 
HETATM    2  C2  UNL     1     -35.246  15.765  -5.517  1.00 20.00     0.016 C 
HETATM    3  C3  UNL     1     -35.147  14.938  -3.226  1.00 20.00     0.140 C 
HETATM    4  C4  UNL     1     -34.376  14.535  -5.745  1.00 20.00     0.140 C 
HETATM    5  O5  UNL     1     -35.414  12.562  -4.334  1.00 20.00    -0.228 OA
HETATM    6  O6  UNL     1     -33.083  13.383  -3.759  1.00 20.00    -0.228 OA
HETATM    7  S7  UNL     1     -34.438  13.625  -4.209  1.00 20.00     0.144 S 
ENDROOT
TORSDOF 0
ENDMDL
MODEL 8
REMARK VINA RESULT:      -3.4      1.515      2.002
REMARK  0 active torsions:
REMARK  status: ('A' for Active; 'I' for Inactive)
ROOT
HETATM    1  C1  UNL     1     -35.124  15.878  -5.357  1.00 20.00     0.016 C 
HETATM    2  C2  UNL     1     -34.830  16.232  -3.901  1.00 20.00     0.016 C 
HETATM    3  C3  UNL     1     -34.318  14.619  -5.657  1.00 20.00     0.140 C 
HETATM    4  C4  UNL     1     -35.021  14.945  -3.107  1.00 20.00     0.140 C 
HETATM    5  O5  UNL     1     -33.045  13.320  -3.750  1.00 20.00    -0.228 OA
HETATM    6  O6  UNL     1     -35.424  12.636  -4.311  1.00 20.00    -0.228 OA
HETATM    7  S7  UNL     1     -34.396  13.645  -4.161  1.00 20.00     0.144 S 
ENDROOT
TORSDOF 0
ENDMDL
MODEL 9
REMARK VINA RESULT:      -3.4      1.833      2.580
REMARK  0 active torsions:
REMARK  status: ('A' for Active; 'I' for Inactive)
ROOT
HETATM    1  C1  UNL     1     -34.484  15.199  -2.807  1.00 20.00     0.016 C 
HETATM    2  C2  UNL     1     -33.954  14.132  -3.762  1.00 20.00     0.016 C 
HETATM    3  C3  UNL     1     -35.625  15.893  -3.542  1.00 20.00     0.140 C 
HETATM    4  C4  UNL     1     -35.174  13.368  -4.262  1.00 20.00     0.140 C 
HETATM    5  O5  UNL     1     -36.526  14.987  -5.846  1.00 20.00    -0.228 OA
HETATM    6  O6  UNL     1     -37.620  14.174  -3.706  1.00 20.00    -0.228 OA
HETATM    7  S7  UNL     1     -36.455  14.599  -4.452  1.00 20.00     0.144 S 
ENDROOT
TORSDOF 0
ENDMDL
