MODEL 1
REMARK VINA RESULT:      -4.6      0.000      0.000
REMARK  2 active torsions:
REMARK  status: ('A' for Active; 'I' for Inactive)
REMARK    1  A    between atoms: C1_1  and  C3_3 
REMARK    2  A    between atoms: C3_3  and  O6_6 
ROOT
HETATM    1  C1  UNL     1     -33.801   6.540   4.968  1.00 20.00     0.156 C 
HETATM    2  C2  UNL     1     -34.049   6.470   6.278  1.00 20.00     0.273 C 
HETATM    3  F7  UNL     1     -33.404   7.309   7.117  1.00 20.00    -0.173 F 
HETATM    4  F8  UNL     1     -34.929   5.580   6.783  1.00 20.00    -0.173 F 
ENDROOT
BRANCH   1   5
HETATM    5  C3  UNL     1     -34.481   5.643   4.009  1.00 20.00     0.287 C 
HETATM    6  O5  UNL     1     -35.548   5.081   4.196  1.00 20.00    -0.260 OA
BRANCH   5   7
HETATM    7  O6  UNL     1     -33.702   5.568   2.897  1.00 20.00    -0.323 OA
HETATM    8  C4  UNL     1     -32.436   6.232   2.987  1.00 20.00     0.213 C 
ENDBRANCH   5   7
ENDBRANCH   1   5
TORSDOF 2
ENDMDL
MODEL 2
REMARK VINA RESULT:      -4.6      1.429      1.787
REMARK  2 active torsions:
REMARK  status: ('A' for Active; 'I' for Inactive)
REMARK    1  A    between atoms: C1_1  and  C3_3 
REMARK    2  A    between atoms: C3_3  and  O6_6 
ROOT
HETATM    1  C1  UNL     1     -34.035   6.112   4.935  1.00 20.00     0.156 C 
HETATM    2  C2  UNL     1     -34.700   5.160   5.594  1.00 20.00     0.273 C 
HETATM    3  F7  UNL     1     -35.116   5.400   6.856  1.00 20.00    -0.173 F 
HETATM    4  F8  UNL     1     -34.968   3.965   5.027  1.00 20.00    -0.173 F 
ENDROOT
BRANCH   1   5
HETATM    5  C3  UNL     1     -33.560   5.899   3.551  1.00 20.00     0.287 C 
HETATM    6  O5  UNL     1     -34.195   5.367   2.656  1.00 20.00    -0.260 OA
BRANCH   5   7
HETATM    7  O6  UNL     1     -32.299   6.403   3.470  1.00 20.00    -0.323 OA
HETATM    8  C4  UNL     1     -32.151   7.559   2.638  1.00 20.00     0.213 C 
ENDBRANCH   5   7
ENDBRANCH   1   5
TORSDOF 2
ENDMDL
MODEL 3
REMARK VINA RESULT:      -4.3      2.629      3.244
REMARK  2 active torsions:
REMARK  status: ('A' for Active; 'I' for Inactive)
REMARK    1  A    between atoms: C1_1  and  C3_3 
REMARK    2  A    between atoms: C3_3  and  O6_6 
ROOT
HETATM    1  C1  UNL     1     -33.431   6.894   4.021  1.00 20.00     0.156 C 
HETATM    2  C2  UNL     1     -32.307   6.725   3.320  1.00 20.00     0.273 C 
HETATM    3  F7  UNL     1     -31.458   7.765   3.175  1.00 20.00    -0.173 F 
HETATM    4  F8  UNL     1     -32.001   5.539   2.755  1.00 20.00    -0.173 F 
ENDROOT
BRANCH   1   5
HETATM    5  C3  UNL     1     -34.393   5.787   4.210  1.00 20.00     0.287 C 
HETATM    6  O5  UNL     1     -35.062   5.270   3.331  1.00 20.00    -0.260 OA
BRANCH   5   7
HETATM    7  O6  UNL     1     -34.387   5.461   5.530  1.00 20.00    -0.323 OA
HETATM    8  C4  UNL     1     -34.849   4.142   5.840  1.00 20.00     0.213 C 
ENDBRANCH   5   7
ENDBRANCH   1   5
TORSDOF 2
ENDMDL
MODEL 4
REMARK VINA RESULT:      -4.2      2.795      3.421
REMARK  2 active torsions:
REMARK  status: ('A' for Active; 'I' for Inactive)
REMARK    1  A    between atoms: C1_1  and  C3_3 
REMARK    2  A    between atoms: C3_3  and  O6_6 
ROOT
HETATM    1  C1  UNL     1     -33.660   6.943   3.805  1.00 20.00     0.156 C 
HETATM    2  C2  UNL     1     -32.543   6.687   3.120  1.00 20.00     0.273 C 
HETATM    3  F7  UNL     1     -32.235   7.452   2.050  1.00 20.00    -0.173 F 
HETATM    4  F8  UNL     1     -31.713   5.683   3.474  1.00 20.00    -0.173 F 
ENDROOT
BRANCH   1   5
HETATM    5  C3  UNL     1     -34.040   6.136   4.983  1.00 20.00     0.287 C 
HETATM    6  O5  UNL     1     -33.851   6.446   6.148  1.00 20.00    -0.260 OA
BRANCH   5   7
HETATM    7  O6  UNL     1     -34.633   4.999   4.527  1.00 20.00    -0.323 OA
HETATM    8  C4  UNL     1     -34.947   4.025   5.527  1.00 20.00     0.213 C 
ENDBRANCH   5   7
ENDBRANCH   1   5
TORSDOF 2
ENDMDL
MODEL 5
REMARK VINA RESULT:      -4.2      2.587      3.276
REMARK  2 active torsions:
REMARK  status: ('A' for Active; 'I' for Inactive)
REMARK    1  A    between atoms: C1_1  and  C3_3 
REMARK    2  A    between atoms: C3_3  and  O6_6 
ROOT
HETATM    1  C1  UNL     1     -33.602   6.109   4.413  1.00 20.00     0.156 C 
HETATM    2  C2  UNL     1     -33.411   6.020   3.095  1.00 20.00     0.273 C 
HETATM    3  F7  UNL     1     -32.492   6.815   2.505  1.00 20.00    -0.173 F 
HETATM    4  F8  UNL     1     -34.115   5.152   2.338  1.00 20.00    -0.173 F 
ENDROOT
BRANCH   1   5
HETATM    5  C3  UNL     1     -34.595   5.261   5.105  1.00 20.00     0.287 C 
HETATM    6  O5  UNL     1     -35.208   4.332   4.604  1.00 20.00    -0.260 OA
BRANCH   5   7
HETATM    7  O6  UNL     1     -34.692   5.707   6.386  1.00 20.00    -0.323 OA
HETATM    8  C4  UNL     1     -33.877   6.840   6.706  1.00 20.00     0.213 C 
ENDBRANCH   5   7
ENDBRANCH   1   5
TORSDOF 2
ENDMDL
MODEL 6
REMARK VINA RESULT:      -4.1      1.561      2.184
REMARK  2 active torsions:
REMARK  status: ('A' for Active; 'I' for Inactive)
REMARK    1  A    between atoms: C1_1  and  C3_3 
REMARK    2  A    between atoms: C3_3  and  O6_6 
ROOT
HETATM    1  C1  UNL     1     -33.956   5.855   4.461  1.00 20.00     0.156 C 
HETATM    2  C2  UNL     1     -33.974   6.239   5.740  1.00 20.00     0.273 C 
HETATM    3  F7  UNL     1     -34.991   5.840   6.534  1.00 20.00    -0.173 F 
HETATM    4  F8  UNL     1     -32.999   7.016   6.256  1.00 20.00    -0.173 F 
ENDROOT
BRANCH   1   5
HETATM    5  C3  UNL     1     -32.866   6.265   3.551  1.00 20.00     0.287 C 
HETATM    6  O5  UNL     1     -31.896   5.587   3.253  1.00 20.00    -0.260 OA
BRANCH   5   7
HETATM    7  O6  UNL     1     -33.147   7.523   3.117  1.00 20.00    -0.323 OA
HETATM    8  C4  UNL     1     -32.167   8.110   2.253  1.00 20.00     0.213 C 
ENDBRANCH   5   7
ENDBRANCH   1   5
TORSDOF 2
ENDMDL
MODEL 7
REMARK VINA RESULT:      -4.0      2.568      3.185
REMARK  2 active torsions:
REMARK  status: ('A' for Active; 'I' for Inactive)
REMARK    1  A    between atoms: C1_1  and  C3_3 
REMARK    2  A    between atoms: C3_3  and  O6_6 
ROOT
HETATM    1  C1  UNL     1     -33.878   6.236   4.153  1.00 20.00     0.156 C 
HETATM    2  C2  UNL     1     -34.822   5.468   3.605  1.00 20.00     0.273 C 
HETATM    3  F7  UNL     1     -35.919   5.154   4.328  1.00 20.00    -0.173 F 
HETATM    4  F8  UNL     1     -34.705   4.997   2.346  1.00 20.00    -0.173 F 
ENDROOT
BRANCH   1   5
HETATM    5  C3  UNL     1     -32.659   6.608   3.403  1.00 20.00     0.287 C 
HETATM    6  O5  UNL     1     -31.686   5.893   3.229  1.00 20.00    -0.260 OA
BRANCH   5   7
HETATM    7  O6  UNL     1     -32.829   7.879   2.950  1.00 20.00    -0.323 OA
HETATM    8  C4  UNL     1     -31.997   8.256   1.847  1.00 20.00     0.213 C 
ENDBRANCH   5   7
ENDBRANCH   1   5
TORSDOF 2
ENDMDL
MODEL 8
REMARK VINA RESULT:      -4.0     12.119     12.652
REMARK  2 active torsions:
REMARK  status: ('A' for Active; 'I' for Inactive)
REMARK    1  A    between atoms: C1_1  and  C3_3 
REMARK    2  A    between atoms: C3_3  and  O6_6 
ROOT
HETATM    1  C1  UNL     1     -34.594  14.824  -3.681  1.00 20.00     0.156 C 
HETATM    2  C2  UNL     1     -33.431  15.251  -3.185  1.00 20.00     0.273 C 
HETATM    3  F7  UNL     1     -33.431  16.208  -2.232  1.00 20.00    -0.173 F 
HETATM    4  F8  UNL     1     -32.254  14.747  -3.613  1.00 20.00    -0.173 F 
ENDROOT
BRANCH   1   5
HETATM    5  C3  UNL     1     -34.647  13.778  -4.725  1.00 20.00     0.287 C 
HETATM    6  O5  UNL     1     -34.914  12.603  -4.539  1.00 20.00    -0.260 OA
BRANCH   5   7
HETATM    7  O6  UNL     1     -34.346  14.370  -5.912  1.00 20.00    -0.323 OA
HETATM    8  C4  UNL     1     -35.396  14.365  -6.885  1.00 20.00     0.213 C 
ENDBRANCH   5   7
ENDBRANCH   1   5
TORSDOF 2
ENDMDL
MODEL 9
REMARK VINA RESULT:      -4.0      2.041      2.634
REMARK  2 active torsions:
REMARK  status: ('A' for Active; 'I' for Inactive)
REMARK    1  A    between atoms: C1_1  and  C3_3 
REMARK    2  A    between atoms: C3_3  and  O6_6 
ROOT
HETATM    1  C1  UNL     1     -34.356   5.447   4.696  1.00 20.00     0.156 C 
HETATM    2  C2  UNL     1     -34.664   4.336   5.368  1.00 20.00     0.273 C 
HETATM    3  F7  UNL     1     -35.365   3.363   4.747  1.00 20.00    -0.173 F 
HETATM    4  F8  UNL     1     -34.289   4.162   6.652  1.00 20.00    -0.173 F 
ENDROOT
BRANCH   1   5
HETATM    5  C3  UNL     1     -33.590   6.541   5.330  1.00 20.00     0.287 C 
HETATM    6  O5  UNL     1     -33.761   6.965   6.461  1.00 20.00    -0.260 OA
BRANCH   5   7
HETATM    7  O6  UNL     1     -32.672   6.976   4.425  1.00 20.00    -0.323 OA
HETATM    8  C4  UNL     1     -32.665   6.279   3.174  1.00 20.00     0.213 C 
ENDBRANCH   5   7
ENDBRANCH   1   5
TORSDOF 2
ENDMDL
