MODEL 1
REMARK VINA RESULT:      -4.5      0.000      0.000
REMARK  1 active torsions:
REMARK  status: ('A' for Active; 'I' for Inactive)
REMARK    1  A    between atoms: C3_3  and  C8_8 
ROOT
HETATM    1  C1  UNL     1     -33.445  16.652  -4.137  1.00 20.00    -0.026 C 
HETATM    2  C2  UNL     1     -33.084  15.414  -3.768  1.00 20.00    -0.025 C 
HETATM    3  C4  UNL     1     -34.713  16.104  -2.283  1.00 20.00     0.017 C 
HETATM    4  C5  UNL     1     -35.816  16.009  -4.392  1.00 20.00     0.021 C 
HETATM    5  C6  UNL     1     -34.832  16.893  -3.592  1.00 20.00     0.009 C 
HETATM    6  C7  UNL     1     -34.238  14.826  -2.985  1.00 20.00     0.019 C 
HETATM    7  C8  UNL     1     -35.430  14.572  -3.938  1.00 20.00     0.063 C 
ENDROOT
BRANCH   7   8
HETATM    8  C3  UNL     1     -35.096  13.665  -5.082  1.00 20.00     0.128 C 
HETATM    9  C9  UNL     1     -35.250  14.236  -6.466  1.00 20.00     0.091 C 
HETATM   10  O10 UNL     1     -34.711  12.511  -4.900  1.00 20.00    -0.298 OA
ENDBRANCH   7   8
TORSDOF 1
ENDMDL
MODEL 2
REMARK VINA RESULT:      -4.5      1.481      2.205
REMARK  1 active torsions:
REMARK  status: ('A' for Active; 'I' for Inactive)
REMARK    1  A    between atoms: C3_3  and  C8_8 
ROOT
HETATM    1  C1  UNL     1     -33.407  13.780  -3.792  1.00 20.00    -0.026 C 
HETATM    2  C2  UNL     1     -34.732  13.594  -3.884  1.00 20.00    -0.025 C 
HETATM    3  C4  UNL     1     -34.414  15.528  -2.664  1.00 20.00     0.017 C 
HETATM    4  C5  UNL     1     -33.534  16.021  -4.822  1.00 20.00     0.021 C 
HETATM    5  C6  UNL     1     -33.180  15.249  -3.530  1.00 20.00     0.009 C 
HETATM    6  C7  UNL     1     -35.389  14.945  -3.693  1.00 20.00     0.019 C 
HETATM    7  C8  UNL     1     -35.077  15.844  -4.913  1.00 20.00     0.063 C 
ENDROOT
BRANCH   7   8
HETATM    8  C3  UNL     1     -35.524  15.256  -6.217  1.00 20.00     0.128 C 
HETATM    9  C9  UNL     1     -34.458  15.006  -7.248  1.00 20.00     0.091 C 
HETATM   10  O10 UNL     1     -36.705  14.988  -6.432  1.00 20.00    -0.298 OA
ENDBRANCH   7   8
TORSDOF 1
ENDMDL
MODEL 3
REMARK VINA RESULT:      -4.4      1.696      2.689
REMARK  1 active torsions:
REMARK  status: ('A' for Active; 'I' for Inactive)
REMARK    1  A    between atoms: C3_3  and  C8_8 
ROOT
HETATM    1  C1  UNL     1     -34.175  15.095  -5.718  1.00 20.00    -0.026 C 
HETATM    2  C2  UNL     1     -35.043  14.074  -5.659  1.00 20.00    -0.025 C 
HETATM    3  C4  UNL     1     -33.576  13.804  -3.896  1.00 20.00     0.017 C 
HETATM    4  C5  UNL     1     -34.718  15.841  -3.427  1.00 20.00     0.021 C 
HETATM    5  C6  UNL     1     -33.602  15.273  -4.333  1.00 20.00     0.009 C 
HETATM    6  C7  UNL     1     -35.056  13.579  -4.228  1.00 20.00     0.019 C 
HETATM    7  C8  UNL     1     -35.711  14.647  -3.321  1.00 20.00     0.063 C 
ENDROOT
BRANCH   7   8
HETATM    8  C3  UNL     1     -37.106  15.005  -3.732  1.00 20.00     0.128 C 
HETATM    9  C9  UNL     1     -37.352  16.440  -4.113  1.00 20.00     0.091 C 
HETATM   10  O10 UNL     1     -38.005  14.167  -3.761  1.00 20.00    -0.298 OA
ENDBRANCH   7   8
TORSDOF 1
ENDMDL
MODEL 4
REMARK VINA RESULT:      -4.3     11.342     12.376
REMARK  1 active torsions:
REMARK  status: ('A' for Active; 'I' for Inactive)
REMARK    1  A    between atoms: C3_3  and  C8_8 
ROOT
HETATM    1  C1  UNL     1     -42.918   5.332   0.336  1.00 20.00    -0.026 C 
HETATM    2  C2  UNL     1     -43.011   6.587  -0.124  1.00 20.00    -0.025 C 
HETATM    3  C4  UNL     1     -40.761   6.141   0.143  1.00 20.00     0.017 C 
HETATM    4  C5  UNL     1     -41.483   4.624  -1.546  1.00 20.00     0.021 C 
HETATM    5  C6  UNL     1     -41.539   4.829  -0.014  1.00 20.00     0.009 C 
HETATM    6  C7  UNL     1     -41.694   6.918  -0.794  1.00 20.00     0.019 C 
HETATM    7  C8  UNL     1     -41.551   6.081  -2.087  1.00 20.00     0.063 C 
ENDROOT
BRANCH   7   8
HETATM    8  C3  UNL     1     -42.667   6.294  -3.062  1.00 20.00     0.128 C 
HETATM    9  C9  UNL     1     -42.824   7.684  -3.618  1.00 20.00     0.091 C 
HETATM   10  O10 UNL     1     -43.417   5.378  -3.394  1.00 20.00    -0.298 OA
ENDBRANCH   7   8
TORSDOF 1
ENDMDL
MODEL 5
REMARK VINA RESULT:      -4.3      2.028      3.628
REMARK  1 active torsions:
REMARK  status: ('A' for Active; 'I' for Inactive)
REMARK    1  A    between atoms: C3_3  and  C8_8 
ROOT
HETATM    1  C1  UNL     1     -35.840  14.875  -5.154  1.00 20.00    -0.026 C 
HETATM    2  C2  UNL     1     -35.995  14.654  -3.841  1.00 20.00    -0.025 C 
HETATM    3  C4  UNL     1     -34.077  13.539  -4.483  1.00 20.00     0.017 C 
HETATM    4  C5  UNL     1     -33.588  15.842  -4.844  1.00 20.00     0.021 C 
HETATM    5  C6  UNL     1     -34.379  14.671  -5.472  1.00 20.00     0.009 C 
HETATM    6  C7  UNL     1     -34.631  14.312  -3.280  1.00 20.00     0.019 C 
HETATM    7  C8  UNL     1     -33.730  15.569  -3.318  1.00 20.00     0.063 C 
ENDROOT
BRANCH   7   8
HETATM    8  C3  UNL     1     -34.297  16.732  -2.564  1.00 20.00     0.128 C 
HETATM    9  C9  UNL     1     -34.555  16.526  -1.096  1.00 20.00     0.091 C 
HETATM   10  O10 UNL     1     -34.538  17.804  -3.116  1.00 20.00    -0.298 OA
ENDBRANCH   7   8
TORSDOF 1
ENDMDL
MODEL 6
REMARK VINA RESULT:      -4.3      2.190      3.601
REMARK  1 active torsions:
REMARK  status: ('A' for Active; 'I' for Inactive)
REMARK    1  A    between atoms: C3_3  and  C8_8 
ROOT
HETATM    1  C1  UNL     1     -33.505  13.791  -3.580  1.00 20.00    -0.026 C 
HETATM    2  C2  UNL     1     -32.769  14.885  -3.823  1.00 20.00    -0.025 C 
HETATM    3  C4  UNL     1     -34.421  14.823  -5.435  1.00 20.00     0.017 C 
HETATM    4  C5  UNL     1     -35.591  15.098  -3.378  1.00 20.00     0.021 C 
HETATM    5  C6  UNL     1     -34.860  14.017  -4.207  1.00 20.00     0.009 C 
HETATM    6  C7  UNL     1     -33.639  15.847  -4.603  1.00 20.00     0.019 C 
HETATM    7  C8  UNL     1     -34.765  16.380  -3.686  1.00 20.00     0.063 C 
ENDROOT
BRANCH   7   8
HETATM    8  C3  UNL     1     -34.258  17.062  -2.453  1.00 20.00     0.128 C 
HETATM    9  C9  UNL     1     -34.651  16.455  -1.134  1.00 20.00     0.091 C 
HETATM   10  O10 UNL     1     -33.551  18.066  -2.516  1.00 20.00    -0.298 OA
ENDBRANCH   7   8
TORSDOF 1
ENDMDL
MODEL 7
REMARK VINA RESULT:      -4.3      1.125      1.413
REMARK  1 active torsions:
REMARK  status: ('A' for Active; 'I' for Inactive)
REMARK    1  A    between atoms: C3_3  and  C8_8 
ROOT
HETATM    1  C1  UNL     1     -34.490  17.016  -4.848  1.00 20.00    -0.026 C 
HETATM    2  C2  UNL     1     -33.317  16.474  -4.492  1.00 20.00    -0.025 C 
HETATM    3  C4  UNL     1     -34.400  17.059  -2.539  1.00 20.00     0.017 C 
HETATM    4  C5  UNL     1     -35.780  15.382  -3.518  1.00 20.00     0.021 C 
HETATM    5  C6  UNL     1     -35.421  16.879  -3.668  1.00 20.00     0.009 C 
HETATM    6  C7  UNL     1     -33.469  15.965  -3.075  1.00 20.00     0.019 C 
HETATM    7  C8  UNL     1     -34.431  14.752  -3.066  1.00 20.00     0.063 C 
ENDROOT
BRANCH   7   8
HETATM    8  C3  UNL     1     -33.982  13.629  -3.949  1.00 20.00     0.128 C 
HETATM    9  C9  UNL     1     -34.885  13.268  -5.097  1.00 20.00     0.091 C 
HETATM   10  O10 UNL     1     -32.925  13.033  -3.748  1.00 20.00    -0.298 OA
ENDBRANCH   7   8
TORSDOF 1
ENDMDL
MODEL 8
REMARK VINA RESULT:      -4.3      1.639      3.010
REMARK  1 active torsions:
REMARK  status: ('A' for Active; 'I' for Inactive)
REMARK    1  A    between atoms: C3_3  and  C8_8 
ROOT
HETATM    1  C1  UNL     1     -35.694  14.670  -7.474  1.00 20.00    -0.026 C 
HETATM    2  C2  UNL     1     -34.427  14.788  -7.051  1.00 20.00    -0.025 C 
HETATM    3  C4  UNL     1     -35.547  16.673  -6.329  1.00 20.00     0.017 C 
HETATM    4  C5  UNL     1     -36.598  14.869  -5.184  1.00 20.00     0.021 C 
HETATM    5  C6  UNL     1     -36.545  15.536  -6.577  1.00 20.00     0.009 C 
HETATM    6  C7  UNL     1     -34.436  15.726  -5.863  1.00 20.00     0.019 C 
HETATM    7  C8  UNL     1     -35.140  15.036  -4.670  1.00 20.00     0.063 C 
ENDROOT
BRANCH   7   8
HETATM    8  C3  UNL     1     -34.504  13.740  -4.271  1.00 20.00     0.128 C 
HETATM    9  C9  UNL     1     -33.126  13.818  -3.672  1.00 20.00     0.091 C 
HETATM   10  O10 UNL     1     -35.082  12.665  -4.423  1.00 20.00    -0.298 OA
ENDBRANCH   7   8
TORSDOF 1
ENDMDL
MODEL 9
REMARK VINA RESULT:      -4.3      1.183      2.098
REMARK  1 active torsions:
REMARK  status: ('A' for Active; 'I' for Inactive)
REMARK    1  A    between atoms: C3_3  and  C8_8 
ROOT
HETATM    1  C1  UNL     1     -33.888  16.680  -2.198  1.00 20.00    -0.026 C 
HETATM    2  C2  UNL     1     -34.955  15.869  -2.183  1.00 20.00    -0.025 C 
HETATM    3  C4  UNL     1     -35.241  17.312  -3.963  1.00 20.00     0.017 C 
HETATM    4  C5  UNL     1     -33.297  16.050  -4.512  1.00 20.00     0.021 C 
HETATM    5  C6  UNL     1     -33.753  17.214  -3.603  1.00 20.00     0.009 C 
HETATM    6  C7  UNL     1     -35.527  15.854  -3.585  1.00 20.00     0.019 C 
HETATM    7  C8  UNL     1     -34.546  15.122  -4.531  1.00 20.00     0.063 C 
ENDROOT
BRANCH   7   8
HETATM    8  C3  UNL     1     -34.242  13.719  -4.107  1.00 20.00     0.128 C 
HETATM    9  C9  UNL     1     -32.866  13.461  -3.556  1.00 20.00     0.091 C 
HETATM   10  O10 UNL     1     -35.078  12.821  -4.201  1.00 20.00    -0.298 OA
ENDBRANCH   7   8
TORSDOF 1
ENDMDL
