MODEL 1
REMARK VINA RESULT:      -3.4      0.000      0.000
REMARK  0 active torsions:
REMARK  status: ('A' for Active; 'I' for Inactive)
ROOT
HETATM    1  C1  UNL     1     -33.584   6.230   5.421  1.00 20.00     0.090 A 
HETATM    2  C2  UNL     1     -35.254   4.797   4.441  1.00 20.00     0.167 A 
HETATM    3  C3  UNL     1     -33.596   6.176   4.042  1.00 20.00     0.109 A 
HETATM    4  N4  UNL     1     -34.553   5.355   3.480  1.00 20.00    -0.246 NA
HETATM    5  S5  UNL     1     -34.817   5.217   6.047  1.00 20.00    -0.092 SA
HETATM    6 BR6  UNL     1     -32.391   7.151   2.952  1.00 20.00    -0.029 Br
ENDROOT
TORSDOF 0
ENDMDL
MODEL 2
REMARK VINA RESULT:      -2.9     12.136     12.489
REMARK  0 active torsions:
REMARK  status: ('A' for Active; 'I' for Inactive)
ROOT
HETATM    1  C1  UNL     1     -34.900  15.520  -4.806  1.00 20.00     0.090 A 
HETATM    2  C2  UNL     1     -34.480  13.150  -4.710  1.00 20.00     0.167 A 
HETATM    3  C3  UNL     1     -34.583  15.015  -3.562  1.00 20.00     0.109 A 
HETATM    4  N4  UNL     1     -34.342  13.657  -3.506  1.00 20.00    -0.246 NA
HETATM    5  S5  UNL     1     -34.897  14.251  -5.959  1.00 20.00    -0.092 SA
HETATM    6 BR6  UNL     1     -34.477  16.086  -2.002  1.00 20.00    -0.029 Br
ENDROOT
TORSDOF 0
ENDMDL
MODEL 3
REMARK VINA RESULT:      -2.8      9.433      9.952
REMARK  0 active torsions:
REMARK  status: ('A' for Active; 'I' for Inactive)
ROOT
HETATM    1  C1  UNL     1     -42.144   5.835  -2.321  1.00 20.00     0.090 A 
HETATM    2  C2  UNL     1     -40.681   5.851  -0.407  1.00 20.00     0.167 A 
HETATM    3  C3  UNL     1     -41.623   4.612  -1.952  1.00 20.00     0.109 A 
HETATM    4  N4  UNL     1     -40.784   4.620  -0.855  1.00 20.00    -0.246 NA
HETATM    5  S5  UNL     1     -41.568   7.050  -1.257  1.00 20.00    -0.092 SA
HETATM    6 BR6  UNL     1     -42.007   2.998  -2.868  1.00 20.00    -0.029 Br
ENDROOT
TORSDOF 0
ENDMDL
MODEL 4
REMARK VINA RESULT:      -2.8     12.737     13.108
REMARK  0 active torsions:
REMARK  status: ('A' for Active; 'I' for Inactive)
ROOT
HETATM    1  C1  UNL     1     -33.935  15.687  -5.244  1.00 20.00     0.090 A 
HETATM    2  C2  UNL     1     -33.834  13.691  -3.900  1.00 20.00     0.167 A 
HETATM    3  C3  UNL     1     -34.543  14.570  -5.779  1.00 20.00     0.109 A 
HETATM    4  N4  UNL     1     -34.485  13.426  -5.009  1.00 20.00    -0.246 NA
HETATM    5  S5  UNL     1     -33.263  15.300  -3.715  1.00 20.00    -0.092 SA
HETATM    6 BR6  UNL     1     -35.411  14.565  -7.464  1.00 20.00    -0.029 Br
ENDROOT
TORSDOF 0
ENDMDL
MODEL 5
REMARK VINA RESULT:      -2.7     12.847     13.079
REMARK  0 active torsions:
REMARK  status: ('A' for Active; 'I' for Inactive)
ROOT
HETATM    1  C1  UNL     1     -33.738  17.220  -3.549  1.00 20.00     0.090 A 
HETATM    2  C2  UNL     1     -33.887  14.930  -4.281  1.00 20.00     0.167 A 
HETATM    3  C3  UNL     1     -34.160  16.312  -2.600  1.00 20.00     0.109 A 
HETATM    4  N4  UNL     1     -34.246  14.999  -3.019  1.00 20.00    -0.246 NA
HETATM    5  S5  UNL     1     -33.433  16.407  -5.028  1.00 20.00    -0.092 SA
HETATM    6 BR6  UNL     1     -34.606  16.796  -0.823  1.00 20.00    -0.029 Br
ENDROOT
TORSDOF 0
ENDMDL
MODEL 6
REMARK VINA RESULT:      -2.7      2.696      2.794
REMARK  0 active torsions:
REMARK  status: ('A' for Active; 'I' for Inactive)
ROOT
HETATM    1  C1  UNL     1     -33.189   6.354   4.787  1.00 20.00     0.090 A 
HETATM    2  C2  UNL     1     -33.990   5.640   2.631  1.00 20.00     0.167 A 
HETATM    3  C3  UNL     1     -34.243   5.464   4.802  1.00 20.00     0.109 A 
HETATM    4  N4  UNL     1     -34.703   5.054   3.567  1.00 20.00    -0.246 NA
HETATM    5  S5  UNL     1     -32.748   6.697   3.166  1.00 20.00    -0.092 SA
HETATM    6 BR6  UNL     1     -35.038   4.821   6.397  1.00 20.00    -0.029 Br
ENDROOT
TORSDOF 0
ENDMDL
MODEL 7
REMARK VINA RESULT:      -2.6     12.727     13.114
REMARK  0 active torsions:
REMARK  status: ('A' for Active; 'I' for Inactive)
ROOT
HETATM    1  C1  UNL     1     -34.743  14.929  -5.478  1.00 20.00     0.090 A 
HETATM    2  C2  UNL     1     -33.438  13.870  -3.752  1.00 20.00     0.167 A 
HETATM    3  C3  UNL     1     -33.823  15.735  -4.839  1.00 20.00     0.109 A 
HETATM    4  N4  UNL     1     -33.075  15.129  -3.850  1.00 20.00    -0.246 NA
HETATM    5  S5  UNL     1     -34.675  13.347  -4.821  1.00 20.00    -0.092 SA
HETATM    6 BR6  UNL     1     -33.573  17.565  -5.263  1.00 20.00    -0.029 Br
ENDROOT
TORSDOF 0
ENDMDL
MODEL 8
REMARK VINA RESULT:      -2.6      9.556     10.035
REMARK  0 active torsions:
REMARK  status: ('A' for Active; 'I' for Inactive)
ROOT
HETATM    1  C1  UNL     1     -41.982   5.296  -2.293  1.00 20.00     0.090 A 
HETATM    2  C2  UNL     1     -40.792   6.231  -0.419  1.00 20.00     0.167 A 
HETATM    3  C3  UNL     1     -41.908   6.673  -2.254  1.00 20.00     0.109 A 
HETATM    4  N4  UNL     1     -41.227   7.210  -1.180  1.00 20.00    -0.246 NA
HETATM    5  S5  UNL     1     -41.167   4.638  -0.936  1.00 20.00    -0.092 SA
HETATM    6 BR6  UNL     1     -42.682   7.794  -3.571  1.00 20.00    -0.029 Br
ENDROOT
TORSDOF 0
ENDMDL
MODEL 9
REMARK VINA RESULT:      -2.6      2.267      2.396
REMARK  0 active torsions:
REMARK  status: ('A' for Active; 'I' for Inactive)
ROOT
HETATM    1  C1  UNL     1     -33.718   6.425   4.194  1.00 20.00     0.090 A 
HETATM    2  C2  UNL     1     -35.213   4.587   4.631  1.00 20.00     0.167 A 
HETATM    3  C3  UNL     1     -34.071   6.237   5.514  1.00 20.00     0.109 A 
HETATM    4  N4  UNL     1     -34.927   5.184   5.766  1.00 20.00    -0.246 NA
HETATM    5  S5  UNL     1     -34.484   5.240   3.220  1.00 20.00    -0.092 SA
HETATM    6 BR6  UNL     1     -33.441   7.335   6.925  1.00 20.00    -0.029 Br
ENDROOT
TORSDOF 0
ENDMDL
