MODEL 1
REMARK VINA RESULT:      -4.1      0.000      0.000
REMARK  3 active torsions:
REMARK  status: ('A' for Active; 'I' for Inactive)
REMARK    1  A    between atoms: C4_4  and  C5_5 
REMARK    2  A    between atoms: C5_5  and  C6_6 
REMARK    3  A    between atoms: C6_6  and  N7_7 
ROOT
HETATM    1  C1  UNL     1     -32.207   7.079   2.848  1.00 20.00     0.158 C 
HETATM    2  N7  UNL     1     -32.165   6.089   3.477  1.00 20.00    -0.271 NA
HETATM    3  S8  UNL     1     -32.231   8.421   1.992  1.00 20.00    -0.055 SA
ENDROOT
BRANCH   2   4
HETATM    4  C6  UNL     1     -33.468   5.598   3.939  1.00 20.00     0.105 C 
HETATM    5  C3  UNL     1     -34.419   5.602   2.749  1.00 20.00     0.034 C 
BRANCH   4   6
HETATM    6  C5  UNL     1     -33.981   6.503   5.064  1.00 20.00     0.026 C 
BRANCH   6   7
HETATM    7  C4  UNL     1     -34.392   5.710   6.308  1.00 20.00    -0.002 C 
HETATM    8  C2  UNL     1     -34.914   4.329   5.940  1.00 20.00     0.005 C 
ENDBRANCH   6   7
ENDBRANCH   4   6
ENDBRANCH   2   4
TORSDOF 3
ENDMDL
MODEL 2
REMARK VINA RESULT:      -4.0      0.909      1.612
REMARK  3 active torsions:
REMARK  status: ('A' for Active; 'I' for Inactive)
REMARK    1  A    between atoms: C4_4  and  C5_5 
REMARK    2  A    between atoms: C5_5  and  C6_6 
REMARK    3  A    between atoms: C6_6  and  N7_7 
ROOT
HETATM    1  C1  UNL     1     -32.198   7.590   2.554  1.00 20.00     0.158 C 
HETATM    2  N7  UNL     1     -32.333   6.749   3.361  1.00 20.00    -0.271 NA
HETATM    3  S8  UNL     1     -31.983   8.722   1.454  1.00 20.00    -0.055 SA
ENDROOT
BRANCH   2   4
HETATM    4  C6  UNL     1     -33.665   6.693   3.974  1.00 20.00     0.105 C 
HETATM    5  C3  UNL     1     -33.492   6.808   5.483  1.00 20.00     0.034 C 
BRANCH   4   6
HETATM    6  C5  UNL     1     -34.346   5.375   3.592  1.00 20.00     0.026 C 
BRANCH   6   7
HETATM    7  C4  UNL     1     -35.417   4.958   4.604  1.00 20.00    -0.002 C 
HETATM    8  C2  UNL     1     -34.915   3.854   5.523  1.00 20.00     0.005 C 
ENDBRANCH   6   7
ENDBRANCH   4   6
ENDBRANCH   2   4
TORSDOF 3
ENDMDL
MODEL 3
REMARK VINA RESULT:      -3.7      2.639      4.104
REMARK  3 active torsions:
REMARK  status: ('A' for Active; 'I' for Inactive)
REMARK    1  A    between atoms: C4_4  and  C5_5 
REMARK    2  A    between atoms: C5_5  and  C6_6 
REMARK    3  A    between atoms: C6_6  and  N7_7 
ROOT
HETATM    1  C1  UNL     1     -34.363   5.537   5.642  1.00 20.00     0.158 C 
HETATM    2  N7  UNL     1     -33.861   6.487   5.171  1.00 20.00    -0.271 NA
HETATM    3  S8  UNL     1     -35.040   4.260   6.312  1.00 20.00    -0.055 SA
ENDROOT
BRANCH   2   4
HETATM    4  C6  UNL     1     -33.796   6.486   3.706  1.00 20.00     0.105 C 
HETATM    5  C3  UNL     1     -34.701   5.370   3.197  1.00 20.00     0.034 C 
BRANCH   4   6
HETATM    6  C5  UNL     1     -32.345   6.270   3.262  1.00 20.00     0.026 C 
BRANCH   6   7
HETATM    7  C4  UNL     1     -31.584   7.589   3.100  1.00 20.00    -0.002 C 
HETATM    8  C2  UNL     1     -32.024   8.335   1.850  1.00 20.00     0.005 C 
ENDBRANCH   6   7
ENDBRANCH   4   6
ENDBRANCH   2   4
TORSDOF 3
ENDMDL
MODEL 4
REMARK VINA RESULT:      -3.6     11.940     12.617
REMARK  3 active torsions:
REMARK  status: ('A' for Active; 'I' for Inactive)
REMARK    1  A    between atoms: C4_4  and  C5_5 
REMARK    2  A    between atoms: C5_5  and  C6_6 
REMARK    3  A    between atoms: C6_6  and  N7_7 
ROOT
HETATM    1  C1  UNL     1     -33.633  16.131  -5.481  1.00 20.00     0.158 C 
HETATM    2  N7  UNL     1     -32.919  16.221  -4.554  1.00 20.00    -0.271 NA
HETATM    3  S8  UNL     1     -34.582  16.029  -6.756  1.00 20.00    -0.055 SA
ENDROOT
BRANCH   2   4
HETATM    4  C6  UNL     1     -33.333  15.442  -3.382  1.00 20.00     0.105 C 
HETATM    5  C3  UNL     1     -33.390  13.975  -3.790  1.00 20.00     0.034 C 
BRANCH   4   6
HETATM    6  C5  UNL     1     -34.699  15.938  -2.898  1.00 20.00     0.026 C 
BRANCH   6   7
HETATM    7  C4  UNL     1     -34.690  16.320  -1.415  1.00 20.00    -0.002 C 
HETATM    8  C2  UNL     1     -33.676  17.417  -1.130  1.00 20.00     0.005 C 
ENDBRANCH   6   7
ENDBRANCH   4   6
ENDBRANCH   2   4
TORSDOF 3
ENDMDL
MODEL 5
REMARK VINA RESULT:      -3.6      2.594      4.398
REMARK  3 active torsions:
REMARK  status: ('A' for Active; 'I' for Inactive)
REMARK    1  A    between atoms: C4_4  and  C5_5 
REMARK    2  A    between atoms: C5_5  and  C6_6 
REMARK    3  A    between atoms: C6_6  and  N7_7 
ROOT
HETATM    1  C1  UNL     1     -34.059   5.783   4.866  1.00 20.00     0.158 C 
HETATM    2  N7  UNL     1     -33.321   6.653   4.595  1.00 20.00    -0.271 NA
HETATM    3  S8  UNL     1     -35.061   4.611   5.267  1.00 20.00    -0.055 SA
ENDROOT
BRANCH   2   4
HETATM    4  C6  UNL     1     -32.939   6.716   3.180  1.00 20.00     0.105 C 
HETATM    5  C3  UNL     1     -32.315   5.379   2.802  1.00 20.00     0.034 C 
BRANCH   4   6
HETATM    6  C5  UNL     1     -31.951   7.869   2.971  1.00 20.00     0.026 C 
BRANCH   6   7
HETATM    7  C4  UNL     1     -31.934   8.367   1.523  1.00 20.00    -0.002 C 
HETATM    8  C2  UNL     1     -32.446   9.796   1.420  1.00 20.00     0.005 C 
ENDBRANCH   6   7
ENDBRANCH   4   6
ENDBRANCH   2   4
TORSDOF 3
ENDMDL
MODEL 6
REMARK VINA RESULT:      -3.5     11.419     12.411
REMARK  3 active torsions:
REMARK  status: ('A' for Active; 'I' for Inactive)
REMARK    1  A    between atoms: C4_4  and  C5_5 
REMARK    2  A    between atoms: C5_5  and  C6_6 
REMARK    3  A    between atoms: C6_6  and  N7_7 
ROOT
HETATM    1  C1  UNL     1     -34.884  15.823  -2.283  1.00 20.00     0.158 C 
HETATM    2  N7  UNL     1     -35.125  15.171  -3.228  1.00 20.00    -0.271 NA
HETATM    3  S8  UNL     1     -34.584  16.726  -1.005  1.00 20.00    -0.055 SA
ENDROOT
BRANCH   2   4
HETATM    4  C6  UNL     1     -34.125  14.143  -3.537  1.00 20.00     0.105 C 
HETATM    5  C3  UNL     1     -32.769  14.828  -3.652  1.00 20.00     0.034 C 
BRANCH   4   6
HETATM    6  C5  UNL     1     -34.505  13.441  -4.845  1.00 20.00     0.026 C 
BRANCH   6   7
HETATM    7  C4  UNL     1     -35.335  14.338  -5.768  1.00 20.00    -0.002 C 
HETATM    8  C2  UNL     1     -34.511  14.837  -6.945  1.00 20.00     0.005 C 
ENDBRANCH   6   7
ENDBRANCH   4   6
ENDBRANCH   2   4
TORSDOF 3
ENDMDL
MODEL 7
REMARK VINA RESULT:      -3.5     11.246     12.158
REMARK  3 active torsions:
REMARK  status: ('A' for Active; 'I' for Inactive)
REMARK    1  A    between atoms: C4_4  and  C5_5 
REMARK    2  A    between atoms: C5_5  and  C6_6 
REMARK    3  A    between atoms: C6_6  and  N7_7 
ROOT
HETATM    1  C1  UNL     1     -34.710  16.523  -1.183  1.00 20.00     0.158 C 
HETATM    2  N7  UNL     1     -34.682  15.822  -2.123  1.00 20.00    -0.271 NA
HETATM    3  S8  UNL     1     -34.776  17.458   0.105  1.00 20.00    -0.055 SA
ENDROOT
BRANCH   2   4
HETATM    4  C6  UNL     1     -33.576  16.082  -3.051  1.00 20.00     0.105 C 
HETATM    5  C3  UNL     1     -34.071  17.061  -4.108  1.00 20.00     0.034 C 
BRANCH   4   6
HETATM    6  C5  UNL     1     -33.123  14.763  -3.685  1.00 20.00     0.026 C 
BRANCH   6   7
HETATM    7  C4  UNL     1     -34.209  13.685  -3.625  1.00 20.00    -0.002 C 
HETATM    8  C2  UNL     1     -34.752  13.366  -5.010  1.00 20.00     0.005 C 
ENDBRANCH   6   7
ENDBRANCH   4   6
ENDBRANCH   2   4
TORSDOF 3
ENDMDL
MODEL 8
REMARK VINA RESULT:      -3.5     11.762     12.505
REMARK  3 active torsions:
REMARK  status: ('A' for Active; 'I' for Inactive)
REMARK    1  A    between atoms: C4_4  and  C5_5 
REMARK    2  A    between atoms: C5_5  and  C6_6 
REMARK    3  A    between atoms: C6_6  and  N7_7 
ROOT
HETATM    1  C1  UNL     1     -34.869  15.360  -5.954  1.00 20.00     0.158 C 
HETATM    2  N7  UNL     1     -34.841  15.776  -4.857  1.00 20.00    -0.271 NA
HETATM    3  S8  UNL     1     -34.933  14.815  -7.449  1.00 20.00    -0.055 SA
ENDROOT
BRANCH   2   4
HETATM    4  C6  UNL     1     -33.781  15.213  -4.013  1.00 20.00     0.105 C 
HETATM    5  C3  UNL     1     -34.187  13.794  -3.634  1.00 20.00     0.034 C 
BRANCH   4   6
HETATM    6  C5  UNL     1     -33.602  16.090  -2.770  1.00 20.00     0.026 C 
BRANCH   6   7
HETATM    7  C4  UNL     1     -34.833  16.068  -1.859  1.00 20.00    -0.002 C 
HETATM    8  C2  UNL     1     -34.582  16.831  -0.566  1.00 20.00     0.005 C 
ENDBRANCH   6   7
ENDBRANCH   4   6
ENDBRANCH   2   4
TORSDOF 3
ENDMDL
MODEL 9
REMARK VINA RESULT:      -3.4     12.034     12.829
REMARK  3 active torsions:
REMARK  status: ('A' for Active; 'I' for Inactive)
REMARK    1  A    between atoms: C4_4  and  C5_5 
REMARK    2  A    between atoms: C5_5  and  C6_6 
REMARK    3  A    between atoms: C6_6  and  N7_7 
ROOT
HETATM    1  C1  UNL     1     -33.369  17.261  -5.174  1.00 20.00     0.158 C 
HETATM    2  N7  UNL     1     -32.992  16.292  -4.630  1.00 20.00    -0.271 NA
HETATM    3  S8  UNL     1     -33.851  18.579  -5.928  1.00 20.00    -0.055 SA
ENDROOT
BRANCH   2   4
HETATM    4  C6  UNL     1     -33.962  15.687  -3.711  1.00 20.00     0.105 C 
HETATM    5  C3  UNL     1     -33.789  16.344  -2.347  1.00 20.00     0.034 C 
BRANCH   4   6
HETATM    6  C5  UNL     1     -33.716  14.176  -3.635  1.00 20.00     0.026 C 
BRANCH   6   7
HETATM    7  C4  UNL     1     -34.885  13.366  -4.200  1.00 20.00    -0.002 C 
HETATM    8  C2  UNL     1     -36.168  14.183  -4.224  1.00 20.00     0.005 C 
ENDBRANCH   6   7
ENDBRANCH   4   6
ENDBRANCH   2   4
TORSDOF 3
ENDMDL
