MODEL 1
REMARK VINA RESULT:      -4.3      0.000      0.000
REMARK  1 active torsions:
REMARK  status: ('A' for Active; 'I' for Inactive)
REMARK    1  A    between atoms: C1_1  and  C3_3 
ROOT
HETATM    1  C2  UNL     1     -34.343  16.208  -4.444  1.00 20.00     0.065 A 
HETATM    2  C3  UNL     1     -34.048  14.761  -4.103  1.00 20.00     0.070 A 
HETATM    3  C4  UNL     1     -35.020  15.583  -3.256  1.00 20.00     0.130 A 
HETATM    4  C5  UNL     1     -32.668  14.456  -3.569  1.00 20.00     0.028 C 
HETATM    5 CL8  UNL     1     -36.760  15.291  -3.380  1.00 20.00    -0.100 Cl
HETATM    6 CL9  UNL     1     -34.552  16.143  -1.651  1.00 20.00    -0.100 Cl
ENDROOT
BRANCH   2   7
HETATM    7  C1  UNL     1     -34.618  13.730  -5.006  1.00 20.00     0.230 C 
HETATM    8  O6  UNL     1     -34.851  12.589  -4.617  1.00 20.00    -0.279 OA
HETATM    9 CL7  UNL     1     -34.894  14.344  -6.608  1.00 20.00    -0.043 Cl
ENDBRANCH   2   7
TORSDOF 1
ENDMDL
MODEL 2
REMARK VINA RESULT:      -4.3      1.448      2.512
REMARK  1 active torsions:
REMARK  status: ('A' for Active; 'I' for Inactive)
REMARK    1  A    between atoms: C1_1  and  C3_3 
ROOT
HETATM    1  C2  UNL     1     -32.975  14.888  -3.852  1.00 20.00     0.065 A 
HETATM    2  C3  UNL     1     -34.453  15.056  -3.566  1.00 20.00     0.070 A 
HETATM    3  C4  UNL     1     -33.780  15.842  -4.691  1.00 20.00     0.130 A 
HETATM    4  C5  UNL     1     -34.823  15.760  -2.281  1.00 20.00     0.028 C 
HETATM    5 CL8  UNL     1     -34.066  15.389  -6.377  1.00 20.00    -0.100 Cl
HETATM    6 CL9  UNL     1     -33.465  17.567  -4.509  1.00 20.00    -0.100 Cl
ENDROOT
BRANCH   2   7
HETATM    7  C1  UNL     1     -35.342  13.928  -3.946  1.00 20.00     0.230 C 
HETATM    8  O6  UNL     1     -34.902  12.802  -4.156  1.00 20.00    -0.279 OA
HETATM    9 CL7  UNL     1     -37.008  14.413  -4.043  1.00 20.00    -0.043 Cl
ENDBRANCH   2   7
TORSDOF 1
ENDMDL
MODEL 3
REMARK VINA RESULT:      -3.9      1.906      3.197
REMARK  1 active torsions:
REMARK  status: ('A' for Active; 'I' for Inactive)
REMARK    1  A    between atoms: C1_1  and  C3_3 
ROOT
HETATM    1  C2  UNL     1     -34.945  16.184  -4.759  1.00 20.00     0.065 A 
HETATM    2  C3  UNL     1     -35.562  14.810  -4.586  1.00 20.00     0.070 A 
HETATM    3  C4  UNL     1     -35.518  15.480  -5.960  1.00 20.00     0.130 A 
HETATM    4  C5  UNL     1     -36.869  14.741  -3.831  1.00 20.00     0.028 C 
HETATM    5 CL8  UNL     1     -34.374  14.909  -7.182  1.00 20.00    -0.100 Cl
HETATM    6 CL9  UNL     1     -36.987  16.140  -6.678  1.00 20.00    -0.100 Cl
ENDROOT
BRANCH   2   7
HETATM    7  C1  UNL     1     -34.628  13.683  -4.336  1.00 20.00     0.230 C 
HETATM    8  O6  UNL     1     -34.945  12.520  -4.565  1.00 20.00    -0.279 OA
HETATM    9 CL7  UNL     1     -33.102  14.226  -3.706  1.00 20.00    -0.043 Cl
ENDBRANCH   2   7
TORSDOF 1
ENDMDL
MODEL 4
REMARK VINA RESULT:      -3.9      1.966      2.318
REMARK  1 active torsions:
REMARK  status: ('A' for Active; 'I' for Inactive)
REMARK    1  A    between atoms: C1_1  and  C3_3 
ROOT
HETATM    1  C2  UNL     1     -36.398  15.196  -4.798  1.00 20.00     0.065 A 
HETATM    2  C3  UNL     1     -34.940  14.841  -5.009  1.00 20.00     0.070 A 
HETATM    3  C4  UNL     1     -35.337  16.015  -4.113  1.00 20.00     0.130 A 
HETATM    4  C5  UNL     1     -34.365  15.110  -6.381  1.00 20.00     0.028 C 
HETATM    5 CL8  UNL     1     -35.211  15.863  -2.356  1.00 20.00    -0.100 Cl
HETATM    6 CL9  UNL     1     -35.096  17.674  -4.658  1.00 20.00    -0.100 Cl
ENDROOT
BRANCH   2   7
HETATM    7  C1  UNL     1     -34.449  13.603  -4.351  1.00 20.00     0.230 C 
HETATM    8  O6  UNL     1     -35.125  12.580  -4.317  1.00 20.00    -0.279 OA
HETATM    9 CL7  UNL     1     -32.862  13.809  -3.674  1.00 20.00    -0.043 Cl
ENDBRANCH   2   7
TORSDOF 1
ENDMDL
MODEL 5
REMARK VINA RESULT:      -3.9      1.904      2.993
REMARK  1 active torsions:
REMARK  status: ('A' for Active; 'I' for Inactive)
REMARK    1  A    between atoms: C1_1  and  C3_3 
ROOT
HETATM    1  C2  UNL     1     -34.617  13.855  -3.700  1.00 20.00     0.065 A 
HETATM    2  C3  UNL     1     -35.374  15.130  -3.388  1.00 20.00     0.070 A 
HETATM    3  C4  UNL     1     -34.416  15.059  -4.578  1.00 20.00     0.130 A 
HETATM    4  C5  UNL     1     -34.962  15.879  -2.142  1.00 20.00     0.028 C 
HETATM    5 CL8  UNL     1     -35.059  14.974  -6.223  1.00 20.00    -0.100 Cl
HETATM    6 CL9  UNL     1     -32.853  15.874  -4.514  1.00 20.00    -0.100 Cl
ENDROOT
BRANCH   2   7
HETATM    7  C1  UNL     1     -36.831  15.132  -3.673  1.00 20.00     0.230 C 
HETATM    8  O6  UNL     1     -37.482  14.092  -3.712  1.00 20.00    -0.279 OA
HETATM    9 CL7  UNL     1     -37.446  16.738  -3.927  1.00 20.00    -0.043 Cl
ENDBRANCH   2   7
TORSDOF 1
ENDMDL
MODEL 6
REMARK VINA RESULT:      -3.8      1.845      3.511
REMARK  1 active torsions:
REMARK  status: ('A' for Active; 'I' for Inactive)
REMARK    1  A    between atoms: C1_1  and  C3_3 
ROOT
HETATM    1  C2  UNL     1     -35.570  15.521  -4.888  1.00 20.00     0.065 A 
HETATM    2  C3  UNL     1     -34.344  14.661  -4.653  1.00 20.00     0.070 A 
HETATM    3  C4  UNL     1     -34.410  15.622  -5.840  1.00 20.00     0.130 A 
HETATM    4  C5  UNL     1     -34.501  13.175  -4.886  1.00 20.00     0.028 C 
HETATM    5 CL8  UNL     1     -33.471  17.121  -5.812  1.00 20.00    -0.100 Cl
HETATM    6 CL9  UNL     1     -34.631  15.004  -7.477  1.00 20.00    -0.100 Cl
ENDROOT
BRANCH   2   7
HETATM    7  C1  UNL     1     -33.473  15.032  -3.509  1.00 20.00     0.230 C 
HETATM    8  O6  UNL     1     -32.280  14.748  -3.488  1.00 20.00    -0.279 OA
HETATM    9 CL7  UNL     1     -34.348  15.883  -2.272  1.00 20.00    -0.043 Cl
ENDBRANCH   2   7
TORSDOF 1
ENDMDL
MODEL 7
REMARK VINA RESULT:      -3.8      2.177      3.023
REMARK  1 active torsions:
REMARK  status: ('A' for Active; 'I' for Inactive)
REMARK    1  A    between atoms: C1_1  and  C3_3 
ROOT
HETATM    1  C2  UNL     1     -34.746  13.749  -3.793  1.00 20.00     0.065 A 
HETATM    2  C3  UNL     1     -34.515  14.967  -4.664  1.00 20.00     0.070 A 
HETATM    3  C4  UNL     1     -35.483  15.023  -3.482  1.00 20.00     0.130 A 
HETATM    4  C5  UNL     1     -35.060  14.910  -6.073  1.00 20.00     0.028 C 
HETATM    5 CL8  UNL     1     -35.022  15.882  -2.006  1.00 20.00    -0.100 Cl
HETATM    6 CL9  UNL     1     -37.225  15.055  -3.755  1.00 20.00    -0.100 Cl
ENDROOT
BRANCH   2   7
HETATM    7  C1  UNL     1     -33.207  15.656  -4.521  1.00 20.00     0.230 C 
HETATM    8  O6  UNL     1     -32.986  16.738  -5.055  1.00 20.00    -0.279 OA
HETATM    9 CL7  UNL     1     -32.097  14.752  -3.536  1.00 20.00    -0.043 Cl
ENDBRANCH   2   7
TORSDOF 1
ENDMDL
MODEL 8
REMARK VINA RESULT:      -3.8      1.071      1.071
REMARK  1 active torsions:
REMARK  status: ('A' for Active; 'I' for Inactive)
REMARK    1  A    between atoms: C1_1  and  C3_3 
ROOT
HETATM    1  C2  UNL     1     -33.260  16.264  -4.379  1.00 20.00     0.065 A 
HETATM    2  C3  UNL     1     -33.852  14.870  -4.357  1.00 20.00     0.070 A 
HETATM    3  C4  UNL     1     -34.521  16.016  -3.598  1.00 20.00     0.130 A 
HETATM    4  C5  UNL     1     -33.084  13.816  -3.593  1.00 20.00     0.028 C 
HETATM    5 CL8  UNL     1     -36.012  16.734  -4.224  1.00 20.00    -0.100 Cl
HETATM    6 CL9  UNL     1     -34.431  16.094  -1.839  1.00 20.00    -0.100 Cl
ENDROOT
BRANCH   2   7
HETATM    7  C1  UNL     1     -34.499  14.396  -5.607  1.00 20.00     0.230 C 
HETATM    8  O6  UNL     1     -35.207  13.394  -5.628  1.00 20.00    -0.279 OA
HETATM    9 CL7  UNL     1     -34.126  15.417  -6.963  1.00 20.00    -0.043 Cl
ENDBRANCH   2   7
TORSDOF 1
ENDMDL
MODEL 9
REMARK VINA RESULT:      -3.7      2.444      3.939
REMARK  1 active torsions:
REMARK  status: ('A' for Active; 'I' for Inactive)
REMARK    1  A    between atoms: C1_1  and  C3_3 
ROOT
HETATM    1  C2  UNL     1     -34.349  15.843  -4.988  1.00 20.00     0.065 A 
HETATM    2  C3  UNL     1     -34.898  15.866  -3.575  1.00 20.00     0.070 A 
HETATM    3  C4  UNL     1     -34.040  14.698  -4.062  1.00 20.00     0.130 A 
HETATM    4  C5  UNL     1     -36.390  15.682  -3.422  1.00 20.00     0.028 C 
HETATM    5 CL8  UNL     1     -32.368  14.540  -3.505  1.00 20.00    -0.100 Cl
HETATM    6 CL9  UNL     1     -34.776  13.134  -4.411  1.00 20.00    -0.100 Cl
ENDROOT
BRANCH   2   7
HETATM    7  C1  UNL     1     -34.280  16.832  -2.632  1.00 20.00     0.230 C 
HETATM    8  O6  UNL     1     -33.632  17.796  -3.027  1.00 20.00    -0.279 OA
HETATM    9 CL7  UNL     1     -34.596  16.417  -0.974  1.00 20.00    -0.043 Cl
ENDBRANCH   2   7
TORSDOF 1
ENDMDL
