MODEL 1
REMARK VINA RESULT:      -4.4      0.000      0.000
REMARK  1 active torsions:
REMARK  status: ('A' for Active; 'I' for Inactive)
REMARK    1  A    between atoms: C8_8  and  O9_9 
ROOT
HETATM    1  C1  UNL     1     -36.166  13.990  -4.130  1.00 20.00     0.010 C 
HETATM    2  C2  UNL     1     -33.867  13.552  -3.757  1.00 20.00     0.012 C 
HETATM    3  C3  UNL     1     -34.706  14.373  -5.959  1.00 20.00     0.012 C 
HETATM    4  C4  UNL     1     -34.958  13.364  -4.825  1.00 20.00    -0.013 C 
HETATM    5  C5  UNL     1     -35.513  15.338  -3.877  1.00 20.00    -0.001 C 
HETATM    6  C6  UNL     1     -34.079  15.019  -3.338  1.00 20.00     0.019 C 
HETATM    7  C7  UNL     1     -34.796  15.718  -5.214  1.00 20.00     0.019 C 
HETATM    8  C8  UNL     1     -33.570  16.097  -4.336  1.00 20.00     0.127 C 
ENDROOT
BRANCH   8   9
HETATM    9  O9  UNL     1     -32.267  15.887  -4.907  1.00 20.00    -0.395 OA
HETATM   10  H21 UNL     1     -31.699  15.615  -4.174  1.00 20.00     0.210 HD
ENDBRANCH   8   9
TORSDOF 1
ENDMDL
MODEL 2
REMARK VINA RESULT:      -4.3     11.209     12.429
REMARK  1 active torsions:
REMARK  status: ('A' for Active; 'I' for Inactive)
REMARK    1  A    between atoms: C8_8  and  O9_9 
ROOT
HETATM    1  C1  UNL     1     -42.633   4.253   0.295  1.00 20.00     0.010 C 
HETATM    2  C2  UNL     1     -40.850   4.496  -1.248  1.00 20.00     0.012 C 
HETATM    3  C3  UNL     1     -43.153   5.304  -1.765  1.00 20.00     0.012 C 
HETATM    4  C4  UNL     1     -42.342   4.126  -1.199  1.00 20.00    -0.013 C 
HETATM    5  C5  UNL     1     -42.157   5.690   0.420  1.00 20.00    -0.001 C 
HETATM    6  C6  UNL     1     -40.805   5.758  -0.365  1.00 20.00     0.019 C 
HETATM    7  C7  UNL     1     -42.769   6.446  -0.804  1.00 20.00     0.019 C 
HETATM    8  C8  UNL     1     -41.356   7.063  -1.006  1.00 20.00     0.127 C 
ENDROOT
BRANCH   8   9
HETATM    9  O9  UNL     1     -40.951   7.341  -2.357  1.00 20.00    -0.395 OA
HETATM   10  H21 UNL     1     -41.229   6.577  -2.878  1.00 20.00     0.210 HD
ENDBRANCH   8   9
TORSDOF 1
ENDMDL
MODEL 3
REMARK VINA RESULT:      -4.3      1.798      2.662
REMARK  1 active torsions:
REMARK  status: ('A' for Active; 'I' for Inactive)
REMARK    1  A    between atoms: C8_8  and  O9_9 
ROOT
HETATM    1  C1  UNL     1     -34.356  16.815  -4.597  1.00 20.00     0.010 C 
HETATM    2  C2  UNL     1     -35.476  15.399  -3.060  1.00 20.00     0.012 C 
HETATM    3  C3  UNL     1     -35.866  15.237  -5.520  1.00 20.00     0.012 C 
HETATM    4  C4  UNL     1     -35.737  16.214  -4.339  1.00 20.00    -0.013 C 
HETATM    5  C5  UNL     1     -33.617  15.488  -4.626  1.00 20.00    -0.001 C 
HETATM    6  C6  UNL     1     -34.163  14.672  -3.407  1.00 20.00     0.019 C 
HETATM    7  C7  UNL     1     -34.494  14.536  -5.503  1.00 20.00     0.019 C 
HETATM    8  C8  UNL     1     -34.282  13.472  -4.388  1.00 20.00     0.127 C 
ENDROOT
BRANCH   8   9
HETATM    9  O9  UNL     1     -35.358  12.549  -4.153  1.00 20.00    -0.395 OA
HETATM   10  H21 UNL     1     -34.951  11.673  -4.118  1.00 20.00     0.210 HD
ENDBRANCH   8   9
TORSDOF 1
ENDMDL
MODEL 4
REMARK VINA RESULT:      -4.2      1.600      2.868
REMARK  1 active torsions:
REMARK  status: ('A' for Active; 'I' for Inactive)
REMARK    1  A    between atoms: C8_8  and  O9_9 
ROOT
HETATM    1  C1  UNL     1     -34.237  16.847  -3.902  1.00 20.00     0.010 C 
HETATM    2  C2  UNL     1     -34.224  15.446  -5.815  1.00 20.00     0.012 C 
HETATM    3  C3  UNL     1     -33.008  14.827  -3.725  1.00 20.00     0.012 C 
HETATM    4  C4  UNL     1     -33.285  15.971  -4.715  1.00 20.00    -0.013 C 
HETATM    5  C5  UNL     1     -35.256  15.752  -3.633  1.00 20.00    -0.001 C 
HETATM    6  C6  UNL     1     -35.461  15.019  -5.001  1.00 20.00     0.019 C 
HETATM    7  C7  UNL     1     -34.425  14.494  -3.220  1.00 20.00     0.019 C 
HETATM    8  C8  UNL     1     -35.330  13.694  -4.199  1.00 20.00     0.127 C 
ENDROOT
BRANCH   8   9
HETATM    9  O9  UNL     1     -34.730  12.581  -4.882  1.00 20.00    -0.395 OA
HETATM   10  H21 UNL     1     -34.265  12.074  -4.203  1.00 20.00     0.210 HD
ENDBRANCH   8   9
TORSDOF 1
ENDMDL
MODEL 5
REMARK VINA RESULT:      -4.2      1.757      2.900
REMARK  1 active torsions:
REMARK  status: ('A' for Active; 'I' for Inactive)
REMARK    1  A    between atoms: C8_8  and  O9_9 
ROOT
HETATM    1  C1  UNL     1     -34.077  16.993  -3.886  1.00 20.00     0.010 C 
HETATM    2  C2  UNL     1     -32.992  14.888  -3.788  1.00 20.00     0.012 C 
HETATM    3  C3  UNL     1     -35.044  15.371  -2.453  1.00 20.00     0.012 C 
HETATM    4  C4  UNL     1     -33.671  15.923  -2.874  1.00 20.00    -0.013 C 
HETATM    5  C5  UNL     1     -34.878  16.062  -4.779  1.00 20.00    -0.001 C 
HETATM    6  C6  UNL     1     -33.998  14.779  -4.950  1.00 20.00     0.019 C 
HETATM    7  C7  UNL     1     -35.746  15.192  -3.812  1.00 20.00     0.019 C 
HETATM    8  C8  UNL     1     -35.294  13.970  -4.661  1.00 20.00     0.127 C 
ENDROOT
BRANCH   8   9
HETATM    9  O9  UNL     1     -35.135  12.718  -3.971  1.00 20.00    -0.395 OA
HETATM   10  H21 UNL     1     -35.906  12.636  -3.394  1.00 20.00     0.210 HD
ENDBRANCH   8   9
TORSDOF 1
ENDMDL
MODEL 6
REMARK VINA RESULT:      -4.2     11.781     13.112
REMARK  1 active torsions:
REMARK  status: ('A' for Active; 'I' for Inactive)
REMARK    1  A    between atoms: C8_8  and  O9_9 
ROOT
HETATM    1  C1  UNL     1     -41.187   6.872  -1.235  1.00 20.00     0.010 C 
HETATM    2  C2  UNL     1     -40.579   4.599  -0.941  1.00 20.00     0.012 C 
HETATM    3  C3  UNL     1     -42.385   5.661   0.414  1.00 20.00     0.012 C 
HETATM    4  C4  UNL     1     -40.957   5.848  -0.125  1.00 20.00    -0.013 C 
HETATM    5  C5  UNL     1     -42.228   6.055  -1.981  1.00 20.00    -0.001 C 
HETATM    6  C6  UNL     1     -41.659   4.598  -2.040  1.00 20.00     0.019 C 
HETATM    7  C7  UNL     1     -43.198   5.505  -0.885  1.00 20.00     0.019 C 
HETATM    8  C8  UNL     1     -43.078   4.132  -1.606  1.00 20.00     0.127 C 
ENDROOT
BRANCH   8   9
HETATM    9  O9  UNL     1     -43.149   2.954  -0.784  1.00 20.00    -0.395 OA
HETATM   10  H21 UNL     1     -43.797   3.152  -0.096  1.00 20.00     0.210 HD
ENDBRANCH   8   9
TORSDOF 1
ENDMDL
MODEL 7
REMARK VINA RESULT:      -4.2      1.534      2.152
REMARK  1 active torsions:
REMARK  status: ('A' for Active; 'I' for Inactive)
REMARK    1  A    between atoms: C8_8  and  O9_9 
ROOT
HETATM    1  C1  UNL     1     -34.798  16.049  -1.878  1.00 20.00     0.010 C 
HETATM    2  C2  UNL     1     -34.357  14.332  -3.452  1.00 20.00     0.012 C 
HETATM    3  C3  UNL     1     -35.696  16.351  -4.051  1.00 20.00     0.012 C 
HETATM    4  C4  UNL     1     -35.493  15.260  -2.986  1.00 20.00    -0.013 C 
HETATM    5  C5  UNL     1     -33.655  16.550  -2.743  1.00 20.00    -0.001 C 
HETATM    6  C6  UNL     1     -33.173  15.311  -3.568  1.00 20.00     0.019 C 
HETATM    7  C7  UNL     1     -34.315  17.031  -4.077  1.00 20.00     0.019 C 
HETATM    8  C8  UNL     1     -33.182  16.253  -4.805  1.00 20.00     0.127 C 
ENDROOT
BRANCH   8   9
HETATM    9  O9  UNL     1     -33.509  15.656  -6.071  1.00 20.00    -0.395 OA
HETATM   10  H21 UNL     1     -33.047  16.182  -6.737  1.00 20.00     0.210 HD
ENDBRANCH   8   9
TORSDOF 1
ENDMDL
MODEL 8
REMARK VINA RESULT:      -4.1     11.088     12.355
REMARK  1 active torsions:
REMARK  status: ('A' for Active; 'I' for Inactive)
REMARK    1  A    between atoms: C8_8  and  O9_9 
ROOT
HETATM    1  C1  UNL     1     -43.136   7.383  -0.768  1.00 20.00     0.010 C 
HETATM    2  C2  UNL     1     -42.268   6.016  -2.500  1.00 20.00     0.012 C 
HETATM    3  C3  UNL     1     -40.791   7.036  -0.766  1.00 20.00     0.012 C 
HETATM    4  C4  UNL     1     -41.954   7.313  -1.734  1.00 20.00    -0.013 C 
HETATM    5  C5  UNL     1     -42.911   6.012  -0.154  1.00 20.00    -0.001 C 
HETATM    6  C6  UNL     1     -42.632   5.050  -1.356  1.00 20.00     0.019 C 
HETATM    7  C7  UNL     1     -41.374   5.920   0.121  1.00 20.00     0.019 C 
HETATM    8  C8  UNL     1     -41.443   4.503  -0.517  1.00 20.00     0.127 C 
ENDROOT
BRANCH   8   9
HETATM    9  O9  UNL     1     -40.287   4.058  -1.246  1.00 20.00    -0.395 OA
HETATM   10  H21 UNL     1     -39.833   3.433  -0.664  1.00 20.00     0.210 HD
ENDBRANCH   8   9
TORSDOF 1
ENDMDL
MODEL 9
REMARK VINA RESULT:      -4.1     11.542     12.848
REMARK  1 active torsions:
REMARK  status: ('A' for Active; 'I' for Inactive)
REMARK    1  A    between atoms: C8_8  and  O9_9 
ROOT
HETATM    1  C1  UNL     1     -41.179   7.247  -1.133  1.00 20.00     0.010 C 
HETATM    2  C2  UNL     1     -43.278   6.361  -0.477  1.00 20.00     0.012 C 
HETATM    3  C3  UNL     1     -41.847   5.227  -2.178  1.00 20.00     0.012 C 
HETATM    4  C4  UNL     1     -42.417   6.584  -1.733  1.00 20.00    -0.013 C 
HETATM    5  C5  UNL     1     -40.879   6.137  -0.141  1.00 20.00    -0.001 C 
HETATM    6  C6  UNL     1     -42.254   5.767   0.509  1.00 20.00     0.019 C 
HETATM    7  C7  UNL     1     -41.034   4.802  -0.941  1.00 20.00     0.019 C 
HETATM    8  C8  UNL     1     -41.856   4.283   0.273  1.00 20.00     0.127 C 
ENDROOT
BRANCH   8   9
HETATM    9  O9  UNL     1     -42.924   3.363  -0.007  1.00 20.00    -0.395 OA
HETATM   10  H21 UNL     1     -43.186   3.533  -0.922  1.00 20.00     0.210 HD
ENDBRANCH   8   9
TORSDOF 1
ENDMDL
