MODEL 1
REMARK VINA RESULT:      -4.8      0.000      0.000
REMARK  0 active torsions:
REMARK  status: ('A' for Active; 'I' for Inactive)
ROOT
HETATM    1  C1  UNL     1     -34.762  16.109  -2.006  1.00 20.00    -0.024 C 
HETATM    2  C2  UNL     1     -33.607  16.161  -2.684  1.00 20.00    -0.024 C 
HETATM    3  C3  UNL     1     -35.161  14.007  -4.171  1.00 20.00     0.164 C 
HETATM    4  C4  UNL     1     -35.264  16.918  -4.125  1.00 20.00     0.021 C 
HETATM    5  C5  UNL     1     -35.919  16.152  -2.972  1.00 20.00     0.034 C 
HETATM    6  C6  UNL     1     -33.890  16.243  -4.162  1.00 20.00     0.034 C 
HETATM    7  C7  UNL     1     -36.283  14.726  -3.409  1.00 20.00     0.161 C 
HETATM    8  C8  UNL     1     -34.001  14.828  -4.748  1.00 20.00     0.161 C 
HETATM    9  O9  UNL     1     -35.225  12.792  -4.372  1.00 20.00    -0.295 OA
HETATM   10 CL10 UNL     1     -37.705  14.731  -4.486  1.00 20.00    -0.116 Cl
HETATM   11 CL11 UNL     1     -34.248  14.885  -6.514  1.00 20.00    -0.116 Cl
ENDROOT
TORSDOF 0
ENDMDL
MODEL 2
REMARK VINA RESULT:      -4.8      2.533      3.371
REMARK  0 active torsions:
REMARK  status: ('A' for Active; 'I' for Inactive)
ROOT
HETATM    1  C1  UNL     1     -34.967  13.699  -5.602  1.00 20.00    -0.024 C 
HETATM    2  C2  UNL     1     -34.179  13.353  -4.574  1.00 20.00    -0.024 C 
HETATM    3  C3  UNL     1     -33.797  16.369  -4.726  1.00 20.00     0.164 C 
HETATM    4  C4  UNL     1     -35.902  14.640  -3.695  1.00 20.00     0.021 C 
HETATM    5  C5  UNL     1     -35.830  14.870  -5.207  1.00 20.00     0.034 C 
HETATM    6  C6  UNL     1     -34.448  14.263  -3.402  1.00 20.00     0.034 C 
HETATM    7  C7  UNL     1     -35.098  16.183  -5.519  1.00 20.00     0.161 C 
HETATM    8  C8  UNL     1     -33.542  15.500  -3.488  1.00 20.00     0.161 C 
HETATM    9  O9  UNL     1     -32.995  17.251  -5.045  1.00 20.00    -0.295 OA
HETATM   10 CL10 UNL     1     -36.125  17.593  -5.146  1.00 20.00    -0.116 Cl
HETATM   11 CL11 UNL     1     -33.768  16.558  -2.070  1.00 20.00    -0.116 Cl
ENDROOT
TORSDOF 0
ENDMDL
MODEL 3
REMARK VINA RESULT:      -4.7      2.052      2.594
REMARK  0 active torsions:
REMARK  status: ('A' for Active; 'I' for Inactive)
ROOT
HETATM    1  C1  UNL     1     -34.076  13.366  -3.833  1.00 20.00    -0.024 C 
HETATM    2  C2  UNL     1     -32.961  14.068  -3.586  1.00 20.00    -0.024 C 
HETATM    3  C3  UNL     1     -34.259  15.646  -5.842  1.00 20.00     0.164 C 
HETATM    4  C4  UNL     1     -34.751  15.418  -2.980  1.00 20.00     0.021 C 
HETATM    5  C5  UNL     1     -35.259  14.299  -3.893  1.00 20.00     0.034 C 
HETATM    6  C6  UNL     1     -33.302  15.531  -3.458  1.00 20.00     0.034 C 
HETATM    7  C7  UNL     1     -35.441  14.813  -5.328  1.00 20.00     0.161 C 
HETATM    8  C8  UNL     1     -33.239  16.200  -4.839  1.00 20.00     0.161 C 
HETATM    9  O9  UNL     1     -34.165  15.919  -7.042  1.00 20.00    -0.295 OA
HETATM   10 CL10 UNL     1     -36.886  15.852  -5.456  1.00 20.00    -0.116 Cl
HETATM   11 CL11 UNL     1     -33.551  17.952  -4.715  1.00 20.00    -0.116 Cl
ENDROOT
TORSDOF 0
ENDMDL
MODEL 4
REMARK VINA RESULT:      -4.7      1.580      2.395
REMARK  0 active torsions:
REMARK  status: ('A' for Active; 'I' for Inactive)
ROOT
HETATM    1  C1  UNL     1     -36.922  15.928  -4.128  1.00 20.00    -0.024 C 
HETATM    2  C2  UNL     1     -36.299  15.797  -2.948  1.00 20.00    -0.024 C 
HETATM    3  C3  UNL     1     -34.864  13.757  -4.694  1.00 20.00     0.164 C 
HETATM    4  C4  UNL     1     -34.738  16.656  -4.438  1.00 20.00     0.021 C 
HETATM    5  C5  UNL     1     -35.899  16.049  -5.230  1.00 20.00     0.034 C 
HETATM    6  C6  UNL     1     -34.806  15.819  -3.159  1.00 20.00     0.034 C 
HETATM    7  C7  UNL     1     -35.528  14.653  -5.749  1.00 20.00     0.161 C 
HETATM    8  C8  UNL     1     -34.298  14.393  -3.418  1.00 20.00     0.161 C 
HETATM    9  O9  UNL     1     -34.731  12.548  -4.899  1.00 20.00    -0.295 OA
HETATM   10 CL10 UNL     1     -34.385  14.761  -7.114  1.00 20.00    -0.116 Cl
HETATM   11 CL11 UNL     1     -32.522  14.369  -3.584  1.00 20.00    -0.116 Cl
ENDROOT
TORSDOF 0
ENDMDL
MODEL 5
REMARK VINA RESULT:      -4.6      1.481      1.756
REMARK  0 active torsions:
REMARK  status: ('A' for Active; 'I' for Inactive)
ROOT
HETATM    1  C1  UNL     1     -35.084  17.240  -2.365  1.00 20.00    -0.024 C 
HETATM    2  C2  UNL     1     -34.298  16.240  -1.944  1.00 20.00    -0.024 C 
HETATM    3  C3  UNL     1     -36.240  14.826  -3.814  1.00 20.00     0.164 C 
HETATM    4  C4  UNL     1     -33.892  16.501  -4.216  1.00 20.00     0.021 C 
HETATM    5  C5  UNL     1     -35.216  17.184  -3.866  1.00 20.00     0.034 C 
HETATM    6  C6  UNL     1     -33.836  15.427  -3.127  1.00 20.00     0.034 C 
HETATM    7  C7  UNL     1     -36.403  16.289  -4.249  1.00 20.00     0.161 C 
HETATM    8  C8  UNL     1     -34.851  14.312  -3.418  1.00 20.00     0.161 C 
HETATM    9  O9  UNL     1     -37.205  14.057  -3.845  1.00 20.00    -0.295 OA
HETATM   10 CL10 UNL     1     -36.644  16.269  -6.017  1.00 20.00    -0.116 Cl
HETATM   11 CL11 UNL     1     -34.293  13.274  -4.757  1.00 20.00    -0.116 Cl
ENDROOT
TORSDOF 0
ENDMDL
MODEL 6
REMARK VINA RESULT:      -4.6      2.487      3.197
REMARK  0 active torsions:
REMARK  status: ('A' for Active; 'I' for Inactive)
ROOT
HETATM    1  C1  UNL     1     -35.161  13.629  -4.474  1.00 20.00    -0.024 C 
HETATM    2  C2  UNL     1     -34.781  14.213  -5.619  1.00 20.00    -0.024 C 
HETATM    3  C3  UNL     1     -35.587  16.587  -3.891  1.00 20.00     0.164 C 
HETATM    4  C4  UNL     1     -33.247  14.856  -3.998  1.00 20.00     0.021 C 
HETATM    5  C5  UNL     1     -34.507  14.327  -3.308  1.00 20.00     0.034 C 
HETATM    6  C6  UNL     1     -33.840  15.353  -5.319  1.00 20.00     0.034 C 
HETATM    7  C7  UNL     1     -35.392  15.489  -2.836  1.00 20.00     0.161 C 
HETATM    8  C8  UNL     1     -34.643  16.643  -5.099  1.00 20.00     0.161 C 
HETATM    9  O9  UNL     1     -36.454  17.451  -3.737  1.00 20.00    -0.295 OA
HETATM   10 CL10 UNL     1     -34.692  16.285  -1.401  1.00 20.00    -0.116 Cl
HETATM   11 CL11 UNL     1     -33.557  18.032  -4.828  1.00 20.00    -0.116 Cl
ENDROOT
TORSDOF 0
ENDMDL
MODEL 7
REMARK VINA RESULT:      -4.5      1.841      2.851
REMARK  0 active torsions:
REMARK  status: ('A' for Active; 'I' for Inactive)
ROOT
HETATM    1  C1  UNL     1     -33.377  16.710  -5.590  1.00 20.00    -0.024 C 
HETATM    2  C2  UNL     1     -34.299  16.142  -6.380  1.00 20.00    -0.024 C 
HETATM    3  C3  UNL     1     -34.510  14.508  -3.820  1.00 20.00     0.164 C 
HETATM    4  C4  UNL     1     -35.445  17.146  -4.626  1.00 20.00     0.021 C 
HETATM    5  C5  UNL     1     -33.974  16.988  -4.234  1.00 20.00     0.034 C 
HETATM    6  C6  UNL     1     -35.593  15.991  -5.620  1.00 20.00     0.034 C 
HETATM    7  C7  UNL     1     -33.786  15.767  -3.324  1.00 20.00     0.161 C 
HETATM    8  C8  UNL     1     -35.607  14.644  -4.883  1.00 20.00     0.161 C 
HETATM    9  O9  UNL     1     -34.257  13.407  -3.323  1.00 20.00    -0.295 OA
HETATM   10 CL10 UNL     1     -34.402  16.092  -1.681  1.00 20.00    -0.116 Cl
HETATM   11 CL11 UNL     1     -37.161  14.392  -4.044  1.00 20.00    -0.116 Cl
ENDROOT
TORSDOF 0
ENDMDL
MODEL 8
REMARK VINA RESULT:      -4.4      2.041      3.170
REMARK  0 active torsions:
REMARK  status: ('A' for Active; 'I' for Inactive)
ROOT
HETATM    1  C1  UNL     1     -33.664  13.721  -3.934  1.00 20.00    -0.024 C 
HETATM    2  C2  UNL     1     -34.041  14.649  -3.044  1.00 20.00    -0.024 C 
HETATM    3  C3  UNL     1     -34.494  16.053  -5.706  1.00 20.00     0.164 C 
HETATM    4  C4  UNL     1     -35.951  14.024  -4.208  1.00 20.00     0.021 C 
HETATM    5  C5  UNL     1     -34.718  13.589  -5.005  1.00 20.00     0.034 C 
HETATM    6  C6  UNL     1     -35.379  15.219  -3.441  1.00 20.00     0.034 C 
HETATM    7  C7  UNL     1     -34.431  14.582  -6.140  1.00 20.00     0.161 C 
HETATM    8  C8  UNL     1     -35.175  16.416  -4.381  1.00 20.00     0.161 C 
HETATM    9  O9  UNL     1     -34.058  16.939  -6.446  1.00 20.00    -0.295 OA
HETATM   10 CL10 UNL     1     -35.608  14.394  -7.467  1.00 20.00    -0.116 Cl
HETATM   11 CL11 UNL     1     -36.735  17.171  -4.802  1.00 20.00    -0.116 Cl
ENDROOT
TORSDOF 0
ENDMDL
MODEL 9
REMARK VINA RESULT:      -4.4      2.414      3.588
REMARK  0 active torsions:
REMARK  status: ('A' for Active; 'I' for Inactive)
ROOT
HETATM    1  C1  UNL     1     -35.428  14.455  -7.332  1.00 20.00    -0.024 C 
HETATM    2  C2  UNL     1     -36.127  15.598  -7.365  1.00 20.00    -0.024 C 
HETATM    3  C3  UNL     1     -36.537  14.643  -4.503  1.00 20.00     0.164 C 
HETATM    4  C4  UNL     1     -34.346  15.943  -5.915  1.00 20.00     0.021 C 
HETATM    5  C5  UNL     1     -34.542  14.437  -6.112  1.00 20.00     0.034 C 
HETATM    6  C6  UNL     1     -35.769  16.445  -6.169  1.00 20.00     0.034 C 
HETATM    7  C7  UNL     1     -35.304  13.832  -4.926  1.00 20.00     0.161 C 
HETATM    8  C8  UNL     1     -36.686  16.090  -4.990  1.00 20.00     0.161 C 
HETATM    9  O9  UNL     1     -37.367  14.157  -3.730  1.00 20.00    -0.295 OA
HETATM   10 CL10 UNL     1     -34.257  13.714  -3.486  1.00 20.00    -0.116 Cl
HETATM   11 CL11 UNL     1     -36.349  17.135  -3.583  1.00 20.00    -0.116 Cl
ENDROOT
TORSDOF 0
ENDMDL
