MODEL 1
REMARK VINA RESULT:      -5.6      0.000      0.000
REMARK  1 active torsions:
REMARK  status: ('A' for Active; 'I' for Inactive)
REMARK    1  A    between atoms: C3_3  and  C6_6 
ROOT
HETATM    1  C1  UNL     1     -33.429   6.503   5.356  1.00 20.00     0.272 C 
HETATM    2  C2  UNL     1     -33.447   5.800   3.121  1.00 20.00     0.055 C 
HETATM    3  C3  UNL     1     -33.748   5.290   4.517  1.00 20.00     0.195 C 
HETATM    4  C4  UNL     1     -32.300   6.753   3.378  1.00 20.00     0.129 C 
HETATM    5  C5  UNL     1     -32.175   7.838   2.326  1.00 20.00     0.040 C 
HETATM    6  O7  UNL     1     -33.811   6.710   6.496  1.00 20.00    -0.265 OA
HETATM    7  O8  UNL     1     -32.607   7.342   4.650  1.00 20.00    -0.316 OA
ENDROOT
BRANCH   3   8
HETATM    8  C6  UNL     1     -35.183   4.826   4.676  1.00 20.00     0.400 C 
HETATM    9  F9  UNL     1     -35.605   5.024   5.938  1.00 20.00    -0.170 F 
HETATM   10  F10 UNL     1     -35.992   5.507   3.845  1.00 20.00    -0.170 F 
HETATM   11  F11 UNL     1     -35.288   3.515   4.393  1.00 20.00    -0.170 F 
ENDBRANCH   3   8
TORSDOF 1
ENDMDL
MODEL 2
REMARK VINA RESULT:      -5.3     11.938     12.688
REMARK  1 active torsions:
REMARK  status: ('A' for Active; 'I' for Inactive)
REMARK    1  A    between atoms: C3_3  and  C6_6 
ROOT
HETATM    1  C1  UNL     1     -33.575  16.278  -4.066  1.00 20.00     0.272 C 
HETATM    2  C2  UNL     1     -34.987  15.313  -2.465  1.00 20.00     0.055 C 
HETATM    3  C3  UNL     1     -34.680  15.258  -3.949  1.00 20.00     0.195 C 
HETATM    4  C4  UNL     1     -34.725  16.769  -2.146  1.00 20.00     0.129 C 
HETATM    5  C5  UNL     1     -34.365  17.009  -0.693  1.00 20.00     0.040 C 
HETATM    6  O7  UNL     1     -32.775  16.372  -4.983  1.00 20.00    -0.265 OA
HETATM    7  O8  UNL     1     -33.617  17.122  -2.987  1.00 20.00    -0.316 OA
ENDROOT
BRANCH   3   8
HETATM    8  C6  UNL     1     -34.257  13.877  -4.411  1.00 20.00     0.400 C 
HETATM    9  F9  UNL     1     -34.204  13.825  -5.754  1.00 20.00    -0.170 F 
HETATM   10  F10 UNL     1     -33.041  13.570  -3.924  1.00 20.00    -0.170 F 
HETATM   11  F11 UNL     1     -35.133  12.950  -3.983  1.00 20.00    -0.170 F 
ENDBRANCH   3   8
TORSDOF 1
ENDMDL
MODEL 3
REMARK VINA RESULT:      -5.1     11.812     12.676
REMARK  1 active torsions:
REMARK  status: ('A' for Active; 'I' for Inactive)
REMARK    1  A    between atoms: C3_3  and  C6_6 
ROOT
HETATM    1  C1  UNL     1     -35.362  13.550  -4.216  1.00 20.00     0.272 C 
HETATM    2  C2  UNL     1     -35.716  15.679  -3.306  1.00 20.00     0.055 C 
HETATM    3  C3  UNL     1     -34.724  14.532  -3.266  1.00 20.00     0.195 C 
HETATM    4  C4  UNL     1     -37.028  14.949  -3.500  1.00 20.00     0.129 C 
HETATM    5  C5  UNL     1     -38.095  15.800  -4.162  1.00 20.00     0.040 C 
HETATM    6  O7  UNL     1     -34.802  12.618  -4.770  1.00 20.00    -0.265 OA
HETATM    7  O8  UNL     1     -36.694  13.840  -4.347  1.00 20.00    -0.316 OA
ENDROOT
BRANCH   3   8
HETATM    8  C6  UNL     1     -33.330  14.947  -3.695  1.00 20.00     0.400 C 
HETATM    9  F9  UNL     1     -32.477  13.912  -3.586  1.00 20.00    -0.170 F 
HETATM   10  F10 UNL     1     -33.336  15.361  -4.975  1.00 20.00    -0.170 F 
HETATM   11  F11 UNL     1     -32.880  15.953  -2.924  1.00 20.00    -0.170 F 
ENDBRANCH   3   8
TORSDOF 1
ENDMDL
MODEL 4
REMARK VINA RESULT:      -5.1     11.750     12.604
REMARK  1 active torsions:
REMARK  status: ('A' for Active; 'I' for Inactive)
REMARK    1  A    between atoms: C3_3  and  C6_6 
ROOT
HETATM    1  C1  UNL     1     -35.396  13.501  -4.271  1.00 20.00     0.272 C 
HETATM    2  C2  UNL     1     -35.659  15.586  -3.235  1.00 20.00     0.055 C 
HETATM    3  C3  UNL     1     -34.718  14.397  -3.264  1.00 20.00     0.195 C 
HETATM    4  C4  UNL     1     -37.001  14.927  -3.471  1.00 20.00     0.129 C 
HETATM    5  C5  UNL     1     -38.028  15.862  -4.080  1.00 20.00     0.040 C 
HETATM    6  O7  UNL     1     -34.877  12.581  -4.880  1.00 20.00    -0.265 OA
HETATM    7  O8  UNL     1     -36.715  13.857  -4.383  1.00 20.00    -0.316 OA
ENDROOT
BRANCH   3   8
HETATM    8  C6  UNL     1     -33.306  14.775  -3.670  1.00 20.00     0.400 C 
HETATM    9  F9  UNL     1     -32.814  15.713  -2.840  1.00 20.00    -0.170 F 
HETATM   10  F10 UNL     1     -32.500  13.700  -3.625  1.00 20.00    -0.170 F 
HETATM   11  F11 UNL     1     -33.293  15.265  -4.922  1.00 20.00    -0.170 F 
ENDBRANCH   3   8
TORSDOF 1
ENDMDL
MODEL 5
REMARK VINA RESULT:      -5.0      2.540      3.713
REMARK  1 active torsions:
REMARK  status: ('A' for Active; 'I' for Inactive)
REMARK    1  A    between atoms: C3_3  and  C6_6 
ROOT
HETATM    1  C1  UNL     1     -33.536   6.709   5.603  1.00 20.00     0.272 C 
HETATM    2  C2  UNL     1     -34.219   5.357   3.816  1.00 20.00     0.055 C 
HETATM    3  C3  UNL     1     -33.636   6.729   4.098  1.00 20.00     0.195 C 
HETATM    4  C4  UNL     1     -35.102   5.139   5.027  1.00 20.00     0.129 C 
HETATM    5  C5  UNL     1     -35.341   3.674   5.339  1.00 20.00     0.040 C 
HETATM    6  O7  UNL     1     -32.838   7.439   6.288  1.00 20.00    -0.265 OA
HETATM    7  O8  UNL     1     -34.383   5.755   6.105  1.00 20.00    -0.316 OA
ENDROOT
BRANCH   3   8
HETATM    8  C6  UNL     1     -32.296   6.946   3.423  1.00 20.00     0.400 C 
HETATM    9  F9  UNL     1     -32.465   7.504   2.210  1.00 20.00    -0.170 F 
HETATM   10  F10 UNL     1     -31.523   7.761   4.163  1.00 20.00    -0.170 F 
HETATM   11  F11 UNL     1     -31.652   5.775   3.266  1.00 20.00    -0.170 F 
ENDBRANCH   3   8
TORSDOF 1
ENDMDL
MODEL 6
REMARK VINA RESULT:      -4.9     12.424     13.250
REMARK  1 active torsions:
REMARK  status: ('A' for Active; 'I' for Inactive)
REMARK    1  A    between atoms: C3_3  and  C6_6 
ROOT
HETATM    1  C1  UNL     1     -34.611  13.724  -4.411  1.00 20.00     0.272 C 
HETATM    2  C2  UNL     1     -34.494  16.063  -4.473  1.00 20.00     0.055 C 
HETATM    3  C3  UNL     1     -34.415  14.856  -5.388  1.00 20.00     0.195 C 
HETATM    4  C4  UNL     1     -33.886  15.525  -3.195  1.00 20.00     0.129 C 
HETATM    5  C5  UNL     1     -34.352  16.259  -1.953  1.00 20.00     0.040 C 
HETATM    6  O7  UNL     1     -34.950  12.585  -4.688  1.00 20.00    -0.265 OA
HETATM    7  O8  UNL     1     -34.320  14.158  -3.145  1.00 20.00    -0.316 OA
ENDROOT
BRANCH   3   8
HETATM    8  C6  UNL     1     -35.466  14.880  -6.481  1.00 20.00     0.400 C 
HETATM    9  F9  UNL     1     -36.698  14.761  -5.952  1.00 20.00    -0.170 F 
HETATM   10  F10 UNL     1     -35.406  16.035  -7.167  1.00 20.00    -0.170 F 
HETATM   11  F11 UNL     1     -35.273  13.864  -7.341  1.00 20.00    -0.170 F 
ENDBRANCH   3   8
TORSDOF 1
ENDMDL
MODEL 7
REMARK VINA RESULT:      -4.9     11.842     13.108
REMARK  1 active torsions:
REMARK  status: ('A' for Active; 'I' for Inactive)
REMARK    1  A    between atoms: C3_3  and  C6_6 
ROOT
HETATM    1  C1  UNL     1     -34.619  13.833  -4.357  1.00 20.00     0.272 C 
HETATM    2  C2  UNL     1     -34.664  15.880  -5.495  1.00 20.00     0.055 C 
HETATM    3  C3  UNL     1     -34.739  15.313  -4.090  1.00 20.00     0.195 C 
HETATM    4  C4  UNL     1     -35.343  14.797  -6.305  1.00 20.00     0.129 C 
HETATM    5  C5  UNL     1     -34.908  14.774  -7.758  1.00 20.00     0.040 C 
HETATM    6  O7  UNL     1     -34.303  12.979  -3.545  1.00 20.00    -0.265 OA
HETATM    7  O8  UNL     1     -34.952  13.576  -5.662  1.00 20.00    -0.316 OA
ENDROOT
BRANCH   3   8
HETATM    8  C6  UNL     1     -33.642  15.839  -3.186  1.00 20.00     0.400 C 
HETATM    9  F9  UNL     1     -34.012  15.748  -1.895  1.00 20.00    -0.170 F 
HETATM   10  F10 UNL     1     -32.512  15.130  -3.356  1.00 20.00    -0.170 F 
HETATM   11  F11 UNL     1     -33.381  17.129  -3.464  1.00 20.00    -0.170 F 
ENDBRANCH   3   8
TORSDOF 1
ENDMDL
MODEL 8
REMARK VINA RESULT:      -4.8     12.157     13.085
REMARK  1 active torsions:
REMARK  status: ('A' for Active; 'I' for Inactive)
REMARK    1  A    between atoms: C3_3  and  C6_6 
ROOT
HETATM    1  C1  UNL     1     -33.566  16.546  -4.258  1.00 20.00     0.272 C 
HETATM    2  C2  UNL     1     -34.401  14.649  -3.168  1.00 20.00     0.055 C 
HETATM    3  C3  UNL     1     -33.596  15.905  -2.893  1.00 20.00     0.195 C 
HETATM    4  C4  UNL     1     -33.991  14.320  -4.587  1.00 20.00     0.129 C 
HETATM    5  C5  UNL     1     -35.030  13.509  -5.338  1.00 20.00     0.040 C 
HETATM    6  O7  UNL     1     -33.323  17.718  -4.497  1.00 20.00    -0.265 OA
HETATM    7  O8  UNL     1     -33.826  15.599  -5.214  1.00 20.00    -0.316 OA
ENDROOT
BRANCH   3   8
HETATM    8  C6  UNL     1     -34.232  16.791  -1.840  1.00 20.00     0.400 C 
HETATM    9  F9  UNL     1     -33.338  17.682  -1.373  1.00 20.00    -0.170 F 
HETATM   10  F10 UNL     1     -35.274  17.465  -2.359  1.00 20.00    -0.170 F 
HETATM   11  F11 UNL     1     -34.675  16.051  -0.808  1.00 20.00    -0.170 F 
ENDBRANCH   3   8
TORSDOF 1
ENDMDL
MODEL 9
REMARK VINA RESULT:      -4.8      9.893     10.540
REMARK  1 active torsions:
REMARK  status: ('A' for Active; 'I' for Inactive)
REMARK    1  A    between atoms: C3_3  and  C6_6 
ROOT
HETATM    1  C1  UNL     1     -42.698   5.013  -2.425  1.00 20.00     0.272 C 
HETATM    2  C2  UNL     1     -41.865   7.135  -1.886  1.00 20.00     0.055 C 
HETATM    3  C3  UNL     1     -42.248   5.820  -1.233  1.00 20.00     0.195 C 
HETATM    4  C4  UNL     1     -42.858   7.218  -3.025  1.00 20.00     0.129 C 
HETATM    5  C5  UNL     1     -42.373   8.069  -4.182  1.00 20.00     0.040 C 
HETATM    6  O7  UNL     1     -42.795   3.797  -2.476  1.00 20.00    -0.265 OA
HETATM    7  O8  UNL     1     -43.019   5.858  -3.454  1.00 20.00    -0.316 OA
ENDROOT
BRANCH   3   8
HETATM    8  C6  UNL     1     -41.094   5.177  -0.488  1.00 20.00     0.400 C 
HETATM    9  F9  UNL     1     -41.553   4.305   0.428  1.00 20.00    -0.170 F 
HETATM   10  F10 UNL     1     -40.293   4.515  -1.343  1.00 20.00    -0.170 F 
HETATM   11  F11 UNL     1     -40.362   6.112   0.143  1.00 20.00    -0.170 F 
ENDBRANCH   3   8
TORSDOF 1
ENDMDL
