MODEL 1
REMARK VINA RESULT:      -3.4      0.000      0.000
REMARK  1 active torsions:
REMARK  status: ('A' for Active; 'I' for Inactive)
REMARK    1  A    between atoms: C2_2  and  C4_4 
ROOT
HETATM    1  C1  UNL     1     -34.295   4.167   5.822  1.00 20.00     0.207 A 
HETATM    2  C2  UNL     1     -34.283   5.616   5.395  1.00 20.00     0.091 A 
HETATM    3  C3  UNL     1     -33.885   6.670   6.376  1.00 20.00     0.049 C 
HETATM    4  O5  UNL     1     -35.502   4.940   5.733  1.00 20.00    -0.374 OA
ENDROOT
BRANCH   2   5
HETATM    5  C4  UNL     1     -34.165   5.955   3.944  1.00 20.00     0.154 C 
HETATM    6 CL6  UNL     1     -32.482   6.356   3.513  1.00 20.00    -0.127 Cl
ENDBRANCH   2   5
TORSDOF 1
ENDMDL
MODEL 2
REMARK VINA RESULT:      -3.4      2.533      3.206
REMARK  1 active torsions:
REMARK  status: ('A' for Active; 'I' for Inactive)
REMARK    1  A    between atoms: C2_2  and  C4_4 
ROOT
HETATM    1  C1  UNL     1     -32.322   6.132   3.341  1.00 20.00     0.207 A 
HETATM    2  C2  UNL     1     -33.671   6.116   4.021  1.00 20.00     0.091 A 
HETATM    3  C3  UNL     1     -34.799   5.359   3.401  1.00 20.00     0.049 C 
HETATM    4  O5  UNL     1     -33.232   7.240   3.244  1.00 20.00    -0.374 OA
ENDROOT
BRANCH   2   5
HETATM    5  C4  UNL     1     -33.759   6.395   5.486  1.00 20.00     0.154 C 
HETATM    6 CL6  UNL     1     -34.769   5.179   6.312  1.00 20.00    -0.127 Cl
ENDBRANCH   2   5
TORSDOF 1
ENDMDL
MODEL 3
REMARK VINA RESULT:      -3.2      1.197      1.689
REMARK  1 active torsions:
REMARK  status: ('A' for Active; 'I' for Inactive)
REMARK    1  A    between atoms: C2_2  and  C4_4 
ROOT
HETATM    1  C1  UNL     1     -34.800   5.383   6.334  1.00 20.00     0.207 A 
HETATM    2  C2  UNL     1     -34.384   5.597   4.898  1.00 20.00     0.091 A 
HETATM    3  C3  UNL     1     -35.380   5.390   3.804  1.00 20.00     0.049 C 
HETATM    4  O5  UNL     1     -34.047   4.398   5.609  1.00 20.00    -0.374 OA
ENDROOT
BRANCH   2   5
HETATM    5  C4  UNL     1     -33.208   6.467   4.594  1.00 20.00     0.154 C 
HETATM    6 CL6  UNL     1     -32.474   6.032   3.028  1.00 20.00    -0.127 Cl
ENDBRANCH   2   5
TORSDOF 1
ENDMDL
MODEL 4
REMARK VINA RESULT:      -3.2     12.271     12.594
REMARK  1 active torsions:
REMARK  status: ('A' for Active; 'I' for Inactive)
REMARK    1  A    between atoms: C2_2  and  C4_4 
ROOT
HETATM    1  C1  UNL     1     -34.877  13.529  -5.443  1.00 20.00     0.207 A 
HETATM    2  C2  UNL     1     -34.525  14.020  -4.059  1.00 20.00     0.091 A 
HETATM    3  C3  UNL     1     -33.100  13.999  -3.611  1.00 20.00     0.049 C 
HETATM    4  O5  UNL     1     -35.081  12.715  -4.277  1.00 20.00    -0.374 OA
ENDROOT
BRANCH   2   5
HETATM    5  C4  UNL     1     -35.449  14.958  -3.353  1.00 20.00     0.154 C 
HETATM    6 CL6  UNL     1     -34.596  15.854  -2.068  1.00 20.00    -0.127 Cl
ENDBRANCH   2   5
TORSDOF 1
ENDMDL
MODEL 5
REMARK VINA RESULT:      -3.2      1.924      2.466
REMARK  1 active torsions:
REMARK  status: ('A' for Active; 'I' for Inactive)
REMARK    1  A    between atoms: C2_2  and  C4_4 
ROOT
HETATM    1  C1  UNL     1     -34.521   5.028   3.013  1.00 20.00     0.207 A 
HETATM    2  C2  UNL     1     -34.513   5.351   4.488  1.00 20.00     0.091 A 
HETATM    3  C3  UNL     1     -34.878   4.292   5.476  1.00 20.00     0.049 C 
HETATM    4  O5  UNL     1     -35.598   5.746   3.636  1.00 20.00    -0.374 OA
ENDROOT
BRANCH   2   5
HETATM    5  C4  UNL     1     -33.692   6.496   4.987  1.00 20.00     0.154 C 
HETATM    6 CL6  UNL     1     -33.983   6.789   6.722  1.00 20.00    -0.127 Cl
ENDBRANCH   2   5
TORSDOF 1
ENDMDL
MODEL 6
REMARK VINA RESULT:      -3.2      2.393      2.772
REMARK  1 active torsions:
REMARK  status: ('A' for Active; 'I' for Inactive)
REMARK    1  A    between atoms: C2_2  and  C4_4 
ROOT
HETATM    1  C1  UNL     1     -33.463   6.953   3.443  1.00 20.00     0.207 A 
HETATM    2  C2  UNL     1     -33.958   6.095   4.583  1.00 20.00     0.091 A 
HETATM    3  C3  UNL     1     -33.815   6.583   5.988  1.00 20.00     0.049 C 
HETATM    4  O5  UNL     1     -32.707   5.833   3.931  1.00 20.00    -0.374 OA
ENDROOT
BRANCH   2   5
HETATM    5  C4  UNL     1     -35.001   5.056   4.325  1.00 20.00     0.154 C 
HETATM    6 CL6  UNL     1     -35.038   3.844   5.633  1.00 20.00    -0.127 Cl
ENDBRANCH   2   5
TORSDOF 1
ENDMDL
MODEL 7
REMARK VINA RESULT:      -2.9     12.543     13.053
REMARK  1 active torsions:
REMARK  status: ('A' for Active; 'I' for Inactive)
REMARK    1  A    between atoms: C2_2  and  C4_4 
ROOT
HETATM    1  C1  UNL     1     -35.738  13.597  -4.180  1.00 20.00     0.207 A 
HETATM    2  C2  UNL     1     -34.415  14.077  -4.728  1.00 20.00     0.091 A 
HETATM    3  C3  UNL     1     -34.369  14.742  -6.064  1.00 20.00     0.049 C 
HETATM    4  O5  UNL     1     -34.797  12.695  -4.782  1.00 20.00    -0.374 OA
ENDROOT
BRANCH   2   5
HETATM    5  C4  UNL     1     -33.285  14.352  -3.789  1.00 20.00     0.154 C 
HETATM    6 CL6  UNL     1     -33.495  15.925  -2.975  1.00 20.00    -0.127 Cl
ENDBRANCH   2   5
TORSDOF 1
ENDMDL
MODEL 8
REMARK VINA RESULT:      -2.9      1.485      2.103
REMARK  1 active torsions:
REMARK  status: ('A' for Active; 'I' for Inactive)
REMARK    1  A    between atoms: C2_2  and  C4_4 
ROOT
HETATM    1  C1  UNL     1     -34.229   6.456   6.049  1.00 20.00     0.207 A 
HETATM    2  C2  UNL     1     -34.645   5.270   5.212  1.00 20.00     0.091 A 
HETATM    3  C3  UNL     1     -34.828   3.937   5.862  1.00 20.00     0.049 C 
HETATM    4  O5  UNL     1     -33.290   5.742   5.230  1.00 20.00    -0.374 OA
ENDROOT
BRANCH   2   5
HETATM    5  C4  UNL     1     -35.343   5.495   3.910  1.00 20.00     0.154 C 
HETATM    6 CL6  UNL     1     -34.210   5.351   2.540  1.00 20.00    -0.127 Cl
ENDBRANCH   2   5
TORSDOF 1
ENDMDL
MODEL 9
REMARK VINA RESULT:      -2.9     12.687     13.330
REMARK  1 active torsions:
REMARK  status: ('A' for Active; 'I' for Inactive)
REMARK    1  A    between atoms: C2_2  and  C4_4 
ROOT
HETATM    1  C1  UNL     1     -34.006  13.588  -3.939  1.00 20.00     0.207 A 
HETATM    2  C2  UNL     1     -35.209  13.989  -4.761  1.00 20.00     0.091 A 
HETATM    3  C3  UNL     1     -36.375  14.638  -4.092  1.00 20.00     0.049 C 
HETATM    4  O5  UNL     1     -34.992  12.630  -4.356  1.00 20.00    -0.374 OA
ENDROOT
BRANCH   2   5
HETATM    5  C4  UNL     1     -35.055  14.210  -6.231  1.00 20.00     0.154 C 
HETATM    6 CL6  UNL     1     -34.383  15.827  -6.571  1.00 20.00    -0.127 Cl
ENDBRANCH   2   5
TORSDOF 1
ENDMDL
