MODEL 1
REMARK VINA RESULT:      -5.0      0.000      0.000
REMARK  0 active torsions:
REMARK  status: ('A' for Active; 'I' for Inactive)
ROOT
HETATM    1  C1  UNL     1     -36.568  16.876  -3.766  1.00 20.00     0.009 A 
HETATM    2  C2  UNL     1     -36.162  17.380  -2.530  1.00 20.00     0.019 A 
HETATM    3  C3  UNL     1     -34.543  15.599  -2.332  1.00 20.00     0.034 A 
HETATM    4  C4  UNL     1     -34.951  15.091  -3.571  1.00 20.00     0.017 A 
HETATM    5  C5  UNL     1     -35.959  15.735  -4.305  1.00 20.00    -0.044 A 
HETATM    6  C6  UNL     1     -35.149  16.744  -1.816  1.00 20.00     0.011 A 
HETATM    7  C7  UNL     1     -34.313  13.858  -4.099  1.00 20.00     0.160 C 
HETATM    8  C8  UNL     1     -36.431  15.199  -5.631  1.00 20.00     0.040 C 
HETATM    9  C9  UNL     1     -34.795  13.316  -5.428  1.00 20.00     0.084 C 
HETATM   10  C10 UNL     1     -35.326  14.418  -6.330  1.00 20.00     0.012 C 
HETATM   11  O11 UNL     1     -33.458  13.269  -3.445  1.00 20.00    -0.292 OA
HETATM   12 BR12 UNL     1     -34.603  17.429  -0.140  1.00 20.00    -0.051 Br
ENDROOT
TORSDOF 0
ENDMDL
MODEL 2
REMARK VINA RESULT:      -4.9     11.745     12.918
REMARK  0 active torsions:
REMARK  status: ('A' for Active; 'I' for Inactive)
ROOT
HETATM    1  C1  UNL     1     -34.186   5.203   2.617  1.00 20.00     0.009 A 
HETATM    2  C2  UNL     1     -33.374   6.140   1.977  1.00 20.00     0.019 A 
HETATM    3  C3  UNL     1     -32.938   7.213   4.096  1.00 20.00     0.034 A 
HETATM    4  C4  UNL     1     -33.753   6.275   4.739  1.00 20.00     0.017 A 
HETATM    5  C5  UNL     1     -34.374   5.253   4.005  1.00 20.00    -0.044 A 
HETATM    6  C6  UNL     1     -32.749   7.141   2.716  1.00 20.00     0.011 A 
HETATM    7  C7  UNL     1     -33.965   6.376   6.206  1.00 20.00     0.160 C 
HETATM    8  C8  UNL     1     -35.273   4.242   4.668  1.00 20.00     0.040 C 
HETATM    9  C9  UNL     1     -34.875   5.365   6.869  1.00 20.00     0.084 C 
HETATM   10  C10 UNL     1     -34.884   4.039   6.127  1.00 20.00     0.012 C 
HETATM   11  O11 UNL     1     -33.456   7.290   6.848  1.00 20.00    -0.292 OA
HETATM   12 BR12 UNL     1     -31.651   8.411   1.845  1.00 20.00    -0.051 Br
ENDROOT
TORSDOF 0
ENDMDL
MODEL 3
REMARK VINA RESULT:      -4.9      5.306      6.750
REMARK  0 active torsions:
REMARK  status: ('A' for Active; 'I' for Inactive)
ROOT
HETATM    1  C1  UNL     1     -34.910  17.846   2.923  1.00 20.00     0.009 A 
HETATM    2  C2  UNL     1     -34.177  18.171   4.064  1.00 20.00     0.019 A 
HETATM    3  C3  UNL     1     -32.354  18.939   2.679  1.00 20.00     0.034 A 
HETATM    4  C4  UNL     1     -33.088  18.611   1.532  1.00 20.00     0.017 A 
HETATM    5  C5  UNL     1     -34.379  18.074   1.645  1.00 20.00    -0.044 A 
HETATM    6  C6  UNL     1     -32.902  18.720   3.942  1.00 20.00     0.011 A 
HETATM    7  C7  UNL     1     -32.484  18.829   0.192  1.00 20.00     0.160 C 
HETATM    8  C8  UNL     1     -35.182  17.694   0.430  1.00 20.00     0.040 C 
HETATM    9  C9  UNL     1     -33.290  18.438  -1.028  1.00 20.00     0.084 C 
HETATM   10  C10 UNL     1     -34.785  18.537  -0.774  1.00 20.00     0.012 C 
HETATM   11  O11 UNL     1     -31.341  19.263   0.087  1.00 20.00    -0.292 OA
HETATM   12 BR12 UNL     1     -31.911  19.157   5.491  1.00 20.00    -0.051 Br
ENDROOT
TORSDOF 0
ENDMDL
MODEL 4
REMARK VINA RESULT:      -4.9      1.364      1.368
REMARK  0 active torsions:
REMARK  status: ('A' for Active; 'I' for Inactive)
ROOT
HETATM    1  C1  UNL     1     -34.673  17.879  -4.585  1.00 20.00     0.009 A 
HETATM    2  C2  UNL     1     -34.305  18.294  -3.305  1.00 20.00     0.019 A 
HETATM    3  C3  UNL     1     -33.993  15.992  -2.645  1.00 20.00     0.034 A 
HETATM    4  C4  UNL     1     -34.364  15.574  -3.929  1.00 20.00     0.017 A 
HETATM    5  C5  UNL     1     -34.694  16.517  -4.914  1.00 20.00    -0.044 A 
HETATM    6  C6  UNL     1     -33.963  17.352  -2.338  1.00 20.00     0.011 A 
HETATM    7  C7  UNL     1     -34.414  14.122  -4.238  1.00 20.00     0.160 C 
HETATM    8  C8  UNL     1     -35.116  16.095  -6.297  1.00 20.00     0.040 C 
HETATM    9  C9  UNL     1     -34.846  13.700  -5.625  1.00 20.00     0.084 C 
HETATM   10  C10 UNL     1     -34.505  14.750  -6.669  1.00 20.00     0.012 C 
HETATM   11  O11 UNL     1     -34.163  13.291  -3.369  1.00 20.00    -0.292 OA
HETATM   12 BR12 UNL     1     -33.466  17.917  -0.603  1.00 20.00    -0.051 Br
ENDROOT
TORSDOF 0
ENDMDL
MODEL 5
REMARK VINA RESULT:      -4.9      1.859      2.558
REMARK  0 active torsions:
REMARK  status: ('A' for Active; 'I' for Inactive)
ROOT
HETATM    1  C1  UNL     1     -33.706  17.147  -2.573  1.00 20.00     0.009 A 
HETATM    2  C2  UNL     1     -34.681  17.997  -2.052  1.00 20.00     0.019 A 
HETATM    3  C3  UNL     1     -36.399  16.429  -2.699  1.00 20.00     0.034 A 
HETATM    4  C4  UNL     1     -35.422  15.575  -3.224  1.00 20.00     0.017 A 
HETATM    5  C5  UNL     1     -34.064  15.922  -3.153  1.00 20.00    -0.044 A 
HETATM    6  C6  UNL     1     -36.025  17.637  -2.112  1.00 20.00     0.011 A 
HETATM    7  C7  UNL     1     -35.836  14.301  -3.867  1.00 20.00     0.160 C 
HETATM    8  C8  UNL     1     -32.994  15.032  -3.728  1.00 20.00     0.040 C 
HETATM    9  C9  UNL     1     -34.759  13.412  -4.451  1.00 20.00     0.084 C 
HETATM   10  C10 UNL     1     -33.434  13.574  -3.724  1.00 20.00     0.012 C 
HETATM   11  O11 UNL     1     -37.024  14.010  -3.966  1.00 20.00    -0.292 OA
HETATM   12 BR12 UNL     1     -37.344  18.793  -1.406  1.00 20.00    -0.051 Br
ENDROOT
TORSDOF 0
ENDMDL
MODEL 6
REMARK VINA RESULT:      -4.8      3.242      4.825
REMARK  0 active torsions:
REMARK  status: ('A' for Active; 'I' for Inactive)
ROOT
HETATM    1  C1  UNL     1     -34.938  14.824  -3.289  1.00 20.00     0.009 A 
HETATM    2  C2  UNL     1     -34.924  14.507  -4.647  1.00 20.00     0.019 A 
HETATM    3  C3  UNL     1     -34.123  16.726  -5.161  1.00 20.00     0.034 A 
HETATM    4  C4  UNL     1     -34.139  17.047  -3.798  1.00 20.00     0.017 A 
HETATM    5  C5  UNL     1     -34.534  16.092  -2.849  1.00 20.00    -0.044 A 
HETATM    6  C6  UNL     1     -34.514  15.456  -5.581  1.00 20.00     0.011 A 
HETATM    7  C7  UNL     1     -33.742  18.412  -3.365  1.00 20.00     0.160 C 
HETATM    8  C8  UNL     1     -34.580  16.416  -1.379  1.00 20.00     0.040 C 
HETATM    9  C9  UNL     1     -33.797  18.738  -1.888  1.00 20.00     0.084 C 
HETATM   10  C10 UNL     1     -33.575  17.505  -1.028  1.00 20.00     0.012 C 
HETATM   11  O11 UNL     1     -33.432  19.263  -4.193  1.00 20.00    -0.292 OA
HETATM   12 BR12 UNL     1     -34.498  15.022  -7.422  1.00 20.00    -0.051 Br
ENDROOT
TORSDOF 0
ENDMDL
MODEL 7
REMARK VINA RESULT:      -4.7      2.359      2.891
REMARK  0 active torsions:
REMARK  status: ('A' for Active; 'I' for Inactive)
ROOT
HETATM    1  C1  UNL     1     -34.143  15.250  -2.919  1.00 20.00     0.009 A 
HETATM    2  C2  UNL     1     -33.915  16.448  -2.242  1.00 20.00     0.019 A 
HETATM    3  C3  UNL     1     -33.927  17.641  -4.341  1.00 20.00     0.034 A 
HETATM    4  C4  UNL     1     -34.154  16.439  -5.022  1.00 20.00     0.017 A 
HETATM    5  C5  UNL     1     -34.278  15.234  -4.314  1.00 20.00    -0.044 A 
HETATM    6  C6  UNL     1     -33.810  17.641  -2.952  1.00 20.00     0.011 A 
HETATM    7  C7  UNL     1     -34.254  16.448  -6.505  1.00 20.00     0.160 C 
HETATM    8  C8  UNL     1     -34.502  13.924  -5.023  1.00 20.00     0.040 C 
HETATM    9  C9  UNL     1     -34.471  15.130  -7.216  1.00 20.00     0.084 C 
HETATM   10  C10 UNL     1     -35.223  14.136  -6.347  1.00 20.00     0.012 C 
HETATM   11  O11 UNL     1     -34.108  17.493  -7.133  1.00 20.00    -0.292 OA
HETATM   12 BR12 UNL     1     -33.499  19.263  -2.030  1.00 20.00    -0.051 Br
ENDROOT
TORSDOF 0
ENDMDL
MODEL 8
REMARK VINA RESULT:      -4.7      2.000      2.736
REMARK  0 active torsions:
REMARK  status: ('A' for Active; 'I' for Inactive)
ROOT
HETATM    1  C1  UNL     1     -33.240  15.795  -4.619  1.00 20.00     0.009 A 
HETATM    2  C2  UNL     1     -33.330  16.138  -3.270  1.00 20.00     0.019 A 
HETATM    3  C3  UNL     1     -35.738  15.999  -3.393  1.00 20.00     0.034 A 
HETATM    4  C4  UNL     1     -35.649  15.656  -4.747  1.00 20.00     0.017 A 
HETATM    5  C5  UNL     1     -34.396  15.538  -5.369  1.00 20.00    -0.044 A 
HETATM    6  C6  UNL     1     -34.577  16.237  -2.658  1.00 20.00     0.011 A 
HETATM    7  C7  UNL     1     -36.894  15.426  -5.525  1.00 20.00     0.160 C 
HETATM    8  C8  UNL     1     -34.272  15.190  -6.828  1.00 20.00     0.040 C 
HETATM    9  C9  UNL     1     -36.767  15.085  -6.994  1.00 20.00     0.084 C 
HETATM   10  C10 UNL     1     -35.463  14.365  -7.298  1.00 20.00     0.012 C 
HETATM   11  O11 UNL     1     -37.993  15.565  -4.997  1.00 20.00    -0.292 OA
HETATM   12 BR12 UNL     1     -34.696  16.705  -0.829  1.00 20.00    -0.051 Br
ENDROOT
TORSDOF 0
ENDMDL
MODEL 9
REMARK VINA RESULT:      -4.5      2.415      2.950
REMARK  0 active torsions:
REMARK  status: ('A' for Active; 'I' for Inactive)
ROOT
HETATM    1  C1  UNL     1     -35.911  17.268  -3.755  1.00 20.00     0.009 A 
HETATM    2  C2  UNL     1     -37.299  17.151  -3.691  1.00 20.00     0.019 A 
HETATM    3  C3  UNL     1     -37.106  14.749  -3.860  1.00 20.00     0.034 A 
HETATM    4  C4  UNL     1     -35.713  14.867  -3.926  1.00 20.00     0.017 A 
HETATM    5  C5  UNL     1     -35.102  16.128  -3.860  1.00 20.00    -0.044 A 
HETATM    6  C6  UNL     1     -37.895  15.892  -3.741  1.00 20.00     0.011 A 
HETATM    7  C7  UNL     1     -34.884  13.642  -4.076  1.00 20.00     0.160 C 
HETATM    8  C8  UNL     1     -33.607  16.285  -3.948  1.00 20.00     0.040 C 
HETATM    9  C9  UNL     1     -33.382  13.803  -4.173  1.00 20.00     0.084 C 
HETATM   10  C10 UNL     1     -32.896  15.039  -3.436  1.00 20.00     0.012 C 
HETATM   11  O11 UNL     1     -35.413  12.539  -4.173  1.00 20.00    -0.292 OA
HETATM   12 BR12 UNL     1     -39.778  15.737  -3.657  1.00 20.00    -0.051 Br
ENDROOT
TORSDOF 0
ENDMDL
