MODEL 1
REMARK VINA RESULT:      -3.2      0.000      0.000
REMARK  0 active torsions:
REMARK  status: ('A' for Active; 'I' for Inactive)
ROOT
HETATM    1  C1  UNL     1     -34.766   4.788   4.835  1.00 20.00     0.086 C 
HETATM    2  C2  UNL     1     -34.274   6.156   4.695  1.00 20.00     0.235 C 
HETATM    3  N3  UNL     1     -35.162   3.703   4.945  1.00 20.00    -0.195 NA
HETATM    4 BR4  UNL     1     -32.836   6.230   3.383  1.00 20.00    -0.063 Br
HETATM    5 BR5  UNL     1     -33.713   6.858   6.422  1.00 20.00    -0.063 Br
ENDROOT
TORSDOF 0
ENDMDL
MODEL 2
REMARK VINA RESULT:      -3.1      2.435      2.874
REMARK  0 active torsions:
REMARK  status: ('A' for Active; 'I' for Inactive)
ROOT
HETATM    1  C1  UNL     1     -33.332   6.087   3.957  1.00 20.00     0.086 C 
HETATM    2  C2  UNL     1     -34.328   6.072   5.024  1.00 20.00     0.235 C 
HETATM    3  N3  UNL     1     -32.544   6.102   3.105  1.00 20.00    -0.195 NA
HETATM    4 BR4  UNL     1     -33.661   7.018   6.591  1.00 20.00    -0.063 Br
HETATM    5 BR5  UNL     1     -34.843   4.242   5.449  1.00 20.00    -0.063 Br
ENDROOT
TORSDOF 0
ENDMDL
MODEL 3
REMARK VINA RESULT:      -3.0      2.674      2.849
REMARK  0 active torsions:
REMARK  status: ('A' for Active; 'I' for Inactive)
ROOT
HETATM    1  C1  UNL     1     -32.869   6.532   3.722  1.00 20.00     0.086 C 
HETATM    2  C2  UNL     1     -33.700   5.738   4.623  1.00 20.00     0.235 C 
HETATM    3  N3  UNL     1     -32.205   7.158   3.005  1.00 20.00    -0.195 NA
HETATM    4 BR4  UNL     1     -35.437   5.387   3.813  1.00 20.00    -0.063 Br
HETATM    5 BR5  UNL     1     -33.873   6.626   6.348  1.00 20.00    -0.063 Br
ENDROOT
TORSDOF 0
ENDMDL
MODEL 4
REMARK VINA RESULT:      -3.0     12.276     12.863
REMARK  0 active torsions:
REMARK  status: ('A' for Active; 'I' for Inactive)
ROOT
HETATM    1  C1  UNL     1     -34.306  13.908  -3.892  1.00 20.00     0.086 C 
HETATM    2  C2  UNL     1     -33.655  15.154  -3.496  1.00 20.00     0.235 C 
HETATM    3  N3  UNL     1     -34.819  12.916  -4.205  1.00 20.00    -0.195 NA
HETATM    4 BR4  UNL     1     -34.682  16.044  -2.099  1.00 20.00    -0.063 Br
HETATM    5 BR5  UNL     1     -33.390  16.305  -5.044  1.00 20.00    -0.063 Br
ENDROOT
TORSDOF 0
ENDMDL
MODEL 5
REMARK VINA RESULT:      -2.9      2.566      3.170
REMARK  0 active torsions:
REMARK  status: ('A' for Active; 'I' for Inactive)
ROOT
HETATM    1  C1  UNL     1     -33.808   6.735   6.114  1.00 20.00     0.086 C 
HETATM    2  C2  UNL     1     -34.438   5.984   5.032  1.00 20.00     0.235 C 
HETATM    3  N3  UNL     1     -33.312   7.336   6.974  1.00 20.00    -0.195 NA
HETATM    4 BR4  UNL     1     -34.842   4.167   5.611  1.00 20.00    -0.063 Br
HETATM    5 BR5  UNL     1     -33.310   6.002   3.444  1.00 20.00    -0.063 Br
ENDROOT
TORSDOF 0
ENDMDL
MODEL 6
REMARK VINA RESULT:      -2.9     12.521     12.581
REMARK  0 active torsions:
REMARK  status: ('A' for Active; 'I' for Inactive)
ROOT
HETATM    1  C1  UNL     1     -36.488  14.724  -3.704  1.00 20.00     0.086 C 
HETATM    2  C2  UNL     1     -35.115  15.220  -3.663  1.00 20.00     0.235 C 
HETATM    3  N3  UNL     1     -37.580  14.333  -3.741  1.00 20.00    -0.195 NA
HETATM    4 BR4  UNL     1     -33.855  13.759  -3.933  1.00 20.00    -0.063 Br
HETATM    5 BR5  UNL     1     -34.782  16.163  -1.992  1.00 20.00    -0.063 Br
ENDROOT
TORSDOF 0
ENDMDL
MODEL 7
REMARK VINA RESULT:      -2.8     13.143     13.645
REMARK  0 active torsions:
REMARK  status: ('A' for Active; 'I' for Inactive)
ROOT
HETATM    1  C1  UNL     1     -34.838  13.808  -4.832  1.00 20.00     0.086 C 
HETATM    2  C2  UNL     1     -34.773  15.153  -5.397  1.00 20.00     0.235 C 
HETATM    3  N3  UNL     1     -34.895  12.740  -4.382  1.00 20.00    -0.195 NA
HETATM    4 BR4  UNL     1     -34.617  15.070  -7.337  1.00 20.00    -0.063 Br
HETATM    5 BR5  UNL     1     -33.310  16.158  -4.596  1.00 20.00    -0.063 Br
ENDROOT
TORSDOF 0
ENDMDL
MODEL 8
REMARK VINA RESULT:      -2.8      2.487      2.606
REMARK  0 active torsions:
REMARK  status: ('A' for Active; 'I' for Inactive)
ROOT
HETATM    1  C1  UNL     1     -33.758   6.463   5.754  1.00 20.00     0.086 C 
HETATM    2  C2  UNL     1     -33.660   5.733   4.493  1.00 20.00     0.235 C 
HETATM    3  N3  UNL     1     -33.833   7.038   6.759  1.00 20.00    -0.195 NA
HETATM    4 BR4  UNL     1     -32.531   6.700   3.234  1.00 20.00    -0.063 Br
HETATM    5 BR5  UNL     1     -35.434   5.397   3.762  1.00 20.00    -0.063 Br
ENDROOT
TORSDOF 0
ENDMDL
MODEL 9
REMARK VINA RESULT:      -2.8     12.503     12.933
REMARK  0 active torsions:
REMARK  status: ('A' for Active; 'I' for Inactive)
ROOT
HETATM    1  C1  UNL     1     -34.940  13.960  -4.266  1.00 20.00     0.086 C 
HETATM    2  C2  UNL     1     -34.964  15.415  -4.148  1.00 20.00     0.235 C 
HETATM    3  N3  UNL     1     -34.926  12.804  -4.361  1.00 20.00    -0.195 NA
HETATM    4 BR4  UNL     1     -33.615  16.214  -5.305  1.00 20.00    -0.063 Br
HETATM    5 BR5  UNL     1     -34.731  15.952  -2.290  1.00 20.00    -0.063 Br
ENDROOT
TORSDOF 0
ENDMDL
