MODEL 1
REMARK VINA RESULT:      -5.0      0.000      0.000
REMARK  0 active torsions:
REMARK  status: ('A' for Active; 'I' for Inactive)
ROOT
HETATM    1  C1  UNL     1     -42.582   5.563  -2.421  1.00 20.00     0.142 C 
HETATM    2  C2  UNL     1     -40.650   5.872  -0.224  1.00 20.00     0.002 C 
HETATM    3  C3  UNL     1     -40.725   4.559  -0.989  1.00 20.00     0.016 C 
HETATM    4  C4  UNL     1     -40.917   7.034  -1.168  1.00 20.00     0.016 C 
HETATM    5  C5  UNL     1     -42.087   4.316  -1.660  1.00 20.00     0.014 C 
HETATM    6  C6  UNL     1     -42.293   6.966  -1.852  1.00 20.00     0.014 C 
HETATM    7  C7  UNL     1     -41.919   3.159  -2.668  1.00 20.00     0.023 C 
HETATM    8  C8  UNL     1     -43.148   3.894  -0.633  1.00 20.00     0.023 C 
HETATM    9  C9  UNL     1     -43.417   7.363  -0.884  1.00 20.00     0.023 C 
HETATM   10  C10 UNL     1     -42.293   7.981  -3.016  1.00 20.00     0.023 C 
HETATM   11  O11 UNL     1     -43.290   5.435  -3.426  1.00 20.00    -0.296 OA
ENDROOT
TORSDOF 0
ENDMDL
MODEL 2
REMARK VINA RESULT:      -4.8     11.914     12.777
REMARK  0 active torsions:
REMARK  status: ('A' for Active; 'I' for Inactive)
ROOT
HETATM    1  C1  UNL     1     -34.631  14.190  -5.152  1.00 20.00     0.142 C 
HETATM    2  C2  UNL     1     -33.635  16.957  -5.214  1.00 20.00     0.002 C 
HETATM    3  C3  UNL     1     -32.923  15.914  -4.365  1.00 20.00     0.016 C 
HETATM    4  C4  UNL     1     -34.162  16.313  -6.487  1.00 20.00     0.016 C 
HETATM    5  C5  UNL     1     -33.824  14.736  -3.956  1.00 20.00     0.014 C 
HETATM    6  C6  UNL     1     -35.152  15.164  -6.228  1.00 20.00     0.014 C 
HETATM    7  C7  UNL     1     -32.918  13.610  -3.418  1.00 20.00     0.023 C 
HETATM    8  C8  UNL     1     -34.792  15.138  -2.832  1.00 20.00     0.023 C 
HETATM    9  C9  UNL     1     -36.529  15.697  -5.805  1.00 20.00     0.023 C 
HETATM   10  C10 UNL     1     -35.332  14.388  -7.551  1.00 20.00     0.023 C 
HETATM   11  O11 UNL     1     -34.943  12.995  -5.195  1.00 20.00    -0.296 OA
ENDROOT
TORSDOF 0
ENDMDL
MODEL 3
REMARK VINA RESULT:      -4.7     11.660     13.157
REMARK  0 active torsions:
REMARK  status: ('A' for Active; 'I' for Inactive)
ROOT
HETATM    1  C1  UNL     1     -33.969  16.039  -4.959  1.00 20.00     0.142 C 
HETATM    2  C2  UNL     1     -36.609  14.763  -4.723  1.00 20.00     0.002 C 
HETATM    3  C3  UNL     1     -35.832  15.137  -3.468  1.00 20.00     0.016 C 
HETATM    4  C4  UNL     1     -36.362  15.799  -5.809  1.00 20.00     0.016 C 
HETATM    5  C5  UNL     1     -34.314  15.230  -3.692  1.00 20.00     0.014 C 
HETATM    6  C6  UNL     1     -34.881  15.939  -6.198  1.00 20.00     0.014 C 
HETATM    7  C7  UNL     1     -33.698  15.942  -2.470  1.00 20.00     0.023 C 
HETATM    8  C8  UNL     1     -33.678  13.835  -3.793  1.00 20.00     0.023 C 
HETATM    9  C9  UNL     1     -34.420  14.763  -7.073  1.00 20.00     0.023 C 
HETATM   10  C10 UNL     1     -34.730  17.232  -7.028  1.00 20.00     0.023 C 
HETATM   11  O11 UNL     1     -32.918  16.686  -5.014  1.00 20.00    -0.296 OA
ENDROOT
TORSDOF 0
ENDMDL
MODEL 4
REMARK VINA RESULT:      -4.6     11.376     13.206
REMARK  0 active torsions:
REMARK  status: ('A' for Active; 'I' for Inactive)
ROOT
HETATM    1  C1  UNL     1     -33.899  15.983  -4.875  1.00 20.00     0.142 C 
HETATM    2  C2  UNL     1     -36.194  14.230  -4.315  1.00 20.00     0.002 C 
HETATM    3  C3  UNL     1     -36.077  14.918  -5.667  1.00 20.00     0.016 C 
HETATM    4  C4  UNL     1     -34.810  13.853  -3.808  1.00 20.00     0.016 C 
HETATM    5  C5  UNL     1     -35.224  16.197  -5.634  1.00 20.00     0.014 C 
HETATM    6  C6  UNL     1     -33.868  15.057  -3.642  1.00 20.00     0.014 C 
HETATM    7  C7  UNL     1     -34.900  16.589  -7.091  1.00 20.00     0.023 C 
HETATM    8  C8  UNL     1     -35.992  17.363  -4.994  1.00 20.00     0.023 C 
HETATM    9  C9  UNL     1     -34.217  15.871  -2.388  1.00 20.00     0.023 C 
HETATM   10  C10 UNL     1     -32.433  14.514  -3.468  1.00 20.00     0.023 C 
HETATM   11  O11 UNL     1     -32.892  16.625  -5.192  1.00 20.00    -0.296 OA
ENDROOT
TORSDOF 0
ENDMDL
MODEL 5
REMARK VINA RESULT:      -4.6     10.740     12.555
REMARK  0 active torsions:
REMARK  status: ('A' for Active; 'I' for Inactive)
ROOT
HETATM    1  C1  UNL     1     -35.583  15.922  -3.669  1.00 20.00     0.142 C 
HETATM    2  C2  UNL     1     -34.022  13.552  -4.443  1.00 20.00     0.002 C 
HETATM    3  C3  UNL     1     -33.490  14.493  -3.372  1.00 20.00     0.016 C 
HETATM    4  C4  UNL     1     -35.537  13.462  -4.344  1.00 20.00     0.016 C 
HETATM    5  C5  UNL     1     -34.053  15.921  -3.476  1.00 20.00     0.014 C 
HETATM    6  C6  UNL     1     -36.245  14.817  -4.517  1.00 20.00     0.014 C 
HETATM    7  C7  UNL     1     -33.722  16.658  -2.161  1.00 20.00     0.023 C 
HETATM    8  C8  UNL     1     -33.397  16.697  -4.628  1.00 20.00     0.023 C 
HETATM    9  C9  UNL     1     -36.265  15.253  -5.990  1.00 20.00     0.023 C 
HETATM   10  C10 UNL     1     -37.708  14.649  -4.054  1.00 20.00     0.023 C 
HETATM   11  O11 UNL     1     -36.262  16.855  -3.229  1.00 20.00    -0.296 OA
ENDROOT
TORSDOF 0
ENDMDL
MODEL 6
REMARK VINA RESULT:      -4.4     11.264     12.731
REMARK  0 active torsions:
REMARK  status: ('A' for Active; 'I' for Inactive)
ROOT
HETATM    1  C1  UNL     1     -34.669  16.131  -4.852  1.00 20.00     0.142 C 
HETATM    2  C2  UNL     1     -35.110  13.260  -4.389  1.00 20.00     0.002 C 
HETATM    3  C3  UNL     1     -34.783  13.761  -5.788  1.00 20.00     0.016 C 
HETATM    4  C4  UNL     1     -34.359  14.088  -3.357  1.00 20.00     0.016 C 
HETATM    5  C5  UNL     1     -35.150  15.237  -6.013  1.00 20.00     0.014 C 
HETATM    6  C6  UNL     1     -34.698  15.588  -3.409  1.00 20.00     0.014 C 
HETATM    7  C7  UNL     1     -34.462  15.704  -7.312  1.00 20.00     0.023 C 
HETATM    8  C8  UNL     1     -36.666  15.414  -6.194  1.00 20.00     0.023 C 
HETATM    9  C9  UNL     1     -36.073  15.872  -2.787  1.00 20.00     0.023 C 
HETATM   10  C10 UNL     1     -33.638  16.341  -2.577  1.00 20.00     0.023 C 
HETATM   11  O11 UNL     1     -34.356  17.308  -5.064  1.00 20.00    -0.296 OA
ENDROOT
TORSDOF 0
ENDMDL
MODEL 7
REMARK VINA RESULT:      -4.4     12.106     13.282
REMARK  0 active torsions:
REMARK  status: ('A' for Active; 'I' for Inactive)
ROOT
HETATM    1  C1  UNL     1     -35.287  15.354  -4.303  1.00 20.00     0.142 C 
HETATM    2  C2  UNL     1     -33.620  17.462  -5.498  1.00 20.00     0.002 C 
HETATM    3  C3  UNL     1     -34.952  17.096  -6.136  1.00 20.00     0.016 C 
HETATM    4  C4  UNL     1     -33.723  17.344  -3.986  1.00 20.00     0.016 C 
HETATM    5  C5  UNL     1     -35.419  15.668  -5.807  1.00 20.00     0.014 C 
HETATM    6  C6  UNL     1     -34.102  15.933  -3.505  1.00 20.00     0.014 C 
HETATM    7  C7  UNL     1     -36.904  15.551  -6.207  1.00 20.00     0.023 C 
HETATM    8  C8  UNL     1     -34.631  14.624  -6.614  1.00 20.00     0.023 C 
HETATM    9  C9  UNL     1     -32.908  14.971  -3.600  1.00 20.00     0.023 C 
HETATM   10  C10 UNL     1     -34.509  16.034  -2.019  1.00 20.00     0.023 C 
HETATM   11  O11 UNL     1     -36.071  14.565  -3.764  1.00 20.00    -0.296 OA
ENDROOT
TORSDOF 0
ENDMDL
MODEL 8
REMARK VINA RESULT:      -4.4     11.510     12.686
REMARK  0 active torsions:
REMARK  status: ('A' for Active; 'I' for Inactive)
ROOT
HETATM    1  C1  UNL     1     -35.612  15.214  -3.697  1.00 20.00     0.142 C 
HETATM    2  C2  UNL     1     -33.393  16.977  -4.486  1.00 20.00     0.002 C 
HETATM    3  C3  UNL     1     -33.785  15.806  -5.376  1.00 20.00     0.016 C 
HETATM    4  C4  UNL     1     -34.634  17.566  -3.834  1.00 20.00     0.016 C 
HETATM    5  C5  UNL     1     -34.502  14.674  -4.621  1.00 20.00     0.014 C 
HETATM    6  C6  UNL     1     -35.411  16.559  -2.969  1.00 20.00     0.014 C 
HETATM    7  C7  UNL     1     -35.143  13.739  -5.667  1.00 20.00     0.023 C 
HETATM    8  C8  UNL     1     -33.512  13.842  -3.791  1.00 20.00     0.023 C 
HETATM    9  C9  UNL     1     -34.702  16.309  -1.630  1.00 20.00     0.023 C 
HETATM   10  C10 UNL     1     -36.796  17.168  -2.664  1.00 20.00     0.023 C 
HETATM   11  O11 UNL     1     -36.614  14.528  -3.465  1.00 20.00    -0.296 OA
ENDROOT
TORSDOF 0
ENDMDL
MODEL 9
REMARK VINA RESULT:      -4.4     11.898     13.384
REMARK  0 active torsions:
REMARK  status: ('A' for Active; 'I' for Inactive)
ROOT
HETATM    1  C1  UNL     1     -33.988  16.178  -4.512  1.00 20.00     0.142 C 
HETATM    2  C2  UNL     1     -36.703  15.647  -3.511  1.00 20.00     0.002 C 
HETATM    3  C3  UNL     1     -36.059  17.005  -3.274  1.00 20.00     0.016 C 
HETATM    4  C4  UNL     1     -36.274  15.104  -4.865  1.00 20.00     0.016 C 
HETATM    5  C5  UNL     1     -34.522  16.970  -3.301  1.00 20.00     0.014 C 
HETATM    6  C6  UNL     1     -34.752  14.933  -5.005  1.00 20.00     0.014 C 
HETATM    7  C7  UNL     1     -34.016  18.424  -3.401  1.00 20.00     0.023 C 
HETATM    8  C8  UNL     1     -33.955  16.363  -2.008  1.00 20.00     0.023 C 
HETATM    9  C9  UNL     1     -34.256  13.697  -4.238  1.00 20.00     0.023 C 
HETATM   10  C10 UNL     1     -34.435  14.719  -6.501  1.00 20.00     0.023 C 
HETATM   11  O11 UNL     1     -32.904  16.481  -5.021  1.00 20.00    -0.296 OA
ENDROOT
TORSDOF 0
ENDMDL
