MODEL 1
REMARK VINA RESULT:      -3.3      0.000      0.000
REMARK  1 active torsions:
REMARK  status: ('A' for Active; 'I' for Inactive)
REMARK    1  A    between atoms: C2_2  and  O3_3 
ROOT
HETATM    1  C2  UNL     1     -33.924   5.717   4.854  1.00 20.00     0.314 C 
HETATM    2 CL4  UNL     1     -34.009   6.584   6.406  1.00 20.00    -0.078 Cl
HETATM    3 CL5  UNL     1     -35.454   4.869   4.558  1.00 20.00    -0.078 Cl
ENDROOT
BRANCH   1   4
HETATM    4  O3  UNL     1     -33.686   6.668   3.822  1.00 20.00    -0.362 OA
HETATM    5  C1  UNL     1     -32.393   6.539   3.247  1.00 20.00     0.204 C 
ENDBRANCH   1   4
TORSDOF 1
ENDMDL
MODEL 2
REMARK VINA RESULT:      -3.2      1.080      1.999
REMARK  1 active torsions:
REMARK  status: ('A' for Active; 'I' for Inactive)
REMARK    1  A    between atoms: C2_2  and  O3_3 
ROOT
HETATM    1  C2  UNL     1     -34.847   5.521   5.088  1.00 20.00     0.314 C 
HETATM    2 CL4  UNL     1     -34.872   3.830   5.639  1.00 20.00    -0.078 Cl
HETATM    3 CL5  UNL     1     -33.956   6.518   6.255  1.00 20.00    -0.078 Cl
ENDROOT
BRANCH   1   4
HETATM    4  O3  UNL     1     -34.207   5.568   3.817  1.00 20.00    -0.362 OA
HETATM    5  C1  UNL     1     -33.064   6.413   3.812  1.00 20.00     0.204 C 
ENDBRANCH   1   4
TORSDOF 1
ENDMDL
MODEL 3
REMARK VINA RESULT:      -3.2      1.970      2.582
REMARK  1 active torsions:
REMARK  status: ('A' for Active; 'I' for Inactive)
REMARK    1  A    between atoms: C2_2  and  O3_3 
ROOT
HETATM    1  C2  UNL     1     -34.260   6.119   4.477  1.00 20.00     0.314 C 
HETATM    2 CL4  UNL     1     -33.947   6.477   6.191  1.00 20.00    -0.078 Cl
HETATM    3 CL5  UNL     1     -32.737   6.165   3.568  1.00 20.00    -0.078 Cl
ENDROOT
BRANCH   1   4
HETATM    4  O3  UNL     1     -34.842   4.823   4.388  1.00 20.00    -0.362 OA
HETATM    5  C1  UNL     1     -34.919   4.172   5.649  1.00 20.00     0.204 C 
ENDBRANCH   1   4
TORSDOF 1
ENDMDL
MODEL 4
REMARK VINA RESULT:      -3.1      1.987      2.529
REMARK  1 active torsions:
REMARK  status: ('A' for Active; 'I' for Inactive)
REMARK    1  A    between atoms: C2_2  and  O3_3 
ROOT
HETATM    1  C2  UNL     1     -33.938   6.495   4.151  1.00 20.00     0.314 C 
HETATM    2 CL4  UNL     1     -32.404   6.142   3.322  1.00 20.00    -0.078 Cl
HETATM    3 CL5  UNL     1     -35.163   5.300   3.678  1.00 20.00    -0.078 Cl
ENDROOT
BRANCH   1   4
HETATM    4  O3  UNL     1     -33.713   6.433   5.555  1.00 20.00    -0.362 OA
HETATM    5  C1  UNL     1     -34.551   5.485   6.202  1.00 20.00     0.204 C 
ENDBRANCH   1   4
TORSDOF 1
ENDMDL
MODEL 5
REMARK VINA RESULT:      -3.1      2.005      2.940
REMARK  1 active torsions:
REMARK  status: ('A' for Active; 'I' for Inactive)
REMARK    1  A    between atoms: C2_2  and  O3_3 
ROOT
HETATM    1  C2  UNL     1     -33.637   5.848   4.200  1.00 20.00     0.314 C 
HETATM    2 CL4  UNL     1     -35.243   5.512   3.513  1.00 20.00    -0.078 Cl
HETATM    3 CL5  UNL     1     -32.738   6.931   3.119  1.00 20.00    -0.078 Cl
ENDROOT
BRANCH   1   4
HETATM    4  O3  UNL     1     -33.813   6.464   5.471  1.00 20.00    -0.362 OA
HETATM    5  C1  UNL     1     -34.518   5.637   6.386  1.00 20.00     0.204 C 
ENDBRANCH   1   4
TORSDOF 1
ENDMDL
MODEL 6
REMARK VINA RESULT:      -3.1      1.895      2.153
REMARK  1 active torsions:
REMARK  status: ('A' for Active; 'I' for Inactive)
REMARK    1  A    between atoms: C2_2  and  O3_3 
ROOT
HETATM    1  C2  UNL     1     -34.381   5.189   4.603  1.00 20.00     0.314 C 
HETATM    2 CL4  UNL     1     -34.961   4.260   6.004  1.00 20.00    -0.078 Cl
HETATM    3 CL5  UNL     1     -35.752   5.616   3.559  1.00 20.00    -0.078 Cl
ENDROOT
BRANCH   1   4
HETATM    4  O3  UNL     1     -33.745   6.370   5.080  1.00 20.00    -0.362 OA
HETATM    5  C1  UNL     1     -33.971   6.591   6.466  1.00 20.00     0.204 C 
ENDBRANCH   1   4
TORSDOF 1
ENDMDL
MODEL 7
REMARK VINA RESULT:      -2.9      1.954      2.905
REMARK  1 active torsions:
REMARK  status: ('A' for Active; 'I' for Inactive)
REMARK    1  A    between atoms: C2_2  and  O3_3 
ROOT
HETATM    1  C2  UNL     1     -33.676   5.750   4.912  1.00 20.00     0.314 C 
HETATM    2 CL4  UNL     1     -33.316   6.800   3.522  1.00 20.00    -0.078 Cl
HETATM    3 CL5  UNL     1     -33.899   6.739   6.368  1.00 20.00    -0.078 Cl
ENDROOT
BRANCH   1   4
HETATM    4  O3  UNL     1     -34.867   5.024   4.629  1.00 20.00    -0.362 OA
HETATM    5  C1  UNL     1     -35.122   3.999   5.580  1.00 20.00     0.204 C 
ENDBRANCH   1   4
TORSDOF 1
ENDMDL
MODEL 8
REMARK VINA RESULT:      -2.7     11.962     12.367
REMARK  1 active torsions:
REMARK  status: ('A' for Active; 'I' for Inactive)
REMARK    1  A    between atoms: C2_2  and  O3_3 
ROOT
HETATM    1  C2  UNL     1     -34.455  13.204  -4.923  1.00 20.00     0.314 C 
HETATM    2 CL4  UNL     1     -34.592  14.461  -6.173  1.00 20.00    -0.078 Cl
HETATM    3 CL5  UNL     1     -33.230  13.676  -3.729  1.00 20.00    -0.078 Cl
ENDROOT
BRANCH   1   4
HETATM    4  O3  UNL     1     -35.722  13.062  -4.290  1.00 20.00    -0.362 OA
HETATM    5  C1  UNL     1     -36.378  14.307  -4.093  1.00 20.00     0.204 C 
ENDBRANCH   1   4
TORSDOF 1
ENDMDL
MODEL 9
REMARK VINA RESULT:      -2.5      8.962      9.319
REMARK  1 active torsions:
REMARK  status: ('A' for Active; 'I' for Inactive)
REMARK    1  A    between atoms: C2_2  and  O3_3 
ROOT
HETATM    1  C2  UNL     1     -40.880   5.831  -0.181  1.00 20.00     0.314 C 
HETATM    2 CL4  UNL     1     -41.125   7.442  -0.894  1.00 20.00    -0.078 Cl
HETATM    3 CL5  UNL     1     -42.375   5.291   0.606  1.00 20.00    -0.078 Cl
ENDROOT
BRANCH   1   4
HETATM    4  O3  UNL     1     -40.524   4.929  -1.223  1.00 20.00    -0.362 OA
HETATM    5  C1  UNL     1     -41.657   4.393  -1.893  1.00 20.00     0.204 C 
ENDBRANCH   1   4
TORSDOF 1
ENDMDL
