MODEL 1
REMARK VINA RESULT:      -5.5      0.000      0.000
REMARK  1 active torsions:
REMARK  status: ('A' for Active; 'I' for Inactive)
REMARK    1  A    between atoms: C4_4  and  C7_7 
ROOT
HETATM    1  C1  UNL     1     -33.729  15.881  -5.107  1.00 20.00     0.015 A 
HETATM    2  C2  UNL     1     -33.529  17.144  -4.553  1.00 20.00     0.008 A 
HETATM    3  C3  UNL     1     -34.479  15.063  -2.966  1.00 20.00     0.022 A 
HETATM    4  C4  UNL     1     -34.203  14.840  -4.314  1.00 20.00     0.002 A 
HETATM    5  C5  UNL     1     -33.794  17.380  -3.195  1.00 20.00    -0.052 A 
HETATM    6  C6  UNL     1     -34.292  16.332  -2.397  1.00 20.00    -0.051 A 
HETATM    7  C8  UNL     1     -33.596  18.768  -2.640  1.00 20.00     0.039 C 
HETATM    8  C9  UNL     1     -34.571  16.525  -0.928  1.00 20.00     0.039 C 
HETATM    9  C10 UNL     1     -33.549  18.806  -1.114  1.00 20.00     0.005 C 
HETATM   10  C11 UNL     1     -34.695  17.993  -0.525  1.00 20.00     0.005 C 
ENDROOT
BRANCH   4  11
HETATM   11  C7  UNL     1     -34.406  13.520  -4.889  1.00 20.00     0.269 C 
HETATM   12  O12 UNL     1     -35.075  12.641  -4.339  1.00 20.00    -0.301 OA
ENDBRANCH   4  11
TORSDOF 1
ENDMDL
MODEL 2
REMARK VINA RESULT:      -5.0      2.025      4.395
REMARK  1 active torsions:
REMARK  status: ('A' for Active; 'I' for Inactive)
REMARK    1  A    between atoms: C4_4  and  C7_7 
ROOT
HETATM    1  C1  UNL     1     -33.740  17.809  -3.003  1.00 20.00     0.015 A 
HETATM    2  C2  UNL     1     -33.748  17.361  -4.323  1.00 20.00     0.008 A 
HETATM    3  C3  UNL     1     -34.582  15.669  -2.276  1.00 20.00     0.022 A 
HETATM    4  C4  UNL     1     -34.158  16.963  -1.980  1.00 20.00     0.002 A 
HETATM    5  C5  UNL     1     -34.181  16.064  -4.637  1.00 20.00    -0.052 A 
HETATM    6  C6  UNL     1     -34.585  15.203  -3.600  1.00 20.00    -0.051 A 
HETATM    7  C8  UNL     1     -34.143  15.606  -6.073  1.00 20.00     0.039 C 
HETATM    8  C9  UNL     1     -35.082  13.807  -3.883  1.00 20.00     0.039 C 
HETATM    9  C10 UNL     1     -34.976  14.351  -6.327  1.00 20.00     0.005 C 
HETATM   10  C11 UNL     1     -34.687  13.296  -5.267  1.00 20.00     0.005 C 
ENDROOT
BRANCH   4  11
HETATM   11  C7  UNL     1     -34.157  17.431  -0.603  1.00 20.00     0.269 C 
HETATM   12  O12 UNL     1     -34.928  16.996   0.257  1.00 20.00    -0.301 OA
ENDBRANCH   4  11
TORSDOF 1
ENDMDL
MODEL 3
REMARK VINA RESULT:      -4.9      2.442      4.942
REMARK  1 active torsions:
REMARK  status: ('A' for Active; 'I' for Inactive)
REMARK    1  A    between atoms: C4_4  and  C7_7 
ROOT
HETATM    1  C1  UNL     1     -34.348  16.924  -1.526  1.00 20.00     0.015 A 
HETATM    2  C2  UNL     1     -34.780  15.680  -1.982  1.00 20.00     0.008 A 
HETATM    3  C3  UNL     1     -33.666  17.506  -3.764  1.00 20.00     0.022 A 
HETATM    4  C4  UNL     1     -33.790  17.836  -2.416  1.00 20.00     0.002 A 
HETATM    5  C5  UNL     1     -34.653  15.331  -3.336  1.00 20.00    -0.052 A 
HETATM    6  C6  UNL     1     -34.106  16.262  -4.239  1.00 20.00    -0.051 A 
HETATM    7  C8  UNL     1     -35.162  13.989  -3.798  1.00 20.00     0.039 C 
HETATM    8  C9  UNL     1     -33.925  15.929  -5.699  1.00 20.00     0.039 C 
HETATM    9  C10 UNL     1     -34.633  13.584  -5.172  1.00 20.00     0.005 C 
HETATM   10  C11 UNL     1     -34.766  14.739  -6.156  1.00 20.00     0.005 C 
ENDROOT
BRANCH   4  11
HETATM   11  C7  UNL     1     -33.332  19.132  -1.939  1.00 20.00     0.269 C 
HETATM   12  O12 UNL     1     -32.478  19.263  -1.057  1.00 20.00    -0.301 OA
ENDBRANCH   4  11
TORSDOF 1
ENDMDL
MODEL 4
REMARK VINA RESULT:      -4.8     11.490     12.809
REMARK  1 active torsions:
REMARK  status: ('A' for Active; 'I' for Inactive)
REMARK    1  A    between atoms: C4_4  and  C7_7 
ROOT
HETATM    1  C1  UNL     1     -33.000   6.135   2.064  1.00 20.00     0.015 A 
HETATM    2  C2  UNL     1     -33.778   5.145   2.662  1.00 20.00     0.008 A 
HETATM    3  C3  UNL     1     -32.818   7.270   4.184  1.00 20.00     0.022 A 
HETATM    4  C4  UNL     1     -32.521   7.198   2.824  1.00 20.00     0.002 A 
HETATM    5  C5  UNL     1     -34.093   5.211   4.029  1.00 20.00    -0.052 A 
HETATM    6  C6  UNL     1     -33.591   6.276   4.801  1.00 20.00    -0.051 A 
HETATM    7  C8  UNL     1     -34.909   4.104   4.647  1.00 20.00     0.039 C 
HETATM    8  C9  UNL     1     -33.918   6.407   6.268  1.00 20.00     0.039 C 
HETATM    9  C10 UNL     1     -35.492   4.474   6.009  1.00 20.00     0.005 C 
HETATM   10  C11 UNL     1     -34.424   5.108   6.891  1.00 20.00     0.005 C 
ENDROOT
BRANCH   4  11
HETATM   11  C7  UNL     1     -31.715   8.234   2.199  1.00 20.00     0.269 C 
HETATM   12  O12 UNL     1     -31.979   8.720   1.096  1.00 20.00    -0.301 OA
ENDBRANCH   4  11
TORSDOF 1
ENDMDL
MODEL 5
REMARK VINA RESULT:      -4.7     11.068     12.401
REMARK  1 active torsions:
REMARK  status: ('A' for Active; 'I' for Inactive)
REMARK    1  A    between atoms: C4_4  and  C7_7 
ROOT
HETATM    1  C1  UNL     1     -31.791   8.089   3.888  1.00 20.00     0.015 A 
HETATM    2  C2  UNL     1     -32.329   7.531   5.046  1.00 20.00     0.008 A 
HETATM    3  C3  UNL     1     -33.177   6.638   2.549  1.00 20.00     0.022 A 
HETATM    4  C4  UNL     1     -32.214   7.641   2.640  1.00 20.00     0.002 A 
HETATM    5  C5  UNL     1     -33.293   6.513   4.970  1.00 20.00    -0.052 A 
HETATM    6  C6  UNL     1     -33.735   6.075   3.707  1.00 20.00    -0.051 A 
HETATM    7  C8  UNL     1     -33.876   5.958   6.245  1.00 20.00     0.039 C 
HETATM    8  C9  UNL     1     -34.750   4.969   3.568  1.00 20.00     0.039 C 
HETATM    9  C10 UNL     1     -34.606   4.632   6.047  1.00 20.00     0.005 C 
HETATM   10  C11 UNL     1     -35.543   4.713   4.849  1.00 20.00     0.005 C 
ENDROOT
BRANCH   4  11
HETATM   11  C7  UNL     1     -31.649   8.218   1.430  1.00 20.00     0.269 C 
HETATM   12  O12 UNL     1     -32.168   9.162   0.827  1.00 20.00    -0.301 OA
ENDBRANCH   4  11
TORSDOF 1
ENDMDL
MODEL 6
REMARK VINA RESULT:      -4.7      1.155      2.369
REMARK  1 active torsions:
REMARK  status: ('A' for Active; 'I' for Inactive)
REMARK    1  A    between atoms: C4_4  and  C7_7 
ROOT
HETATM    1  C1  UNL     1     -34.571  14.994  -4.254  1.00 20.00     0.015 A 
HETATM    2  C2  UNL     1     -34.719  15.184  -2.881  1.00 20.00     0.008 A 
HETATM    3  C3  UNL     1     -33.750  17.250  -4.475  1.00 20.00     0.022 A 
HETATM    4  C4  UNL     1     -34.089  16.027  -5.051  1.00 20.00     0.002 A 
HETATM    5  C5  UNL     1     -34.390  16.413  -2.289  1.00 20.00    -0.052 A 
HETATM    6  C6  UNL     1     -33.883  17.452  -3.093  1.00 20.00    -0.051 A 
HETATM    7  C8  UNL     1     -34.532  16.569  -0.796  1.00 20.00     0.039 C 
HETATM    8  C9  UNL     1     -33.537  18.800  -2.512  1.00 20.00     0.039 C 
HETATM    9  C10 UNL     1     -34.512  18.025  -0.337  1.00 20.00     0.005 C 
HETATM   10  C11 UNL     1     -33.361  18.776  -0.995  1.00 20.00     0.005 C 
ENDROOT
BRANCH   4  11
HETATM   11  C7  UNL     1     -33.941  15.833  -6.485  1.00 20.00     0.269 C 
HETATM   12  O12 UNL     1     -34.315  14.812  -7.069  1.00 20.00    -0.301 OA
ENDBRANCH   4  11
TORSDOF 1
ENDMDL
MODEL 7
REMARK VINA RESULT:      -4.7      4.988      7.469
REMARK  1 active torsions:
REMARK  status: ('A' for Active; 'I' for Inactive)
REMARK    1  A    between atoms: C4_4  and  C7_7 
ROOT
HETATM    1  C1  UNL     1     -34.246  18.135   4.059  1.00 20.00     0.015 A 
HETATM    2  C2  UNL     1     -34.798  17.894   2.801  1.00 20.00     0.008 A 
HETATM    3  C3  UNL     1     -32.233  18.956   3.015  1.00 20.00     0.022 A 
HETATM    4  C4  UNL     1     -32.964  18.665   4.166  1.00 20.00     0.002 A 
HETATM    5  C5  UNL     1     -34.069  18.174   1.635  1.00 20.00    -0.052 A 
HETATM    6  C6  UNL     1     -32.780  18.728   1.743  1.00 20.00    -0.051 A 
HETATM    7  C8  UNL     1     -34.712  17.930   0.293  1.00 20.00     0.039 C 
HETATM    8  C9  UNL     1     -31.945  19.025   0.523  1.00 20.00     0.039 C 
HETATM    9  C10 UNL     1     -33.711  17.909  -0.860  1.00 20.00     0.005 C 
HETATM   10  C11 UNL     1     -32.763  19.098  -0.764  1.00 20.00     0.005 C 
ENDROOT
BRANCH   4  11
HETATM   11  C7  UNL     1     -32.385  18.911   5.477  1.00 20.00     0.269 C 
HETATM   12  O12 UNL     1     -32.946  18.600   6.531  1.00 20.00    -0.301 OA
ENDBRANCH   4  11
TORSDOF 1
ENDMDL
MODEL 8
REMARK VINA RESULT:      -4.7     12.359     14.373
REMARK  1 active torsions:
REMARK  status: ('A' for Active; 'I' for Inactive)
REMARK    1  A    between atoms: C4_4  and  C7_7 
ROOT
HETATM    1  C1  UNL     1     -43.367   3.576  -3.655  1.00 20.00     0.015 A 
HETATM    2  C2  UNL     1     -43.417   4.880  -3.164  1.00 20.00     0.008 A 
HETATM    3  C3  UNL     1     -41.433   3.137  -2.284  1.00 20.00     0.022 A 
HETATM    4  C4  UNL     1     -42.374   2.705  -3.217  1.00 20.00     0.002 A 
HETATM    5  C5  UNL     1     -42.470   5.330  -2.232  1.00 20.00    -0.052 A 
HETATM    6  C6  UNL     1     -41.478   4.443  -1.773  1.00 20.00    -0.051 A 
HETATM    7  C8  UNL     1     -42.577   6.737  -1.699  1.00 20.00     0.039 C 
HETATM    8  C9  UNL     1     -40.422   4.882  -0.790  1.00 20.00     0.039 C 
HETATM    9  C10 UNL     1     -41.304   7.218  -1.007  1.00 20.00     0.005 C 
HETATM   10  C11 UNL     1     -40.791   6.159  -0.039  1.00 20.00     0.005 C 
ENDROOT
BRANCH   4  11
HETATM   11  C7  UNL     1     -42.317   1.347  -3.733  1.00 20.00     0.269 C 
HETATM   12  O12 UNL     1     -41.964   1.078  -4.885  1.00 20.00    -0.301 OA
ENDBRANCH   4  11
TORSDOF 1
ENDMDL
MODEL 9
REMARK VINA RESULT:      -4.6      2.252      4.764
REMARK  1 active torsions:
REMARK  status: ('A' for Active; 'I' for Inactive)
REMARK    1  A    between atoms: C4_4  and  C7_7 
ROOT
HETATM    1  C1  UNL     1     -34.747  15.458  -2.245  1.00 20.00     0.015 A 
HETATM    2  C2  UNL     1     -35.061  14.768  -3.414  1.00 20.00     0.008 A 
HETATM    3  C3  UNL     1     -33.824  17.258  -3.559  1.00 20.00     0.022 A 
HETATM    4  C4  UNL     1     -34.127  16.702  -2.317  1.00 20.00     0.002 A 
HETATM    5  C5  UNL     1     -34.753  15.311  -4.671  1.00 20.00    -0.052 A 
HETATM    6  C6  UNL     1     -34.144  16.578  -4.744  1.00 20.00    -0.051 A 
HETATM    7  C8  UNL     1     -35.139  14.548  -5.913  1.00 20.00     0.039 C 
HETATM    8  C9  UNL     1     -33.771  17.197  -6.067  1.00 20.00     0.039 C 
HETATM    9  C10 UNL     1     -34.427  15.045  -7.170  1.00 20.00     0.005 C 
HETATM   10  C11 UNL     1     -34.493  16.564  -7.254  1.00 20.00     0.005 C 
ENDROOT
BRANCH   4  11
HETATM   11  C7  UNL     1     -33.793  17.421  -1.097  1.00 20.00     0.269 C 
HETATM   12  O12 UNL     1     -34.383  17.245  -0.028  1.00 20.00    -0.301 OA
ENDBRANCH   4  11
TORSDOF 1
ENDMDL
