MODEL 1
REMARK VINA RESULT:      -5.0      0.000      0.000
REMARK  1 active torsions:
REMARK  status: ('A' for Active; 'I' for Inactive)
REMARK    1  A    between atoms: C7_7  and  C11_11 
ROOT
HETATM    1  C1  UNL     1     -34.545  15.307  -5.677  1.00 20.00    -0.018 C 
HETATM    2  C2  UNL     1     -33.874  16.138  -4.633  1.00 20.00     0.159 C 
HETATM    3  C3  UNL     1     -34.254  15.563  -6.960  1.00 20.00     0.023 C 
HETATM    4  C4  UNL     1     -36.433  14.811  -4.107  1.00 20.00     0.010 C 
HETATM    5  C5  UNL     1     -35.640  15.454  -2.968  1.00 20.00     0.013 C 
HETATM    6  C6  UNL     1     -35.528  14.263  -5.222  1.00 20.00     0.017 C 
HETATM    7  C7  UNL     1     -34.752  16.595  -3.472  1.00 20.00     0.063 C 
HETATM    8  C8  UNL     1     -34.793  12.992  -4.785  1.00 20.00     0.015 C 
HETATM    9  O12 UNL     1     -32.701  16.481  -4.756  1.00 20.00    -0.292 OA
ENDROOT
BRANCH   7  10
HETATM   10  C11 UNL     1     -33.911  17.157  -2.328  1.00 20.00    -0.011 C 
HETATM   11  C9  UNL     1     -33.887  18.684  -2.379  1.00 20.00     0.010 C 
HETATM   12  C10 UNL     1     -34.444  16.674  -0.981  1.00 20.00     0.010 C 
ENDBRANCH   7  10
TORSDOF 1
ENDMDL
MODEL 2
REMARK VINA RESULT:      -4.7      1.804      2.839
REMARK  1 active torsions:
REMARK  status: ('A' for Active; 'I' for Inactive)
REMARK    1  A    between atoms: C7_7  and  C11_11 
ROOT
HETATM    1  C1  UNL     1     -36.215  15.189  -3.850  1.00 20.00    -0.018 C 
HETATM    2  C2  UNL     1     -36.111  16.273  -2.826  1.00 20.00     0.159 C 
HETATM    3  C3  UNL     1     -37.420  14.640  -4.055  1.00 20.00     0.023 C 
HETATM    4  C4  UNL     1     -33.785  14.651  -3.566  1.00 20.00     0.010 C 
HETATM    5  C5  UNL     1     -33.619  15.904  -2.706  1.00 20.00     0.013 C 
HETATM    6  C6  UNL     1     -34.956  14.763  -4.554  1.00 20.00     0.017 C 
HETATM    7  C7  UNL     1     -34.891  16.217  -1.912  1.00 20.00     0.063 C 
HETATM    8  C8  UNL     1     -34.639  15.722  -5.707  1.00 20.00     0.015 C 
HETATM    9  O12 UNL     1     -37.002  17.109  -2.699  1.00 20.00    -0.292 OA
ENDROOT
BRANCH   7  10
HETATM   10  C11 UNL     1     -34.722  17.520  -1.132  1.00 20.00    -0.011 C 
HETATM   11  C9  UNL     1     -34.989  17.293   0.354  1.00 20.00     0.010 C 
HETATM   12  C10 UNL     1     -33.324  18.096  -1.344  1.00 20.00     0.010 C 
ENDBRANCH   7  10
TORSDOF 1
ENDMDL
MODEL 3
REMARK VINA RESULT:      -4.7      1.632      2.746
REMARK  1 active torsions:
REMARK  status: ('A' for Active; 'I' for Inactive)
REMARK    1  A    between atoms: C7_7  and  C11_11 
ROOT
HETATM    1  C1  UNL     1     -34.763  14.527  -4.824  1.00 20.00    -0.018 C 
HETATM    2  C2  UNL     1     -35.383  15.079  -3.581  1.00 20.00     0.159 C 
HETATM    3  C3  UNL     1     -34.909  13.217  -5.064  1.00 20.00     0.023 C 
HETATM    4  C4  UNL     1     -33.104  16.403  -4.860  1.00 20.00     0.010 C 
HETATM    5  C5  UNL     1     -33.879  17.097  -3.740  1.00 20.00     0.013 C 
HETATM    6  C6  UNL     1     -33.988  15.471  -5.703  1.00 20.00     0.017 C 
HETATM    7  C7  UNL     1     -34.542  16.084  -2.801  1.00 20.00     0.063 C 
HETATM    8  C8  UNL     1     -34.939  16.256  -6.612  1.00 20.00     0.015 C 
HETATM    9  O12 UNL     1     -36.478  14.680  -3.191  1.00 20.00    -0.292 OA
ENDROOT
BRANCH   7  10
HETATM   10  C11 UNL     1     -35.377  16.807  -1.747  1.00 20.00    -0.011 C 
HETATM   11  C9  UNL     1     -34.595  16.939  -0.441  1.00 20.00     0.010 C 
HETATM   12  C10 UNL     1     -35.812  18.180  -2.253  1.00 20.00     0.010 C 
ENDBRANCH   7  10
TORSDOF 1
ENDMDL
MODEL 4
REMARK VINA RESULT:      -4.6      2.064      4.281
REMARK  1 active torsions:
REMARK  status: ('A' for Active; 'I' for Inactive)
REMARK    1  A    between atoms: C7_7  and  C11_11 
ROOT
HETATM    1  C1  UNL     1     -34.580  15.772  -2.911  1.00 20.00    -0.018 C 
HETATM    2  C2  UNL     1     -35.750  15.407  -3.766  1.00 20.00     0.159 C 
HETATM    3  C3  UNL     1     -34.824  16.146  -1.648  1.00 20.00     0.023 C 
HETATM    4  C4  UNL     1     -33.234  16.333  -4.948  1.00 20.00     0.010 C 
HETATM    5  C5  UNL     1     -34.334  15.737  -5.827  1.00 20.00     0.013 C 
HETATM    6  C6  UNL     1     -33.212  15.729  -3.536  1.00 20.00     0.017 C 
HETATM    7  C7  UNL     1     -35.719  15.923  -5.201  1.00 20.00     0.063 C 
HETATM    8  C8  UNL     1     -32.671  14.295  -3.538  1.00 20.00     0.015 C 
HETATM    9  O12 UNL     1     -36.703  14.787  -3.301  1.00 20.00    -0.292 OA
ENDROOT
BRANCH   7  10
HETATM   10  C11 UNL     1     -36.784  15.242  -6.059  1.00 20.00    -0.011 C 
HETATM   11  C9  UNL     1     -37.944  16.197  -6.332  1.00 20.00     0.010 C 
HETATM   12  C10 UNL     1     -36.180  14.742  -7.369  1.00 20.00     0.010 C 
ENDBRANCH   7  10
TORSDOF 1
ENDMDL
MODEL 5
REMARK VINA RESULT:      -4.6      1.980      4.408
REMARK  1 active torsions:
REMARK  status: ('A' for Active; 'I' for Inactive)
REMARK    1  A    between atoms: C7_7  and  C11_11 
ROOT
HETATM    1  C1  UNL     1     -36.193  17.078  -2.437  1.00 20.00    -0.018 C 
HETATM    2  C2  UNL     1     -36.115  15.756  -3.129  1.00 20.00     0.159 C 
HETATM    3  C3  UNL     1     -37.348  17.752  -2.511  1.00 20.00     0.023 C 
HETATM    4  C4  UNL     1     -33.706  17.333  -2.586  1.00 20.00     0.010 C 
HETATM    5  C5  UNL     1     -33.597  15.887  -3.070  1.00 20.00     0.013 C 
HETATM    6  C6  UNL     1     -34.961  17.579  -1.734  1.00 20.00     0.017 C 
HETATM    7  C7  UNL     1     -34.823  15.472  -3.889  1.00 20.00     0.063 C 
HETATM    8  C8  UNL     1     -34.842  16.941  -0.346  1.00 20.00     0.015 C 
HETATM    9  O12 UNL     1     -37.072  14.987  -3.131  1.00 20.00    -0.292 OA
ENDROOT
BRANCH   7  10
HETATM   10  C11 UNL     1     -34.723  14.000  -4.284  1.00 20.00    -0.011 C 
HETATM   11  C9  UNL     1     -34.899  13.836  -5.792  1.00 20.00     0.010 C 
HETATM   12  C10 UNL     1     -33.389  13.411  -3.832  1.00 20.00     0.010 C 
ENDBRANCH   7  10
TORSDOF 1
ENDMDL
MODEL 6
REMARK VINA RESULT:      -4.4      1.947      3.912
REMARK  1 active torsions:
REMARK  status: ('A' for Active; 'I' for Inactive)
REMARK    1  A    between atoms: C7_7  and  C11_11 
ROOT
HETATM    1  C1  UNL     1     -33.847  14.569  -3.725  1.00 20.00    -0.018 C 
HETATM    2  C2  UNL     1     -35.233  14.149  -4.093  1.00 20.00     0.159 C 
HETATM    3  C3  UNL     1     -32.970  13.609  -3.402  1.00 20.00     0.023 C 
HETATM    4  C4  UNL     1     -34.683  16.833  -3.056  1.00 20.00     0.010 C 
HETATM    5  C5  UNL     1     -36.049  16.494  -3.653  1.00 20.00     0.013 C 
HETATM    6  C6  UNL     1     -33.539  16.042  -3.709  1.00 20.00     0.017 C 
HETATM    7  C7  UNL     1     -36.365  15.000  -3.527  1.00 20.00     0.063 C 
HETATM    8  C8  UNL     1     -33.237  16.540  -5.125  1.00 20.00     0.015 C 
HETATM    9  O12 UNL     1     -35.430  13.133  -4.755  1.00 20.00    -0.292 OA
ENDROOT
BRANCH   7  10
HETATM   10  C11 UNL     1     -37.694  14.680  -4.207  1.00 20.00    -0.011 C 
HETATM   11  C9  UNL     1     -38.865  15.150  -3.346  1.00 20.00     0.010 C 
HETATM   12  C10 UNL     1     -37.757  15.319  -5.593  1.00 20.00     0.010 C 
ENDBRANCH   7  10
TORSDOF 1
ENDMDL
MODEL 7
REMARK VINA RESULT:      -4.4      1.526      2.316
REMARK  1 active torsions:
REMARK  status: ('A' for Active; 'I' for Inactive)
REMARK    1  A    between atoms: C7_7  and  C11_11 
ROOT
HETATM    1  C1  UNL     1     -34.785  16.948  -6.782  1.00 20.00    -0.018 C 
HETATM    2  C2  UNL     1     -34.107  16.685  -5.477  1.00 20.00     0.159 C 
HETATM    3  C3  UNL     1     -34.450  18.062  -7.446  1.00 20.00     0.023 C 
HETATM    4  C4  UNL     1     -36.733  15.536  -6.083  1.00 20.00     0.010 C 
HETATM    5  C5  UNL     1     -35.944  15.072  -4.858  1.00 20.00     0.013 C 
HETATM    6  C6  UNL     1     -35.824  15.963  -7.246  1.00 20.00     0.017 C 
HETATM    7  C7  UNL     1     -34.995  16.162  -4.352  1.00 20.00     0.063 C 
HETATM    8  C8  UNL     1     -35.156  14.759  -7.918  1.00 20.00     0.015 C 
HETATM    9  O12 UNL     1     -32.917  16.948  -5.320  1.00 20.00    -0.292 OA
ENDROOT
BRANCH   7  10
HETATM   10  C11 UNL     1     -34.161  15.639  -3.185  1.00 20.00    -0.011 C 
HETATM   11  C9  UNL     1     -34.765  16.080  -1.853  1.00 20.00     0.010 C 
HETATM   12  C10 UNL     1     -34.047  14.117  -3.244  1.00 20.00     0.010 C 
ENDBRANCH   7  10
TORSDOF 1
ENDMDL
MODEL 8
REMARK VINA RESULT:      -4.3      1.695      3.478
REMARK  1 active torsions:
REMARK  status: ('A' for Active; 'I' for Inactive)
REMARK    1  A    between atoms: C7_7  and  C11_11 
ROOT
HETATM    1  C1  UNL     1     -33.683  15.226  -3.601  1.00 20.00    -0.018 C 
HETATM    2  C2  UNL     1     -33.799  16.148  -4.771  1.00 20.00     0.159 C 
HETATM    3  C3  UNL     1     -32.587  14.461  -3.518  1.00 20.00     0.023 C 
HETATM    4  C4  UNL     1     -36.174  15.200  -3.342  1.00 20.00     0.010 C 
HETATM    5  C5  UNL     1     -36.283  16.323  -4.373  1.00 20.00     0.013 C 
HETATM    6  C6  UNL     1     -34.820  15.192  -2.616  1.00 20.00     0.017 C 
HETATM    7  C7  UNL     1     -35.175  16.232  -5.426  1.00 20.00     0.063 C 
HETATM    8  C8  UNL     1     -34.699  16.350  -1.622  1.00 20.00     0.015 C 
HETATM    9  O12 UNL     1     -32.816  16.742  -5.207  1.00 20.00    -0.292 OA
ENDROOT
BRANCH   7  10
HETATM   10  C11 UNL     1     -35.260  17.415  -6.388  1.00 20.00    -0.011 C 
HETATM   11  C9  UNL     1     -35.178  16.935  -7.836  1.00 20.00     0.010 C 
HETATM   12  C10 UNL     1     -36.546  18.205  -6.157  1.00 20.00     0.010 C 
ENDBRANCH   7  10
TORSDOF 1
ENDMDL
MODEL 9
REMARK VINA RESULT:      -4.3      1.352      1.582
REMARK  1 active torsions:
REMARK  status: ('A' for Active; 'I' for Inactive)
REMARK    1  A    between atoms: C7_7  and  C11_11 
ROOT
HETATM    1  C1  UNL     1     -34.911  15.666  -4.865  1.00 20.00    -0.018 C 
HETATM    2  C2  UNL     1     -34.068  16.003  -3.678  1.00 20.00     0.159 C 
HETATM    3  C3  UNL     1     -34.285  15.279  -5.984  1.00 20.00     0.023 C 
HETATM    4  C4  UNL     1     -36.758  17.119  -3.998  1.00 20.00     0.010 C 
HETATM    5  C5  UNL     1     -36.004  17.273  -2.677  1.00 20.00     0.013 C 
HETATM    6  C6  UNL     1     -36.402  15.819  -4.735  1.00 20.00     0.017 C 
HETATM    7  C7  UNL     1     -34.487  17.238  -2.886  1.00 20.00     0.063 C 
HETATM    8  C8  UNL     1     -37.007  14.591  -4.049  1.00 20.00     0.015 C 
HETATM    9  O12 UNL     1     -33.061  15.352  -3.413  1.00 20.00    -0.292 OA
ENDROOT
BRANCH   7  10
HETATM   10  C11 UNL     1     -33.765  17.306  -1.542  1.00 20.00    -0.011 C 
HETATM   11  C9  UNL     1     -33.268  18.725  -1.272  1.00 20.00     0.010 C 
HETATM   12  C10 UNL     1     -34.682  16.835  -0.414  1.00 20.00     0.010 C 
ENDBRANCH   7  10
TORSDOF 1
ENDMDL
