MODEL 1
REMARK VINA RESULT:      -5.1      0.000      0.000
REMARK  1 active torsions:
REMARK  status: ('A' for Active; 'I' for Inactive)
REMARK    1  A    between atoms: C5_5  and  C6_6 
ROOT
HETATM    1  C1  UNL     1     -32.422   7.046   2.922  1.00 20.00     0.061 C 
HETATM    2  C6  UNL     1     -32.986   5.785   3.391  1.00 20.00     0.155 C 
HETATM    3  N7  UNL     1     -31.954   8.038   2.539  1.00 20.00    -0.197 NA
ENDROOT
BRANCH   2   4
HETATM    4  C5  UNL     1     -34.243   6.185   4.152  1.00 20.00     0.134 C 
HETATM    5  C3  UNL     1     -35.265   5.062   4.241  1.00 20.00     0.035 C 
HETATM    6  C2  UNL     1     -34.909   4.389   5.543  1.00 20.00     0.029 C 
HETATM    7  C4  UNL     1     -34.475   5.563   6.391  1.00 20.00     0.168 C 
HETATM    8  O8  UNL     1     -33.869   6.511   5.503  1.00 20.00    -0.385 OA
ENDBRANCH   2   4
TORSDOF 1
ENDMDL
MODEL 2
REMARK VINA RESULT:      -4.0     11.800     12.365
REMARK  1 active torsions:
REMARK  status: ('A' for Active; 'I' for Inactive)
REMARK    1  A    between atoms: C5_5  and  C6_6 
ROOT
HETATM    1  C1  UNL     1     -34.124  13.703  -4.103  1.00 20.00     0.061 C 
HETATM    2  C6  UNL     1     -33.293  14.832  -3.698  1.00 20.00     0.155 C 
HETATM    3  N7  UNL     1     -34.766  12.791  -4.425  1.00 20.00    -0.197 NA
ENDROOT
BRANCH   2   4
HETATM    4  C5  UNL     1     -34.266  15.993  -3.550  1.00 20.00     0.134 C 
HETATM    5  C3  UNL     1     -35.233  15.813  -2.390  1.00 20.00     0.035 C 
HETATM    6  C2  UNL     1     -34.519  16.501  -1.252  1.00 20.00     0.029 C 
HETATM    7  C4  UNL     1     -33.840  17.651  -1.960  1.00 20.00     0.168 C 
HETATM    8  O8  UNL     1     -33.508  17.185  -3.275  1.00 20.00    -0.385 OA
ENDBRANCH   2   4
TORSDOF 1
ENDMDL
MODEL 3
REMARK VINA RESULT:      -3.6     11.662     12.181
REMARK  1 active torsions:
REMARK  status: ('A' for Active; 'I' for Inactive)
REMARK    1  A    between atoms: C5_5  and  C6_6 
ROOT
HETATM    1  C1  UNL     1     -34.407  16.282  -1.610  1.00 20.00     0.061 C 
HETATM    2  C6  UNL     1     -33.958  15.763  -2.897  1.00 20.00     0.155 C 
HETATM    3  N7  UNL     1     -34.745  16.710  -0.585  1.00 20.00    -0.197 NA
ENDROOT
BRANCH   2   4
HETATM    4  C5  UNL     1     -35.010  14.733  -3.285  1.00 20.00     0.134 C 
HETATM    5  C3  UNL     1     -35.725  15.074  -4.584  1.00 20.00     0.035 C 
HETATM    6  C2  UNL     1     -34.897  14.353  -5.619  1.00 20.00     0.029 C 
HETATM    7  C4  UNL     1     -34.488  13.102  -4.874  1.00 20.00     0.168 C 
HETATM    8  O8  UNL     1     -34.350  13.471  -3.495  1.00 20.00    -0.385 OA
ENDBRANCH   2   4
TORSDOF 1
ENDMDL
MODEL 4
REMARK VINA RESULT:      -3.6     11.761     12.384
REMARK  1 active torsions:
REMARK  status: ('A' for Active; 'I' for Inactive)
REMARK    1  A    between atoms: C5_5  and  C6_6 
ROOT
HETATM    1  C1  UNL     1     -37.166  14.410  -4.113  1.00 20.00     0.061 C 
HETATM    2  C6  UNL     1     -35.825  14.388  -4.687  1.00 20.00     0.155 C 
HETATM    3  N7  UNL     1     -38.243  14.430  -3.679  1.00 20.00    -0.197 NA
ENDROOT
BRANCH   2   4
HETATM    4  C5  UNL     1     -34.896  14.245  -3.489  1.00 20.00     0.134 C 
HETATM    5  C3  UNL     1     -33.434  14.104  -3.884  1.00 20.00     0.035 C 
HETATM    6  C2  UNL     1     -32.945  15.532  -3.864  1.00 20.00     0.029 C 
HETATM    7  C4  UNL     1     -33.730  16.113  -2.711  1.00 20.00     0.168 C 
HETATM    8  O8  UNL     1     -34.996  15.440  -2.694  1.00 20.00    -0.385 OA
ENDBRANCH   2   4
TORSDOF 1
ENDMDL
MODEL 5
REMARK VINA RESULT:      -3.6     11.784     12.464
REMARK  1 active torsions:
REMARK  status: ('A' for Active; 'I' for Inactive)
REMARK    1  A    between atoms: C5_5  and  C6_6 
ROOT
HETATM    1  C1  UNL     1     -34.098  16.591  -1.762  1.00 20.00     0.061 C 
HETATM    2  C6  UNL     1     -34.767  15.565  -2.554  1.00 20.00     0.155 C 
HETATM    3  N7  UNL     1     -33.584  17.408  -1.116  1.00 20.00    -0.197 NA
ENDROOT
BRANCH   2   4
HETATM    4  C5  UNL     1     -33.777  15.226  -3.660  1.00 20.00     0.134 C 
HETATM    5  C3  UNL     1     -33.494  13.735  -3.767  1.00 20.00     0.035 C 
HETATM    6  C2  UNL     1     -34.510  13.276  -4.784  1.00 20.00     0.029 C 
HETATM    7  C4  UNL     1     -34.574  14.461  -5.719  1.00 20.00     0.168 C 
HETATM    8  O8  UNL     1     -34.349  15.629  -4.918  1.00 20.00    -0.385 OA
ENDBRANCH   2   4
TORSDOF 1
ENDMDL
MODEL 6
REMARK VINA RESULT:      -3.6     11.655     13.024
REMARK  1 active torsions:
REMARK  status: ('A' for Active; 'I' for Inactive)
REMARK    1  A    between atoms: C5_5  and  C6_6 
ROOT
HETATM    1  C1  UNL     1     -34.820  13.781  -3.907  1.00 20.00     0.061 C 
HETATM    2  C6  UNL     1     -35.101  15.018  -3.186  1.00 20.00     0.155 C 
HETATM    3  N7  UNL     1     -34.619  12.790  -4.479  1.00 20.00    -0.197 NA
ENDROOT
BRANCH   2   4
HETATM    4  C5  UNL     1     -33.758  15.732  -3.109  1.00 20.00     0.134 C 
HETATM    5  C3  UNL     1     -33.178  16.056  -4.477  1.00 20.00     0.035 C 
HETATM    6  C2  UNL     1     -33.699  17.447  -4.739  1.00 20.00     0.029 C 
HETATM    7  C4  UNL     1     -33.677  18.053  -3.354  1.00 20.00     0.168 C 
HETATM    8  O8  UNL     1     -33.953  16.988  -2.435  1.00 20.00    -0.385 OA
ENDBRANCH   2   4
TORSDOF 1
ENDMDL
MODEL 7
REMARK VINA RESULT:      -3.5     11.965     12.811
REMARK  1 active torsions:
REMARK  status: ('A' for Active; 'I' for Inactive)
REMARK    1  A    between atoms: C5_5  and  C6_6 
ROOT
HETATM    1  C1  UNL     1     -33.867  17.289  -2.992  1.00 20.00     0.061 C 
HETATM    2  C6  UNL     1     -34.047  15.868  -2.717  1.00 20.00     0.155 C 
HETATM    3  N7  UNL     1     -33.736  18.426  -3.190  1.00 20.00    -0.197 NA
ENDROOT
BRANCH   2   4
HETATM    4  C5  UNL     1     -33.334  15.161  -3.862  1.00 20.00     0.134 C 
HETATM    5  C3  UNL     1     -33.426  13.646  -3.773  1.00 20.00     0.035 C 
HETATM    6  C2  UNL     1     -34.658  13.338  -4.589  1.00 20.00     0.029 C 
HETATM    7  C4  UNL     1     -34.578  14.381  -5.680  1.00 20.00     0.168 C 
HETATM    8  O8  UNL     1     -33.973  15.542  -5.095  1.00 20.00    -0.385 OA
ENDBRANCH   2   4
TORSDOF 1
ENDMDL
MODEL 8
REMARK VINA RESULT:      -3.5     11.602     12.664
REMARK  1 active torsions:
REMARK  status: ('A' for Active; 'I' for Inactive)
REMARK    1  A    between atoms: C5_5  and  C6_6 
ROOT
HETATM    1  C1  UNL     1     -37.318  14.937  -3.729  1.00 20.00     0.061 C 
HETATM    2  C6  UNL     1     -36.104  15.742  -3.656  1.00 20.00     0.155 C 
HETATM    3  N7  UNL     1     -38.295  14.311  -3.771  1.00 20.00    -0.197 NA
ENDROOT
BRANCH   2   4
HETATM    4  C5  UNL     1     -35.139  15.073  -4.625  1.00 20.00     0.134 C 
HETATM    5  C3  UNL     1     -33.802  15.792  -4.723  1.00 20.00     0.035 C 
HETATM    6  C2  UNL     1     -32.967  15.084  -3.686  1.00 20.00     0.029 C 
HETATM    7  C4  UNL     1     -33.472  13.664  -3.796  1.00 20.00     0.168 C 
HETATM    8  O8  UNL     1     -34.860  13.747  -4.142  1.00 20.00    -0.385 OA
ENDBRANCH   2   4
TORSDOF 1
ENDMDL
MODEL 9
REMARK VINA RESULT:      -3.4     11.972     13.465
REMARK  1 active torsions:
REMARK  status: ('A' for Active; 'I' for Inactive)
REMARK    1  A    between atoms: C5_5  and  C6_6 
ROOT
HETATM    1  C1  UNL     1     -34.201  13.530  -4.023  1.00 20.00     0.061 C 
HETATM    2  C6  UNL     1     -35.563  13.768  -4.489  1.00 20.00     0.155 C 
HETATM    3  N7  UNL     1     -33.125  13.321  -3.640  1.00 20.00    -0.197 NA
ENDROOT
BRANCH   2   4
HETATM    4  C5  UNL     1     -35.463  15.025  -5.343  1.00 20.00     0.134 C 
HETATM    5  C3  UNL     1     -34.539  14.858  -6.539  1.00 20.00     0.035 C 
HETATM    6  C2  UNL     1     -35.481  14.410  -7.629  1.00 20.00     0.029 C 
HETATM    7  C4  UNL     1     -36.734  15.189  -7.296  1.00 20.00     0.168 C 
HETATM    8  O8  UNL     1     -36.770  15.319  -5.868  1.00 20.00    -0.385 OA
ENDBRANCH   2   4
TORSDOF 1
ENDMDL
