MODEL 1
REMARK VINA RESULT:      -5.0      0.000      0.000
REMARK  2 active torsions:
REMARK  status: ('A' for Active; 'I' for Inactive)
REMARK    1  A    between atoms: C1_1  and  C3_3 
REMARK    2  A    between atoms: C2_2  and  C8_8 
ROOT
HETATM    1  C1  UNL     1     -32.979   6.402   3.426  1.00 20.00     0.052 C 
HETATM    2  C2  UNL     1     -33.652   6.145   4.564  1.00 20.00    -0.077 C 
HETATM    3  C4  UNL     1     -33.477   6.915   5.848  1.00 20.00     0.044 C 
ENDROOT
BRANCH   2   4
HETATM    4  C8  UNL     1     -34.674   5.009   4.579  1.00 20.00     0.006 C 
HETATM    5  C6  UNL     1     -35.012   4.553   6.000  1.00 20.00     0.014 C 
HETATM    6  C7  UNL     1     -35.947   5.377   3.809  1.00 20.00     0.014 C 
ENDBRANCH   2   4
BRANCH   1   7
HETATM    7  C3  UNL     1     -31.963   7.477   3.246  1.00 20.00     0.145 C 
HETATM    8  C5  UNL     1     -32.079   8.303   1.993  1.00 20.00     0.096 C 
HETATM    9  O9  UNL     1     -31.048   7.656   4.045  1.00 20.00    -0.294 OA
ENDBRANCH   1   7
TORSDOF 2
ENDMDL
MODEL 2
REMARK VINA RESULT:      -4.8      1.267      2.092
REMARK  2 active torsions:
REMARK  status: ('A' for Active; 'I' for Inactive)
REMARK    1  A    between atoms: C1_1  and  C3_3 
REMARK    2  A    between atoms: C2_2  and  C8_8 
ROOT
HETATM    1  C1  UNL     1     -32.958   6.523   4.182  1.00 20.00     0.052 C 
HETATM    2  C2  UNL     1     -34.174   5.995   4.416  1.00 20.00    -0.077 C 
HETATM    3  C4  UNL     1     -35.075   5.427   3.349  1.00 20.00     0.044 C 
ENDROOT
BRANCH   2   4
HETATM    4  C8  UNL     1     -34.694   5.945   5.852  1.00 20.00     0.006 C 
HETATM    5  C6  UNL     1     -34.821   4.511   6.372  1.00 20.00     0.014 C 
HETATM    6  C7  UNL     1     -33.840   6.794   6.799  1.00 20.00     0.014 C 
ENDBRANCH   2   4
BRANCH   1   7
HETATM    7  C3  UNL     1     -32.306   6.634   2.846  1.00 20.00     0.145 C 
HETATM    8  C5  UNL     1     -32.145   8.025   2.293  1.00 20.00     0.096 C 
HETATM    9  O9  UNL     1     -31.958   5.648   2.201  1.00 20.00    -0.294 OA
ENDBRANCH   1   7
TORSDOF 2
ENDMDL
MODEL 3
REMARK VINA RESULT:      -4.6     11.547     12.242
REMARK  2 active torsions:
REMARK  status: ('A' for Active; 'I' for Inactive)
REMARK    1  A    between atoms: C1_1  and  C3_3 
REMARK    2  A    between atoms: C2_2  and  C8_8 
ROOT
HETATM    1  C1  UNL     1     -34.029  14.724  -3.850  1.00 20.00     0.052 C 
HETATM    2  C2  UNL     1     -34.730  15.560  -3.060  1.00 20.00    -0.077 C 
HETATM    3  C4  UNL     1     -36.235  15.635  -3.024  1.00 20.00     0.044 C 
ENDROOT
BRANCH   2   4
HETATM    4  C8  UNL     1     -33.973  16.497  -2.120  1.00 20.00     0.006 C 
HETATM    5  C6  UNL     1     -33.751  17.880  -2.737  1.00 20.00     0.014 C 
HETATM    6  C7  UNL     1     -34.660  16.615  -0.756  1.00 20.00     0.014 C 
ENDBRANCH   2   4
BRANCH   1   7
HETATM    7  C3  UNL     1     -34.616  13.745  -4.808  1.00 20.00     0.145 C 
HETATM    8  C5  UNL     1     -34.856  14.243  -6.209  1.00 20.00     0.096 C 
HETATM    9  O9  UNL     1     -34.934  12.608  -4.473  1.00 20.00    -0.294 OA
ENDBRANCH   1   7
TORSDOF 2
ENDMDL
MODEL 4
REMARK VINA RESULT:      -4.4      1.954      4.483
REMARK  2 active torsions:
REMARK  status: ('A' for Active; 'I' for Inactive)
REMARK    1  A    between atoms: C1_1  and  C3_3 
REMARK    2  A    between atoms: C2_2  and  C8_8 
ROOT
HETATM    1  C1  UNL     1     -33.688   6.224   4.424  1.00 20.00     0.052 C 
HETATM    2  C2  UNL     1     -33.064   6.185   3.231  1.00 20.00    -0.077 C 
HETATM    3  C4  UNL     1     -33.430   5.249   2.108  1.00 20.00     0.044 C 
ENDROOT
BRANCH   2   4
HETATM    4  C8  UNL     1     -31.909   7.152   2.970  1.00 20.00     0.006 C 
HETATM    5  C6  UNL     1     -32.290   8.251   1.976  1.00 20.00     0.014 C 
HETATM    6  C7  UNL     1     -31.366   7.757   4.268  1.00 20.00     0.014 C 
ENDBRANCH   2   4
BRANCH   1   7
HETATM    7  C3  UNL     1     -34.833   5.360   4.828  1.00 20.00     0.145 C 
HETATM    8  C5  UNL     1     -34.655   4.562   6.093  1.00 20.00     0.096 C 
HETATM    9  O9  UNL     1     -35.852   5.259   4.150  1.00 20.00    -0.294 OA
ENDBRANCH   1   7
TORSDOF 2
ENDMDL
MODEL 5
REMARK VINA RESULT:      -4.3     11.294     12.575
REMARK  2 active torsions:
REMARK  status: ('A' for Active; 'I' for Inactive)
REMARK    1  A    between atoms: C1_1  and  C3_3 
REMARK    2  A    between atoms: C2_2  and  C8_8 
ROOT
HETATM    1  C1  UNL     1     -36.211  15.759  -3.353  1.00 20.00     0.052 C 
HETATM    2  C2  UNL     1     -34.958  15.374  -3.047  1.00 20.00    -0.077 C 
HETATM    3  C4  UNL     1     -34.336  14.072  -3.485  1.00 20.00     0.044 C 
ENDROOT
BRANCH   2   4
HETATM    4  C8  UNL     1     -34.082  16.305  -2.210  1.00 20.00     0.006 C 
HETATM    5  C6  UNL     1     -33.790  17.625  -2.928  1.00 20.00     0.014 C 
HETATM    6  C7  UNL     1     -34.682  16.561  -0.824  1.00 20.00     0.014 C 
ENDBRANCH   2   4
BRANCH   1   7
HETATM    7  C3  UNL     1     -37.182  14.974  -4.167  1.00 20.00     0.145 C 
HETATM    8  C5  UNL     1     -37.186  15.245  -5.649  1.00 20.00     0.096 C 
HETATM    9  O9  UNL     1     -37.974  14.183  -3.663  1.00 20.00    -0.294 OA
ENDBRANCH   1   7
TORSDOF 2
ENDMDL
MODEL 6
REMARK VINA RESULT:      -4.1     11.156     12.014
REMARK  2 active torsions:
REMARK  status: ('A' for Active; 'I' for Inactive)
REMARK    1  A    between atoms: C1_1  and  C3_3 
REMARK    2  A    between atoms: C2_2  and  C8_8 
ROOT
HETATM    1  C1  UNL     1     -34.067  15.837  -2.404  1.00 20.00     0.052 C 
HETATM    2  C2  UNL     1     -34.980  15.156  -3.123  1.00 20.00    -0.077 C 
HETATM    3  C4  UNL     1     -36.404  15.603  -3.331  1.00 20.00     0.044 C 
ENDROOT
BRANCH   2   4
HETATM    4  C8  UNL     1     -34.567  13.845  -3.791  1.00 20.00     0.006 C 
HETATM    5  C6  UNL     1     -34.988  13.788  -5.261  1.00 20.00     0.014 C 
HETATM    6  C7  UNL     1     -33.065  13.578  -3.645  1.00 20.00     0.014 C 
ENDBRANCH   2   4
BRANCH   1   7
HETATM    7  C3  UNL     1     -34.307  17.130  -1.704  1.00 20.00     0.145 C 
HETATM    8  C5  UNL     1     -34.735  17.041  -0.263  1.00 20.00     0.096 C 
HETATM    9  O9  UNL     1     -34.212  18.214  -2.274  1.00 20.00    -0.294 OA
ENDBRANCH   1   7
TORSDOF 2
ENDMDL
MODEL 7
REMARK VINA RESULT:      -4.1      9.370     11.303
REMARK  2 active torsions:
REMARK  status: ('A' for Active; 'I' for Inactive)
REMARK    1  A    between atoms: C1_1  and  C3_3 
REMARK    2  A    between atoms: C2_2  and  C8_8 
ROOT
HETATM    1  C1  UNL     1     -41.598   4.154  -1.870  1.00 20.00     0.052 C 
HETATM    2  C2  UNL     1     -41.906   5.440  -2.123  1.00 20.00    -0.077 C 
HETATM    3  C4  UNL     1     -42.929   5.887  -3.136  1.00 20.00     0.044 C 
ENDROOT
BRANCH   2   4
HETATM    4  C8  UNL     1     -41.192   6.539  -1.337  1.00 20.00     0.006 C 
HETATM    5  C6  UNL     1     -42.073   7.776  -1.143  1.00 20.00     0.014 C 
HETATM    6  C7  UNL     1     -40.666   6.030   0.008  1.00 20.00     0.014 C 
ENDBRANCH   2   4
BRANCH   1   7
HETATM    7  C3  UNL     1     -42.210   2.971  -2.539  1.00 20.00     0.145 C 
HETATM    8  C5  UNL     1     -41.370   2.284  -3.583  1.00 20.00     0.096 C 
HETATM    9  O9  UNL     1     -43.354   2.596  -2.295  1.00 20.00    -0.294 OA
ENDBRANCH   1   7
TORSDOF 2
ENDMDL
MODEL 8
REMARK VINA RESULT:      -4.0      1.682      2.271
REMARK  2 active torsions:
REMARK  status: ('A' for Active; 'I' for Inactive)
REMARK    1  A    between atoms: C1_1  and  C3_3 
REMARK    2  A    between atoms: C2_2  and  C8_8 
ROOT
HETATM    1  C1  UNL     1     -32.815   7.570   2.203  1.00 20.00     0.052 C 
HETATM    2  C2  UNL     1     -32.441   7.094   3.406  1.00 20.00    -0.077 C 
HETATM    3  C4  UNL     1     -31.265   7.607   4.196  1.00 20.00     0.044 C 
ENDROOT
BRANCH   2   4
HETATM    4  C8  UNL     1     -33.255   5.966   4.039  1.00 20.00     0.006 C 
HETATM    5  C6  UNL     1     -33.849   6.370   5.390  1.00 20.00     0.014 C 
HETATM    6  C7  UNL     1     -34.347   5.450   3.097  1.00 20.00     0.014 C 
ENDBRANCH   2   4
BRANCH   1   7
HETATM    7  C3  UNL     1     -32.137   8.670   1.460  1.00 20.00     0.145 C 
HETATM    8  C5  UNL     1     -32.639  10.065   1.726  1.00 20.00     0.096 C 
HETATM    9  O9  UNL     1     -31.250   8.458   0.638  1.00 20.00    -0.294 OA
ENDBRANCH   1   7
TORSDOF 2
ENDMDL
MODEL 9
REMARK VINA RESULT:      -3.9     11.350     12.611
REMARK  2 active torsions:
REMARK  status: ('A' for Active; 'I' for Inactive)
REMARK    1  A    between atoms: C1_1  and  C3_3 
REMARK    2  A    between atoms: C2_2  and  C8_8 
ROOT
HETATM    1  C1  UNL     1     -36.292  15.378  -3.825  1.00 20.00     0.052 C 
HETATM    2  C2  UNL     1     -35.162  14.645  -3.815  1.00 20.00    -0.077 C 
HETATM    3  C4  UNL     1     -35.067  13.221  -4.303  1.00 20.00     0.044 C 
ENDROOT
BRANCH   2   4
HETATM    4  C8  UNL     1     -33.874  15.278  -3.289  1.00 20.00     0.006 C 
HETATM    5  C6  UNL     1     -32.654  14.384  -3.523  1.00 20.00     0.014 C 
HETATM    6  C7  UNL     1     -33.645  16.675  -3.873  1.00 20.00     0.014 C 
ENDBRANCH   2   4
BRANCH   1   7
HETATM    7  C3  UNL     1     -37.620  14.912  -4.314  1.00 20.00     0.145 C 
HETATM    8  C5  UNL     1     -37.999  15.322  -5.713  1.00 20.00     0.096 C 
HETATM    9  O9  UNL     1     -38.393  14.271  -3.607  1.00 20.00    -0.294 OA
ENDBRANCH   1   7
TORSDOF 2
ENDMDL
