MODEL 1
REMARK VINA RESULT:      -2.8      0.000      0.000
REMARK  2 active torsions:
REMARK  status: ('A' for Active; 'I' for Inactive)
REMARK    1  A    between atoms: P5_5  and  P6_6 
REMARK    2  A    between atoms: P5_5  and  S8_8 
ROOT
HETATM    1  C1  UNL     1     -33.580  17.678  -5.294  1.00 20.00     0.061 C 
HETATM    2  P5  UNL     1     -33.728  16.264  -4.142  1.00 20.00    -0.021 P 
ENDROOT
BRANCH   2   3
HETATM    3  P6  UNL     1     -34.840  14.830  -5.300  1.00 20.00    -0.027 P 
HETATM    4  C2  UNL     1     -34.478  13.175  -4.711  1.00 20.00     0.060 C 
HETATM    5  C3  UNL     1     -36.564  15.048  -4.830  1.00 20.00     0.060 C 
HETATM    6  S7  UNL     1     -34.503  15.114  -7.196  1.00 20.00    -0.092 SA
ENDBRANCH   2   3
BRANCH   2   7
HETATM    7  S8  UNL     1     -35.189  16.949  -2.786  1.00 20.00    -0.137 SA
HETATM    8  C4  UNL     1     -34.604  16.500  -1.139  1.00 20.00     0.095 C 
ENDBRANCH   2   7
TORSDOF 2
ENDMDL
MODEL 2
REMARK VINA RESULT:      -2.8      1.531      1.796
REMARK  2 active torsions:
REMARK  status: ('A' for Active; 'I' for Inactive)
REMARK    1  A    between atoms: P5_5  and  P6_6 
REMARK    2  A    between atoms: P5_5  and  S8_8 
ROOT
HETATM    1  C1  UNL     1     -33.555  17.694  -5.202  1.00 20.00     0.061 C 
HETATM    2  P5  UNL     1     -33.798  16.245  -4.112  1.00 20.00    -0.021 P 
ENDROOT
BRANCH   2   3
HETATM    3  P6  UNL     1     -35.001  14.939  -5.328  1.00 20.00    -0.027 P 
HETATM    4  C2  UNL     1     -34.406  14.980  -7.020  1.00 20.00     0.060 C 
HETATM    5  C3  UNL     1     -34.593  13.265  -4.806  1.00 20.00     0.060 C 
HETATM    6  S7  UNL     1     -36.882  15.390  -5.114  1.00 20.00    -0.092 SA
ENDBRANCH   2   3
BRANCH   2   7
HETATM    7  S8  UNL     1     -35.213  16.967  -2.726  1.00 20.00    -0.137 SA
HETATM    8  C4  UNL     1     -34.583  16.545  -1.089  1.00 20.00     0.095 C 
ENDBRANCH   2   7
TORSDOF 2
ENDMDL
MODEL 3
REMARK VINA RESULT:      -2.8      1.626      2.022
REMARK  2 active torsions:
REMARK  status: ('A' for Active; 'I' for Inactive)
REMARK    1  A    between atoms: P5_5  and  P6_6 
REMARK    2  A    between atoms: P5_5  and  S8_8 
ROOT
HETATM    1  C1  UNL     1     -33.571  17.905  -5.461  1.00 20.00     0.061 C 
HETATM    2  P5  UNL     1     -33.695  16.499  -4.297  1.00 20.00    -0.021 P 
ENDROOT
BRANCH   2   3
HETATM    3  P6  UNL     1     -34.943  15.111  -5.369  1.00 20.00    -0.027 P 
HETATM    4  C2  UNL     1     -36.595  15.791  -5.529  1.00 20.00     0.060 C 
HETATM    5  C3  UNL     1     -34.346  15.121  -7.067  1.00 20.00     0.060 C 
HETATM    6  S7  UNL     1     -34.859  13.361  -4.519  1.00 20.00    -0.092 SA
ENDBRANCH   2   3
BRANCH   2   7
HETATM    7  S8  UNL     1     -35.029  17.243  -2.844  1.00 20.00    -0.137 SA
HETATM    8  C4  UNL     1     -34.602  16.423  -1.294  1.00 20.00     0.095 C 
ENDBRANCH   2   7
TORSDOF 2
ENDMDL
MODEL 4
REMARK VINA RESULT:      -2.8      2.028      2.349
REMARK  2 active torsions:
REMARK  status: ('A' for Active; 'I' for Inactive)
REMARK    1  A    between atoms: P5_5  and  P6_6 
REMARK    2  A    between atoms: P5_5  and  S8_8 
ROOT
HETATM    1  C1  UNL     1     -33.583  13.846  -3.768  1.00 20.00     0.061 C 
HETATM    2  P5  UNL     1     -34.854  15.144  -3.551  1.00 20.00    -0.021 P 
ENDROOT
BRANCH   2   3
HETATM    3  P6  UNL     1     -34.879  16.103  -5.478  1.00 20.00    -0.027 P 
HETATM    4  C2  UNL     1     -34.513  14.895  -6.753  1.00 20.00     0.060 C 
HETATM    5  C3  UNL     1     -36.602  16.510  -5.803  1.00 20.00     0.060 C 
HETATM    6  S7  UNL     1     -33.699  17.651  -5.456  1.00 20.00    -0.092 SA
ENDBRANCH   2   3
BRANCH   2   7
HETATM    7  S8  UNL     1     -33.836  16.568  -2.375  1.00 20.00    -0.137 SA
HETATM    8  C4  UNL     1     -34.689  16.617  -0.786  1.00 20.00     0.095 C 
ENDBRANCH   2   7
TORSDOF 2
ENDMDL
MODEL 5
REMARK VINA RESULT:      -2.8      1.409      2.825
REMARK  2 active torsions:
REMARK  status: ('A' for Active; 'I' for Inactive)
REMARK    1  A    between atoms: P5_5  and  P6_6 
REMARK    2  A    between atoms: P5_5  and  S8_8 
ROOT
HETATM    1  C1  UNL     1     -34.488  13.702  -3.753  1.00 20.00     0.061 C 
HETATM    2  P5  UNL     1     -35.284  15.341  -3.579  1.00 20.00    -0.021 P 
ENDROOT
BRANCH   2   3
HETATM    3  P6  UNL     1     -34.984  16.217  -5.522  1.00 20.00    -0.027 P 
HETATM    4  C2  UNL     1     -36.321  17.359  -5.877  1.00 20.00     0.060 C 
HETATM    5  C3  UNL     1     -33.564  17.310  -5.356  1.00 20.00     0.060 C 
HETATM    6  S7  UNL     1     -34.739  14.810  -6.845  1.00 20.00    -0.092 SA
ENDBRANCH   2   3
BRANCH   2   7
HETATM    7  S8  UNL     1     -33.880  16.393  -2.410  1.00 20.00    -0.137 SA
HETATM    8  C4  UNL     1     -34.653  16.657  -0.802  1.00 20.00     0.095 C 
ENDBRANCH   2   7
TORSDOF 2
ENDMDL
MODEL 6
REMARK VINA RESULT:      -2.8      1.874      3.947
REMARK  2 active torsions:
REMARK  status: ('A' for Active; 'I' for Inactive)
REMARK    1  A    between atoms: P5_5  and  P6_6 
REMARK    2  A    between atoms: P5_5  and  S8_8 
ROOT
HETATM    1  C1  UNL     1     -33.301  16.796  -5.280  1.00 20.00     0.061 C 
HETATM    2  P5  UNL     1     -35.041  16.320  -5.585  1.00 20.00    -0.021 P 
ENDROOT
BRANCH   2   3
HETATM    3  P6  UNL     1     -35.496  15.084  -3.883  1.00 20.00    -0.027 P 
HETATM    4  C2  UNL     1     -37.257  14.742  -3.844  1.00 20.00     0.060 C 
HETATM    5  C3  UNL     1     -34.788  13.468  -4.243  1.00 20.00     0.060 C 
HETATM    6  S7  UNL     1     -34.788  15.907  -2.267  1.00 20.00    -0.092 SA
ENDBRANCH   2   3
BRANCH   2   7
HETATM    7  S8  UNL     1     -34.845  14.886  -7.119  1.00 20.00    -0.137 SA
HETATM    8  C4  UNL     1     -36.459  14.772  -7.917  1.00 20.00     0.095 C 
ENDBRANCH   2   7
TORSDOF 2
ENDMDL
MODEL 7
REMARK VINA RESULT:      -2.8      1.896      2.849
REMARK  2 active torsions:
REMARK  status: ('A' for Active; 'I' for Inactive)
REMARK    1  A    between atoms: P5_5  and  P6_6 
REMARK    2  A    between atoms: P5_5  and  S8_8 
ROOT
HETATM    1  C1  UNL     1     -37.166  14.809  -3.812  1.00 20.00     0.061 C 
HETATM    2  P5  UNL     1     -36.330  16.154  -4.728  1.00 20.00    -0.021 P 
ENDROOT
BRANCH   2   3
HETATM    3  P6  UNL     1     -34.525  15.203  -5.415  1.00 20.00    -0.027 P 
HETATM    4  C2  UNL     1     -34.552  15.090  -7.205  1.00 20.00     0.060 C 
HETATM    5  C3  UNL     1     -33.200  16.383  -5.113  1.00 20.00     0.060 C 
HETATM    6  S7  UNL     1     -34.288  13.504  -4.494  1.00 20.00    -0.092 SA
ENDBRANCH   2   3
BRANCH   2   7
HETATM    7  S8  UNL     1     -35.607  17.371  -3.165  1.00 20.00    -0.137 SA
HETATM    8  C4  UNL     1     -34.967  16.251  -1.903  1.00 20.00     0.095 C 
ENDBRANCH   2   7
TORSDOF 2
ENDMDL
MODEL 8
REMARK VINA RESULT:      -2.7      2.040      4.094
REMARK  2 active torsions:
REMARK  status: ('A' for Active; 'I' for Inactive)
REMARK    1  A    between atoms: P5_5  and  P6_6 
REMARK    2  A    between atoms: P5_5  and  S8_8 
ROOT
HETATM    1  C1  UNL     1     -36.605  16.444  -5.105  1.00 20.00     0.061 C 
HETATM    2  P5  UNL     1     -35.857  15.143  -4.058  1.00 20.00    -0.021 P 
ENDROOT
BRANCH   2   3
HETATM    3  P6  UNL     1     -34.119  16.127  -3.256  1.00 20.00    -0.027 P 
HETATM    4  C2  UNL     1     -32.670  15.108  -3.541  1.00 20.00     0.060 C 
HETATM    5  C3  UNL     1     -33.820  17.546  -4.322  1.00 20.00     0.060 C 
HETATM    6  S7  UNL     1     -34.432  16.598  -1.393  1.00 20.00    -0.092 SA
ENDBRANCH   2   3
BRANCH   2   7
HETATM    7  S8  UNL     1     -35.001  13.857  -5.492  1.00 20.00    -0.137 SA
HETATM    8  C4  UNL     1     -34.588  14.887  -6.915  1.00 20.00     0.095 C 
ENDBRANCH   2   7
TORSDOF 2
ENDMDL
MODEL 9
REMARK VINA RESULT:      -2.7      1.669      4.179
REMARK  2 active torsions:
REMARK  status: ('A' for Active; 'I' for Inactive)
REMARK    1  A    between atoms: P5_5  and  P6_6 
REMARK    2  A    between atoms: P5_5  and  S8_8 
ROOT
HETATM    1  C1  UNL     1     -34.198  13.897  -3.590  1.00 20.00     0.061 C 
HETATM    2  P5  UNL     1     -33.466  15.523  -4.001  1.00 20.00    -0.021 P 
ENDROOT
BRANCH   2   3
HETATM    3  P6  UNL     1     -34.693  16.887  -2.876  1.00 20.00    -0.027 P 
HETATM    4  C2  UNL     1     -34.594  16.482  -1.131  1.00 20.00     0.060 C 
HETATM    5  C3  UNL     1     -33.861  18.481  -2.959  1.00 20.00     0.060 C 
HETATM    6  S7  UNL     1     -36.496  16.905  -3.609  1.00 20.00    -0.092 SA
ENDBRANCH   2   3
BRANCH   2   7
HETATM    7  S8  UNL     1     -34.163  15.838  -5.966  1.00 20.00    -0.137 SA
HETATM    8  C4  UNL     1     -35.120  14.373  -6.407  1.00 20.00     0.095 C 
ENDBRANCH   2   7
TORSDOF 2
ENDMDL
