MODEL 1
REMARK VINA RESULT:      -4.0      0.000      0.000
REMARK  3 active torsions:
REMARK  status: ('A' for Active; 'I' for Inactive)
REMARK    1  A    between atoms: C7_7  and  C8_8 
REMARK    2  A    between atoms: C7_7  and  N9_9 
REMARK    3  A    between atoms: C8_8  and  N10_10 
ROOT
HETATM    1  C1  UNL     1     -34.938  13.649  -5.643  1.00 20.00     0.157 C 
HETATM    2  N9  UNL     1     -34.660  12.958  -4.736  1.00 20.00    -0.274 NA
HETATM    3  S11 UNL     1     -35.320  14.562  -6.891  1.00 20.00    -0.055 SA
ENDROOT
BRANCH   2   4
HETATM    4  C7  UNL     1     -34.300  13.669  -3.507  1.00 20.00     0.178 C 
BRANCH   4   5
HETATM    5  C8  UNL     1     -33.210  14.682  -3.802  1.00 20.00     0.256 C 
BRANCH   5   6
HETATM    6  N10 UNL     1     -33.484  15.954  -3.046  1.00 20.00    -0.070 N 
HETATM    7  C5  UNL     1     -33.702  17.120  -3.980  1.00 20.00     0.235 C 
HETATM    8  C3  UNL     1     -33.850  18.398  -3.167  1.00 20.00     0.028 C 
HETATM    9  C2  UNL     1     -34.966  18.283  -2.134  1.00 20.00     0.003 C 
HETATM   10  C4  UNL     1     -34.773  17.059  -1.246  1.00 20.00     0.028 C 
HETATM   11  C6  UNL     1     -34.621  15.786  -2.066  1.00 20.00     0.235 C 
HETATM   12  H26 UNL     1     -32.635  16.154  -2.499  1.00 20.00     0.279 HD
ENDBRANCH   5   6
ENDBRANCH   4   5
ENDBRANCH   2   4
TORSDOF 3
ENDMDL
MODEL 2
REMARK VINA RESULT:      -4.0      3.100      4.983
REMARK  3 active torsions:
REMARK  status: ('A' for Active; 'I' for Inactive)
REMARK    1  A    between atoms: C7_7  and  C8_8 
REMARK    2  A    between atoms: C7_7  and  N9_9 
REMARK    3  A    between atoms: C8_8  and  N10_10 
ROOT
HETATM    1  C1  UNL     1     -34.911  17.220   0.226  1.00 20.00     0.157 C 
HETATM    2  N9  UNL     1     -34.460  16.708  -0.730  1.00 20.00    -0.274 NA
HETATM    3  S11 UNL     1     -35.535  17.887   1.531  1.00 20.00    -0.055 SA
ENDROOT
BRANCH   2   4
HETATM    4  C7  UNL     1     -33.707  17.603  -1.612  1.00 20.00     0.178 C 
BRANCH   4   5
HETATM    5  C8  UNL     1     -34.077  17.329  -3.057  1.00 20.00     0.256 C 
BRANCH   5   6
HETATM    6  N10 UNL     1     -34.341  15.859  -3.241  1.00 20.00    -0.070 N 
HETATM    7  C5  UNL     1     -35.532  15.615  -4.138  1.00 20.00     0.235 C 
HETATM    8  C3  UNL     1     -35.828  14.124  -4.190  1.00 20.00     0.028 C 
HETATM    9  C2  UNL     1     -34.610  13.322  -4.636  1.00 20.00     0.003 C 
HETATM   10  C4  UNL     1     -33.395  13.634  -3.768  1.00 20.00     0.028 C 
HETATM   11  C6  UNL     1     -33.108  15.127  -3.717  1.00 20.00     0.235 C 
HETATM   12  H26 UNL     1     -34.577  15.488  -2.310  1.00 20.00     0.279 HD
ENDBRANCH   5   6
ENDBRANCH   4   5
ENDBRANCH   2   4
TORSDOF 3
ENDMDL
MODEL 3
REMARK VINA RESULT:      -3.9     11.094     12.522
REMARK  3 active torsions:
REMARK  status: ('A' for Active; 'I' for Inactive)
REMARK    1  A    between atoms: C7_7  and  C8_8 
REMARK    2  A    between atoms: C7_7  and  N9_9 
REMARK    3  A    between atoms: C8_8  and  N10_10 
ROOT
HETATM    1  C1  UNL     1     -32.075   8.566   1.817  1.00 20.00     0.157 C 
HETATM    2  N9  UNL     1     -31.812   8.090   2.857  1.00 20.00    -0.274 NA
HETATM    3  S11 UNL     1     -32.426   9.240   0.416  1.00 20.00    -0.055 SA
ENDROOT
BRANCH   2   4
HETATM    4  C7  UNL     1     -31.921   6.630   2.912  1.00 20.00     0.178 C 
BRANCH   4   5
HETATM    5  C8  UNL     1     -33.382   6.225   2.919  1.00 20.00     0.256 C 
BRANCH   5   6
HETATM    6  N10 UNL     1     -33.724   5.584   4.237  1.00 20.00    -0.070 N 
HETATM    7  C5  UNL     1     -33.878   6.612   5.333  1.00 20.00     0.235 C 
HETATM    8  C3  UNL     1     -34.099   5.904   6.661  1.00 20.00     0.028 C 
HETATM    9  C2  UNL     1     -35.291   4.956   6.604  1.00 20.00     0.003 C 
HETATM   10  C4  UNL     1     -35.158   3.971   5.447  1.00 20.00     0.028 C 
HETATM   11  C6  UNL     1     -34.932   4.686   4.122  1.00 20.00     0.235 C 
HETATM   12  H26 UNL     1     -32.922   4.989   4.486  1.00 20.00     0.279 HD
ENDBRANCH   5   6
ENDBRANCH   4   5
ENDBRANCH   2   4
TORSDOF 3
ENDMDL
MODEL 4
REMARK VINA RESULT:      -3.9     11.112     12.573
REMARK  3 active torsions:
REMARK  status: ('A' for Active; 'I' for Inactive)
REMARK    1  A    between atoms: C7_7  and  C8_8 
REMARK    2  A    between atoms: C7_7  and  N9_9 
REMARK    3  A    between atoms: C8_8  and  N10_10 
ROOT
HETATM    1  C1  UNL     1     -31.911   8.425   2.013  1.00 20.00     0.157 C 
HETATM    2  N9  UNL     1     -31.575   7.810   2.955  1.00 20.00    -0.274 NA
HETATM    3  S11 UNL     1     -32.349   9.283   0.744  1.00 20.00    -0.055 SA
ENDROOT
BRANCH   2   4
HETATM    4  C7  UNL     1     -32.171   6.476   3.064  1.00 20.00     0.178 C 
BRANCH   4   5
HETATM    5  C8  UNL     1     -33.674   6.570   2.886  1.00 20.00     0.256 C 
BRANCH   5   6
HETATM    6  N10 UNL     1     -34.364   6.045   4.116  1.00 20.00    -0.070 N 
HETATM    7  C5  UNL     1     -34.577   4.552   4.041  1.00 20.00     0.235 C 
HETATM    8  C3  UNL     1     -35.384   4.096   5.248  1.00 20.00     0.028 C 
HETATM    9  C2  UNL     1     -34.722   4.509   6.558  1.00 20.00     0.003 C 
HETATM   10  C4  UNL     1     -34.445   6.008   6.589  1.00 20.00     0.028 C 
HETATM   11  C6  UNL     1     -33.642   6.458   5.377  1.00 20.00     0.235 C 
HETATM   12  H26 UNL     1     -35.294   6.487   4.138  1.00 20.00     0.279 HD
ENDBRANCH   5   6
ENDBRANCH   4   5
ENDBRANCH   2   4
TORSDOF 3
ENDMDL
MODEL 5
REMARK VINA RESULT:      -3.8      2.962      4.686
REMARK  3 active torsions:
REMARK  status: ('A' for Active; 'I' for Inactive)
REMARK    1  A    between atoms: C7_7  and  C8_8 
REMARK    2  A    between atoms: C7_7  and  N9_9 
REMARK    3  A    between atoms: C8_8  and  N10_10 
ROOT
HETATM    1  C1  UNL     1     -34.666  16.598  -1.036  1.00 20.00     0.157 C 
HETATM    2  N9  UNL     1     -34.564  15.922  -1.990  1.00 20.00    -0.274 NA
HETATM    3  S11 UNL     1     -34.825  17.496   0.271  1.00 20.00    -0.055 SA
ENDROOT
BRANCH   2   4
HETATM    4  C7  UNL     1     -33.587  16.390  -2.976  1.00 20.00     0.178 C 
BRANCH   4   5
HETATM    5  C8  UNL     1     -33.160  15.236  -3.862  1.00 20.00     0.256 C 
BRANCH   5   6
HETATM    6  N10 UNL     1     -33.532  15.530  -5.290  1.00 20.00    -0.070 N 
HETATM    7  C5  UNL     1     -34.516  14.518  -5.828  1.00 20.00     0.235 C 
HETATM    8  C3  UNL     1     -34.761  14.788  -7.306  1.00 20.00     0.028 C 
HETATM    9  C2  UNL     1     -35.230  16.219  -7.547  1.00 20.00     0.003 C 
HETATM   10  C4  UNL     1     -34.265  17.228  -6.934  1.00 20.00     0.028 C 
HETATM   11  C6  UNL     1     -34.021  16.949  -5.458  1.00 20.00     0.235 C 
HETATM   12  H26 UNL     1     -32.666  15.437  -5.840  1.00 20.00     0.279 HD
ENDBRANCH   5   6
ENDBRANCH   4   5
ENDBRANCH   2   4
TORSDOF 3
ENDMDL
MODEL 6
REMARK VINA RESULT:      -3.8      3.007      4.751
REMARK  3 active torsions:
REMARK  status: ('A' for Active; 'I' for Inactive)
REMARK    1  A    between atoms: C7_7  and  C8_8 
REMARK    2  A    between atoms: C7_7  and  N9_9 
REMARK    3  A    between atoms: C8_8  and  N10_10 
ROOT
HETATM    1  C1  UNL     1     -34.770  16.899  -0.478  1.00 20.00     0.157 C 
HETATM    2  N9  UNL     1     -34.727  16.190  -1.413  1.00 20.00    -0.274 NA
HETATM    3  S11 UNL     1     -34.851  17.843   0.803  1.00 20.00    -0.055 SA
ENDROOT
BRANCH   2   4
HETATM    4  C7  UNL     1     -33.735  16.565  -2.424  1.00 20.00     0.178 C 
BRANCH   4   5
HETATM    5  C8  UNL     1     -33.402  15.361  -3.285  1.00 20.00     0.256 C 
BRANCH   5   6
HETATM    6  N10 UNL     1     -34.164  15.440  -4.581  1.00 20.00    -0.070 N 
HETATM    7  C5  UNL     1     -33.517  16.401  -5.550  1.00 20.00     0.235 C 
HETATM    8  C3  UNL     1     -34.391  16.534  -6.788  1.00 20.00     0.028 C 
HETATM    9  C2  UNL     1     -34.667  15.181  -7.433  1.00 20.00     0.003 C 
HETATM   10  C4  UNL     1     -35.251  14.197  -6.424  1.00 20.00     0.028 C 
HETATM   11  C6  UNL     1     -34.374  14.072  -5.186  1.00 20.00     0.235 C 
HETATM   12  H26 UNL     1     -35.093  15.818  -4.348  1.00 20.00     0.279 HD
ENDBRANCH   5   6
ENDBRANCH   4   5
ENDBRANCH   2   4
TORSDOF 3
ENDMDL
MODEL 7
REMARK VINA RESULT:      -3.7      2.433      3.527
REMARK  3 active torsions:
REMARK  status: ('A' for Active; 'I' for Inactive)
REMARK    1  A    between atoms: C7_7  and  C8_8 
REMARK    2  A    between atoms: C7_7  and  N9_9 
REMARK    3  A    between atoms: C8_8  and  N10_10 
ROOT
HETATM    1  C1  UNL     1     -37.512  15.358  -7.008  1.00 20.00     0.157 C 
HETATM    2  N9  UNL     1     -36.707  15.280  -7.858  1.00 20.00    -0.274 NA
HETATM    3  S11 UNL     1     -38.621  15.484  -5.871  1.00 20.00    -0.055 SA
ENDROOT
BRANCH   2   4
HETATM    4  C7  UNL     1     -35.612  14.346  -7.586  1.00 20.00     0.178 C 
BRANCH   4   5
HETATM    5  C8  UNL     1     -34.326  15.117  -7.358  1.00 20.00     0.256 C 
BRANCH   5   6
HETATM    6  N10 UNL     1     -33.920  15.010  -5.913  1.00 20.00    -0.070 N 
HETATM    7  C5  UNL     1     -34.095  16.322  -5.187  1.00 20.00     0.235 C 
HETATM    8  C3  UNL     1     -33.557  16.191  -3.769  1.00 20.00     0.028 C 
HETATM    9  C2  UNL     1     -34.215  15.038  -3.020  1.00 20.00     0.003 C 
HETATM   10  C4  UNL     1     -34.096  13.733  -3.801  1.00 20.00     0.028 C 
HETATM   11  C6  UNL     1     -34.632  13.873  -5.218  1.00 20.00     0.235 C 
HETATM   12  H26 UNL     1     -32.915  14.789  -5.910  1.00 20.00     0.279 HD
ENDBRANCH   5   6
ENDBRANCH   4   5
ENDBRANCH   2   4
TORSDOF 3
ENDMDL
MODEL 8
REMARK VINA RESULT:      -3.7      9.991     11.805
REMARK  3 active torsions:
REMARK  status: ('A' for Active; 'I' for Inactive)
REMARK    1  A    between atoms: C7_7  and  C8_8 
REMARK    2  A    between atoms: C7_7  and  N9_9 
REMARK    3  A    between atoms: C8_8  and  N10_10 
ROOT
HETATM    1  C1  UNL     1     -41.919   9.910  -5.296  1.00 20.00     0.157 C 
HETATM    2  N9  UNL     1     -41.953   8.795  -4.932  1.00 20.00    -0.274 NA
HETATM    3  S11 UNL     1     -41.852  11.417  -5.812  1.00 20.00    -0.055 SA
ENDROOT
BRANCH   2   4
HETATM    4  C7  UNL     1     -42.907   8.528  -3.852  1.00 20.00     0.178 C 
BRANCH   4   5
HETATM    5  C8  UNL     1     -43.059   7.031  -3.662  1.00 20.00     0.256 C 
BRANCH   5   6
HETATM    6  N10 UNL     1     -42.028   6.538  -2.684  1.00 20.00    -0.070 N 
HETATM    7  C5  UNL     1     -41.969   7.408  -1.450  1.00 20.00     0.235 C 
HETATM    8  C3  UNL     1     -40.831   6.939  -0.556  1.00 20.00     0.028 C 
HETATM    9  C2  UNL     1     -40.963   5.462  -0.201  1.00 20.00     0.003 C 
HETATM   10  C4  UNL     1     -41.096   4.603  -1.454  1.00 20.00     0.028 C 
HETATM   11  C6  UNL     1     -42.233   5.080  -2.346  1.00 20.00     0.235 C 
HETATM   12  H26 UNL     1     -41.117   6.617  -3.158  1.00 20.00     0.279 HD
ENDBRANCH   5   6
ENDBRANCH   4   5
ENDBRANCH   2   4
TORSDOF 3
ENDMDL
MODEL 9
REMARK VINA RESULT:      -3.7      2.633      4.764
REMARK  3 active torsions:
REMARK  status: ('A' for Active; 'I' for Inactive)
REMARK    1  A    between atoms: C7_7  and  C8_8 
REMARK    2  A    between atoms: C7_7  and  N9_9 
REMARK    3  A    between atoms: C8_8  and  N10_10 
ROOT
HETATM    1  C1  UNL     1     -33.781  18.395  -2.398  1.00 20.00     0.157 C 
HETATM    2  N9  UNL     1     -33.730  18.882  -3.465  1.00 20.00    -0.274 NA
HETATM    3  S11 UNL     1     -33.836  17.759  -0.938  1.00 20.00    -0.055 SA
ENDROOT
BRANCH   2   4
HETATM    4  C7  UNL     1     -34.294  18.065  -4.542  1.00 20.00     0.178 C 
BRANCH   4   5
HETATM    5  C8  UNL     1     -33.193  17.258  -5.203  1.00 20.00     0.256 C 
BRANCH   5   6
HETATM    6  N10 UNL     1     -33.539  15.795  -5.155  1.00 20.00    -0.070 N 
HETATM    7  C5  UNL     1     -33.212  15.189  -3.811  1.00 20.00     0.235 C 
HETATM    8  C3  UNL     1     -33.465  13.689  -3.859  1.00 20.00     0.028 C 
HETATM    9  C2  UNL     1     -34.892  13.371  -4.290  1.00 20.00     0.003 C 
HETATM   10  C4  UNL     1     -35.234  14.051  -5.612  1.00 20.00     0.028 C 
HETATM   11  C6  UNL     1     -34.974  15.549  -5.559  1.00 20.00     0.235 C 
HETATM   12  H26 UNL     1     -32.941  15.332  -5.854  1.00 20.00     0.279 HD
ENDBRANCH   5   6
ENDBRANCH   4   5
ENDBRANCH   2   4
TORSDOF 3
ENDMDL
