MODEL 1
REMARK VINA RESULT:      -4.4      0.000      0.000
REMARK  0 active torsions:
REMARK  status: ('A' for Active; 'I' for Inactive)
ROOT
HETATM    1  C1  UNL     1     -36.069  15.474  -3.617  1.00 20.00     0.056 C 
HETATM    2  C2  UNL     1     -35.062  13.602  -4.219  1.00 20.00     0.264 C 
HETATM    3  C3  UNL     1     -37.121  16.267  -3.385  1.00 20.00     0.047 C 
HETATM    4  C4  UNL     1     -34.135  14.257  -3.240  1.00 20.00     0.127 C 
HETATM    5  C5  UNL     1     -34.663  15.678  -3.133  1.00 20.00     0.010 C 
HETATM    6  C6  UNL     1     -34.553  16.189  -1.691  1.00 20.00     0.022 C 
HETATM    7  C7  UNL     1     -33.906  16.619  -4.081  1.00 20.00     0.022 C 
HETATM    8  O8  UNL     1     -34.837  12.538  -4.779  1.00 20.00    -0.265 OA
HETATM    9  O9  UNL     1     -36.223  14.305  -4.362  1.00 20.00    -0.283 OA
ENDROOT
TORSDOF 0
ENDMDL
MODEL 2
REMARK VINA RESULT:      -4.4      1.675      2.416
REMARK  0 active torsions:
REMARK  status: ('A' for Active; 'I' for Inactive)
ROOT
HETATM    1  C1  UNL     1     -34.876  15.520  -2.994  1.00 20.00     0.056 C 
HETATM    2  C2  UNL     1     -36.697  14.495  -3.710  1.00 20.00     0.264 C 
HETATM    3  C3  UNL     1     -34.155  16.266  -2.149  1.00 20.00     0.047 C 
HETATM    4  C4  UNL     1     -35.550  13.705  -4.263  1.00 20.00     0.127 C 
HETATM    5  C5  UNL     1     -34.352  14.620  -4.073  1.00 20.00     0.010 C 
HETATM    6  C6  UNL     1     -33.110  13.810  -3.681  1.00 20.00     0.022 C 
HETATM    7  C7  UNL     1     -34.069  15.427  -5.348  1.00 20.00     0.022 C 
HETATM    8  O8  UNL     1     -37.876  14.232  -3.905  1.00 20.00    -0.265 OA
HETATM    9  O9  UNL     1     -36.268  15.512  -2.907  1.00 20.00    -0.283 OA
ENDROOT
TORSDOF 0
ENDMDL
MODEL 3
REMARK VINA RESULT:      -4.3      1.320      2.301
REMARK  0 active torsions:
REMARK  status: ('A' for Active; 'I' for Inactive)
ROOT
HETATM    1  C1  UNL     1     -34.254  15.584  -3.355  1.00 20.00     0.056 C 
HETATM    2  C2  UNL     1     -34.643  13.698  -4.439  1.00 20.00     0.264 C 
HETATM    3  C3  UNL     1     -33.845  16.329  -2.321  1.00 20.00     0.047 C 
HETATM    4  C4  UNL     1     -34.386  14.724  -5.501  1.00 20.00     0.127 C 
HETATM    5  C5  UNL     1     -34.491  16.048  -4.762  1.00 20.00     0.010 C 
HETATM    6  C6  UNL     1     -33.450  17.044  -5.288  1.00 20.00     0.022 C 
HETATM    7  C7  UNL     1     -35.900  16.643  -4.895  1.00 20.00     0.022 C 
HETATM    8  O8  UNL     1     -34.906  12.524  -4.660  1.00 20.00    -0.265 OA
HETATM    9  O9  UNL     1     -34.484  14.218  -3.187  1.00 20.00    -0.283 OA
ENDROOT
TORSDOF 0
ENDMDL
MODEL 4
REMARK VINA RESULT:      -4.3      1.558      2.628
REMARK  0 active torsions:
REMARK  status: ('A' for Active; 'I' for Inactive)
ROOT
HETATM    1  C1  UNL     1     -34.945  14.854  -5.513  1.00 20.00     0.056 C 
HETATM    2  C2  UNL     1     -36.638  14.531  -4.131  1.00 20.00     0.264 C 
HETATM    3  C3  UNL     1     -34.374  15.113  -6.695  1.00 20.00     0.047 C 
HETATM    4  C4  UNL     1     -35.527  15.072  -3.283  1.00 20.00     0.127 C 
HETATM    5  C5  UNL     1     -34.296  14.935  -4.162  1.00 20.00     0.010 C 
HETATM    6  C6  UNL     1     -33.361  16.136  -3.975  1.00 20.00     0.022 C 
HETATM    7  C7  UNL     1     -33.543  13.632  -3.855  1.00 20.00     0.022 C 
HETATM    8  O8  UNL     1     -37.743  14.220  -3.708  1.00 20.00    -0.265 OA
HETATM    9  O9  UNL     1     -36.288  14.485  -5.450  1.00 20.00    -0.283 OA
ENDROOT
TORSDOF 0
ENDMDL
MODEL 5
REMARK VINA RESULT:      -4.2      1.073      2.215
REMARK  0 active torsions:
REMARK  status: ('A' for Active; 'I' for Inactive)
ROOT
HETATM    1  C1  UNL     1     -34.087  15.836  -4.412  1.00 20.00     0.056 C 
HETATM    2  C2  UNL     1     -34.958  13.811  -4.256  1.00 20.00     0.264 C 
HETATM    3  C3  UNL     1     -33.335  16.796  -4.963  1.00 20.00     0.047 C 
HETATM    4  C4  UNL     1     -35.952  14.725  -3.606  1.00 20.00     0.127 C 
HETATM    5  C5  UNL     1     -35.179  16.017  -3.398  1.00 20.00     0.010 C 
HETATM    6  C6  UNL     1     -36.082  17.232  -3.645  1.00 20.00     0.022 C 
HETATM    7  C7  UNL     1     -34.587  16.083  -1.984  1.00 20.00     0.022 C 
HETATM    8  O8  UNL     1     -35.092  12.599  -4.353  1.00 20.00    -0.265 OA
HETATM    9  O9  UNL     1     -33.908  14.504  -4.786  1.00 20.00    -0.283 OA
ENDROOT
TORSDOF 0
ENDMDL
MODEL 6
REMARK VINA RESULT:      -4.2      1.080      2.709
REMARK  0 active torsions:
REMARK  status: ('A' for Active; 'I' for Inactive)
ROOT
HETATM    1  C1  UNL     1     -34.934  14.263  -3.823  1.00 20.00     0.056 C 
HETATM    2  C2  UNL     1     -37.123  14.564  -3.818  1.00 20.00     0.264 C 
HETATM    3  C3  UNL     1     -33.800  13.598  -4.070  1.00 20.00     0.047 C 
HETATM    4  C4  UNL     1     -36.531  15.939  -3.877  1.00 20.00     0.127 C 
HETATM    5  C5  UNL     1     -35.072  15.725  -3.510  1.00 20.00     0.010 C 
HETATM    6  C6  UNL     1     -34.165  16.642  -4.340  1.00 20.00     0.022 C 
HETATM    7  C7  UNL     1     -34.839  15.972  -2.013  1.00 20.00     0.022 C 
HETATM    8  O8  UNL     1     -38.323  14.327  -3.792  1.00 20.00    -0.265 OA
HETATM    9  O9  UNL     1     -36.159  13.598  -3.863  1.00 20.00    -0.283 OA
ENDROOT
TORSDOF 0
ENDMDL
MODEL 7
REMARK VINA RESULT:      -4.1      1.564      2.506
REMARK  0 active torsions:
REMARK  status: ('A' for Active; 'I' for Inactive)
ROOT
HETATM    1  C1  UNL     1     -33.757  16.407  -3.873  1.00 20.00     0.056 C 
HETATM    2  C2  UNL     1     -33.462  14.222  -3.735  1.00 20.00     0.264 C 
HETATM    3  C3  UNL     1     -33.543  17.633  -4.365  1.00 20.00     0.047 C 
HETATM    4  C4  UNL     1     -34.866  14.465  -3.272  1.00 20.00     0.127 C 
HETATM    5  C5  UNL     1     -34.915  15.965  -3.027  1.00 20.00     0.010 C 
HETATM    6  C6  UNL     1     -36.271  16.538  -3.455  1.00 20.00     0.022 C 
HETATM    7  C7  UNL     1     -34.650  16.290  -1.551  1.00 20.00     0.022 C 
HETATM    8  O8  UNL     1     -32.932  13.120  -3.789  1.00 20.00    -0.265 OA
HETATM    9  O9  UNL     1     -32.861  15.374  -4.152  1.00 20.00    -0.283 OA
ENDROOT
TORSDOF 0
ENDMDL
MODEL 8
REMARK VINA RESULT:      -3.9      2.113      3.259
REMARK  0 active torsions:
REMARK  status: ('A' for Active; 'I' for Inactive)
ROOT
HETATM    1  C1  UNL     1     -34.109  15.835  -5.187  1.00 20.00     0.056 C 
HETATM    2  C2  UNL     1     -34.694  13.705  -5.151  1.00 20.00     0.264 C 
HETATM    3  C3  UNL     1     -33.340  16.889  -4.889  1.00 20.00     0.047 C 
HETATM    4  C4  UNL     1     -35.231  14.245  -6.441  1.00 20.00     0.127 C 
HETATM    5  C5  UNL     1     -35.143  15.752  -6.271  1.00 20.00     0.010 C 
HETATM    6  C6  UNL     1     -34.739  16.422  -7.590  1.00 20.00     0.022 C 
HETATM    7  C7  UNL     1     -36.477  16.329  -5.778  1.00 20.00     0.022 C 
HETATM    8  O8  UNL     1     -34.831  12.549  -4.774  1.00 20.00    -0.265 OA
HETATM    9  O9  UNL     1     -33.975  14.645  -4.471  1.00 20.00    -0.283 OA
ENDROOT
TORSDOF 0
ENDMDL
MODEL 9
REMARK VINA RESULT:      -3.9      2.133      3.140
REMARK  0 active torsions:
REMARK  status: ('A' for Active; 'I' for Inactive)
ROOT
HETATM    1  C1  UNL     1     -35.510  15.110  -3.470  1.00 20.00     0.056 C 
HETATM    2  C2  UNL     1     -34.086  16.349  -2.321  1.00 20.00     0.264 C 
HETATM    3  C3  UNL     1     -36.722  14.673  -3.833  1.00 20.00     0.047 C 
HETATM    4  C4  UNL     1     -33.401  16.054  -3.621  1.00 20.00     0.127 C 
HETATM    5  C5  UNL     1     -34.223  14.924  -4.219  1.00 20.00     0.010 C 
HETATM    6  C6  UNL     1     -34.341  15.087  -5.739  1.00 20.00     0.022 C 
HETATM    7  C7  UNL     1     -33.607  13.558  -3.884  1.00 20.00     0.022 C 
HETATM    8  O8  UNL     1     -33.597  17.010  -1.415  1.00 20.00    -0.265 OA
HETATM    9  O9  UNL     1     -35.354  15.843  -2.293  1.00 20.00    -0.283 OA
ENDROOT
TORSDOF 0
ENDMDL
