MODEL 1
REMARK VINA RESULT:      -4.6      0.000      0.000
REMARK  1 active torsions:
REMARK  status: ('A' for Active; 'I' for Inactive)
REMARK    1  A    between atoms: C1_1  and  C2_2 
ROOT
HETATM    1  C2  UNL     1     -34.909   5.452   3.758  1.00 20.00     0.395 C 
HETATM    2  F4  UNL     1     -36.155   5.825   3.365  1.00 20.00    -0.178 F 
HETATM    3  F5  UNL     1     -34.402   4.697   2.748  1.00 20.00    -0.178 F 
HETATM    4 CL7  UNL     1     -33.898   6.890   3.971  1.00 20.00    -0.038 Cl
ENDROOT
BRANCH   1   5
HETATM    5  C1  UNL     1     -34.908   4.691   5.057  1.00 20.00     0.307 C 
HETATM    6  O3  UNL     1     -35.127   3.482   5.086  1.00 20.00    -0.272 OA
HETATM    7 CL6  UNL     1     -34.534   5.685   6.434  1.00 20.00    -0.036 Cl
ENDBRANCH   1   5
TORSDOF 1
ENDMDL
MODEL 2
REMARK VINA RESULT:      -4.5      1.898      2.459
REMARK  1 active torsions:
REMARK  status: ('A' for Active; 'I' for Inactive)
REMARK    1  A    between atoms: C1_1  and  C2_2 
ROOT
HETATM    1  C2  UNL     1     -34.825   5.213   4.005  1.00 20.00     0.395 C 
HETATM    2  F4  UNL     1     -34.414   4.724   2.806  1.00 20.00    -0.178 F 
HETATM    3  F5  UNL     1     -36.033   5.796   3.784  1.00 20.00    -0.178 F 
HETATM    4 CL7  UNL     1     -35.026   3.880   5.153  1.00 20.00    -0.038 Cl
ENDROOT
BRANCH   1   5
HETATM    5  C1  UNL     1     -33.851   6.193   4.603  1.00 20.00     0.307 C 
HETATM    6  O3  UNL     1     -33.005   6.752   3.909  1.00 20.00    -0.272 OA
HETATM    7 CL6  UNL     1     -34.096   6.453   6.305  1.00 20.00    -0.036 Cl
ENDBRANCH   1   5
TORSDOF 1
ENDMDL
MODEL 3
REMARK VINA RESULT:      -4.4      2.124      2.904
REMARK  1 active torsions:
REMARK  status: ('A' for Active; 'I' for Inactive)
REMARK    1  A    between atoms: C1_1  and  C2_2 
ROOT
HETATM    1  C2  UNL     1     -34.526   5.163   5.817  1.00 20.00     0.395 C 
HETATM    2  F4  UNL     1     -33.679   4.129   6.057  1.00 20.00    -0.178 F 
HETATM    3  F5  UNL     1     -35.706   4.833   6.405  1.00 20.00    -0.178 F 
HETATM    4 CL7  UNL     1     -33.895   6.636   6.570  1.00 20.00    -0.038 Cl
ENDROOT
BRANCH   1   5
HETATM    5  C1  UNL     1     -34.711   5.439   4.348  1.00 20.00     0.307 C 
HETATM    6  O3  UNL     1     -35.804   5.290   3.806  1.00 20.00    -0.272 OA
HETATM    7 CL6  UNL     1     -33.264   6.010   3.569  1.00 20.00    -0.036 Cl
ENDBRANCH   1   5
TORSDOF 1
ENDMDL
MODEL 4
REMARK VINA RESULT:      -4.3      2.710      2.979
REMARK  1 active torsions:
REMARK  status: ('A' for Active; 'I' for Inactive)
REMARK    1  A    between atoms: C1_1  and  C2_2 
ROOT
HETATM    1  C2  UNL     1     -34.713   5.050   5.691  1.00 20.00     0.395 C 
HETATM    2  F4  UNL     1     -35.589   5.084   6.729  1.00 20.00    -0.178 F 
HETATM    3  F5  UNL     1     -33.987   3.911   5.843  1.00 20.00    -0.178 F 
HETATM    4 CL7  UNL     1     -35.603   4.971   4.163  1.00 20.00    -0.038 Cl
ENDROOT
BRANCH   1   5
HETATM    5  C1  UNL     1     -33.818   6.260   5.641  1.00 20.00     0.307 C 
HETATM    6  O3  UNL     1     -33.631   6.954   6.637  1.00 20.00    -0.272 OA
HETATM    7 CL6  UNL     1     -33.086   6.508   4.083  1.00 20.00    -0.036 Cl
ENDBRANCH   1   5
TORSDOF 1
ENDMDL
MODEL 5
REMARK VINA RESULT:      -4.3      1.951      1.953
REMARK  1 active torsions:
REMARK  status: ('A' for Active; 'I' for Inactive)
REMARK    1  A    between atoms: C1_1  and  C2_2 
ROOT
HETATM    1  C2  UNL     1     -34.953   5.118   3.964  1.00 20.00     0.395 C 
HETATM    2  F4  UNL     1     -36.203   5.634   3.824  1.00 20.00    -0.178 F 
HETATM    3  F5  UNL     1     -35.116   3.850   4.428  1.00 20.00    -0.178 F 
HETATM    4 CL7  UNL     1     -34.153   5.060   2.386  1.00 20.00    -0.038 Cl
ENDROOT
BRANCH   1   5
HETATM    5  C1  UNL     1     -34.087   5.928   4.892  1.00 20.00     0.307 C 
HETATM    6  O3  UNL     1     -33.162   6.614   4.462  1.00 20.00    -0.272 OA
HETATM    7 CL6  UNL     1     -34.566   5.807   6.559  1.00 20.00    -0.036 Cl
ENDBRANCH   1   5
TORSDOF 1
ENDMDL
MODEL 6
REMARK VINA RESULT:      -4.2      1.903      1.903
REMARK  1 active torsions:
REMARK  status: ('A' for Active; 'I' for Inactive)
REMARK    1  A    between atoms: C1_1  and  C2_2 
ROOT
HETATM    1  C2  UNL     1     -34.144   6.048   3.989  1.00 20.00     0.395 C 
HETATM    2  F4  UNL     1     -34.720   7.246   3.708  1.00 20.00    -0.178 F 
HETATM    3  F5  UNL     1     -34.765   5.133   3.199  1.00 20.00    -0.178 F 
HETATM    4 CL7  UNL     1     -32.424   6.103   3.571  1.00 20.00    -0.038 Cl
ENDROOT
BRANCH   1   5
HETATM    5  C1  UNL     1     -34.253   5.672   5.443  1.00 20.00     0.307 C 
HETATM    6  O3  UNL     1     -33.961   6.470   6.330  1.00 20.00    -0.272 OA
HETATM    7 CL6  UNL     1     -34.858   4.060   5.691  1.00 20.00    -0.036 Cl
ENDBRANCH   1   5
TORSDOF 1
ENDMDL
MODEL 7
REMARK VINA RESULT:      -4.1      1.937      2.066
REMARK  1 active torsions:
REMARK  status: ('A' for Active; 'I' for Inactive)
REMARK    1  A    between atoms: C1_1  and  C2_2 
ROOT
HETATM    1  C2  UNL     1     -33.943   6.214   4.624  1.00 20.00     0.395 C 
HETATM    2  F4  UNL     1     -34.190   7.314   3.865  1.00 20.00    -0.178 F 
HETATM    3  F5  UNL     1     -32.776   5.691   4.165  1.00 20.00    -0.178 F 
HETATM    4 CL7  UNL     1     -33.739   6.693   6.316  1.00 20.00    -0.038 Cl
ENDROOT
BRANCH   1   5
HETATM    5  C1  UNL     1     -35.054   5.199   4.562  1.00 20.00     0.307 C 
HETATM    6  O3  UNL     1     -35.958   5.295   3.736  1.00 20.00    -0.272 OA
HETATM    7 CL6  UNL     1     -34.875   3.915   5.722  1.00 20.00    -0.036 Cl
ENDBRANCH   1   5
TORSDOF 1
ENDMDL
MODEL 8
REMARK VINA RESULT:      -4.1      1.683      2.533
REMARK  1 active torsions:
REMARK  status: ('A' for Active; 'I' for Inactive)
REMARK    1  A    between atoms: C1_1  and  C2_2 
ROOT
HETATM    1  C2  UNL     1     -35.045   4.973   4.538  1.00 20.00     0.395 C 
HETATM    2  F4  UNL     1     -35.042   3.616   4.602  1.00 20.00    -0.178 F 
HETATM    3  F5  UNL     1     -36.314   5.336   4.211  1.00 20.00    -0.178 F 
HETATM    4 CL7  UNL     1     -34.641   5.645   6.125  1.00 20.00    -0.038 Cl
ENDROOT
BRANCH   1   5
HETATM    5  C1  UNL     1     -34.054   5.514   3.542  1.00 20.00     0.307 C 
HETATM    6  O3  UNL     1     -34.107   5.198   2.356  1.00 20.00    -0.272 OA
HETATM    7 CL6  UNL     1     -32.910   6.621   4.243  1.00 20.00    -0.036 Cl
ENDBRANCH   1   5
TORSDOF 1
ENDMDL
MODEL 9
REMARK VINA RESULT:      -4.1      2.373      2.628
REMARK  1 active torsions:
REMARK  status: ('A' for Active; 'I' for Inactive)
REMARK    1  A    between atoms: C1_1  and  C2_2 
ROOT
HETATM    1  C2  UNL     1     -33.881   6.210   4.262  1.00 20.00     0.395 C 
HETATM    2  F4  UNL     1     -32.578   6.020   3.927  1.00 20.00    -0.178 F 
HETATM    3  F5  UNL     1     -34.186   7.483   3.895  1.00 20.00    -0.178 F 
HETATM    4 CL7  UNL     1     -34.899   5.083   3.352  1.00 20.00    -0.038 Cl
ENDROOT
BRANCH   1   5
HETATM    5  C1  UNL     1     -34.146   5.990   5.728  1.00 20.00     0.307 C 
HETATM    6  O3  UNL     1     -33.777   6.806   6.570  1.00 20.00    -0.272 OA
HETATM    7 CL6  UNL     1     -35.034   4.531   6.054  1.00 20.00    -0.036 Cl
ENDBRANCH   1   5
TORSDOF 1
ENDMDL
