MODEL 1
REMARK VINA RESULT:      -4.5      0.000      0.000
REMARK  1 active torsions:
REMARK  status: ('A' for Active; 'I' for Inactive)
REMARK    1  A    between atoms: C1_1  and  C2_2 
ROOT
HETATM    1  C2  UNL     1     -34.510   5.189   5.811  1.00 20.00     0.391 C 
HETATM    2  F4  UNL     1     -35.704   4.829   6.350  1.00 20.00    -0.178 F 
HETATM    3  F5  UNL     1     -33.651   4.166   6.062  1.00 20.00    -0.178 F 
HETATM    4 CL6  UNL     1     -33.929   6.659   6.606  1.00 20.00    -0.039 Cl
ENDROOT
BRANCH   1   5
HETATM    5  C1  UNL     1     -34.640   5.481   4.350  1.00 20.00     0.282 C 
HETATM    6  O3  UNL     1     -35.675   5.352   3.711  1.00 20.00    -0.277 OA
HETATM    7 BR7  UNL     1     -33.132   6.151   3.396  1.00 20.00    -0.001 Br
ENDBRANCH   1   5
TORSDOF 1
ENDMDL
MODEL 2
REMARK VINA RESULT:      -4.4      2.563      2.604
REMARK  1 active torsions:
REMARK  status: ('A' for Active; 'I' for Inactive)
REMARK    1  A    between atoms: C1_1  and  C2_2 
ROOT
HETATM    1  C2  UNL     1     -34.831   5.266   3.840  1.00 20.00     0.391 C 
HETATM    2  F4  UNL     1     -36.014   5.897   3.621  1.00 20.00    -0.178 F 
HETATM    3  F5  UNL     1     -34.426   4.780   2.638  1.00 20.00    -0.178 F 
HETATM    4 CL6  UNL     1     -35.082   3.927   4.968  1.00 20.00    -0.039 Cl
ENDROOT
BRANCH   1   5
HETATM    5  C1  UNL     1     -33.827   6.194   4.449  1.00 20.00     0.282 C 
HETATM    6  O3  UNL     1     -33.854   6.572   5.612  1.00 20.00    -0.277 OA
HETATM    7 BR7  UNL     1     -32.364   6.807   3.391  1.00 20.00    -0.001 Br
ENDBRANCH   1   5
TORSDOF 1
ENDMDL
MODEL 3
REMARK VINA RESULT:      -4.3      2.703      3.030
REMARK  1 active torsions:
REMARK  status: ('A' for Active; 'I' for Inactive)
REMARK    1  A    between atoms: C1_1  and  C2_2 
ROOT
HETATM    1  C2  UNL     1     -34.852   5.447   3.571  1.00 20.00     0.391 C 
HETATM    2  F4  UNL     1     -34.383   4.669   2.560  1.00 20.00    -0.178 F 
HETATM    3  F5  UNL     1     -36.080   5.880   3.184  1.00 20.00    -0.178 F 
HETATM    4 CL6  UNL     1     -33.775   6.833   3.790  1.00 20.00    -0.039 Cl
ENDROOT
BRANCH   1   5
HETATM    5  C1  UNL     1     -34.893   4.691   4.861  1.00 20.00     0.282 C 
HETATM    6  O3  UNL     1     -35.149   3.498   4.954  1.00 20.00    -0.277 OA
HETATM    7 BR7  UNL     1     -34.469   5.596   6.485  1.00 20.00    -0.001 Br
ENDBRANCH   1   5
TORSDOF 1
ENDMDL
MODEL 4
REMARK VINA RESULT:      -4.2      3.088      3.241
REMARK  1 active torsions:
REMARK  status: ('A' for Active; 'I' for Inactive)
REMARK    1  A    between atoms: C1_1  and  C2_2 
ROOT
HETATM    1  C2  UNL     1     -33.961   6.197   3.834  1.00 20.00     0.391 C 
HETATM    2  F4  UNL     1     -34.629   5.310   3.051  1.00 20.00    -0.178 F 
HETATM    3  F5  UNL     1     -34.454   7.426   3.530  1.00 20.00    -0.178 F 
HETATM    4 CL6  UNL     1     -32.236   6.137   3.445  1.00 20.00    -0.039 Cl
ENDROOT
BRANCH   1   5
HETATM    5  C1  UNL     1     -34.114   5.863   5.284  1.00 20.00     0.282 C 
HETATM    6  O3  UNL     1     -33.798   6.609   6.201  1.00 20.00    -0.277 OA
HETATM    7 BR7  UNL     1     -34.899   4.197   5.778  1.00 20.00    -0.001 Br
ENDBRANCH   1   5
TORSDOF 1
ENDMDL
MODEL 5
REMARK VINA RESULT:      -4.2      2.067      2.364
REMARK  1 active torsions:
REMARK  status: ('A' for Active; 'I' for Inactive)
REMARK    1  A    between atoms: C1_1  and  C2_2 
ROOT
HETATM    1  C2  UNL     1     -34.699   5.067   5.709  1.00 20.00     0.391 C 
HETATM    2  F4  UNL     1     -34.014   3.912   5.918  1.00 20.00    -0.178 F 
HETATM    3  F5  UNL     1     -35.539   5.212   6.767  1.00 20.00    -0.178 F 
HETATM    4 CL6  UNL     1     -35.640   4.927   4.218  1.00 20.00    -0.039 Cl
ENDROOT
BRANCH   1   5
HETATM    5  C1  UNL     1     -33.768   6.228   5.555  1.00 20.00     0.282 C 
HETATM    6  O3  UNL     1     -33.442   6.975   6.466  1.00 20.00    -0.277 OA
HETATM    7 BR7  UNL     1     -32.975   6.567   3.855  1.00 20.00    -0.001 Br
ENDBRANCH   1   5
TORSDOF 1
ENDMDL
MODEL 6
REMARK VINA RESULT:      -4.1      3.180      3.274
REMARK  1 active torsions:
REMARK  status: ('A' for Active; 'I' for Inactive)
REMARK    1  A    between atoms: C1_1  and  C2_2 
ROOT
HETATM    1  C2  UNL     1     -33.729   6.315   4.048  1.00 20.00     0.391 C 
HETATM    2  F4  UNL     1     -34.145   7.572   3.745  1.00 20.00    -0.178 F 
HETATM    3  F5  UNL     1     -32.387   6.294   3.837  1.00 20.00    -0.178 F 
HETATM    4 CL6  UNL     1     -34.517   5.160   2.965  1.00 20.00    -0.039 Cl
ENDROOT
BRANCH   1   5
HETATM    5  C1  UNL     1     -34.092   5.948   5.452  1.00 20.00     0.282 C 
HETATM    6  O3  UNL     1     -33.926   6.676   6.420  1.00 20.00    -0.277 OA
HETATM    7 BR7  UNL     1     -34.923   4.265   5.789  1.00 20.00    -0.001 Br
ENDBRANCH   1   5
TORSDOF 1
ENDMDL
MODEL 7
REMARK VINA RESULT:      -3.9      2.539      2.808
REMARK  1 active torsions:
REMARK  status: ('A' for Active; 'I' for Inactive)
REMARK    1  A    between atoms: C1_1  and  C2_2 
ROOT
HETATM    1  C2  UNL     1     -34.900   5.222   3.829  1.00 20.00     0.391 C 
HETATM    2  F4  UNL     1     -35.045   4.042   4.486  1.00 20.00    -0.178 F 
HETATM    3  F5  UNL     1     -36.139   5.773   3.751  1.00 20.00    -0.178 F 
HETATM    4 CL6  UNL     1     -34.284   4.913   2.199  1.00 20.00    -0.039 Cl
ENDROOT
BRANCH   1   5
HETATM    5  C1  UNL     1     -33.921   6.113   4.525  1.00 20.00     0.282 C 
HETATM    6  O3  UNL     1     -33.985   6.417   5.709  1.00 20.00    -0.277 OA
HETATM    7 BR7  UNL     1     -32.429   6.797   3.555  1.00 20.00    -0.001 Br
ENDBRANCH   1   5
TORSDOF 1
ENDMDL
MODEL 8
REMARK VINA RESULT:      -3.9     13.084     13.116
REMARK  1 active torsions:
REMARK  status: ('A' for Active; 'I' for Inactive)
REMARK    1  A    between atoms: C1_1  and  C2_2 
ROOT
HETATM    1  C2  UNL     1     -33.568  14.359  -3.882  1.00 20.00     0.391 C 
HETATM    2  F4  UNL     1     -34.284  14.580  -2.750  1.00 20.00    -0.178 F 
HETATM    3  F5  UNL     1     -32.496  13.608  -3.518  1.00 20.00    -0.178 F 
HETATM    4 CL6  UNL     1     -33.013  15.906  -4.536  1.00 20.00    -0.039 Cl
ENDROOT
BRANCH   1   5
HETATM    5  C1  UNL     1     -34.402  13.693  -4.930  1.00 20.00     0.282 C 
HETATM    6  O3  UNL     1     -34.869  12.567  -4.827  1.00 20.00    -0.277 OA
HETATM    7 BR7  UNL     1     -34.834  14.648  -6.522  1.00 20.00    -0.001 Br
ENDBRANCH   1   5
TORSDOF 1
ENDMDL
MODEL 9
REMARK VINA RESULT:      -3.8      2.762      2.835
REMARK  1 active torsions:
REMARK  status: ('A' for Active; 'I' for Inactive)
REMARK    1  A    between atoms: C1_1  and  C2_2 
ROOT
HETATM    1  C2  UNL     1     -33.698   6.468   4.248  1.00 20.00     0.391 C 
HETATM    2  F4  UNL     1     -34.137   7.642   3.726  1.00 20.00    -0.178 F 
HETATM    3  F5  UNL     1     -33.159   6.763   5.459  1.00 20.00    -0.178 F 
HETATM    4 CL6  UNL     1     -32.450   5.789   3.193  1.00 20.00    -0.039 Cl
ENDROOT
BRANCH   1   5
HETATM    5  C1  UNL     1     -34.807   5.469   4.344  1.00 20.00     0.282 C 
HETATM    6  O3  UNL     1     -35.716   5.368   3.531  1.00 20.00    -0.277 OA
HETATM    7 BR7  UNL     1     -34.812   4.217   5.782  1.00 20.00    -0.001 Br
ENDBRANCH   1   5
TORSDOF 1
ENDMDL
