MODEL 1
REMARK VINA RESULT:      -4.8      0.000      0.000
REMARK  1 active torsions:
REMARK  status: ('A' for Active; 'I' for Inactive)
REMARK    1  A    between atoms: C1_1  and  C6_6 
ROOT
HETATM    1  C2  UNL     1     -35.131   4.456   4.670  1.00 20.00     0.005 C 
HETATM    2  C3  UNL     1     -34.217   5.060   5.750  1.00 20.00     0.006 C 
HETATM    3  C4  UNL     1     -33.701   5.454   2.865  1.00 20.00     0.017 C 
HETATM    4  C5  UNL     1     -34.988   6.808   4.340  1.00 20.00     0.010 C 
HETATM    5  C6  UNL     1     -32.761   6.001   3.953  1.00 20.00     0.059 C 
HETATM    6  C7  UNL     1     -35.082   5.507   3.547  1.00 20.00    -0.013 C 
HETATM    7  C8  UNL     1     -33.731   6.365   5.096  1.00 20.00    -0.003 C 
ENDROOT
BRANCH   5   8
HETATM    8  C1  UNL     1     -31.997   7.195   3.471  1.00 20.00     0.127 C 
HETATM    9  C9  UNL     1     -32.294   7.670   2.075  1.00 20.00     0.091 C 
HETATM   10  O10 UNL     1     -31.169   7.762   4.184  1.00 20.00    -0.298 OA
ENDBRANCH   5   8
TORSDOF 1
ENDMDL
MODEL 2
REMARK VINA RESULT:      -4.6     11.395     12.529
REMARK  1 active torsions:
REMARK  status: ('A' for Active; 'I' for Inactive)
REMARK    1  A    between atoms: C1_1  and  C6_6 
ROOT
HETATM    1  C2  UNL     1     -34.146  17.368  -2.702  1.00 20.00     0.005 C 
HETATM    2  C3  UNL     1     -34.488  16.072  -1.949  1.00 20.00     0.006 C 
HETATM    3  C4  UNL     1     -34.804  16.308  -4.879  1.00 20.00     0.017 C 
HETATM    4  C5  UNL     1     -32.906  15.572  -3.646  1.00 20.00     0.010 C 
HETATM    5  C6  UNL     1     -35.200  15.038  -4.107  1.00 20.00     0.059 C 
HETATM    6  C7  UNL     1     -33.622  16.856  -4.055  1.00 20.00    -0.013 C 
HETATM    7  C8  UNL     1     -34.150  14.979  -2.978  1.00 20.00    -0.003 C 
ENDROOT
BRANCH   5   8
HETATM    8  C1  UNL     1     -35.145  13.823  -4.981  1.00 20.00     0.127 C 
HETATM    9  C9  UNL     1     -35.174  14.056  -6.467  1.00 20.00     0.091 C 
HETATM   10  O10 UNL     1     -35.075  12.690  -4.506  1.00 20.00    -0.298 OA
ENDBRANCH   5   8
TORSDOF 1
ENDMDL
MODEL 3
REMARK VINA RESULT:      -4.5     11.307     12.342
REMARK  1 active torsions:
REMARK  status: ('A' for Active; 'I' for Inactive)
REMARK    1  A    between atoms: C1_1  and  C6_6 
ROOT
HETATM    1  C2  UNL     1     -34.419  13.848  -5.300  1.00 20.00     0.005 C 
HETATM    2  C3  UNL     1     -35.114  13.604  -3.951  1.00 20.00     0.006 C 
HETATM    3  C4  UNL     1     -33.239  15.853  -4.360  1.00 20.00     0.017 C 
HETATM    4  C5  UNL     1     -35.598  15.814  -4.669  1.00 20.00     0.010 C 
HETATM    5  C6  UNL     1     -33.893  15.563  -2.998  1.00 20.00     0.059 C 
HETATM    6  C7  UNL     1     -34.310  15.381  -5.363  1.00 20.00    -0.013 C 
HETATM    7  C8  UNL     1     -35.286  15.027  -3.392  1.00 20.00    -0.003 C 
ENDROOT
BRANCH   5   8
HETATM    8  C1  UNL     1     -33.990  16.799  -2.159  1.00 20.00     0.127 C 
HETATM    9  C9  UNL     1     -34.626  16.648  -0.804  1.00 20.00     0.091 C 
HETATM   10  O10 UNL     1     -33.567  17.884  -2.557  1.00 20.00    -0.298 OA
ENDBRANCH   5   8
TORSDOF 1
ENDMDL
MODEL 4
REMARK VINA RESULT:      -4.4     11.060     12.104
REMARK  1 active torsions:
REMARK  status: ('A' for Active; 'I' for Inactive)
REMARK    1  A    between atoms: C1_1  and  C6_6 
ROOT
HETATM    1  C2  UNL     1     -35.487  17.364  -2.020  1.00 20.00     0.005 C 
HETATM    2  C3  UNL     1     -34.252  16.642  -1.458  1.00 20.00     0.006 C 
HETATM    3  C4  UNL     1     -35.906  15.468  -3.609  1.00 20.00     0.017 C 
HETATM    4  C5  UNL     1     -33.996  16.874  -3.807  1.00 20.00     0.010 C 
HETATM    5  C6  UNL     1     -34.704  14.728  -2.996  1.00 20.00     0.059 C 
HETATM    6  C7  UNL     1     -35.490  16.948  -3.501  1.00 20.00    -0.013 C 
HETATM    7  C8  UNL     1     -33.719  15.874  -2.680  1.00 20.00    -0.003 C 
ENDROOT
BRANCH   5   8
HETATM    8  C1  UNL     1     -34.117  13.741  -3.957  1.00 20.00     0.127 C 
HETATM    9  C9  UNL     1     -34.876  13.508  -5.236  1.00 20.00     0.091 C 
HETATM   10  O10 UNL     1     -33.064  13.152  -3.715  1.00 20.00    -0.298 OA
ENDBRANCH   5   8
TORSDOF 1
ENDMDL
MODEL 5
REMARK VINA RESULT:      -4.4     11.392     12.466
REMARK  1 active torsions:
REMARK  status: ('A' for Active; 'I' for Inactive)
REMARK    1  A    between atoms: C1_1  and  C6_6 
ROOT
HETATM    1  C2  UNL     1     -34.533  14.092  -5.252  1.00 20.00     0.005 C 
HETATM    2  C3  UNL     1     -33.952  15.454  -5.666  1.00 20.00     0.006 C 
HETATM    3  C4  UNL     1     -35.101  14.995  -2.980  1.00 20.00     0.017 C 
HETATM    4  C5  UNL     1     -32.848  14.722  -3.696  1.00 20.00     0.010 C 
HETATM    5  C6  UNL     1     -34.574  16.369  -3.427  1.00 20.00     0.059 C 
HETATM    6  C7  UNL     1     -34.199  14.013  -3.752  1.00 20.00    -0.013 C 
HETATM    7  C8  UNL     1     -33.387  16.001  -4.344  1.00 20.00    -0.003 C 
ENDROOT
BRANCH   5   8
HETATM    8  C1  UNL     1     -34.136  17.198  -2.259  1.00 20.00     0.127 C 
HETATM    9  C9  UNL     1     -34.511  16.692  -0.893  1.00 20.00     0.091 C 
HETATM   10  O10 UNL     1     -33.499  18.239  -2.410  1.00 20.00    -0.298 OA
ENDBRANCH   5   8
TORSDOF 1
ENDMDL
MODEL 6
REMARK VINA RESULT:      -4.4     11.092     12.468
REMARK  1 active torsions:
REMARK  status: ('A' for Active; 'I' for Inactive)
REMARK    1  A    between atoms: C1_1  and  C6_6 
ROOT
HETATM    1  C2  UNL     1     -32.682  14.949  -3.726  1.00 20.00     0.005 C 
HETATM    2  C3  UNL     1     -33.474  13.631  -3.738  1.00 20.00     0.006 C 
HETATM    3  C4  UNL     1     -34.790  16.242  -3.303  1.00 20.00     0.017 C 
HETATM    4  C5  UNL     1     -34.410  15.097  -5.354  1.00 20.00     0.010 C 
HETATM    5  C6  UNL     1     -35.562  14.913  -3.256  1.00 20.00     0.059 C 
HETATM    6  C7  UNL     1     -33.676  15.957  -4.329  1.00 20.00    -0.013 C 
HETATM    7  C8  UNL     1     -34.836  14.055  -4.314  1.00 20.00    -0.003 C 
ENDROOT
BRANCH   5   8
HETATM    8  C1  UNL     1     -37.009  15.103  -3.593  1.00 20.00     0.127 C 
HETATM    9  C9  UNL     1     -37.493  16.522  -3.717  1.00 20.00     0.091 C 
HETATM   10  O10 UNL     1     -37.763  14.146  -3.763  1.00 20.00    -0.298 OA
ENDBRANCH   5   8
TORSDOF 1
ENDMDL
MODEL 7
REMARK VINA RESULT:      -4.3     11.306     13.515
REMARK  1 active torsions:
REMARK  status: ('A' for Active; 'I' for Inactive)
REMARK    1  A    between atoms: C1_1  and  C6_6 
ROOT
HETATM    1  C2  UNL     1     -35.765  16.872  -7.034  1.00 20.00     0.005 C 
HETATM    2  C3  UNL     1     -34.439  17.047  -6.276  1.00 20.00     0.006 C 
HETATM    3  C4  UNL     1     -36.276  14.799  -5.714  1.00 20.00     0.017 C 
HETATM    4  C5  UNL     1     -34.472  14.889  -7.264  1.00 20.00     0.010 C 
HETATM    5  C6  UNL     1     -34.977  15.020  -4.920  1.00 20.00     0.059 C 
HETATM    6  C7  UNL     1     -35.921  15.343  -7.112  1.00 20.00    -0.013 C 
HETATM    7  C8  UNL     1     -34.018  15.597  -5.983  1.00 20.00    -0.003 C 
ENDROOT
BRANCH   5   8
HETATM    8  C1  UNL     1     -34.460  13.739  -4.343  1.00 20.00     0.127 C 
HETATM    9  C9  UNL     1     -33.124  13.798  -3.653  1.00 20.00     0.091 C 
HETATM   10  O10 UNL     1     -35.099  12.690  -4.425  1.00 20.00    -0.298 OA
ENDBRANCH   5   8
TORSDOF 1
ENDMDL
MODEL 8
REMARK VINA RESULT:      -4.3     11.220     12.649
REMARK  1 active torsions:
REMARK  status: ('A' for Active; 'I' for Inactive)
REMARK    1  A    between atoms: C1_1  and  C6_6 
ROOT
HETATM    1  C2  UNL     1     -33.806  16.945  -2.557  1.00 20.00     0.005 C 
HETATM    2  C3  UNL     1     -33.927  17.343  -4.037  1.00 20.00     0.006 C 
HETATM    3  C4  UNL     1     -34.010  14.519  -3.166  1.00 20.00     0.017 C 
HETATM    4  C5  UNL     1     -35.820  16.040  -3.441  1.00 20.00     0.010 C 
HETATM    5  C6  UNL     1     -34.069  14.926  -4.648  1.00 20.00     0.059 C 
HETATM    6  C7  UNL     1     -34.703  15.699  -2.457  1.00 20.00    -0.013 C 
HETATM    7  C8  UNL     1     -34.853  16.255  -4.609  1.00 20.00    -0.003 C 
ENDROOT
BRANCH   5   8
HETATM    8  C1  UNL     1     -34.769  13.893  -5.476  1.00 20.00     0.127 C 
HETATM    9  C9  UNL     1     -35.280  14.335  -6.820  1.00 20.00     0.091 C 
HETATM   10  O10 UNL     1     -34.916  12.738  -5.077  1.00 20.00    -0.298 OA
ENDBRANCH   5   8
TORSDOF 1
ENDMDL
MODEL 9
REMARK VINA RESULT:      -4.2     11.553     12.922
REMARK  1 active torsions:
REMARK  status: ('A' for Active; 'I' for Inactive)
REMARK    1  A    between atoms: C1_1  and  C6_6 
ROOT
HETATM    1  C2  UNL     1     -33.749  16.234  -2.371  1.00 20.00     0.005 C 
HETATM    2  C3  UNL     1     -35.269  16.015  -2.453  1.00 20.00     0.006 C 
HETATM    3  C4  UNL     1     -33.570  16.102  -4.871  1.00 20.00     0.017 C 
HETATM    4  C5  UNL     1     -34.180  14.216  -3.555  1.00 20.00     0.010 C 
HETATM    5  C6  UNL     1     -35.099  15.946  -4.943  1.00 20.00     0.059 C 
HETATM    6  C7  UNL     1     -33.214  15.398  -3.547  1.00 20.00    -0.013 C 
HETATM    7  C8  UNL     1     -35.419  15.108  -3.687  1.00 20.00    -0.003 C 
ENDROOT
BRANCH   5   8
HETATM    8  C1  UNL     1     -35.522  15.248  -6.198  1.00 20.00     0.127 C 
HETATM    9  C9  UNL     1     -34.448  14.975  -7.216  1.00 20.00     0.091 C 
HETATM   10  O10 UNL     1     -36.691  14.911  -6.386  1.00 20.00    -0.298 OA
ENDBRANCH   5   8
TORSDOF 1
ENDMDL
