MODEL 1
REMARK VINA RESULT:      -4.6      0.000      0.000
REMARK  1 active torsions:
REMARK  status: ('A' for Active; 'I' for Inactive)
REMARK    1  A    between atoms: C5_5  and  C8_8 
ROOT
HETATM    1  C1  UNL     1     -34.801   5.522   3.667  1.00 20.00     0.010 C 
HETATM    2  C2  UNL     1     -35.234   4.279   4.442  1.00 20.00     0.035 C 
HETATM    3  C3  UNL     1     -33.744   6.623   5.676  1.00 20.00     0.041 C 
HETATM    4  C5  UNL     1     -33.508   6.123   4.241  1.00 20.00     0.019 C 
HETATM    5  C6  UNL     1     -35.235   4.501   5.920  1.00 20.00     0.151 A 
HETATM    6  C7  UNL     1     -34.467   5.639   6.538  1.00 20.00     0.151 A 
HETATM    7  O10 UNL     1     -33.944   4.310   6.531  1.00 20.00    -0.375 OA
ENDROOT
BRANCH   4   8
HETATM    8  C8  UNL     1     -32.996   7.238   3.366  1.00 20.00     0.149 A 
HETATM    9  C4  UNL     1     -31.907   6.985   2.379  1.00 20.00     0.200 A 
HETATM   10  O9  UNL     1     -31.654   7.613   3.645  1.00 20.00    -0.381 OA
ENDBRANCH   4   8
TORSDOF 1
ENDMDL
MODEL 2
REMARK VINA RESULT:      -4.3     11.790     12.567
REMARK  1 active torsions:
REMARK  status: ('A' for Active; 'I' for Inactive)
REMARK    1  A    between atoms: C5_5  and  C8_8 
ROOT
HETATM    1  C1  UNL     1     -33.248  14.968  -3.393  1.00 20.00     0.010 C 
HETATM    2  C2  UNL     1     -33.355  13.563  -3.981  1.00 20.00     0.035 C 
HETATM    3  C3  UNL     1     -35.659  15.541  -3.865  1.00 20.00     0.041 C 
HETATM    4  C5  UNL     1     -34.579  15.426  -2.776  1.00 20.00     0.019 C 
HETATM    5  C6  UNL     1     -34.555  13.403  -4.860  1.00 20.00     0.151 A 
HETATM    6  C7  UNL     1     -35.714  14.359  -4.777  1.00 20.00     0.151 A 
HETATM    7  O10 UNL     1     -35.759  13.084  -4.135  1.00 20.00    -0.375 OA
ENDROOT
BRANCH   4   8
HETATM    8  C8  UNL     1     -34.415  16.735  -2.047  1.00 20.00     0.149 A 
HETATM    9  C4  UNL     1     -34.662  16.818  -0.580  1.00 20.00     0.200 A 
HETATM   10  O9  UNL     1     -35.634  17.262  -1.539  1.00 20.00    -0.381 OA
ENDBRANCH   4   8
TORSDOF 1
ENDMDL
MODEL 3
REMARK VINA RESULT:      -4.1     11.882     12.854
REMARK  1 active torsions:
REMARK  status: ('A' for Active; 'I' for Inactive)
REMARK    1  A    between atoms: C5_5  and  C8_8 
ROOT
HETATM    1  C1  UNL     1     -35.367  15.941  -3.625  1.00 20.00     0.010 C 
HETATM    2  C2  UNL     1     -34.016  15.552  -3.029  1.00 20.00     0.035 C 
HETATM    3  C3  UNL     1     -35.658  13.753  -4.846  1.00 20.00     0.041 C 
HETATM    4  C5  UNL     1     -36.275  14.716  -3.817  1.00 20.00     0.019 C 
HETATM    5  C6  UNL     1     -33.388  14.399  -3.745  1.00 20.00     0.151 A 
HETATM    6  C7  UNL     1     -34.207  13.483  -4.616  1.00 20.00     0.151 A 
HETATM    7  O10 UNL     1     -33.851  13.115  -3.282  1.00 20.00    -0.375 OA
ENDROOT
BRANCH   4   8
HETATM    8  C8  UNL     1     -37.660  15.130  -4.239  1.00 20.00     0.149 A 
HETATM    9  C4  UNL     1     -38.733  15.326  -3.222  1.00 20.00     0.200 A 
HETATM   10  O9  UNL     1     -38.648  14.133  -4.016  1.00 20.00    -0.381 OA
ENDBRANCH   4   8
TORSDOF 1
ENDMDL
MODEL 4
REMARK VINA RESULT:      -4.1     11.964     13.670
REMARK  1 active torsions:
REMARK  status: ('A' for Active; 'I' for Inactive)
REMARK    1  A    between atoms: C5_5  and  C8_8 
ROOT
HETATM    1  C1  UNL     1     -33.195  16.506  -4.982  1.00 20.00     0.010 C 
HETATM    2  C2  UNL     1     -33.655  17.960  -4.901  1.00 20.00     0.035 C 
HETATM    3  C3  UNL     1     -33.876  15.972  -2.612  1.00 20.00     0.041 C 
HETATM    4  C5  UNL     1     -34.052  15.591  -4.092  1.00 20.00     0.019 C 
HETATM    5  C6  UNL     1     -33.829  18.424  -3.490  1.00 20.00     0.151 A 
HETATM    6  C7  UNL     1     -33.977  17.442  -2.359  1.00 20.00     0.151 A 
HETATM    7  O10 UNL     1     -35.115  18.090  -2.930  1.00 20.00    -0.375 OA
ENDROOT
BRANCH   4   8
HETATM    8  C8  UNL     1     -33.705  14.142  -4.314  1.00 20.00     0.149 A 
HETATM    9  C4  UNL     1     -34.735  13.186  -4.810  1.00 20.00     0.200 A 
HETATM   10  O9  UNL     1     -34.367  13.253  -3.424  1.00 20.00    -0.381 OA
ENDBRANCH   4   8
TORSDOF 1
ENDMDL
MODEL 5
REMARK VINA RESULT:      -3.9     12.489     13.623
REMARK  1 active torsions:
REMARK  status: ('A' for Active; 'I' for Inactive)
REMARK    1  A    between atoms: C5_5  and  C8_8 
ROOT
HETATM    1  C1  UNL     1     -34.588  16.763  -0.886  1.00 20.00     0.010 C 
HETATM    2  C2  UNL     1     -34.085  17.834   0.080  1.00 20.00     0.035 C 
HETATM    3  C3  UNL     1     -33.870  18.032  -2.945  1.00 20.00     0.041 C 
HETATM    4  C5  UNL     1     -33.738  16.712  -2.165  1.00 20.00     0.019 C 
HETATM    5  C6  UNL     1     -33.867  19.151  -0.593  1.00 20.00     0.151 A 
HETATM    6  C7  UNL     1     -33.722  19.247  -2.088  1.00 20.00     0.151 A 
HETATM    7  O10 UNL     1     -32.579  19.263  -1.231  1.00 20.00    -0.375 OA
ENDROOT
BRANCH   4   8
HETATM    8  C8  UNL     1     -34.132  15.542  -3.029  1.00 20.00     0.149 A 
HETATM    9  C4  UNL     1     -33.088  14.669  -3.639  1.00 20.00     0.200 A 
HETATM   10  O9  UNL     1     -33.762  15.689  -4.393  1.00 20.00    -0.381 OA
ENDBRANCH   4   8
TORSDOF 1
ENDMDL
MODEL 6
REMARK VINA RESULT:      -3.9     11.992     12.947
REMARK  1 active torsions:
REMARK  status: ('A' for Active; 'I' for Inactive)
REMARK    1  A    between atoms: C5_5  and  C8_8 
ROOT
HETATM    1  C1  UNL     1     -34.568  16.294  -4.806  1.00 20.00     0.010 C 
HETATM    2  C2  UNL     1     -34.126  15.267  -5.847  1.00 20.00     0.035 C 
HETATM    3  C3  UNL     1     -35.457  14.555  -3.209  1.00 20.00     0.041 C 
HETATM    4  C5  UNL     1     -34.477  15.729  -3.380  1.00 20.00     0.019 C 
HETATM    5  C6  UNL     1     -34.776  13.936  -5.646  1.00 20.00     0.151 A 
HETATM    6  C7  UNL     1     -35.402  13.566  -4.328  1.00 20.00     0.151 A 
HETATM    7  O10 UNL     1     -34.097  13.105  -4.682  1.00 20.00    -0.375 OA
ENDROOT
BRANCH   4   8
HETATM    8  C8  UNL     1     -34.746  16.801  -2.356  1.00 20.00     0.149 A 
HETATM    9  C4  UNL     1     -33.677  17.223  -1.406  1.00 20.00     0.200 A 
HETATM   10  O9  UNL     1     -34.729  16.327  -1.016  1.00 20.00    -0.381 OA
ENDBRANCH   4   8
TORSDOF 1
ENDMDL
MODEL 7
REMARK VINA RESULT:      -3.8     11.952     12.746
REMARK  1 active torsions:
REMARK  status: ('A' for Active; 'I' for Inactive)
REMARK    1  A    between atoms: C5_5  and  C8_8 
ROOT
HETATM    1  C1  UNL     1     -35.752  16.381  -3.725  1.00 20.00     0.010 C 
HETATM    2  C2  UNL     1     -36.317  17.132  -2.520  1.00 20.00     0.035 C 
HETATM    3  C3  UNL     1     -33.506  15.984  -2.648  1.00 20.00     0.041 C 
HETATM    4  C5  UNL     1     -34.729  15.316  -3.298  1.00 20.00     0.019 C 
HETATM    5  C6  UNL     1     -35.245  17.611  -1.594  1.00 20.00     0.151 A 
HETATM    6  C7  UNL     1     -33.862  17.017  -1.629  1.00 20.00     0.151 A 
HETATM    7  O10 UNL     1     -34.817  16.612  -0.646  1.00 20.00    -0.375 OA
ENDROOT
BRANCH   4   8
HETATM    8  C8  UNL     1     -34.312  14.468  -4.472  1.00 20.00     0.149 A 
HETATM    9  C4  UNL     1     -34.913  13.120  -4.681  1.00 20.00     0.200 A 
HETATM   10  O9  UNL     1     -33.610  13.289  -4.103  1.00 20.00    -0.381 OA
ENDBRANCH   4   8
TORSDOF 1
ENDMDL
MODEL 8
REMARK VINA RESULT:      -3.8     10.077     11.327
REMARK  1 active torsions:
REMARK  status: ('A' for Active; 'I' for Inactive)
REMARK    1  A    between atoms: C5_5  and  C8_8 
ROOT
HETATM    1  C1  UNL     1     -41.436   4.426  -0.871  1.00 20.00     0.010 C 
HETATM    2  C2  UNL     1     -40.769   5.773  -0.599  1.00 20.00     0.035 C 
HETATM    3  C3  UNL     1     -42.886   5.320  -2.732  1.00 20.00     0.041 C 
HETATM    4  C5  UNL     1     -41.823   4.276  -2.351  1.00 20.00     0.019 C 
HETATM    5  C6  UNL     1     -41.540   6.917  -1.177  1.00 20.00     0.151 A 
HETATM    6  C7  UNL     1     -42.562   6.700  -2.261  1.00 20.00     0.151 A 
HETATM    7  O10 UNL     1     -41.246   7.164  -2.566  1.00 20.00    -0.375 OA
ENDROOT
BRANCH   4   8
HETATM    8  C8  UNL     1     -42.317   2.882  -2.641  1.00 20.00     0.149 A 
HETATM    9  C4  UNL     1     -41.597   2.012  -3.614  1.00 20.00     0.200 A 
HETATM   10  O9  UNL     1     -42.800   2.711  -3.966  1.00 20.00    -0.381 OA
ENDBRANCH   4   8
TORSDOF 1
ENDMDL
MODEL 9
REMARK VINA RESULT:      -3.8     12.129     13.227
REMARK  1 active torsions:
REMARK  status: ('A' for Active; 'I' for Inactive)
REMARK    1  A    between atoms: C5_5  and  C8_8 
ROOT
HETATM    1  C1  UNL     1     -33.768  17.462  -3.815  1.00 20.00     0.010 C 
HETATM    2  C2  UNL     1     -33.272  16.446  -4.841  1.00 20.00     0.035 C 
HETATM    3  C3  UNL     1     -34.756  15.708  -2.294  1.00 20.00     0.041 C 
HETATM    4  C5  UNL     1     -33.762  16.878  -2.393  1.00 20.00     0.019 C 
HETATM    5  C6  UNL     1     -33.939  15.116  -4.695  1.00 20.00     0.151 A 
HETATM    6  C7  UNL     1     -34.642  14.733  -3.420  1.00 20.00     0.151 A 
HETATM    7  O10 UNL     1     -33.322  14.269  -3.705  1.00 20.00    -0.375 OA
ENDROOT
BRANCH   4   8
HETATM    8  C8  UNL     1     -34.085  17.938  -1.372  1.00 20.00     0.149 A 
HETATM    9  C4  UNL     1     -33.090  18.304  -0.323  1.00 20.00     0.200 A 
HETATM   10  O9  UNL     1     -34.202  17.438  -0.047  1.00 20.00    -0.381 OA
ENDBRANCH   4   8
TORSDOF 1
ENDMDL
