MODEL 1
REMARK VINA RESULT:      -3.9      0.000      0.000
REMARK  0 active torsions:
REMARK  status: ('A' for Active; 'I' for Inactive)
ROOT
HETATM    1  C1  UNL     1     -33.984  14.044  -3.796  1.00 20.00     0.025 C 
HETATM    2  C2  UNL     1     -34.975  15.165  -3.748  1.00 20.00     0.081 C 
HETATM    3  C3  UNL     1     -36.154  14.489  -4.446  1.00 20.00     0.029 C 
HETATM    4  C4  UNL     1     -32.548  14.268  -3.461  1.00 20.00     0.067 C 
HETATM    5  C5  UNL     1     -37.478  14.762  -3.737  1.00 20.00     0.034 C 
HETATM    6  C6  UNL     1     -36.239  14.885  -5.924  1.00 20.00     0.034 C 
HETATM    7  N7  UNL     1     -34.461  12.888  -4.133  1.00 20.00    -0.210 NA
HETATM    8  N8  UNL     1     -35.791  13.074  -4.310  1.00 20.00    -0.208 NA
HETATM    9  H20 UNL     1     -36.291  12.633  -3.540  1.00 20.00     0.149 HD
ENDROOT
TORSDOF 0
ENDMDL
MODEL 2
REMARK VINA RESULT:      -3.9      1.493      3.168
REMARK  0 active torsions:
REMARK  status: ('A' for Active; 'I' for Inactive)
ROOT
HETATM    1  C1  UNL     1     -34.893  14.140  -5.926  1.00 20.00     0.025 C 
HETATM    2  C2  UNL     1     -34.028  15.208  -5.333  1.00 20.00     0.081 C 
HETATM    3  C3  UNL     1     -33.799  14.607  -3.947  1.00 20.00     0.029 C 
HETATM    4  C4  UNL     1     -35.617  14.357  -7.212  1.00 20.00     0.067 C 
HETATM    5  C5  UNL     1     -32.344  14.728  -3.500  1.00 20.00     0.034 C 
HETATM    6  C6  UNL     1     -34.740  15.216  -2.903  1.00 20.00     0.034 C 
HETATM    7  N7  UNL     1     -34.953  13.032  -5.257  1.00 20.00    -0.210 NA
HETATM    8  N8  UNL     1     -34.137  13.199  -4.190  1.00 20.00    -0.208 NA
HETATM    9  H20 UNL     1     -33.300  12.632  -4.322  1.00 20.00     0.149 HD
ENDROOT
TORSDOF 0
ENDMDL
MODEL 3
REMARK VINA RESULT:      -3.9      2.114      2.972
REMARK  0 active torsions:
REMARK  status: ('A' for Active; 'I' for Inactive)
ROOT
HETATM    1  C1  UNL     1     -35.177  14.355  -3.800  1.00 20.00     0.025 C 
HETATM    2  C2  UNL     1     -34.116  15.081  -3.032  1.00 20.00     0.081 C 
HETATM    3  C3  UNL     1     -34.943  16.252  -2.505  1.00 20.00     0.029 C 
HETATM    4  C4  UNL     1     -34.830  13.247  -4.736  1.00 20.00     0.067 C 
HETATM    5  C5  UNL     1     -34.652  16.549  -1.036  1.00 20.00     0.034 C 
HETATM    6  C6  UNL     1     -34.754  17.510  -3.360  1.00 20.00     0.034 C 
HETATM    7  N7  UNL     1     -36.392  14.749  -3.586  1.00 20.00    -0.210 NA
HETATM    8  N8  UNL     1     -36.306  15.727  -2.653  1.00 20.00    -0.208 NA
HETATM    9  H20 UNL     1     -36.667  15.372  -1.769  1.00 20.00     0.149 HD
ENDROOT
TORSDOF 0
ENDMDL
MODEL 4
REMARK VINA RESULT:      -3.8     10.761     11.777
REMARK  0 active torsions:
REMARK  status: ('A' for Active; 'I' for Inactive)
ROOT
HETATM    1  C1  UNL     1     -41.554   4.006  -2.166  1.00 20.00     0.025 C 
HETATM    2  C2  UNL     1     -42.434   5.212  -2.048  1.00 20.00     0.081 C 
HETATM    3  C3  UNL     1     -41.728   5.929  -0.899  1.00 20.00     0.029 C 
HETATM    4  C4  UNL     1     -41.956   2.834  -2.995  1.00 20.00     0.067 C 
HETATM    5  C5  UNL     1     -41.588   7.427  -1.154  1.00 20.00     0.034 C 
HETATM    6  C6  UNL     1     -42.422   5.669   0.442  1.00 20.00     0.034 C 
HETATM    7  N7  UNL     1     -40.436   4.064  -1.515  1.00 20.00    -0.210 NA
HETATM    8  N8  UNL     1     -40.409   5.285  -0.931  1.00 20.00    -0.208 NA
HETATM    9  H20 UNL     1     -39.723   5.865  -1.411  1.00 20.00     0.149 HD
ENDROOT
TORSDOF 0
ENDMDL
MODEL 5
REMARK VINA RESULT:      -3.8      2.019      2.652
REMARK  0 active torsions:
REMARK  status: ('A' for Active; 'I' for Inactive)
ROOT
HETATM    1  C1  UNL     1     -34.300  15.721  -2.620  1.00 20.00     0.025 C 
HETATM    2  C2  UNL     1     -35.314  14.882  -3.333  1.00 20.00     0.081 C 
HETATM    3  C3  UNL     1     -34.552  14.609  -4.628  1.00 20.00     0.029 C 
HETATM    4  C4  UNL     1     -34.652  16.473  -1.382  1.00 20.00     0.067 C 
HETATM    5  C5  UNL     1     -34.666  13.153  -5.069  1.00 20.00     0.034 C 
HETATM    6  C6  UNL     1     -34.991  15.552  -5.753  1.00 20.00     0.034 C 
HETATM    7  N7  UNL     1     -33.116  15.733  -3.144  1.00 20.00    -0.210 NA
HETATM    8  N8  UNL     1     -33.175  14.905  -4.215  1.00 20.00    -0.208 NA
HETATM    9  H20 UNL     1     -32.659  14.053  -4.001  1.00 20.00     0.149 HD
ENDROOT
TORSDOF 0
ENDMDL
MODEL 6
REMARK VINA RESULT:      -3.7      9.627     10.763
REMARK  0 active torsions:
REMARK  status: ('A' for Active; 'I' for Inactive)
ROOT
HETATM    1  C1  UNL     1     -41.929   5.286  -2.172  1.00 20.00     0.025 C 
HETATM    2  C2  UNL     1     -42.866   6.008  -3.091  1.00 20.00     0.081 C 
HETATM    3  C3  UNL     1     -42.459   7.448  -2.785  1.00 20.00     0.029 C 
HETATM    4  C4  UNL     1     -42.089   3.830  -1.894  1.00 20.00     0.067 C 
HETATM    5  C5  UNL     1     -42.333   8.292  -4.051  1.00 20.00     0.034 C 
HETATM    6  C6  UNL     1     -43.417   8.107  -1.788  1.00 20.00     0.034 C 
HETATM    7  N7  UNL     1     -40.983   6.006  -1.658  1.00 20.00    -0.210 NA
HETATM    8  N8  UNL     1     -41.138   7.247  -2.178  1.00 20.00    -0.208 NA
HETATM    9  H20 UNL     1     -40.390   7.420  -2.847  1.00 20.00     0.149 HD
ENDROOT
TORSDOF 0
ENDMDL
MODEL 7
REMARK VINA RESULT:      -3.6      2.200      3.095
REMARK  0 active torsions:
REMARK  status: ('A' for Active; 'I' for Inactive)
ROOT
HETATM    1  C1  UNL     1     -34.778  16.112  -2.236  1.00 20.00     0.025 C 
HETATM    2  C2  UNL     1     -33.602  15.997  -3.156  1.00 20.00     0.081 C 
HETATM    3  C3  UNL     1     -34.240  15.184  -4.281  1.00 20.00     0.029 C 
HETATM    4  C4  UNL     1     -34.621  16.612  -0.840  1.00 20.00     0.067 C 
HETATM    5  C5  UNL     1     -33.862  15.716  -5.662  1.00 20.00     0.034 C 
HETATM    6  C6  UNL     1     -33.905  13.694  -4.164  1.00 20.00     0.034 C 
HETATM    7  N7  UNL     1     -35.919  15.761  -2.739  1.00 20.00    -0.210 NA
HETATM    8  N8  UNL     1     -35.667  15.415  -4.024  1.00 20.00    -0.208 NA
HETATM    9  H20 UNL     1     -36.045  16.134  -4.639  1.00 20.00     0.149 HD
ENDROOT
TORSDOF 0
ENDMDL
MODEL 8
REMARK VINA RESULT:      -3.6      2.691      3.396
REMARK  0 active torsions:
REMARK  status: ('A' for Active; 'I' for Inactive)
ROOT
HETATM    1  C1  UNL     1     -34.157  16.012  -3.292  1.00 20.00     0.025 C 
HETATM    2  C2  UNL     1     -35.000  16.259  -4.504  1.00 20.00     0.081 C 
HETATM    3  C3  UNL     1     -33.898  16.454  -5.543  1.00 20.00     0.029 C 
HETATM    4  C4  UNL     1     -34.753  16.010  -1.924  1.00 20.00     0.067 C 
HETATM    5  C5  UNL     1     -34.198  15.719  -6.847  1.00 20.00     0.034 C 
HETATM    6  C6  UNL     1     -33.625  17.938  -5.808  1.00 20.00     0.034 C 
HETATM    7  N7  UNL     1     -32.901  15.796  -3.518  1.00 20.00    -0.210 NA
HETATM    8  N8  UNL     1     -32.755  15.831  -4.864  1.00 20.00    -0.208 NA
HETATM    9  H20 UNL     1     -32.590  14.884  -5.203  1.00 20.00     0.149 HD
ENDROOT
TORSDOF 0
ENDMDL
MODEL 9
REMARK VINA RESULT:      -3.6     11.167     12.100
REMARK  0 active torsions:
REMARK  status: ('A' for Active; 'I' for Inactive)
ROOT
HETATM    1  C1  UNL     1     -41.581   5.925  -1.674  1.00 20.00     0.025 C 
HETATM    2  C2  UNL     1     -41.159   4.509  -1.432  1.00 20.00     0.081 C 
HETATM    3  C3  UNL     1     -42.221   3.784  -2.255  1.00 20.00     0.029 C 
HETATM    4  C4  UNL     1     -41.011   7.049  -0.877  1.00 20.00     0.067 C 
HETATM    5  C5  UNL     1     -41.630   2.650  -3.088  1.00 20.00     0.034 C 
HETATM    6  C6  UNL     1     -43.366   3.270  -1.376  1.00 20.00     0.034 C 
HETATM    7  N7  UNL     1     -42.453   6.095  -2.617  1.00 20.00    -0.210 NA
HETATM    8  N8  UNL     1     -42.688   4.865  -3.132  1.00 20.00    -0.208 NA
HETATM    9  H20 UNL     1     -42.260   4.806  -4.055  1.00 20.00     0.149 HD
ENDROOT
TORSDOF 0
ENDMDL
