MODEL 1
REMARK VINA RESULT:      -4.8      0.000      0.000
REMARK  1 active torsions:
REMARK  status: ('A' for Active; 'I' for Inactive)
REMARK    1  A    between atoms: C3_3  and  C6_6 
ROOT
HETATM    1  C1  UNL     1     -34.196  17.546  -3.331  1.00 20.00    -0.024 C 
HETATM    2  C2  UNL     1     -34.328  16.526  -2.468  1.00 20.00    -0.087 C 
HETATM    3  C4  UNL     1     -34.119  17.374  -4.818  1.00 20.00     0.032 C 
HETATM    4  C5  UNL     1     -34.439  15.097  -2.934  1.00 20.00     0.045 C 
HETATM    5  C6  UNL     1     -34.702  14.946  -4.442  1.00 20.00     0.055 C 
HETATM    6  C7  UNL     1     -33.841  15.925  -5.259  1.00 20.00    -0.004 C 
HETATM    7  C8  UNL     1     -34.368  16.743  -0.984  1.00 20.00     0.043 C 
HETATM    8  C9  UNL     1     -34.082  15.795  -6.767  1.00 20.00     0.011 C 
ENDROOT
BRANCH   5   9
HETATM    9  C3  UNL     1     -34.416  13.522  -4.817  1.00 20.00     0.236 C 
HETATM   10  O10 UNL     1     -35.075  12.570  -4.409  1.00 20.00    -0.306 OA
ENDBRANCH   5   9
TORSDOF 1
ENDMDL
MODEL 2
REMARK VINA RESULT:      -4.5      1.762      2.188
REMARK  1 active torsions:
REMARK  status: ('A' for Active; 'I' for Inactive)
REMARK    1  A    between atoms: C3_3  and  C6_6 
ROOT
HETATM    1  C1  UNL     1     -33.573  15.715  -2.861  1.00 20.00    -0.024 C 
HETATM    2  C2  UNL     1     -34.660  16.105  -2.177  1.00 20.00    -0.087 C 
HETATM    3  C4  UNL     1     -33.630  15.023  -4.190  1.00 20.00     0.032 C 
HETATM    4  C5  UNL     1     -36.054  15.900  -2.711  1.00 20.00     0.045 C 
HETATM    5  C6  UNL     1     -36.107  15.510  -4.198  1.00 20.00     0.055 C 
HETATM    6  C7  UNL     1     -35.025  14.472  -4.541  1.00 20.00    -0.004 C 
HETATM    7  C8  UNL     1     -34.556  16.766  -0.835  1.00 20.00     0.043 C 
HETATM    8  C9  UNL     1     -35.056  14.064  -6.018  1.00 20.00     0.011 C 
ENDROOT
BRANCH   5   9
HETATM    9  C3  UNL     1     -37.482  14.982  -4.485  1.00 20.00     0.236 C 
HETATM   10  O10 UNL     1     -38.030  14.119  -3.806  1.00 20.00    -0.306 OA
ENDBRANCH   5   9
TORSDOF 1
ENDMDL
MODEL 3
REMARK VINA RESULT:      -4.4     11.856     13.345
REMARK  1 active torsions:
REMARK  status: ('A' for Active; 'I' for Inactive)
REMARK    1  A    between atoms: C3_3  and  C6_6 
ROOT
HETATM    1  C1  UNL     1     -33.571   5.711   2.666  1.00 20.00    -0.024 C 
HETATM    2  C2  UNL     1     -32.891   6.777   3.118  1.00 20.00    -0.087 C 
HETATM    3  C4  UNL     1     -34.425   4.838   3.535  1.00 20.00     0.032 C 
HETATM    4  C5  UNL     1     -32.954   7.209   4.561  1.00 20.00     0.045 C 
HETATM    5  C6  UNL     1     -34.076   6.537   5.370  1.00 20.00     0.055 C 
HETATM    6  C7  UNL     1     -34.180   5.038   5.043  1.00 20.00    -0.004 C 
HETATM    7  C8  UNL     1     -32.023   7.604   2.217  1.00 20.00     0.043 C 
HETATM    8  C9  UNL     1     -35.290   4.342   5.837  1.00 20.00     0.011 C 
ENDROOT
BRANCH   5   9
HETATM    9  C3  UNL     1     -33.789   6.761   6.826  1.00 20.00     0.236 C 
HETATM   10  O10 UNL     1     -33.065   7.660   7.242  1.00 20.00    -0.306 OA
ENDBRANCH   5   9
TORSDOF 1
ENDMDL
MODEL 4
REMARK VINA RESULT:      -4.4      1.497      1.597
REMARK  1 active torsions:
REMARK  status: ('A' for Active; 'I' for Inactive)
REMARK    1  A    between atoms: C3_3  and  C6_6 
ROOT
HETATM    1  C1  UNL     1     -36.085  17.147  -2.618  1.00 20.00    -0.024 C 
HETATM    2  C2  UNL     1     -35.113  16.424  -2.039  1.00 20.00    -0.087 C 
HETATM    3  C4  UNL     1     -36.671  16.830  -3.961  1.00 20.00     0.032 C 
HETATM    4  C5  UNL     1     -34.538  15.194  -2.694  1.00 20.00     0.045 C 
HETATM    5  C6  UNL     1     -35.356  14.676  -3.889  1.00 20.00     0.055 C 
HETATM    6  C7  UNL     1     -35.832  15.834  -4.782  1.00 20.00    -0.004 C 
HETATM    7  C8  UNL     1     -34.534  16.797  -0.707  1.00 20.00     0.043 C 
HETATM    8  C9  UNL     1     -36.649  15.346  -5.984  1.00 20.00     0.011 C 
ENDROOT
BRANCH   5   9
HETATM    9  C3  UNL     1     -34.494  13.714  -4.652  1.00 20.00     0.236 C 
HETATM   10  O10 UNL     1     -34.785  12.534  -4.822  1.00 20.00    -0.306 OA
ENDBRANCH   5   9
TORSDOF 1
ENDMDL
MODEL 5
REMARK VINA RESULT:      -4.3     11.531     13.424
REMARK  1 active torsions:
REMARK  status: ('A' for Active; 'I' for Inactive)
REMARK    1  A    between atoms: C3_3  and  C6_6 
ROOT
HETATM    1  C1  UNL     1     -40.992   3.889  -1.537  1.00 20.00    -0.024 C 
HETATM    2  C2  UNL     1     -41.868   3.640  -2.524  1.00 20.00    -0.087 C 
HETATM    3  C4  UNL     1     -40.797   5.241  -0.920  1.00 20.00     0.032 C 
HETATM    4  C5  UNL     1     -42.764   4.714  -3.085  1.00 20.00     0.045 C 
HETATM    5  C6  UNL     1     -42.813   5.998  -2.239  1.00 20.00     0.055 C 
HETATM    6  C7  UNL     1     -41.411   6.391  -1.741  1.00 20.00    -0.004 C 
HETATM    7  C8  UNL     1     -42.007   2.276  -3.134  1.00 20.00     0.043 C 
HETATM    8  C9  UNL     1     -41.430   7.669  -0.897  1.00 20.00     0.011 C 
ENDROOT
BRANCH   5   9
HETATM    9  C3  UNL     1     -43.417   7.081  -3.084  1.00 20.00     0.236 C 
HETATM   10  O10 UNL     1     -43.225   7.182  -4.292  1.00 20.00    -0.306 OA
ENDBRANCH   5   9
TORSDOF 1
ENDMDL
MODEL 6
REMARK VINA RESULT:      -4.2      1.689      3.674
REMARK  1 active torsions:
REMARK  status: ('A' for Active; 'I' for Inactive)
REMARK    1  A    between atoms: C3_3  and  C6_6 
ROOT
HETATM    1  C1  UNL     1     -33.517  15.897  -5.536  1.00 20.00    -0.024 C 
HETATM    2  C2  UNL     1     -34.558  15.365  -6.198  1.00 20.00    -0.087 C 
HETATM    3  C4  UNL     1     -33.535  16.208  -4.070  1.00 20.00     0.032 C 
HETATM    4  C5  UNL     1     -35.845  15.005  -5.502  1.00 20.00     0.045 C 
HETATM    5  C6  UNL     1     -35.751  15.001  -3.967  1.00 20.00     0.055 C 
HETATM    6  C7  UNL     1     -34.947  16.209  -3.455  1.00 20.00    -0.004 C 
HETATM    7  C8  UNL     1     -34.506  15.100  -7.674  1.00 20.00     0.043 C 
HETATM    8  C9  UNL     1     -34.839  16.232  -1.926  1.00 20.00     0.011 C 
ENDROOT
BRANCH   5   9
HETATM    9  C3  UNL     1     -37.149  15.003  -3.422  1.00 20.00     0.236 C 
HETATM   10  O10 UNL     1     -38.005  14.189  -3.754  1.00 20.00    -0.306 OA
ENDBRANCH   5   9
TORSDOF 1
ENDMDL
MODEL 7
REMARK VINA RESULT:      -4.2      0.961      3.251
REMARK  1 active torsions:
REMARK  status: ('A' for Active; 'I' for Inactive)
REMARK    1  A    between atoms: C3_3  and  C6_6 
ROOT
HETATM    1  C1  UNL     1     -34.483  17.419  -5.682  1.00 20.00    -0.024 C 
HETATM    2  C2  UNL     1     -34.609  16.301  -6.414  1.00 20.00    -0.087 C 
HETATM    3  C4  UNL     1     -34.337  17.425  -4.190  1.00 20.00     0.032 C 
HETATM    4  C5  UNL     1     -34.586  14.931  -5.786  1.00 20.00     0.045 C 
HETATM    5  C6  UNL     1     -34.101  14.915  -4.327  1.00 20.00     0.055 C 
HETATM    6  C7  UNL     1     -34.702  16.084  -3.527  1.00 20.00    -0.004 C 
HETATM    7  C8  UNL     1     -34.785  16.344  -7.903  1.00 20.00     0.043 C 
HETATM    8  C9  UNL     1     -34.236  16.092  -2.067  1.00 20.00     0.011 C 
ENDROOT
BRANCH   5   9
HETATM    9  C3  UNL     1     -34.480  13.592  -3.731  1.00 20.00     0.236 C 
HETATM   10  O10 UNL     1     -34.973  12.675  -4.381  1.00 20.00    -0.306 OA
ENDBRANCH   5   9
TORSDOF 1
ENDMDL
MODEL 8
REMARK VINA RESULT:      -4.1     11.529     12.813
REMARK  1 active torsions:
REMARK  status: ('A' for Active; 'I' for Inactive)
REMARK    1  A    between atoms: C3_3  and  C6_6 
ROOT
HETATM    1  C1  UNL     1     -34.587   5.664   6.003  1.00 20.00    -0.024 C 
HETATM    2  C2  UNL     1     -33.730   6.691   6.121  1.00 20.00    -0.087 C 
HETATM    3  C4  UNL     1     -34.850   4.943   4.715  1.00 20.00     0.032 C 
HETATM    4  C5  UNL     1     -32.924   7.194   4.951  1.00 20.00     0.045 C 
HETATM    5  C6  UNL     1     -32.932   6.257   3.731  1.00 20.00     0.055 C 
HETATM    6  C7  UNL     1     -34.339   5.693   3.471  1.00 20.00    -0.004 C 
HETATM    7  C8  UNL     1     -33.522   7.404   7.424  1.00 20.00     0.043 C 
HETATM    8  C9  UNL     1     -34.377   4.756   2.259  1.00 20.00     0.011 C 
ENDROOT
BRANCH   5   9
HETATM    9  C3  UNL     1     -32.428   7.035   2.552  1.00 20.00     0.236 C 
HETATM   10  O10 UNL     1     -31.802   8.086   2.652  1.00 20.00    -0.306 OA
ENDBRANCH   5   9
TORSDOF 1
ENDMDL
MODEL 9
REMARK VINA RESULT:      -4.1      1.640      2.349
REMARK  1 active torsions:
REMARK  status: ('A' for Active; 'I' for Inactive)
REMARK    1  A    between atoms: C3_3  and  C6_6 
ROOT
HETATM    1  C1  UNL     1     -35.398  16.864  -2.452  1.00 20.00    -0.024 C 
HETATM    2  C2  UNL     1     -36.434  16.416  -3.179  1.00 20.00    -0.087 C 
HETATM    3  C4  UNL     1     -34.016  16.289  -2.530  1.00 20.00     0.032 C 
HETATM    4  C5  UNL     1     -36.283  15.294  -4.174  1.00 20.00     0.045 C 
HETATM    5  C6  UNL     1     -34.824  14.936  -4.503  1.00 20.00     0.055 C 
HETATM    6  C7  UNL     1     -33.955  14.921  -3.234  1.00 20.00    -0.004 C 
HETATM    7  C8  UNL     1     -37.809  17.002  -3.046  1.00 20.00     0.043 C 
HETATM    8  C9  UNL     1     -32.494  14.565  -3.532  1.00 20.00     0.011 C 
ENDROOT
BRANCH   5   9
HETATM    9  C3  UNL     1     -34.822  13.600  -5.184  1.00 20.00     0.236 C 
HETATM   10  O10 UNL     1     -35.018  12.541  -4.596  1.00 20.00    -0.306 OA
ENDBRANCH   5   9
TORSDOF 1
ENDMDL
