MODEL 1
REMARK VINA RESULT:      -4.1      0.000      0.000
REMARK  2 active torsions:
REMARK  status: ('A' for Active; 'I' for Inactive)
REMARK    1  A    between atoms: C1_1  and  O5_5 
REMARK    2  A    between atoms: C3_3  and  O5_5 
ROOT
HETATM    1  O5  UNL     1     -33.755   6.752   3.853  1.00 20.00    -0.288 OA
ENDROOT
BRANCH   1   2
HETATM    2  C1  UNL     1     -32.606   6.677   3.109  1.00 20.00     0.359 C 
HETATM    3  O4  UNL     1     -31.908   5.670   3.043  1.00 20.00    -0.245 OA
HETATM    4 CL6  UNL     1     -32.258   8.169   2.276  1.00 20.00    -0.012 Cl
ENDBRANCH   1   2
BRANCH   1   5
HETATM    5  C3  UNL     1     -33.982   5.731   4.839  1.00 20.00     0.224 C 
HETATM    6  C2  UNL     1     -35.282   5.000   4.546  1.00 20.00     0.057 C 
HETATM    7 CL7  UNL     1     -34.090   6.528   6.433  1.00 20.00    -0.095 Cl
ENDBRANCH   1   5
TORSDOF 2
ENDMDL
MODEL 2
REMARK VINA RESULT:      -3.9      2.137      3.742
REMARK  2 active torsions:
REMARK  status: ('A' for Active; 'I' for Inactive)
REMARK    1  A    between atoms: C1_1  and  O5_5 
REMARK    2  A    between atoms: C3_3  and  O5_5 
ROOT
HETATM    1  O5  UNL     1     -34.112   6.672   4.567  1.00 20.00    -0.288 OA
ENDROOT
BRANCH   1   2
HETATM    2  C1  UNL     1     -34.114   6.273   5.879  1.00 20.00     0.359 C 
HETATM    3  O4  UNL     1     -33.611   6.930   6.786  1.00 20.00    -0.245 OA
HETATM    4 CL6  UNL     1     -34.908   4.737   6.102  1.00 20.00    -0.012 Cl
ENDBRANCH   1   2
BRANCH   1   5
HETATM    5  C3  UNL     1     -33.197   6.019   3.670  1.00 20.00     0.224 C 
HETATM    6  C2  UNL     1     -32.310   7.047   2.987  1.00 20.00     0.057 C 
HETATM    7 CL7  UNL     1     -34.163   5.154   2.444  1.00 20.00    -0.095 Cl
ENDBRANCH   1   5
TORSDOF 2
ENDMDL
MODEL 3
REMARK VINA RESULT:      -3.9      1.428      1.428
REMARK  2 active torsions:
REMARK  status: ('A' for Active; 'I' for Inactive)
REMARK    1  A    between atoms: C1_1  and  O5_5 
REMARK    2  A    between atoms: C3_3  and  O5_5 
ROOT
HETATM    1  O5  UNL     1     -34.433   6.181   4.291  1.00 20.00    -0.288 OA
ENDROOT
BRANCH   1   2
HETATM    2  C1  UNL     1     -33.676   5.898   3.184  1.00 20.00     0.359 C 
HETATM    3  O4  UNL     1     -34.047   5.146   2.286  1.00 20.00    -0.245 OA
HETATM    4 CL6  UNL     1     -32.140   6.722   3.203  1.00 20.00    -0.012 Cl
ENDBRANCH   1   2
BRANCH   1   5
HETATM    5  C3  UNL     1     -34.031   5.600   5.543  1.00 20.00     0.224 C 
HETATM    6  C2  UNL     1     -35.064   4.586   6.006  1.00 20.00     0.057 C 
HETATM    7 CL7  UNL     1     -33.910   6.919   6.741  1.00 20.00    -0.095 Cl
ENDBRANCH   1   5
TORSDOF 2
ENDMDL
MODEL 4
REMARK VINA RESULT:      -3.8      1.623      1.869
REMARK  2 active torsions:
REMARK  status: ('A' for Active; 'I' for Inactive)
REMARK    1  A    between atoms: C1_1  and  O5_5 
REMARK    2  A    between atoms: C3_3  and  O5_5 
ROOT
HETATM    1  O5  UNL     1     -33.190   5.734   4.523  1.00 20.00    -0.288 OA
ENDROOT
BRANCH   1   2
HETATM    2  C1  UNL     1     -33.348   5.989   3.185  1.00 20.00     0.359 C 
HETATM    3  O4  UNL     1     -34.122   5.365   2.464  1.00 20.00    -0.245 OA
HETATM    4 CL6  UNL     1     -32.327   7.290   2.634  1.00 20.00    -0.012 Cl
ENDBRANCH   1   2
BRANCH   1   5
HETATM    5  C3  UNL     1     -34.347   5.856   5.368  1.00 20.00     0.224 C 
HETATM    6  C2  UNL     1     -34.006   6.666   6.608  1.00 20.00     0.057 C 
HETATM    7 CL7  UNL     1     -34.846   4.210   5.848  1.00 20.00    -0.095 Cl
ENDBRANCH   1   5
TORSDOF 2
ENDMDL
MODEL 5
REMARK VINA RESULT:      -3.7      1.905      3.657
REMARK  2 active torsions:
REMARK  status: ('A' for Active; 'I' for Inactive)
REMARK    1  A    between atoms: C1_1  and  O5_5 
REMARK    2  A    between atoms: C3_3  and  O5_5 
ROOT
HETATM    1  O5  UNL     1     -33.341   5.698   4.893  1.00 20.00    -0.288 OA
ENDROOT
BRANCH   1   2
HETATM    2  C1  UNL     1     -34.163   5.826   5.982  1.00 20.00     0.359 C 
HETATM    3  O4  UNL     1     -34.164   6.810   6.717  1.00 20.00    -0.245 OA
HETATM    4 CL6  UNL     1     -35.197   4.439   6.198  1.00 20.00    -0.012 Cl
ENDBRANCH   1   2
BRANCH   1   5
HETATM    5  C3  UNL     1     -33.723   6.374   3.682  1.00 20.00     0.224 C 
HETATM    6  C2  UNL     1     -34.385   5.397   2.724  1.00 20.00     0.057 C 
HETATM    7 CL7  UNL     1     -32.240   7.031   2.935  1.00 20.00    -0.095 Cl
ENDBRANCH   1   5
TORSDOF 2
ENDMDL
MODEL 6
REMARK VINA RESULT:      -3.6      2.100      3.552
REMARK  2 active torsions:
REMARK  status: ('A' for Active; 'I' for Inactive)
REMARK    1  A    between atoms: C1_1  and  O5_5 
REMARK    2  A    between atoms: C3_3  and  O5_5 
ROOT
HETATM    1  O5  UNL     1     -34.120   6.651   4.686  1.00 20.00    -0.288 OA
ENDROOT
BRANCH   1   2
HETATM    2  C1  UNL     1     -34.106   6.273   6.004  1.00 20.00     0.359 C 
HETATM    3  O4  UNL     1     -34.617   5.235   6.415  1.00 20.00    -0.245 OA
HETATM    4 CL6  UNL     1     -33.287   7.432   7.016  1.00 20.00    -0.012 Cl
ENDBRANCH   1   2
BRANCH   1   5
HETATM    5  C3  UNL     1     -33.232   5.968   3.784  1.00 20.00     0.224 C 
HETATM    6  C2  UNL     1     -32.265   6.956   3.153  1.00 20.00     0.057 C 
HETATM    7 CL7  UNL     1     -34.227   5.209   2.512  1.00 20.00    -0.095 Cl
ENDBRANCH   1   5
TORSDOF 2
ENDMDL
MODEL 7
REMARK VINA RESULT:      -3.5      1.774      1.931
REMARK  2 active torsions:
REMARK  status: ('A' for Active; 'I' for Inactive)
REMARK    1  A    between atoms: C1_1  and  O5_5 
REMARK    2  A    between atoms: C3_3  and  O5_5 
ROOT
HETATM    1  O5  UNL     1     -32.696   6.269   3.591  1.00 20.00    -0.288 OA
ENDROOT
BRANCH   1   2
HETATM    2  C1  UNL     1     -31.876   7.350   3.394  1.00 20.00     0.359 C 
HETATM    3  O4  UNL     1     -31.052   7.734   4.220  1.00 20.00    -0.245 OA
HETATM    4 CL6  UNL     1     -32.141   8.110   1.847  1.00 20.00    -0.012 Cl
ENDBRANCH   1   2
BRANCH   1   5
HETATM    5  C3  UNL     1     -33.973   6.502   4.209  1.00 20.00     0.224 C 
HETATM    6  C2  UNL     1     -33.875   6.286   5.710  1.00 20.00     0.057 C 
HETATM    7 CL7  UNL     1     -35.134   5.338   3.511  1.00 20.00    -0.095 Cl
ENDBRANCH   1   5
TORSDOF 2
ENDMDL
MODEL 8
REMARK VINA RESULT:      -3.5      1.912      3.509
REMARK  2 active torsions:
REMARK  status: ('A' for Active; 'I' for Inactive)
REMARK    1  A    between atoms: C1_1  and  O5_5 
REMARK    2  A    between atoms: C3_3  and  O5_5 
ROOT
HETATM    1  O5  UNL     1     -33.860   5.379   3.815  1.00 20.00    -0.288 OA
ENDROOT
BRANCH   1   2
HETATM    2  C1  UNL     1     -35.097   5.008   4.275  1.00 20.00     0.359 C 
HETATM    3  O4  UNL     1     -36.149   5.438   3.809  1.00 20.00    -0.245 OA
HETATM    4 CL6  UNL     1     -35.001   3.866   5.588  1.00 20.00    -0.012 Cl
ENDBRANCH   1   2
BRANCH   1   5
HETATM    5  C3  UNL     1     -33.415   6.717   4.095  1.00 20.00     0.224 C 
HETATM    6  C2  UNL     1     -32.034   6.944   3.504  1.00 20.00     0.057 C 
HETATM    7 CL7  UNL     1     -33.346   6.908   5.868  1.00 20.00    -0.095 Cl
ENDBRANCH   1   5
TORSDOF 2
ENDMDL
MODEL 9
REMARK VINA RESULT:      -3.4     11.300     11.741
REMARK  2 active torsions:
REMARK  status: ('A' for Active; 'I' for Inactive)
REMARK    1  A    between atoms: C1_1  and  O5_5 
REMARK    2  A    between atoms: C3_3  and  O5_5 
ROOT
HETATM    1  O5  UNL     1     -35.311  14.448  -3.406  1.00 20.00    -0.288 OA
ENDROOT
BRANCH   1   2
HETATM    2  C1  UNL     1     -35.254  13.727  -4.570  1.00 20.00     0.359 C 
HETATM    3  O4  UNL     1     -34.914  12.548  -4.619  1.00 20.00    -0.245 OA
HETATM    4 CL6  UNL     1     -35.717  14.673  -5.959  1.00 20.00    -0.012 Cl
ENDBRANCH   1   2
BRANCH   1   5
HETATM    5  C3  UNL     1     -34.456  15.599  -3.289  1.00 20.00     0.224 C 
HETATM    6  C2  UNL     1     -33.019  15.217  -3.601  1.00 20.00     0.057 C 
HETATM    7 CL7  UNL     1     -34.567  16.190  -1.608  1.00 20.00    -0.095 Cl
ENDBRANCH   1   5
TORSDOF 2
ENDMDL
