MODEL 1
REMARK VINA RESULT:      -4.4      0.000      0.000
REMARK  1 active torsions:
REMARK  status: ('A' for Active; 'I' for Inactive)
REMARK    1  A    between atoms: C3_3  and  C7_7 
ROOT
HETATM    1  C1  UNL     1     -33.531  17.181  -4.391  1.00 20.00    -0.019 C 
HETATM    2  C2  UNL     1     -33.872  17.271  -3.093  1.00 20.00    -0.087 C 
HETATM    3  C4  UNL     1     -34.549  16.139  -2.365  1.00 20.00     0.034 C 
HETATM    4  C5  UNL     1     -34.463  14.807  -3.111  1.00 20.00     0.016 C 
HETATM    5  C6  UNL     1     -33.819  15.981  -5.263  1.00 20.00     0.015 C 
HETATM    6  C7  UNL     1     -34.788  14.984  -4.594  1.00 20.00     0.054 C 
HETATM    7  C8  UNL     1     -33.595  18.504  -2.284  1.00 20.00     0.043 C 
HETATM    8  C9  UNL     1     -34.375  16.444  -6.614  1.00 20.00     0.015 C 
ENDROOT
BRANCH   6   9
HETATM    9  C3  UNL     1     -34.705  13.642  -5.260  1.00 20.00     0.236 C 
HETATM   10  O10 UNL     1     -34.846  12.580  -4.662  1.00 20.00    -0.306 OA
ENDBRANCH   6   9
TORSDOF 1
ENDMDL
MODEL 2
REMARK VINA RESULT:      -4.4      1.365      2.188
REMARK  1 active torsions:
REMARK  status: ('A' for Active; 'I' for Inactive)
REMARK    1  A    between atoms: C3_3  and  C7_7 
ROOT
HETATM    1  C1  UNL     1     -34.157  16.616  -6.788  1.00 20.00    -0.019 C 
HETATM    2  C2  UNL     1     -33.847  17.544  -5.865  1.00 20.00    -0.087 C 
HETATM    3  C4  UNL     1     -33.621  17.188  -4.419  1.00 20.00     0.034 C 
HETATM    4  C5  UNL     1     -33.410  15.690  -4.194  1.00 20.00     0.016 C 
HETATM    5  C6  UNL     1     -34.353  15.149  -6.484  1.00 20.00     0.015 C 
HETATM    6  C7  UNL     1     -34.438  14.866  -4.969  1.00 20.00     0.054 C 
HETATM    7  C8  UNL     1     -33.703  18.996  -6.218  1.00 20.00     0.043 C 
HETATM    8  C9  UNL     1     -35.609  14.636  -7.196  1.00 20.00     0.015 C 
ENDROOT
BRANCH   6   9
HETATM    9  C3  UNL     1     -34.187  13.414  -4.690  1.00 20.00     0.236 C 
HETATM   10  O10 UNL     1     -35.059  12.636  -4.315  1.00 20.00    -0.306 OA
ENDBRANCH   6   9
TORSDOF 1
ENDMDL
MODEL 3
REMARK VINA RESULT:      -4.4      1.725      2.950
REMARK  1 active torsions:
REMARK  status: ('A' for Active; 'I' for Inactive)
REMARK    1  A    between atoms: C3_3  and  C7_7 
ROOT
HETATM    1  C1  UNL     1     -34.849  15.808  -1.969  1.00 20.00    -0.019 C 
HETATM    2  C2  UNL     1     -34.501  16.942  -1.337  1.00 20.00    -0.087 C 
HETATM    3  C4  UNL     1     -33.753  18.048  -2.036  1.00 20.00     0.034 C 
HETATM    4  C5  UNL     1     -33.773  17.919  -3.560  1.00 20.00     0.016 C 
HETATM    5  C6  UNL     1     -34.505  15.496  -3.407  1.00 20.00     0.015 C 
HETATM    6  C7  UNL     1     -33.474  16.483  -3.994  1.00 20.00     0.054 C 
HETATM    7  C8  UNL     1     -34.837  17.182   0.105  1.00 20.00     0.043 C 
HETATM    8  C9  UNL     1     -33.990  14.057  -3.516  1.00 20.00     0.015 C 
ENDROOT
BRANCH   6   9
HETATM    9  C3  UNL     1     -33.489  16.431  -5.494  1.00 20.00     0.236 C 
HETATM   10  O10 UNL     1     -34.519  16.403  -6.159  1.00 20.00    -0.306 OA
ENDBRANCH   6   9
TORSDOF 1
ENDMDL
MODEL 4
REMARK VINA RESULT:      -4.3      1.651      2.143
REMARK  1 active torsions:
REMARK  status: ('A' for Active; 'I' for Inactive)
REMARK    1  A    between atoms: C3_3  and  C7_7 
ROOT
HETATM    1  C1  UNL     1     -34.275  15.995  -2.088  1.00 20.00    -0.019 C 
HETATM    2  C2  UNL     1     -35.376  16.764  -2.027  1.00 20.00    -0.087 C 
HETATM    3  C4  UNL     1     -36.529  16.585  -2.982  1.00 20.00     0.034 C 
HETATM    4  C5  UNL     1     -36.485  15.256  -3.736  1.00 20.00     0.016 C 
HETATM    5  C6  UNL     1     -34.049  14.916  -3.121  1.00 20.00     0.015 C 
HETATM    6  C7  UNL     1     -35.080  14.971  -4.268  1.00 20.00     0.054 C 
HETATM    7  C8  UNL     1     -35.530  17.849  -1.002  1.00 20.00     0.043 C 
HETATM    8  C9  UNL     1     -32.624  15.020  -3.676  1.00 20.00     0.015 C 
ENDROOT
BRANCH   6   9
HETATM    9  C3  UNL     1     -35.112  13.668  -5.011  1.00 20.00     0.236 C 
HETATM   10  O10 UNL     1     -35.033  12.574  -4.463  1.00 20.00    -0.306 OA
ENDBRANCH   6   9
TORSDOF 1
ENDMDL
MODEL 5
REMARK VINA RESULT:      -4.3      1.211      2.850
REMARK  1 active torsions:
REMARK  status: ('A' for Active; 'I' for Inactive)
REMARK    1  A    between atoms: C3_3  and  C7_7 
ROOT
HETATM    1  C1  UNL     1     -34.434  17.313  -4.720  1.00 20.00    -0.019 C 
HETATM    2  C2  UNL     1     -34.196  17.272  -6.043  1.00 20.00    -0.087 C 
HETATM    3  C4  UNL     1     -34.069  15.970  -6.790  1.00 20.00     0.034 C 
HETATM    4  C5  UNL     1     -34.596  14.770  -6.003  1.00 20.00     0.016 C 
HETATM    5  C6  UNL     1     -34.556  16.091  -3.840  1.00 20.00     0.015 C 
HETATM    6  C7  UNL     1     -34.104  14.801  -4.556  1.00 20.00     0.054 C 
HETATM    7  C8  UNL     1     -34.045  18.520  -6.861  1.00 20.00     0.043 C 
HETATM    8  C9  UNL     1     -33.753  16.298  -2.551  1.00 20.00     0.015 C 
ENDROOT
BRANCH   6   9
HETATM    9  C3  UNL     1     -34.639  13.591  -3.849  1.00 20.00     0.236 C 
HETATM   10  O10 UNL     1     -35.034  12.586  -4.431  1.00 20.00    -0.306 OA
ENDBRANCH   6   9
TORSDOF 1
ENDMDL
MODEL 6
REMARK VINA RESULT:      -4.3      1.801      2.286
REMARK  1 active torsions:
REMARK  status: ('A' for Active; 'I' for Inactive)
REMARK    1  A    between atoms: C3_3  and  C7_7 
ROOT
HETATM    1  C1  UNL     1     -36.416  16.747  -2.943  1.00 20.00    -0.019 C 
HETATM    2  C2  UNL     1     -35.536  17.128  -2.000  1.00 20.00    -0.087 C 
HETATM    3  C4  UNL     1     -34.226  16.412  -1.796  1.00 20.00     0.034 C 
HETATM    4  C5  UNL     1     -33.850  15.500  -2.964  1.00 20.00     0.016 C 
HETATM    5  C6  UNL     1     -36.222  15.560  -3.857  1.00 20.00     0.015 C 
HETATM    6  C7  UNL     1     -35.046  14.662  -3.417  1.00 20.00     0.054 C 
HETATM    7  C8  UNL     1     -35.800  18.293  -1.093  1.00 20.00     0.043 C 
HETATM    8  C9  UNL     1     -37.518  14.747  -3.933  1.00 20.00     0.015 C 
ENDROOT
BRANCH   6   9
HETATM    9  C3  UNL     1     -34.605  13.780  -4.547  1.00 20.00     0.236 C 
HETATM   10  O10 UNL     1     -34.865  12.584  -4.613  1.00 20.00    -0.306 OA
ENDBRANCH   6   9
TORSDOF 1
ENDMDL
MODEL 7
REMARK VINA RESULT:      -4.2     11.761     13.361
REMARK  1 active torsions:
REMARK  status: ('A' for Active; 'I' for Inactive)
REMARK    1  A    between atoms: C3_3  and  C7_7 
ROOT
HETATM    1  C1  UNL     1     -35.085   4.979   4.413  1.00 20.00    -0.019 C 
HETATM    2  C2  UNL     1     -34.784   5.097   5.718  1.00 20.00    -0.087 C 
HETATM    3  C4  UNL     1     -33.706   6.029   6.208  1.00 20.00     0.034 C 
HETATM    4  C5  UNL     1     -33.280   7.059   5.160  1.00 20.00     0.016 C 
HETATM    5  C6  UNL     1     -34.368   5.716   3.306  1.00 20.00     0.015 C 
HETATM    6  C7  UNL     1     -33.075   6.403   3.795  1.00 20.00     0.054 C 
HETATM    7  C8  UNL     1     -35.505   4.310   6.773  1.00 20.00     0.043 C 
HETATM    8  C9  UNL     1     -34.060   4.751   2.156  1.00 20.00     0.015 C 
ENDROOT
BRANCH   6   9
HETATM    9  C3  UNL     1     -32.641   7.460   2.823  1.00 20.00     0.236 C 
HETATM   10  O10 UNL     1     -31.549   8.016   2.871  1.00 20.00    -0.306 OA
ENDBRANCH   6   9
TORSDOF 1
ENDMDL
MODEL 8
REMARK VINA RESULT:      -4.2     11.662     13.472
REMARK  1 active torsions:
REMARK  status: ('A' for Active; 'I' for Inactive)
REMARK    1  A    between atoms: C3_3  and  C7_7 
ROOT
HETATM    1  C1  UNL     1     -42.797   4.763  -2.996  1.00 20.00    -0.019 C 
HETATM    2  C2  UNL     1     -41.908   3.854  -2.557  1.00 20.00    -0.087 C 
HETATM    3  C4  UNL     1     -40.862   4.195  -1.527  1.00 20.00     0.034 C 
HETATM    4  C5  UNL     1     -41.147   5.503  -0.789  1.00 20.00     0.016 C 
HETATM    5  C6  UNL     1     -42.824   6.207  -2.555  1.00 20.00     0.015 C 
HETATM    6  C7  UNL     1     -41.561   6.607  -1.763  1.00 20.00     0.054 C 
HETATM    7  C8  UNL     1     -41.903   2.441  -3.060  1.00 20.00     0.043 C 
HETATM    8  C9  UNL     1     -43.002   7.118  -3.774  1.00 20.00     0.015 C 
ENDROOT
BRANCH   6   9
HETATM    9  C3  UNL     1     -41.806   7.862  -0.979  1.00 20.00     0.236 C 
HETATM   10  O10 UNL     1     -42.912   8.200  -0.570  1.00 20.00    -0.306 OA
ENDBRANCH   6   9
TORSDOF 1
ENDMDL
MODEL 9
REMARK VINA RESULT:      -4.1      1.795      2.476
REMARK  1 active torsions:
REMARK  status: ('A' for Active; 'I' for Inactive)
REMARK    1  A    between atoms: C3_3  and  C7_7 
ROOT
HETATM    1  C1  UNL     1     -35.922  16.088  -2.881  1.00 20.00    -0.019 C 
HETATM    2  C2  UNL     1     -34.712  16.105  -2.294  1.00 20.00    -0.087 C 
HETATM    3  C4  UNL     1     -33.488  15.545  -2.972  1.00 20.00     0.034 C 
HETATM    4  C5  UNL     1     -33.681  15.320  -4.473  1.00 20.00     0.016 C 
HETATM    5  C6  UNL     1     -36.200  15.482  -4.237  1.00 20.00     0.015 C 
HETATM    6  C7  UNL     1     -35.018  14.638  -4.760  1.00 20.00     0.054 C 
HETATM    7  C8  UNL     1     -34.502  16.686  -0.927  1.00 20.00     0.043 C 
HETATM    8  C9  UNL     1     -37.476  14.636  -4.175  1.00 20.00     0.015 C 
ENDROOT
BRANCH   6   9
HETATM    9  C3  UNL     1     -35.134  14.430  -6.241  1.00 20.00     0.236 C 
HETATM   10  O10 UNL     1     -34.308  14.842  -7.049  1.00 20.00    -0.306 OA
ENDBRANCH   6   9
TORSDOF 1
ENDMDL
