MODEL 1
REMARK VINA RESULT:      -5.1      0.000      0.000
REMARK  2 active torsions:
REMARK  status: ('A' for Active; 'I' for Inactive)
REMARK    1  A    between atoms: C6_6  and  C8_8 
REMARK    2  A    between atoms: C8_8  and  O9_9 
ROOT
HETATM    1  C1  UNL     1     -35.219   4.132   5.774  1.00 20.00    -0.030 C 
HETATM    2  C2  UNL     1     -35.247   4.154   4.436  1.00 20.00    -0.030 C 
HETATM    3  C3  UNL     1     -34.528   5.179   6.594  1.00 20.00     0.031 C 
HETATM    4  C4  UNL     1     -34.565   5.210   3.621  1.00 20.00     0.034 C 
HETATM    5  C5  UNL     1     -34.158   6.446   5.795  1.00 20.00    -0.009 C 
HETATM    6  C6  UNL     1     -33.556   6.056   4.424  1.00 20.00     0.016 C 
HETATM    7  C7  UNL     1     -33.228   7.324   6.636  1.00 20.00     0.011 C 
ENDROOT
BRANCH   6   8
HETATM    8  C8  UNL     1     -33.124   7.264   3.588  1.00 20.00     0.169 C 
BRANCH   8   9
HETATM    9  O9  UNL     1     -31.744   7.140   3.308  1.00 20.00    -0.400 OA
HETATM   10  H23 UNL     1     -31.347   6.631   4.037  1.00 20.00     0.209 HD
ENDBRANCH   8   9
ENDBRANCH   6   8
TORSDOF 2
ENDMDL
MODEL 2
REMARK VINA RESULT:      -4.6      0.861      2.510
REMARK  2 active torsions:
REMARK  status: ('A' for Active; 'I' for Inactive)
REMARK    1  A    between atoms: C6_6  and  C8_8 
REMARK    2  A    between atoms: C8_8  and  O9_9 
ROOT
HETATM    1  C1  UNL     1     -35.046   5.138   6.002  1.00 20.00    -0.030 C 
HETATM    2  C2  UNL     1     -34.159   6.055   6.408  1.00 20.00    -0.030 C 
HETATM    3  C3  UNL     1     -35.210   4.738   4.567  1.00 20.00     0.031 C 
HETATM    4  C4  UNL     1     -33.260   6.796   5.466  1.00 20.00     0.034 C 
HETATM    5  C5  UNL     1     -34.054   5.208   3.658  1.00 20.00    -0.009 C 
HETATM    6  C6  UNL     1     -33.678   6.673   3.986  1.00 20.00     0.016 C 
HETATM    7  C7  UNL     1     -34.442   4.996   2.193  1.00 20.00     0.011 C 
ENDROOT
BRANCH   6   8
HETATM    8  C8  UNL     1     -32.563   7.224   3.094  1.00 20.00     0.169 C 
BRANCH   8   9
HETATM    9  O9  UNL     1     -31.456   7.545   3.912  1.00 20.00    -0.400 OA
HETATM   10  H23 UNL     1     -31.383   8.515   3.929  1.00 20.00     0.209 HD
ENDBRANCH   8   9
ENDBRANCH   6   8
TORSDOF 2
ENDMDL
MODEL 3
REMARK VINA RESULT:      -4.5      1.580      2.731
REMARK  2 active torsions:
REMARK  status: ('A' for Active; 'I' for Inactive)
REMARK    1  A    between atoms: C6_6  and  C8_8 
REMARK    2  A    between atoms: C8_8  and  O9_9 
ROOT
HETATM    1  C1  UNL     1     -35.311   4.265   4.287  1.00 20.00    -0.030 C 
HETATM    2  C2  UNL     1     -35.302   4.279   5.626  1.00 20.00    -0.030 C 
HETATM    3  C3  UNL     1     -34.523   5.230   3.454  1.00 20.00     0.031 C 
HETATM    4  C4  UNL     1     -34.526   5.278   6.428  1.00 20.00     0.034 C 
HETATM    5  C5  UNL     1     -33.448   6.000   4.251  1.00 20.00    -0.009 C 
HETATM    6  C6  UNL     1     -34.028   6.483   5.602  1.00 20.00     0.016 C 
HETATM    7  C7  UNL     1     -32.894   7.138   3.390  1.00 20.00     0.011 C 
ENDROOT
BRANCH   6   8
HETATM    8  C8  UNL     1     -33.031   7.293   6.433  1.00 20.00     0.169 C 
BRANCH   8   9
HETATM    9  O9  UNL     1     -33.735   7.922   7.485  1.00 20.00    -0.400 OA
HETATM   10  H23 UNL     1     -33.312   7.647   8.318  1.00 20.00     0.209 HD
ENDBRANCH   8   9
ENDBRANCH   6   8
TORSDOF 2
ENDMDL
MODEL 4
REMARK VINA RESULT:      -4.4     12.092     13.695
REMARK  2 active torsions:
REMARK  status: ('A' for Active; 'I' for Inactive)
REMARK    1  A    between atoms: C6_6  and  C8_8 
REMARK    2  A    between atoms: C8_8  and  O9_9 
ROOT
HETATM    1  C1  UNL     1     -33.711  17.071  -3.414  1.00 20.00    -0.030 C 
HETATM    2  C2  UNL     1     -34.061  16.048  -2.625  1.00 20.00    -0.030 C 
HETATM    3  C3  UNL     1     -33.704  16.984  -4.910  1.00 20.00     0.031 C 
HETATM    4  C4  UNL     1     -34.455  14.704  -3.155  1.00 20.00     0.034 C 
HETATM    5  C5  UNL     1     -34.457  15.754  -5.461  1.00 20.00    -0.009 C 
HETATM    6  C6  UNL     1     -34.094  14.494  -4.640  1.00 20.00     0.016 C 
HETATM    7  C7  UNL     1     -34.164  15.607  -6.956  1.00 20.00     0.011 C 
ENDROOT
BRANCH   6   8
HETATM    8  C8  UNL     1     -34.771  13.222  -5.155  1.00 20.00     0.169 C 
BRANCH   8   9
HETATM    9  O9  UNL     1     -35.362  12.556  -4.057  1.00 20.00    -0.400 OA
HETATM   10  H23 UNL     1     -35.812  11.767  -4.407  1.00 20.00     0.209 HD
ENDBRANCH   8   9
ENDBRANCH   6   8
TORSDOF 2
ENDMDL
MODEL 5
REMARK VINA RESULT:      -4.3      2.028      3.207
REMARK  2 active torsions:
REMARK  status: ('A' for Active; 'I' for Inactive)
REMARK    1  A    between atoms: C6_6  and  C8_8 
REMARK    2  A    between atoms: C8_8  and  O9_9 
ROOT
HETATM    1  C1  UNL     1     -32.578   6.850   2.960  1.00 20.00    -0.030 C 
HETATM    2  C2  UNL     1     -33.280   5.793   2.533  1.00 20.00    -0.030 C 
HETATM    3  C3  UNL     1     -32.642   7.359   4.368  1.00 20.00     0.031 C 
HETATM    4  C4  UNL     1     -34.222   5.028   3.411  1.00 20.00     0.034 C 
HETATM    5  C5  UNL     1     -33.301   6.370   5.354  1.00 20.00    -0.009 C 
HETATM    6  C6  UNL     1     -34.575   5.758   4.724  1.00 20.00     0.016 C 
HETATM    7  C7  UNL     1     -33.565   7.078   6.685  1.00 20.00     0.011 C 
ENDROOT
BRANCH   6   8
HETATM    8  C8  UNL     1     -35.310   4.796   5.660  1.00 20.00     0.169 C 
BRANCH   8   9
HETATM    9  O9  UNL     1     -35.356   3.524   5.045  1.00 20.00    -0.400 OA
HETATM   10  H23 UNL     1     -36.295   3.286   4.947  1.00 20.00     0.209 HD
ENDBRANCH   8   9
ENDBRANCH   6   8
TORSDOF 2
ENDMDL
MODEL 6
REMARK VINA RESULT:      -4.2     11.900     13.929
REMARK  2 active torsions:
REMARK  status: ('A' for Active; 'I' for Inactive)
REMARK    1  A    between atoms: C6_6  and  C8_8 
REMARK    2  A    between atoms: C8_8  and  O9_9 
ROOT
HETATM    1  C1  UNL     1     -34.107  16.993  -6.392  1.00 20.00    -0.030 C 
HETATM    2  C2  UNL     1     -34.346  15.776  -6.896  1.00 20.00    -0.030 C 
HETATM    3  C3  UNL     1     -33.880  17.243  -4.932  1.00 20.00     0.031 C 
HETATM    4  C4  UNL     1     -34.438  14.544  -6.049  1.00 20.00     0.034 C 
HETATM    5  C5  UNL     1     -33.601  15.959  -4.121  1.00 20.00    -0.009 C 
HETATM    6  C6  UNL     1     -34.582  14.838  -4.542  1.00 20.00     0.016 C 
HETATM    7  C7  UNL     1     -33.656  16.280  -2.626  1.00 20.00     0.011 C 
ENDROOT
BRANCH   6   8
HETATM    8  C8  UNL     1     -34.393  13.542  -3.749  1.00 20.00     0.169 C 
BRANCH   8   9
HETATM    9  O9  UNL     1     -35.378  12.618  -4.167  1.00 20.00    -0.400 OA
HETATM   10  H23 UNL     1     -35.203  12.416  -5.103  1.00 20.00     0.209 HD
ENDBRANCH   8   9
ENDBRANCH   6   8
TORSDOF 2
ENDMDL
MODEL 7
REMARK VINA RESULT:      -4.2     12.254     12.714
REMARK  2 active torsions:
REMARK  status: ('A' for Active; 'I' for Inactive)
REMARK    1  A    between atoms: C6_6  and  C8_8 
REMARK    2  A    between atoms: C8_8  and  O9_9 
ROOT
HETATM    1  C1  UNL     1     -33.132  14.260  -3.789  1.00 20.00    -0.030 C 
HETATM    2  C2  UNL     1     -34.077  13.462  -4.301  1.00 20.00    -0.030 C 
HETATM    3  C3  UNL     1     -33.444  15.517  -3.035  1.00 20.00     0.031 C 
HETATM    4  C4  UNL     1     -35.541  13.758  -4.198  1.00 20.00     0.034 C 
HETATM    5  C5  UNL     1     -34.922  15.629  -2.604  1.00 20.00    -0.009 C 
HETATM    6  C6  UNL     1     -35.851  15.207  -3.768  1.00 20.00     0.016 C 
HETATM    7  C7  UNL     1     -35.197  17.046  -2.094  1.00 20.00     0.011 C 
ENDROOT
BRANCH   6   8
HETATM    8  C8  UNL     1     -37.338  15.332  -3.429  1.00 20.00     0.169 C 
BRANCH   8   9
HETATM    9  O9  UNL     1     -37.979  14.123  -3.786  1.00 20.00    -0.400 OA
HETATM   10  H23 UNL     1     -38.119  14.146  -4.749  1.00 20.00     0.209 HD
ENDBRANCH   8   9
ENDBRANCH   6   8
TORSDOF 2
ENDMDL
MODEL 8
REMARK VINA RESULT:      -4.1      1.655      3.496
REMARK  2 active torsions:
REMARK  status: ('A' for Active; 'I' for Inactive)
REMARK    1  A    between atoms: C6_6  and  C8_8 
REMARK    2  A    between atoms: C8_8  and  O9_9 
ROOT
HETATM    1  C1  UNL     1     -32.754   6.104   2.348  1.00 20.00    -0.030 C 
HETATM    2  C2  UNL     1     -32.160   7.038   3.101  1.00 20.00    -0.030 C 
HETATM    3  C3  UNL     1     -33.874   5.243   2.847  1.00 20.00     0.031 C 
HETATM    4  C4  UNL     1     -32.534   7.298   4.528  1.00 20.00     0.034 C 
HETATM    5  C5  UNL     1     -34.507   5.751   4.160  1.00 20.00    -0.009 C 
HETATM    6  C6  UNL     1     -33.402   6.186   5.152  1.00 20.00     0.016 C 
HETATM    7  C7  UNL     1     -35.438   4.675   4.725  1.00 20.00     0.011 C 
ENDROOT
BRANCH   6   8
HETATM    8  C8  UNL     1     -33.953   6.664   6.498  1.00 20.00     0.169 C 
BRANCH   8   9
HETATM    9  O9  UNL     1     -33.013   7.549   7.074  1.00 20.00    -0.400 OA
HETATM   10  H23 UNL     1     -33.398   8.442   7.035  1.00 20.00     0.209 HD
ENDBRANCH   8   9
ENDBRANCH   6   8
TORSDOF 2
ENDMDL
MODEL 9
REMARK VINA RESULT:      -4.0     12.486     12.969
REMARK  2 active torsions:
REMARK  status: ('A' for Active; 'I' for Inactive)
REMARK    1  A    between atoms: C6_6  and  C8_8 
REMARK    2  A    between atoms: C8_8  and  O9_9 
ROOT
HETATM    1  C1  UNL     1     -34.828  16.813  -2.199  1.00 20.00    -0.030 C 
HETATM    2  C2  UNL     1     -33.701  16.165  -2.521  1.00 20.00    -0.030 C 
HETATM    3  C3  UNL     1     -36.169  16.449  -2.760  1.00 20.00     0.031 C 
HETATM    4  C4  UNL     1     -33.662  15.028  -3.495  1.00 20.00     0.034 C 
HETATM    5  C5  UNL     1     -36.196  15.070  -3.453  1.00 20.00    -0.009 C 
HETATM    6  C6  UNL     1     -34.943  14.897  -4.345  1.00 20.00     0.016 C 
HETATM    7  C7  UNL     1     -37.510  14.912  -4.220  1.00 20.00     0.011 C 
ENDROOT
BRANCH   6   8
HETATM    8  C8  UNL     1     -34.919  13.566  -5.101  1.00 20.00     0.169 C 
BRANCH   8   9
HETATM    9  O9  UNL     1     -35.069  12.519  -4.163  1.00 20.00    -0.400 OA
HETATM   10  H23 UNL     1     -35.797  12.770  -3.568  1.00 20.00     0.209 HD
ENDBRANCH   8   9
ENDBRANCH   6   8
TORSDOF 2
ENDMDL
