MODEL 1
REMARK VINA RESULT:      -4.8      0.000      0.000
REMARK  1 active torsions:
REMARK  status: ('A' for Active; 'I' for Inactive)
REMARK    1  A    between atoms: C1_1  and  C5_5 
ROOT
HETATM    1  C2  UNL     1     -35.041  13.318  -4.577  1.00 20.00     0.006 C 
HETATM    2  C3  UNL     1     -33.776  13.779  -3.841  1.00 20.00     0.006 C 
HETATM    3  C4  UNL     1     -34.043  15.113  -5.760  1.00 20.00     0.011 C 
HETATM    4  C5  UNL     1     -36.003  15.697  -4.569  1.00 20.00     0.067 C 
HETATM    5  C6  UNL     1     -35.426  14.546  -5.425  1.00 20.00    -0.002 C 
HETATM    6  C7  UNL     1     -33.642  15.247  -4.282  1.00 20.00    -0.006 C 
HETATM    7  C8  UNL     1     -34.790  16.135  -3.691  1.00 20.00    -0.033 C 
HETATM    8  C10 UNL     1     -34.477  17.628  -3.928  1.00 20.00     0.016 C 
HETATM    9  C11 UNL     1     -34.977  15.946  -2.177  1.00 20.00     0.016 C 
ENDROOT
BRANCH   4  10
HETATM   10  C1  UNL     1     -37.258  15.312  -3.846  1.00 20.00     0.128 C 
HETATM   11  C9  UNL     1     -38.135  16.437  -3.367  1.00 20.00     0.091 C 
HETATM   12  O12 UNL     1     -37.557  14.135  -3.654  1.00 20.00    -0.298 OA
ENDBRANCH   4  10
TORSDOF 1
ENDMDL
MODEL 2
REMARK VINA RESULT:      -4.8      2.035      3.546
REMARK  1 active torsions:
REMARK  status: ('A' for Active; 'I' for Inactive)
REMARK    1  A    between atoms: C1_1  and  C5_5 
ROOT
HETATM    1  C2  UNL     1     -33.974  14.319  -3.496  1.00 20.00     0.006 C 
HETATM    2  C3  UNL     1     -34.685  13.300  -4.396  1.00 20.00     0.006 C 
HETATM    3  C4  UNL     1     -36.299  14.781  -3.538  1.00 20.00     0.011 C 
HETATM    4  C5  UNL     1     -34.981  16.286  -4.802  1.00 20.00     0.067 C 
HETATM    5  C6  UNL     1     -34.954  15.509  -3.465  1.00 20.00    -0.002 C 
HETATM    6  C7  UNL     1     -35.941  14.064  -4.850  1.00 20.00    -0.006 C 
HETATM    7  C8  UNL     1     -35.580  15.253  -5.806  1.00 20.00    -0.033 C 
HETATM    8  C10 UNL     1     -36.863  15.822  -6.448  1.00 20.00     0.016 C 
HETATM    9  C11 UNL     1     -34.645  14.838  -6.953  1.00 20.00     0.016 C 
ENDROOT
BRANCH   4  10
HETATM   10  C1  UNL     1     -33.652  16.881  -5.156  1.00 20.00     0.128 C 
HETATM   11  C9  UNL     1     -33.673  18.205  -5.872  1.00 20.00     0.091 C 
HETATM   12  O12 UNL     1     -32.596  16.317  -4.875  1.00 20.00    -0.298 OA
ENDBRANCH   4  10
TORSDOF 1
ENDMDL
MODEL 3
REMARK VINA RESULT:      -4.7      1.863      3.175
REMARK  1 active torsions:
REMARK  status: ('A' for Active; 'I' for Inactive)
REMARK    1  A    between atoms: C1_1  and  C5_5 
ROOT
HETATM    1  C2  UNL     1     -32.951  15.896  -4.754  1.00 20.00     0.006 C 
HETATM    2  C3  UNL     1     -34.049  15.959  -5.825  1.00 20.00     0.006 C 
HETATM    3  C4  UNL     1     -34.273  13.931  -4.655  1.00 20.00     0.011 C 
HETATM    4  C5  UNL     1     -34.677  15.470  -2.903  1.00 20.00     0.067 C 
HETATM    5  C6  UNL     1     -33.510  14.886  -3.732  1.00 20.00    -0.002 C 
HETATM    6  C7  UNL     1     -35.146  15.052  -5.241  1.00 20.00    -0.006 C 
HETATM    7  C8  UNL     1     -35.800  15.684  -3.964  1.00 20.00    -0.033 C 
HETATM    8  C10 UNL     1     -37.061  14.888  -3.568  1.00 20.00     0.016 C 
HETATM    9  C11 UNL     1     -36.233  17.144  -4.172  1.00 20.00     0.016 C 
ENDROOT
BRANCH   4  10
HETATM   10  C1  UNL     1     -34.274  16.665  -2.093  1.00 20.00     0.128 C 
HETATM   11  C9  UNL     1     -34.728  16.694  -0.659  1.00 20.00     0.091 C 
HETATM   12  O12 UNL     1     -33.605  17.577  -2.576  1.00 20.00    -0.298 OA
ENDBRANCH   4  10
TORSDOF 1
ENDMDL
MODEL 4
REMARK VINA RESULT:      -4.6      2.030      3.767
REMARK  1 active torsions:
REMARK  status: ('A' for Active; 'I' for Inactive)
REMARK    1  A    between atoms: C1_1  and  C5_5 
ROOT
HETATM    1  C2  UNL     1     -33.787  17.538  -2.803  1.00 20.00     0.006 C 
HETATM    2  C3  UNL     1     -34.187  16.489  -1.758  1.00 20.00     0.006 C 
HETATM    3  C4  UNL     1     -36.147  17.321  -2.758  1.00 20.00     0.011 C 
HETATM    4  C5  UNL     1     -35.110  16.325  -4.637  1.00 20.00     0.067 C 
HETATM    5  C6  UNL     1     -35.006  17.584  -3.745  1.00 20.00    -0.002 C 
HETATM    6  C7  UNL     1     -35.546  15.990  -2.280  1.00 20.00    -0.006 C 
HETATM    7  C8  UNL     1     -35.391  15.182  -3.614  1.00 20.00    -0.033 C 
HETATM    8  C10 UNL     1     -36.720  14.476  -3.960  1.00 20.00     0.016 C 
HETATM    9  C11 UNL     1     -34.308  14.094  -3.534  1.00 20.00     0.016 C 
ENDROOT
BRANCH   4  10
HETATM   10  C1  UNL     1     -33.925  16.150  -5.538  1.00 20.00     0.128 C 
HETATM   11  C9  UNL     1     -34.186  15.539  -6.888  1.00 20.00     0.091 C 
HETATM   12  O12 UNL     1     -32.796  16.491  -5.192  1.00 20.00    -0.298 OA
ENDBRANCH   4  10
TORSDOF 1
ENDMDL
MODEL 5
REMARK VINA RESULT:      -4.6      1.480      3.354
REMARK  1 active torsions:
REMARK  status: ('A' for Active; 'I' for Inactive)
REMARK    1  A    between atoms: C1_1  and  C5_5 
ROOT
HETATM    1  C2  UNL     1     -37.236  14.628  -4.275  1.00 20.00     0.006 C 
HETATM    2  C3  UNL     1     -37.271  15.472  -5.556  1.00 20.00     0.006 C 
HETATM    3  C4  UNL     1     -36.429  16.809  -3.814  1.00 20.00     0.011 C 
HETATM    4  C5  UNL     1     -34.749  15.145  -3.914  1.00 20.00     0.067 C 
HETATM    5  C6  UNL     1     -36.193  15.353  -3.402  1.00 20.00    -0.002 C 
HETATM    6  C7  UNL     1     -36.175  16.522  -5.303  1.00 20.00    -0.006 C 
HETATM    7  C8  UNL     1     -34.748  15.876  -5.292  1.00 20.00    -0.033 C 
HETATM    8  C10 UNL     1     -33.669  16.980  -5.306  1.00 20.00     0.016 C 
HETATM    9  C11 UNL     1     -34.488  14.974  -6.510  1.00 20.00     0.016 C 
ENDROOT
BRANCH   4  10
HETATM   10  C1  UNL     1     -34.331  13.706  -3.910  1.00 20.00     0.128 C 
HETATM   11  C9  UNL     1     -32.900  13.418  -3.545  1.00 20.00     0.091 C 
HETATM   12  O12 UNL     1     -35.119  12.805  -4.191  1.00 20.00    -0.298 OA
ENDBRANCH   4  10
TORSDOF 1
ENDMDL
MODEL 6
REMARK VINA RESULT:      -4.6      1.675      2.789
REMARK  1 active torsions:
REMARK  status: ('A' for Active; 'I' for Inactive)
REMARK    1  A    between atoms: C1_1  and  C5_5 
ROOT
HETATM    1  C2  UNL     1     -34.620  15.257  -2.920  1.00 20.00     0.006 C 
HETATM    2  C3  UNL     1     -33.442  14.729  -3.750  1.00 20.00     0.006 C 
HETATM    3  C4  UNL     1     -35.320  13.380  -4.188  1.00 20.00     0.011 C 
HETATM    4  C5  UNL     1     -36.098  15.460  -5.008  1.00 20.00     0.067 C 
HETATM    5  C6  UNL     1     -35.854  14.720  -3.672  1.00 20.00    -0.002 C 
HETATM    6  C7  UNL     1     -34.143  14.034  -4.931  1.00 20.00    -0.006 C 
HETATM    7  C8  UNL     1     -34.857  15.068  -5.868  1.00 20.00    -0.033 C 
HETATM    8  C10 UNL     1     -35.313  14.373  -7.169  1.00 20.00     0.016 C 
HETATM    9  C11 UNL     1     -33.947  16.238  -6.275  1.00 20.00     0.016 C 
ENDROOT
BRANCH   4  10
HETATM   10  C1  UNL     1     -36.358  16.924  -4.824  1.00 20.00     0.128 C 
HETATM   11  C9  UNL     1     -37.232  17.590  -5.851  1.00 20.00     0.091 C 
HETATM   12  O12 UNL     1     -35.882  17.550  -3.879  1.00 20.00    -0.298 OA
ENDBRANCH   4  10
TORSDOF 1
ENDMDL
MODEL 7
REMARK VINA RESULT:      -4.5      1.707      2.836
REMARK  1 active torsions:
REMARK  status: ('A' for Active; 'I' for Inactive)
REMARK    1  A    between atoms: C1_1  and  C5_5 
ROOT
HETATM    1  C2  UNL     1     -36.708  15.151  -5.144  1.00 20.00     0.006 C 
HETATM    2  C3  UNL     1     -36.491  14.250  -3.921  1.00 20.00     0.006 C 
HETATM    3  C4  UNL     1     -34.872  13.703  -5.538  1.00 20.00     0.011 C 
HETATM    4  C5  UNL     1     -34.269  15.946  -5.084  1.00 20.00     0.067 C 
HETATM    5  C6  UNL     1     -35.336  15.130  -5.848  1.00 20.00    -0.002 C 
HETATM    6  C7  UNL     1     -34.996  13.898  -4.018  1.00 20.00    -0.006 C 
HETATM    7  C8  UNL     1     -34.090  15.149  -3.755  1.00 20.00    -0.033 C 
HETATM    8  C10 UNL     1     -32.619  14.710  -3.594  1.00 20.00     0.016 C 
HETATM    9  C11 UNL     1     -34.477  15.913  -2.478  1.00 20.00     0.016 C 
ENDROOT
BRANCH   4  10
HETATM   10  C1  UNL     1     -34.623  17.397  -4.961  1.00 20.00     0.128 C 
HETATM   11  C9  UNL     1     -33.478  18.371  -4.912  1.00 20.00     0.091 C 
HETATM   12  O12 UNL     1     -35.792  17.773  -4.903  1.00 20.00    -0.298 OA
ENDBRANCH   4  10
TORSDOF 1
ENDMDL
MODEL 8
REMARK VINA RESULT:      -4.5      1.528      2.375
REMARK  1 active torsions:
REMARK  status: ('A' for Active; 'I' for Inactive)
REMARK    1  A    between atoms: C1_1  and  C5_5 
ROOT
HETATM    1  C2  UNL     1     -34.339  14.599  -5.711  1.00 20.00     0.006 C 
HETATM    2  C3  UNL     1     -34.767  13.635  -4.596  1.00 20.00     0.006 C 
HETATM    3  C4  UNL     1     -32.933  14.890  -3.824  1.00 20.00     0.011 C 
HETATM    4  C5  UNL     1     -34.519  16.617  -4.137  1.00 20.00     0.067 C 
HETATM    5  C6  UNL     1     -33.576  15.703  -4.952  1.00 20.00    -0.002 C 
HETATM    6  C7  UNL     1     -34.282  14.350  -3.323  1.00 20.00    -0.006 C 
HETATM    7  C8  UNL     1     -35.098  15.660  -3.050  1.00 20.00    -0.033 C 
HETATM    8  C10 UNL     1     -34.773  16.200  -1.641  1.00 20.00     0.016 C 
HETATM    9  C11 UNL     1     -36.619  15.444  -3.112  1.00 20.00     0.016 C 
ENDROOT
BRANCH   4  10
HETATM   10  C1  UNL     1     -35.510  17.345  -4.996  1.00 20.00     0.128 C 
HETATM   11  C9  UNL     1     -35.972  18.689  -4.504  1.00 20.00     0.091 C 
HETATM   12  O12 UNL     1     -35.923  16.867  -6.050  1.00 20.00    -0.298 OA
ENDBRANCH   4  10
TORSDOF 1
ENDMDL
MODEL 9
REMARK VINA RESULT:      -4.5      1.424      3.178
REMARK  1 active torsions:
REMARK  status: ('A' for Active; 'I' for Inactive)
REMARK    1  A    between atoms: C1_1  and  C5_5 
ROOT
HETATM    1  C2  UNL     1     -36.602  15.081  -5.319  1.00 20.00     0.006 C 
HETATM    2  C3  UNL     1     -36.103  16.513  -5.549  1.00 20.00     0.006 C 
HETATM    3  C4  UNL     1     -36.870  16.345  -3.332  1.00 20.00     0.011 C 
HETATM    4  C5  UNL     1     -35.080  14.799  -3.272  1.00 20.00     0.067 C 
HETATM    5  C6  UNL     1     -36.533  14.922  -3.787  1.00 20.00    -0.002 C 
HETATM    6  C7  UNL     1     -35.716  16.971  -4.131  1.00 20.00    -0.006 C 
HETATM    7  C8  UNL     1     -34.464  16.195  -3.596  1.00 20.00    -0.033 C 
HETATM    8  C10 UNL     1     -33.947  16.858  -2.301  1.00 20.00     0.016 C 
HETATM    9  C11 UNL     1     -33.295  16.179  -4.594  1.00 20.00     0.016 C 
ENDROOT
BRANCH   4  10
HETATM   10  C1  UNL     1     -34.367  13.601  -3.823  1.00 20.00     0.128 C 
HETATM   11  C9  UNL     1     -32.900  13.485  -3.511  1.00 20.00     0.091 C 
HETATM   12  O12 UNL     1     -34.953  12.754  -4.495  1.00 20.00    -0.298 OA
ENDBRANCH   4  10
TORSDOF 1
ENDMDL
