MODEL 1
REMARK VINA RESULT:      -4.6      0.000      0.000
REMARK  1 active torsions:
REMARK  status: ('A' for Active; 'I' for Inactive)
REMARK    1  A    between atoms: C3_3  and  C7_7 
ROOT
HETATM    1  C1  UNL     1     -33.386  17.197  -4.970  1.00 20.00    -0.019 C 
HETATM    2  C2  UNL     1     -33.972  17.460  -6.151  1.00 20.00    -0.087 C 
HETATM    3  C4  UNL     1     -34.716  16.404  -6.925  1.00 20.00     0.034 C 
HETATM    4  C5  UNL     1     -34.414  14.984  -6.445  1.00 20.00     0.016 C 
HETATM    5  C6  UNL     1     -33.439  15.857  -4.274  1.00 20.00     0.015 C 
HETATM    6  C7  UNL     1     -34.459  14.896  -4.920  1.00 20.00     0.054 C 
HETATM    7  C8  UNL     1     -33.921  18.824  -6.777  1.00 20.00     0.043 C 
HETATM    8  C9  UNL     1     -33.756  16.058  -2.788  1.00 20.00     0.015 C 
ENDROOT
BRANCH   6   9
HETATM    9  C3  UNL     1     -34.167  13.483  -4.508  1.00 20.00     0.236 C 
HETATM   10  O10 UNL     1     -35.028  12.612  -4.423  1.00 20.00    -0.306 OA
ENDBRANCH   6   9
TORSDOF 1
ENDMDL
MODEL 2
REMARK VINA RESULT:      -4.5     11.735     13.732
REMARK  1 active torsions:
REMARK  status: ('A' for Active; 'I' for Inactive)
REMARK    1  A    between atoms: C3_3  and  C7_7 
ROOT
HETATM    1  C1  UNL     1     -32.576   7.063   4.454  1.00 20.00    -0.019 C 
HETATM    2  C2  UNL     1     -32.800   7.045   3.128  1.00 20.00    -0.087 C 
HETATM    3  C4  UNL     1     -33.866   6.179   2.510  1.00 20.00     0.034 C 
HETATM    4  C5  UNL     1     -34.374   5.088   3.454  1.00 20.00     0.016 C 
HETATM    5  C6  UNL     1     -33.376   6.271   5.461  1.00 20.00     0.015 C 
HETATM    6  C7  UNL     1     -34.648   5.649   4.849  1.00 20.00     0.054 C 
HETATM    7  C8  UNL     1     -31.999   7.885   2.176  1.00 20.00     0.043 C 
HETATM    8  C9  UNL     1     -33.735   7.165   6.654  1.00 20.00     0.015 C 
ENDROOT
BRANCH   6   9
HETATM    9  C3  UNL     1     -35.152   4.540   5.725  1.00 20.00     0.236 C 
HETATM   10  O10 UNL     1     -35.100   3.355   5.414  1.00 20.00    -0.306 OA
ENDBRANCH   6   9
TORSDOF 1
ENDMDL
MODEL 3
REMARK VINA RESULT:      -4.5      2.299      3.433
REMARK  1 active torsions:
REMARK  status: ('A' for Active; 'I' for Inactive)
REMARK    1  A    between atoms: C3_3  and  C7_7 
ROOT
HETATM    1  C1  UNL     1     -35.554  15.855  -2.334  1.00 20.00    -0.019 C 
HETATM    2  C2  UNL     1     -34.337  16.365  -2.073  1.00 20.00    -0.087 C 
HETATM    3  C4  UNL     1     -33.130  16.011  -2.901  1.00 20.00     0.034 C 
HETATM    4  C5  UNL     1     -33.342  14.775  -3.775  1.00 20.00     0.016 C 
HETATM    5  C6  UNL     1     -35.856  14.925  -3.485  1.00 20.00     0.015 C 
HETATM    6  C7  UNL     1     -34.691  14.832  -4.492  1.00 20.00     0.054 C 
HETATM    7  C8  UNL     1     -34.103  17.318  -0.937  1.00 20.00     0.043 C 
HETATM    8  C9  UNL     1     -37.141  15.374  -4.190  1.00 20.00     0.015 C 
ENDROOT
BRANCH   6   9
HETATM    9  C3  UNL     1     -34.839  13.603  -5.340  1.00 20.00     0.236 C 
HETATM   10  O10 UNL     1     -34.869  12.465  -4.883  1.00 20.00    -0.306 OA
ENDBRANCH   6   9
TORSDOF 1
ENDMDL
MODEL 4
REMARK VINA RESULT:      -4.3      1.405      2.866
REMARK  1 active torsions:
REMARK  status: ('A' for Active; 'I' for Inactive)
REMARK    1  A    between atoms: C3_3  and  C7_7 
ROOT
HETATM    1  C1  UNL     1     -34.351  17.463  -4.515  1.00 20.00    -0.019 C 
HETATM    2  C2  UNL     1     -33.962  17.741  -3.258  1.00 20.00    -0.087 C 
HETATM    3  C4  UNL     1     -33.993  16.703  -2.166  1.00 20.00     0.034 C 
HETATM    4  C5  UNL     1     -34.837  15.480  -2.525  1.00 20.00     0.016 C 
HETATM    5  C6  UNL     1     -34.810  16.102  -4.982  1.00 20.00     0.015 C 
HETATM    6  C7  UNL     1     -34.533  14.996  -3.942  1.00 20.00     0.054 C 
HETATM    7  C8  UNL     1     -33.476  19.104  -2.860  1.00 20.00     0.043 C 
HETATM    8  C9  UNL     1     -34.143  15.762  -6.319  1.00 20.00     0.015 C 
ENDROOT
BRANCH   6   9
HETATM    9  C3  UNL     1     -35.379  13.791  -4.233  1.00 20.00     0.236 C 
HETATM   10  O10 UNL     1     -34.923  12.660  -4.367  1.00 20.00    -0.306 OA
ENDBRANCH   6   9
TORSDOF 1
ENDMDL
MODEL 5
REMARK VINA RESULT:      -4.2      1.750      3.464
REMARK  1 active torsions:
REMARK  status: ('A' for Active; 'I' for Inactive)
REMARK    1  A    between atoms: C3_3  and  C7_7 
ROOT
HETATM    1  C1  UNL     1     -34.200  14.911  -3.031  1.00 20.00    -0.019 C 
HETATM    2  C2  UNL     1     -34.469  16.164  -2.623  1.00 20.00    -0.087 C 
HETATM    3  C4  UNL     1     -34.674  17.294  -3.598  1.00 20.00     0.034 C 
HETATM    4  C5  UNL     1     -34.181  16.967  -5.008  1.00 20.00     0.016 C 
HETATM    5  C6  UNL     1     -34.117  14.488  -4.479  1.00 20.00     0.015 C 
HETATM    6  C7  UNL     1     -34.638  15.575  -5.443  1.00 20.00     0.054 C 
HETATM    7  C8  UNL     1     -34.579  16.518  -1.169  1.00 20.00     0.043 C 
HETATM    8  C9  UNL     1     -34.886  13.177  -4.680  1.00 20.00     0.015 C 
ENDROOT
BRANCH   6   9
HETATM    9  C3  UNL     1     -34.137  15.314  -6.833  1.00 20.00     0.236 C 
HETATM   10  O10 UNL     1     -34.830  14.829  -7.722  1.00 20.00    -0.306 OA
ENDBRANCH   6   9
TORSDOF 1
ENDMDL
MODEL 6
REMARK VINA RESULT:      -4.1      1.064      2.399
REMARK  1 active torsions:
REMARK  status: ('A' for Active; 'I' for Inactive)
REMARK    1  A    between atoms: C3_3  and  C7_7 
ROOT
HETATM    1  C1  UNL     1     -34.435  17.077  -5.907  1.00 20.00    -0.019 C 
HETATM    2  C2  UNL     1     -33.879  17.708  -4.857  1.00 20.00    -0.087 C 
HETATM    3  C4  UNL     1     -33.723  17.039  -3.517  1.00 20.00     0.034 C 
HETATM    4  C5  UNL     1     -34.574  15.777  -3.373  1.00 20.00     0.016 C 
HETATM    5  C6  UNL     1     -34.916  15.645  -5.881  1.00 20.00     0.015 C 
HETATM    6  C7  UNL     1     -34.462  14.891  -4.613  1.00 20.00     0.054 C 
HETATM    7  C8  UNL     1     -33.381  19.120  -4.953  1.00 20.00     0.043 C 
HETATM    8  C9  UNL     1     -34.437  14.915  -7.141  1.00 20.00     0.015 C 
ENDROOT
BRANCH   6   9
HETATM    9  C3  UNL     1     -35.305  13.667  -4.412  1.00 20.00     0.236 C 
HETATM   10  O10 UNL     1     -34.877  12.524  -4.535  1.00 20.00    -0.306 OA
ENDBRANCH   6   9
TORSDOF 1
ENDMDL
MODEL 7
REMARK VINA RESULT:      -4.1     12.033     14.256
REMARK  1 active torsions:
REMARK  status: ('A' for Active; 'I' for Inactive)
REMARK    1  A    between atoms: C3_3  and  C7_7 
ROOT
HETATM    1  C1  UNL     1     -34.495   4.682   4.560  1.00 20.00    -0.019 C 
HETATM    2  C2  UNL     1     -34.647   5.183   5.799  1.00 20.00    -0.087 C 
HETATM    3  C4  UNL     1     -34.005   6.479   6.219  1.00 20.00     0.034 C 
HETATM    4  C5  UNL     1     -32.902   6.939   5.266  1.00 20.00     0.016 C 
HETATM    5  C6  UNL     1     -33.720   5.363   3.457  1.00 20.00     0.015 C 
HETATM    6  C7  UNL     1     -33.346   6.819   3.809  1.00 20.00     0.054 C 
HETATM    7  C8  UNL     1     -35.463   4.480   6.844  1.00 20.00     0.043 C 
HETATM    8  C9  UNL     1     -34.525   5.315   2.153  1.00 20.00     0.015 C 
ENDROOT
BRANCH   6   9
HETATM    9  C3  UNL     1     -32.233   7.293   2.923  1.00 20.00     0.236 C 
HETATM   10  O10 UNL     1     -32.322   8.273   2.190  1.00 20.00    -0.306 OA
ENDBRANCH   6   9
TORSDOF 1
ENDMDL
MODEL 8
REMARK VINA RESULT:      -4.0      1.559      3.324
REMARK  1 active torsions:
REMARK  status: ('A' for Active; 'I' for Inactive)
REMARK    1  A    between atoms: C3_3  and  C7_7 
ROOT
HETATM    1  C1  UNL     1     -34.831  16.864  -3.907  1.00 20.00    -0.019 C 
HETATM    2  C2  UNL     1     -34.587  15.923  -2.978  1.00 20.00    -0.087 C 
HETATM    3  C4  UNL     1     -34.264  14.500  -3.350  1.00 20.00     0.034 C 
HETATM    4  C5  UNL     1     -34.612  14.165  -4.801  1.00 20.00     0.016 C 
HETATM    5  C6  UNL     1     -34.767  16.624  -5.397  1.00 20.00     0.015 C 
HETATM    6  C7  UNL     1     -34.132  15.263  -5.751  1.00 20.00     0.054 C 
HETATM    7  C8  UNL     1     -34.625  16.229  -1.509  1.00 20.00     0.043 C 
HETATM    8  C9  UNL     1     -34.001  17.766  -6.074  1.00 20.00     0.015 C 
ENDROOT
BRANCH   6   9
HETATM    9  C3  UNL     1     -34.489  14.877  -7.156  1.00 20.00     0.236 C 
HETATM   10  O10 UNL     1     -35.491  14.231  -7.446  1.00 20.00    -0.306 OA
ENDBRANCH   6   9
TORSDOF 1
ENDMDL
MODEL 9
REMARK VINA RESULT:      -4.0      2.112      3.095
REMARK  1 active torsions:
REMARK  status: ('A' for Active; 'I' for Inactive)
REMARK    1  A    between atoms: C3_3  and  C7_7 
ROOT
HETATM    1  C1  UNL     1     -33.694  16.429  -5.603  1.00 20.00    -0.019 C 
HETATM    2  C2  UNL     1     -34.354  15.313  -5.962  1.00 20.00    -0.087 C 
HETATM    3  C4  UNL     1     -34.994  14.404  -4.946  1.00 20.00     0.034 C 
HETATM    4  C5  UNL     1     -34.505  14.659  -3.520  1.00 20.00     0.016 C 
HETATM    5  C6  UNL     1     -33.558  16.916  -4.180  1.00 20.00     0.015 C 
HETATM    6  C7  UNL     1     -34.479  16.154  -3.204  1.00 20.00     0.054 C 
HETATM    7  C8  UNL     1     -34.492  14.900  -7.398  1.00 20.00     0.043 C 
HETATM    8  C9  UNL     1     -33.838  18.422  -4.119  1.00 20.00     0.015 C 
ENDROOT
BRANCH   6   9
HETATM    9  C3  UNL     1     -34.003  16.342  -1.793  1.00 20.00     0.236 C 
HETATM   10  O10 UNL     1     -34.754  16.580  -0.852  1.00 20.00    -0.306 OA
ENDBRANCH   6   9
TORSDOF 1
ENDMDL
