MODEL 1
REMARK VINA RESULT:      -3.9      0.000      0.000
REMARK  5 active torsions:
REMARK  status: ('A' for Active; 'I' for Inactive)
REMARK    1  A    between atoms: C2_2  and  C3_3 
REMARK    2  A    between atoms: C3_3  and  N7_7 
REMARK    3  A    between atoms: C4_4  and  C5_5 
REMARK    4  A    between atoms: C4_4  and  N7_7 
REMARK    5  A    between atoms: N6_6  and  N7_7 
ROOT
HETATM    1  N7  UNL     1     -34.146  14.571  -4.094  1.00 20.00    -0.205 NA
ENDROOT
BRANCH   1   2
HETATM    2  C3  UNL     1     -33.771  15.522  -3.086  1.00 20.00     0.111 C 
BRANCH   2   3
HETATM    3  C2  UNL     1     -34.939  15.905  -2.186  1.00 20.00     0.011 C 
HETATM    4  C1  UNL     1     -34.499  16.669  -0.945  1.00 20.00     0.006 C 
ENDBRANCH   2   3
ENDBRANCH   1   2
BRANCH   1   5
HETATM    5  C4  UNL     1     -35.441  14.939  -4.703  1.00 20.00     0.127 C 
BRANCH   5   6
HETATM    6  C5  UNL     1     -35.280  15.801  -5.943  1.00 20.00     0.130 C 
HETATM    7 CL9  UNL     1     -34.325  14.965  -7.193  1.00 20.00    -0.129 Cl
ENDBRANCH   5   6
ENDBRANCH   1   5
BRANCH   1   8
HETATM    8  N6  UNL     1     -34.159  13.300  -3.702  1.00 20.00     0.030 NA
HETATM    9  O8  UNL     1     -34.995  12.651  -4.343  1.00 20.00    -0.082 OA
ENDBRANCH   1   8
TORSDOF 5
ENDMDL
MODEL 2
REMARK VINA RESULT:      -3.8      2.405      3.703
REMARK  5 active torsions:
REMARK  status: ('A' for Active; 'I' for Inactive)
REMARK    1  A    between atoms: C2_2  and  C3_3 
REMARK    2  A    between atoms: C3_3  and  N7_7 
REMARK    3  A    between atoms: C4_4  and  C5_5 
REMARK    4  A    between atoms: C4_4  and  N7_7 
REMARK    5  A    between atoms: N6_6  and  N7_7 
ROOT
HETATM    1  N7  UNL     1     -35.310  13.944  -5.017  1.00 20.00    -0.205 NA
ENDROOT
BRANCH   1   2
HETATM    2  C3  UNL     1     -34.398  14.936  -5.517  1.00 20.00     0.111 C 
BRANCH   2   3
HETATM    3  C2  UNL     1     -34.382  14.994  -7.040  1.00 20.00     0.011 C 
HETATM    4  C1  UNL     1     -35.679  14.496  -7.661  1.00 20.00     0.006 C 
ENDBRANCH   2   3
ENDBRANCH   1   2
BRANCH   1   5
HETATM    5  C4  UNL     1     -36.181  14.517  -3.970  1.00 20.00     0.127 C 
BRANCH   5   6
HETATM    6  C5  UNL     1     -35.737  15.904  -3.536  1.00 20.00     0.130 C 
HETATM    7 CL9  UNL     1     -34.778  15.838  -2.037  1.00 20.00    -0.129 Cl
ENDBRANCH   5   6
ENDBRANCH   1   5
BRANCH   1   8
HETATM    8  N6  UNL     1     -34.747  12.816  -4.590  1.00 20.00     0.030 NA
HETATM    9  O8  UNL     1     -33.641  13.042  -4.084  1.00 20.00    -0.082 OA
ENDBRANCH   1   8
TORSDOF 5
ENDMDL
MODEL 3
REMARK VINA RESULT:      -3.8      1.153      1.168
REMARK  5 active torsions:
REMARK  status: ('A' for Active; 'I' for Inactive)
REMARK    1  A    between atoms: C2_2  and  C3_3 
REMARK    2  A    between atoms: C3_3  and  N7_7 
REMARK    3  A    between atoms: C4_4  and  C5_5 
REMARK    4  A    between atoms: C4_4  and  N7_7 
REMARK    5  A    between atoms: N6_6  and  N7_7 
ROOT
HETATM    1  N7  UNL     1     -34.281  14.594  -4.132  1.00 20.00    -0.205 NA
ENDROOT
BRANCH   1   2
HETATM    2  C3  UNL     1     -34.943  15.204  -3.012  1.00 20.00     0.111 C 
BRANCH   2   3
HETATM    3  C2  UNL     1     -34.035  16.167  -2.256  1.00 20.00     0.011 C 
HETATM    4  C1  UNL     1     -34.629  16.613  -0.927  1.00 20.00     0.006 C 
ENDBRANCH   2   3
ENDBRANCH   1   2
BRANCH   1   5
HETATM    5  C4  UNL     1     -35.015  14.871  -5.385  1.00 20.00     0.127 C 
BRANCH   5   6
HETATM    6  C5  UNL     1     -34.181  15.645  -6.391  1.00 20.00     0.130 C 
HETATM    7 CL9  UNL     1     -33.503  17.125  -5.669  1.00 20.00    -0.129 Cl
ENDBRANCH   5   6
ENDBRANCH   1   5
BRANCH   1   8
HETATM    8  N6  UNL     1     -34.039  13.292  -4.011  1.00 20.00     0.030 NA
HETATM    9  O8  UNL     1     -34.983  12.627  -4.453  1.00 20.00    -0.082 OA
ENDBRANCH   1   8
TORSDOF 5
ENDMDL
MODEL 4
REMARK VINA RESULT:      -3.7     11.532     12.078
REMARK  5 active torsions:
REMARK  status: ('A' for Active; 'I' for Inactive)
REMARK    1  A    between atoms: C2_2  and  C3_3 
REMARK    2  A    between atoms: C3_3  and  N7_7 
REMARK    3  A    between atoms: C4_4  and  C5_5 
REMARK    4  A    between atoms: C4_4  and  N7_7 
REMARK    5  A    between atoms: N6_6  and  N7_7 
ROOT
HETATM    1  N7  UNL     1     -33.596   5.617   3.833  1.00 20.00    -0.205 NA
ENDROOT
BRANCH   1   2
HETATM    2  C3  UNL     1     -34.007   6.595   4.802  1.00 20.00     0.111 C 
BRANCH   2   3
HETATM    3  C2  UNL     1     -34.050   6.029   6.216  1.00 20.00     0.011 C 
HETATM    4  C1  UNL     1     -34.793   4.703   6.296  1.00 20.00     0.006 C 
ENDBRANCH   2   3
ENDBRANCH   1   2
BRANCH   1   5
HETATM    5  C4  UNL     1     -32.303   5.995   3.226  1.00 20.00     0.127 C 
BRANCH   5   6
HETATM    6  C5  UNL     1     -32.008   7.480   3.359  1.00 20.00     0.130 C 
HETATM    7 CL9  UNL     1     -32.025   8.288   1.772  1.00 20.00    -0.129 Cl
ENDBRANCH   5   6
ENDBRANCH   1   5
BRANCH   1   8
HETATM    8  N6  UNL     1     -34.491   5.339   2.889  1.00 20.00     0.030 NA
HETATM    9  O8  UNL     1     -35.625   5.683   3.244  1.00 20.00    -0.082 OA
ENDBRANCH   1   8
TORSDOF 5
ENDMDL
MODEL 5
REMARK VINA RESULT:      -3.7      2.236      3.707
REMARK  5 active torsions:
REMARK  status: ('A' for Active; 'I' for Inactive)
REMARK    1  A    between atoms: C2_2  and  C3_3 
REMARK    2  A    between atoms: C3_3  and  N7_7 
REMARK    3  A    between atoms: C4_4  and  C5_5 
REMARK    4  A    between atoms: C4_4  and  N7_7 
REMARK    5  A    between atoms: N6_6  and  N7_7 
ROOT
HETATM    1  N7  UNL     1     -34.541  14.678  -3.714  1.00 20.00    -0.205 NA
ENDROOT
BRANCH   1   2
HETATM    2  C3  UNL     1     -35.222  15.028  -4.930  1.00 20.00     0.111 C 
BRANCH   2   3
HETATM    3  C2  UNL     1     -34.266  15.523  -6.008  1.00 20.00     0.011 C 
HETATM    4  C1  UNL     1     -34.566  14.928  -7.377  1.00 20.00     0.006 C 
ENDBRANCH   2   3
ENDBRANCH   1   2
BRANCH   1   5
HETATM    5  C4  UNL     1     -33.361  15.545  -3.510  1.00 20.00     0.127 C 
BRANCH   5   6
HETATM    6  C5  UNL     1     -33.654  16.725  -2.599  1.00 20.00     0.130 C 
HETATM    7 CL9  UNL     1     -34.718  16.255  -1.250  1.00 20.00    -0.129 Cl
ENDBRANCH   5   6
ENDBRANCH   1   5
BRANCH   1   8
HETATM    8  N6  UNL     1     -34.205  13.397  -3.596  1.00 20.00     0.030 NA
HETATM    9  O8  UNL     1     -34.976  12.680  -4.245  1.00 20.00    -0.082 OA
ENDBRANCH   1   8
TORSDOF 5
ENDMDL
MODEL 6
REMARK VINA RESULT:      -3.7     11.858     12.502
REMARK  5 active torsions:
REMARK  status: ('A' for Active; 'I' for Inactive)
REMARK    1  A    between atoms: C2_2  and  C3_3 
REMARK    2  A    between atoms: C3_3  and  N7_7 
REMARK    3  A    between atoms: C4_4  and  C5_5 
REMARK    4  A    between atoms: C4_4  and  N7_7 
REMARK    5  A    between atoms: N6_6  and  N7_7 
ROOT
HETATM    1  N7  UNL     1     -33.820   6.509   4.085  1.00 20.00    -0.205 NA
ENDROOT
BRANCH   1   2
HETATM    2  C3  UNL     1     -32.550   6.277   3.455  1.00 20.00     0.111 C 
BRANCH   2   3
HETATM    3  C2  UNL     1     -31.760   7.563   3.249  1.00 20.00     0.011 C 
HETATM    4  C1  UNL     1     -32.066   8.234   1.918  1.00 20.00     0.006 C 
ENDBRANCH   2   3
ENDBRANCH   1   2
BRANCH   1   5
HETATM    5  C4  UNL     1     -33.708   6.371   5.552  1.00 20.00     0.127 C 
BRANCH   5   6
HETATM    6  C5  UNL     1     -34.804   5.499   6.141  1.00 20.00     0.130 C 
HETATM    7 CL9  UNL     1     -34.386   3.771   6.032  1.00 20.00    -0.129 Cl
ENDBRANCH   5   6
ENDBRANCH   1   5
BRANCH   1   8
HETATM    8  N6  UNL     1     -34.829   5.775   3.623  1.00 20.00     0.030 NA
HETATM    9  O8  UNL     1     -34.480   5.127   2.628  1.00 20.00    -0.082 OA
ENDBRANCH   1   8
TORSDOF 5
ENDMDL
MODEL 7
REMARK VINA RESULT:      -3.6      1.942      2.124
REMARK  5 active torsions:
REMARK  status: ('A' for Active; 'I' for Inactive)
REMARK    1  A    between atoms: C2_2  and  C3_3 
REMARK    2  A    between atoms: C3_3  and  N7_7 
REMARK    3  A    between atoms: C4_4  and  C5_5 
REMARK    4  A    between atoms: C4_4  and  N7_7 
REMARK    5  A    between atoms: N6_6  and  N7_7 
ROOT
HETATM    1  N7  UNL     1     -35.994  14.546  -3.319  1.00 20.00    -0.205 NA
ENDROOT
BRANCH   1   2
HETATM    2  C3  UNL     1     -35.808  15.964  -3.179  1.00 20.00     0.111 C 
BRANCH   2   3
HETATM    3  C2  UNL     1     -34.487  16.312  -2.504  1.00 20.00     0.011 C 
HETATM    4  C1  UNL     1     -34.636  16.543  -1.007  1.00 20.00     0.006 C 
ENDBRANCH   2   3
ENDBRANCH   1   2
BRANCH   1   5
HETATM    5  C4  UNL     1     -34.750  13.901  -3.790  1.00 20.00     0.127 C 
BRANCH   5   6
HETATM    6  C5  UNL     1     -34.839  13.448  -5.237  1.00 20.00     0.130 C 
HETATM    7 CL9  UNL     1     -34.401  14.763  -6.356  1.00 20.00    -0.129 Cl
ENDBRANCH   5   6
ENDBRANCH   1   5
BRANCH   1   8
HETATM    8  N6  UNL     1     -37.025  14.178  -4.075  1.00 20.00     0.030 NA
HETATM    9  O8  UNL     1     -38.093  14.350  -3.475  1.00 20.00    -0.082 OA
ENDBRANCH   1   8
TORSDOF 5
ENDMDL
MODEL 8
REMARK VINA RESULT:      -3.6     12.294     12.929
REMARK  5 active torsions:
REMARK  status: ('A' for Active; 'I' for Inactive)
REMARK    1  A    between atoms: C2_2  and  C3_3 
REMARK    2  A    between atoms: C3_3  and  N7_7 
REMARK    3  A    between atoms: C4_4  and  C5_5 
REMARK    4  A    between atoms: C4_4  and  N7_7 
REMARK    5  A    between atoms: N6_6  and  N7_7 
ROOT
HETATM    1  N7  UNL     1     -34.620   5.697   4.171  1.00 20.00    -0.205 NA
ENDROOT
BRANCH   1   2
HETATM    2  C3  UNL     1     -33.817   5.731   2.981  1.00 20.00     0.111 C 
BRANCH   2   3
HETATM    3  C2  UNL     1     -32.410   6.256   3.244  1.00 20.00     0.011 C 
HETATM    4  C1  UNL     1     -32.151   7.600   2.578  1.00 20.00     0.006 C 
ENDBRANCH   2   3
ENDBRANCH   1   2
BRANCH   1   5
HETATM    5  C4  UNL     1     -33.774   5.489   5.365  1.00 20.00     0.127 C 
BRANCH   5   6
HETATM    6  C5  UNL     1     -34.271   6.262   6.575  1.00 20.00     0.130 C 
HETATM    7 CL9  UNL     1     -33.157   7.584   7.002  1.00 20.00    -0.129 Cl
ENDBRANCH   5   6
ENDBRANCH   1   5
BRANCH   1   8
HETATM    8  N6  UNL     1     -35.626   4.826   4.156  1.00 20.00     0.030 NA
HETATM    9  O8  UNL     1     -35.277   3.744   4.642  1.00 20.00    -0.082 OA
ENDBRANCH   1   8
TORSDOF 5
ENDMDL
MODEL 9
REMARK VINA RESULT:      -3.6     11.956     12.453
REMARK  5 active torsions:
REMARK  status: ('A' for Active; 'I' for Inactive)
REMARK    1  A    between atoms: C2_2  and  C3_3 
REMARK    2  A    between atoms: C3_3  and  N7_7 
REMARK    3  A    between atoms: C4_4  and  C5_5 
REMARK    4  A    between atoms: C4_4  and  N7_7 
REMARK    5  A    between atoms: N6_6  and  N7_7 
ROOT
HETATM    1  N7  UNL     1     -33.330   5.941   4.151  1.00 20.00    -0.205 NA
ENDROOT
BRANCH   1   2
HETATM    2  C3  UNL     1     -32.240   6.173   3.243  1.00 20.00     0.111 C 
BRANCH   2   3
HETATM    3  C2  UNL     1     -31.818   7.637   3.206  1.00 20.00     0.011 C 
HETATM    4  C1  UNL     1     -32.045   8.280   1.845  1.00 20.00     0.006 C 
ENDBRANCH   2   3
ENDBRANCH   1   2
BRANCH   1   5
HETATM    5  C4  UNL     1     -34.525   5.471   3.421  1.00 20.00     0.127 C 
BRANCH   5   6
HETATM    6  C5  UNL     1     -35.590   4.907   4.346  1.00 20.00     0.130 C 
HETATM    7 CL9  UNL     1     -34.885   3.786   5.537  1.00 20.00    -0.129 Cl
ENDBRANCH   5   6
ENDBRANCH   1   5
BRANCH   1   8
HETATM    8  N6  UNL     1     -33.639   6.963   4.944  1.00 20.00     0.030 NA
HETATM    9  O8  UNL     1     -33.422   6.681   6.128  1.00 20.00    -0.082 OA
ENDBRANCH   1   8
TORSDOF 5
ENDMDL
