MODEL 1
REMARK VINA RESULT:      -4.4      0.000      0.000
REMARK  2 active torsions:
REMARK  status: ('A' for Active; 'I' for Inactive)
REMARK    1  A    between atoms: C3_3  and  C7_7 
REMARK    2  A    between atoms: C4_4  and  C8_8 
ROOT
HETATM    1  C5  UNL     1     -34.043  14.027  -4.594  1.00 20.00     0.014 C 
HETATM    2  C6  UNL     1     -34.631  14.444  -3.246  1.00 20.00     0.037 C 
HETATM    3  C7  UNL     1     -34.148  15.151  -5.635  1.00 20.00     0.036 C 
HETATM    4  C8  UNL     1     -34.056  15.789  -2.800  1.00 20.00     0.144 C 
HETATM    5  C9  UNL     1     -33.601  16.464  -5.038  1.00 20.00     0.126 C 
HETATM    6  C10 UNL     1     -33.739  17.662  -5.971  1.00 20.00     0.040 C 
HETATM    7  O11 UNL     1     -34.262  16.781  -3.808  1.00 20.00    -0.377 OA
ENDROOT
BRANCH   3   8
HETATM    8  C3  UNL     1     -35.563  15.266  -6.130  1.00 20.00    -0.030 C 
HETATM    9  C1  UNL     1     -35.996  14.750  -7.285  1.00 20.00     0.007 C 
ENDBRANCH   3   8
BRANCH   4  10
HETATM   10  C4  UNL     1     -34.712  16.259  -1.544  1.00 20.00    -0.005 C 
HETATM   11  C2  UNL     1     -34.195  17.184  -0.729  1.00 20.00     0.009 C 
ENDBRANCH   4  10
TORSDOF 2
ENDMDL
MODEL 2
REMARK VINA RESULT:      -4.4      1.387      4.139
REMARK  2 active torsions:
REMARK  status: ('A' for Active; 'I' for Inactive)
REMARK    1  A    between atoms: C3_3  and  C7_7 
REMARK    2  A    between atoms: C4_4  and  C8_8 
ROOT
HETATM    1  C5  UNL     1     -33.214  15.290  -3.577  1.00 20.00     0.014 C 
HETATM    2  C6  UNL     1     -33.185  16.326  -4.700  1.00 20.00     0.037 C 
HETATM    3  C7  UNL     1     -34.641  15.037  -3.071  1.00 20.00     0.036 C 
HETATM    4  C8  UNL     1     -34.198  15.972  -5.788  1.00 20.00     0.144 C 
HETATM    5  C9  UNL     1     -35.575  14.761  -4.267  1.00 20.00     0.126 C 
HETATM    6  C10 UNL     1     -37.036  14.579  -3.871  1.00 20.00     0.040 C 
HETATM    7  O11 UNL     1     -35.504  15.823  -5.226  1.00 20.00    -0.377 OA
ENDROOT
BRANCH   3   8
HETATM    8  C3  UNL     1     -35.095  16.184  -2.212  1.00 20.00    -0.030 C 
HETATM    9  C1  UNL     1     -34.500  16.547  -1.071  1.00 20.00     0.007 C 
ENDBRANCH   3   8
BRANCH   4  10
HETATM   10  C4  UNL     1     -34.259  17.041  -6.828  1.00 20.00    -0.005 C 
HETATM   11  C2  UNL     1     -33.999  18.332  -6.592  1.00 20.00     0.009 C 
ENDBRANCH   4  10
TORSDOF 2
ENDMDL
MODEL 3
REMARK VINA RESULT:      -4.3     11.848     13.362
REMARK  2 active torsions:
REMARK  status: ('A' for Active; 'I' for Inactive)
REMARK    1  A    between atoms: C3_3  and  C7_7 
REMARK    2  A    between atoms: C4_4  and  C8_8 
ROOT
HETATM    1  C5  UNL     1     -40.971   6.248  -0.286  1.00 20.00     0.014 C 
HETATM    2  C6  UNL     1     -41.738   7.315  -1.068  1.00 20.00     0.037 C 
HETATM    3  C7  UNL     1     -41.499   4.837  -0.578  1.00 20.00     0.036 C 
HETATM    4  C8  UNL     1     -41.810   6.950  -2.551  1.00 20.00     0.144 C 
HETATM    5  C9  UNL     1     -41.589   4.621  -2.104  1.00 20.00     0.126 C 
HETATM    6  C10 UNL     1     -42.183   3.272  -2.495  1.00 20.00     0.040 C 
HETATM    7  O11 UNL     1     -42.375   5.648  -2.719  1.00 20.00    -0.377 OA
ENDROOT
BRANCH   3   8
HETATM    8  C3  UNL     1     -42.805   4.616   0.132  1.00 20.00    -0.030 C 
HETATM    9  C1  UNL     1     -43.129   5.186   1.297  1.00 20.00     0.007 C 
ENDBRANCH   3   8
BRANCH   4  10
HETATM   10  C4  UNL     1     -42.658   7.925  -3.299  1.00 20.00    -0.005 C 
HETATM   11  C2  UNL     1     -42.314   8.474  -4.469  1.00 20.00     0.009 C 
ENDBRANCH   4  10
TORSDOF 2
ENDMDL
MODEL 4
REMARK VINA RESULT:      -4.3      1.442      2.520
REMARK  2 active torsions:
REMARK  status: ('A' for Active; 'I' for Inactive)
REMARK    1  A    between atoms: C3_3  and  C7_7 
REMARK    2  A    between atoms: C4_4  and  C8_8 
ROOT
HETATM    1  C5  UNL     1     -36.199  16.822  -4.523  1.00 20.00     0.014 C 
HETATM    2  C6  UNL     1     -35.394  17.309  -3.319  1.00 20.00     0.037 C 
HETATM    3  C7  UNL     1     -35.665  15.489  -5.065  1.00 20.00     0.036 C 
HETATM    4  C8  UNL     1     -35.259  16.199  -2.275  1.00 20.00     0.144 C 
HETATM    5  C9  UNL     1     -35.510  14.482  -3.907  1.00 20.00     0.126 C 
HETATM    6  C10 UNL     1     -34.906  13.149  -4.334  1.00 20.00     0.040 C 
HETATM    7  O11 UNL     1     -34.693  15.025  -2.863  1.00 20.00    -0.377 OA
ENDROOT
BRANCH   3   8
HETATM    8  C3  UNL     1     -34.392  15.715  -5.832  1.00 20.00    -0.030 C 
HETATM    9  C1  UNL     1     -34.259  15.490  -7.143  1.00 20.00     0.007 C 
ENDBRANCH   3   8
BRANCH   4  10
HETATM   10  C4  UNL     1     -34.375  16.628  -1.152  1.00 20.00    -0.005 C 
HETATM   11  C2  UNL     1     -34.817  17.196  -0.025  1.00 20.00     0.009 C 
ENDBRANCH   4  10
TORSDOF 2
ENDMDL
MODEL 5
REMARK VINA RESULT:      -4.2      1.272      4.449
REMARK  2 active torsions:
REMARK  status: ('A' for Active; 'I' for Inactive)
REMARK    1  A    between atoms: C3_3  and  C7_7 
REMARK    2  A    between atoms: C4_4  and  C8_8 
ROOT
HETATM    1  C5  UNL     1     -33.684  17.451  -4.034  1.00 20.00     0.014 C 
HETATM    2  C6  UNL     1     -34.710  17.264  -5.151  1.00 20.00     0.037 C 
HETATM    3  C7  UNL     1     -33.473  16.161  -3.231  1.00 20.00     0.036 C 
HETATM    4  C8  UNL     1     -34.375  16.032  -5.992  1.00 20.00     0.144 C 
HETATM    5  C9  UNL     1     -33.213  14.985  -4.195  1.00 20.00     0.126 C 
HETATM    6  C10 UNL     1     -33.072  13.639  -3.492  1.00 20.00     0.040 C 
HETATM    7  O11 UNL     1     -34.265  14.874  -5.161  1.00 20.00    -0.377 OA
ENDROOT
BRANCH   3   8
HETATM    8  C3  UNL     1     -34.638  15.929  -2.310  1.00 20.00    -0.030 C 
HETATM    9  C1  UNL     1     -34.753  16.477  -1.096  1.00 20.00     0.007 C 
ENDBRANCH   3   8
BRANCH   4  10
HETATM   10  C4  UNL     1     -35.437  15.775  -7.008  1.00 20.00    -0.005 C 
HETATM   11  C2  UNL     1     -35.662  14.583  -7.571  1.00 20.00     0.009 C 
ENDBRANCH   4  10
TORSDOF 2
ENDMDL
MODEL 6
REMARK VINA RESULT:      -4.2      1.765      3.943
REMARK  2 active torsions:
REMARK  status: ('A' for Active; 'I' for Inactive)
REMARK    1  A    between atoms: C3_3  and  C7_7 
REMARK    2  A    between atoms: C4_4  and  C8_8 
ROOT
HETATM    1  C5  UNL     1     -33.560  17.429  -4.373  1.00 20.00     0.014 C 
HETATM    2  C6  UNL     1     -33.753  15.976  -4.809  1.00 20.00     0.037 C 
HETATM    3  C7  UNL     1     -34.277  17.727  -3.049  1.00 20.00     0.036 C 
HETATM    4  C8  UNL     1     -33.415  15.020  -3.666  1.00 20.00     0.144 C 
HETATM    5  C9  UNL     1     -33.907  16.654  -2.004  1.00 20.00     0.126 C 
HETATM    6  C10 UNL     1     -34.637  16.818  -0.676  1.00 20.00     0.040 C 
HETATM    7  O11 UNL     1     -34.182  15.339  -2.502  1.00 20.00    -0.377 OA
ENDROOT
BRANCH   3   8
HETATM    8  C3  UNL     1     -35.758  17.848  -3.279  1.00 20.00    -0.030 C 
HETATM    9  C1  UNL     1     -36.427  19.005  -3.257  1.00 20.00     0.007 C 
ENDBRANCH   3   8
BRANCH   4  10
HETATM   10  C4  UNL     1     -33.715  13.608  -4.046  1.00 20.00    -0.005 C 
HETATM   11  C2  UNL     1     -34.786  13.234  -4.755  1.00 20.00     0.009 C 
ENDBRANCH   4  10
TORSDOF 2
ENDMDL
MODEL 7
REMARK VINA RESULT:      -4.2      1.277      1.669
REMARK  2 active torsions:
REMARK  status: ('A' for Active; 'I' for Inactive)
REMARK    1  A    between atoms: C3_3  and  C7_7 
REMARK    2  A    between atoms: C4_4  and  C8_8 
ROOT
HETATM    1  C5  UNL     1     -33.184  16.319  -5.060  1.00 20.00     0.014 C 
HETATM    2  C6  UNL     1     -33.361  15.872  -3.609  1.00 20.00     0.037 C 
HETATM    3  C7  UNL     1     -34.530  16.437  -5.789  1.00 20.00     0.036 C 
HETATM    4  C8  UNL     1     -34.401  16.740  -2.900  1.00 20.00     0.144 C 
HETATM    5  C9  UNL     1     -35.509  17.275  -4.941  1.00 20.00     0.126 C 
HETATM    6  C10 UNL     1     -36.904  17.381  -5.545  1.00 20.00     0.040 C 
HETATM    7  O11 UNL     1     -35.636  16.732  -3.621  1.00 20.00    -0.377 OA
ENDROOT
BRANCH   3   8
HETATM    8  C3  UNL     1     -35.056  15.071  -6.129  1.00 20.00    -0.030 C 
HETATM    9  C1  UNL     1     -35.186  14.607  -7.376  1.00 20.00     0.007 C 
ENDBRANCH   3   8
BRANCH   4  10
HETATM   10  C4  UNL     1     -34.666  16.235  -1.521  1.00 20.00    -0.005 C 
HETATM   11  C2  UNL     1     -34.602  16.993  -0.421  1.00 20.00     0.009 C 
ENDBRANCH   4  10
TORSDOF 2
ENDMDL
MODEL 8
REMARK VINA RESULT:      -4.1      1.621      2.348
REMARK  2 active torsions:
REMARK  status: ('A' for Active; 'I' for Inactive)
REMARK    1  A    between atoms: C3_3  and  C7_7 
REMARK    2  A    between atoms: C4_4  and  C8_8 
ROOT
HETATM    1  C5  UNL     1     -33.715  15.918  -4.235  1.00 20.00     0.014 C 
HETATM    2  C6  UNL     1     -33.612  16.005  -2.713  1.00 20.00     0.037 C 
HETATM    3  C7  UNL     1     -35.138  15.572  -4.693  1.00 20.00     0.036 C 
HETATM    4  C8  UNL     1     -34.706  16.912  -2.149  1.00 20.00     0.144 C 
HETATM    5  C9  UNL     1     -36.149  16.511  -4.002  1.00 20.00     0.126 C 
HETATM    6  C10 UNL     1     -37.603  16.190  -4.330  1.00 20.00     0.040 C 
HETATM    7  O11 UNL     1     -35.996  16.468  -2.578  1.00 20.00    -0.377 OA
ENDROOT
BRANCH   3   8
HETATM    8  C3  UNL     1     -35.419  14.115  -4.452  1.00 20.00    -0.030 C 
HETATM    9  C1  UNL     1     -34.619  13.122  -4.856  1.00 20.00     0.007 C 
ENDBRANCH   3   8
BRANCH   4  10
HETATM   10  C4  UNL     1     -34.686  16.907  -0.657  1.00 20.00    -0.005 C 
HETATM   11  C2  UNL     1     -34.112  17.858   0.088  1.00 20.00     0.009 C 
ENDBRANCH   4  10
TORSDOF 2
ENDMDL
MODEL 9
REMARK VINA RESULT:      -4.1      1.007      1.183
REMARK  2 active torsions:
REMARK  status: ('A' for Active; 'I' for Inactive)
REMARK    1  A    between atoms: C3_3  and  C7_7 
REMARK    2  A    between atoms: C4_4  and  C8_8 
ROOT
HETATM    1  C5  UNL     1     -34.541  14.793  -3.707  1.00 20.00     0.014 C 
HETATM    2  C6  UNL     1     -34.706  15.520  -2.373  1.00 20.00     0.037 C 
HETATM    3  C7  UNL     1     -34.548  15.767  -4.893  1.00 20.00     0.036 C 
HETATM    4  C8  UNL     1     -33.710  16.675  -2.261  1.00 20.00     0.144 C 
HETATM    5  C9  UNL     1     -33.555  16.918  -4.626  1.00 20.00     0.126 C 
HETATM    6  C10 UNL     1     -33.551  17.985  -5.715  1.00 20.00     0.040 C 
HETATM    7  O11 UNL     1     -33.841  17.559  -3.377  1.00 20.00    -0.377 OA
ENDROOT
BRANCH   3   8
HETATM    8  C3  UNL     1     -35.948  16.240  -5.166  1.00 20.00    -0.030 C 
HETATM    9  C1  UNL     1     -36.718  15.770  -6.153  1.00 20.00     0.007 C 
ENDBRANCH   3   8
BRANCH   4  10
HETATM   10  C4  UNL     1     -33.945  17.462  -1.015  1.00 20.00    -0.005 C 
HETATM   11  C2  UNL     1     -34.817  17.115  -0.063  1.00 20.00     0.009 C 
ENDBRANCH   4  10
TORSDOF 2
ENDMDL
