MODEL 1
REMARK VINA RESULT:      -4.6      0.000      0.000
REMARK  2 active torsions:
REMARK  status: ('A' for Active; 'I' for Inactive)
REMARK    1  A    between atoms: C3_3  and  C7_7 
REMARK    2  A    between atoms: C4_4  and  C8_8 
ROOT
HETATM    1  C5  UNL     1     -34.020  13.594  -4.476  1.00 20.00     0.014 C 
HETATM    2  C6  UNL     1     -33.614  14.413  -3.253  1.00 20.00     0.037 C 
HETATM    3  C7  UNL     1     -35.490  13.817  -4.876  1.00 20.00     0.036 C 
HETATM    4  C8  UNL     1     -34.226  15.813  -3.302  1.00 20.00     0.144 C 
HETATM    5  C9  UNL     1     -36.251  14.559  -3.761  1.00 20.00     0.126 C 
HETATM    6  C10 UNL     1     -37.719  14.814  -4.091  1.00 20.00     0.040 C 
HETATM    7  O11 UNL     1     -35.649  15.820  -3.455  1.00 20.00    -0.377 OA
ENDROOT
BRANCH   3   8
HETATM    8  C3  UNL     1     -35.573  14.526  -6.199  1.00 20.00    -0.030 C 
HETATM    9  C1  UNL     1     -34.507  14.905  -6.912  1.00 20.00     0.007 C 
ENDBRANCH   3   8
BRANCH   4  10
HETATM   10  C4  UNL     1     -33.892  16.584  -2.068  1.00 20.00    -0.005 C 
HETATM   11  C2  UNL     1     -34.632  16.572  -0.954  1.00 20.00     0.009 C 
ENDBRANCH   4  10
TORSDOF 2
ENDMDL
MODEL 2
REMARK VINA RESULT:      -4.6      1.357      4.230
REMARK  2 active torsions:
REMARK  status: ('A' for Active; 'I' for Inactive)
REMARK    1  A    between atoms: C3_3  and  C7_7 
REMARK    2  A    between atoms: C4_4  and  C8_8 
ROOT
HETATM    1  C5  UNL     1     -33.960  13.957  -3.479  1.00 20.00     0.014 C 
HETATM    2  C6  UNL     1     -34.350  13.666  -4.927  1.00 20.00     0.037 C 
HETATM    3  C7  UNL     1     -33.784  15.461  -3.205  1.00 20.00     0.036 C 
HETATM    4  C8  UNL     1     -35.355  14.696  -5.441  1.00 20.00     0.144 C 
HETATM    5  C9  UNL     1     -33.737  16.254  -4.525  1.00 20.00     0.126 C 
HETATM    6  C10 UNL     1     -33.563  17.757  -4.328  1.00 20.00     0.040 C 
HETATM    7  O11 UNL     1     -34.917  16.052  -5.307  1.00 20.00    -0.377 OA
ENDROOT
BRANCH   3   8
HETATM    8  C3  UNL     1     -34.857  15.956  -2.275  1.00 20.00    -0.030 C 
HETATM    9  C1  UNL     1     -34.616  16.506  -1.080  1.00 20.00     0.007 C 
ENDBRANCH   3   8
BRANCH   4  10
HETATM   10  C4  UNL     1     -35.674  14.455  -6.880  1.00 20.00    -0.005 C 
HETATM   11  C2  UNL     1     -34.924  14.895  -7.897  1.00 20.00     0.009 C 
ENDBRANCH   4  10
TORSDOF 2
ENDMDL
MODEL 3
REMARK VINA RESULT:      -4.3      1.701      2.632
REMARK  2 active torsions:
REMARK  status: ('A' for Active; 'I' for Inactive)
REMARK    1  A    between atoms: C3_3  and  C7_7 
REMARK    2  A    between atoms: C4_4  and  C8_8 
ROOT
HETATM    1  C5  UNL     1     -33.560  17.446  -4.430  1.00 20.00     0.014 C 
HETATM    2  C6  UNL     1     -33.771  17.666  -2.933  1.00 20.00     0.037 C 
HETATM    3  C7  UNL     1     -33.480  15.954  -4.801  1.00 20.00     0.036 C 
HETATM    4  C8  UNL     1     -34.755  16.646  -2.362  1.00 20.00     0.144 C 
HETATM    5  C9  UNL     1     -33.319  15.086  -3.539  1.00 20.00     0.126 C 
HETATM    6  C10 UNL     1     -33.232  13.591  -3.834  1.00 20.00     0.040 C 
HETATM    7  O11 UNL     1     -34.394  15.285  -2.617  1.00 20.00    -0.377 OA
ENDROOT
BRANCH   3   8
HETATM    8  C3  UNL     1     -34.671  15.553  -5.627  1.00 20.00    -0.030 C 
HETATM    9  C1  UNL     1     -34.593  15.112  -6.887  1.00 20.00     0.007 C 
ENDBRANCH   3   8
BRANCH   4  10
HETATM   10  C4  UNL     1     -34.899  16.816  -0.885  1.00 20.00    -0.005 C 
HETATM   11  C2  UNL     1     -34.184  17.680  -0.158  1.00 20.00     0.009 C 
ENDBRANCH   4  10
TORSDOF 2
ENDMDL
MODEL 4
REMARK VINA RESULT:      -4.2      1.468      2.462
REMARK  2 active torsions:
REMARK  status: ('A' for Active; 'I' for Inactive)
REMARK    1  A    between atoms: C3_3  and  C7_7 
REMARK    2  A    between atoms: C4_4  and  C8_8 
ROOT
HETATM    1  C5  UNL     1     -36.287  15.095  -3.849  1.00 20.00     0.014 C 
HETATM    2  C6  UNL     1     -35.880  15.890  -2.610  1.00 20.00     0.037 C 
HETATM    3  C7  UNL     1     -35.453  15.466  -5.089  1.00 20.00     0.036 C 
HETATM    4  C8  UNL     1     -34.362  16.049  -2.535  1.00 20.00     0.144 C 
HETATM    5  C9  UNL     1     -34.647  16.754  -4.837  1.00 20.00     0.126 C 
HETATM    6  C10 UNL     1     -33.795  17.183  -6.029  1.00 20.00     0.040 C 
HETATM    7  O11 UNL     1     -33.780  16.626  -3.707  1.00 20.00    -0.377 OA
ENDROOT
BRANCH   3   8
HETATM    8  C3  UNL     1     -34.582  14.313  -5.501  1.00 20.00    -0.030 C 
HETATM    9  C1  UNL     1     -34.501  13.159  -4.828  1.00 20.00     0.007 C 
ENDBRANCH   3   8
BRANCH   4  10
HETATM   10  C4  UNL     1     -33.973  16.892  -1.365  1.00 20.00    -0.005 C 
HETATM   11  C2  UNL     1     -34.712  17.022  -0.258  1.00 20.00     0.009 C 
ENDBRANCH   4  10
TORSDOF 2
ENDMDL
MODEL 5
REMARK VINA RESULT:      -4.2      1.310      4.352
REMARK  2 active torsions:
REMARK  status: ('A' for Active; 'I' for Inactive)
REMARK    1  A    between atoms: C3_3  and  C7_7 
REMARK    2  A    between atoms: C4_4  and  C8_8 
ROOT
HETATM    1  C5  UNL     1     -36.216  15.250  -3.498  1.00 20.00     0.014 C 
HETATM    2  C6  UNL     1     -36.223  15.248  -5.025  1.00 20.00     0.037 C 
HETATM    3  C7  UNL     1     -34.798  15.113  -2.914  1.00 20.00     0.036 C 
HETATM    4  C8  UNL     1     -35.047  16.051  -5.580  1.00 20.00     0.144 C 
HETATM    5  C9  UNL     1     -33.796  14.695  -4.007  1.00 20.00     0.126 C 
HETATM    6  C10 UNL     1     -32.366  14.539  -3.496  1.00 20.00     0.040 C 
HETATM    7  O11 UNL     1     -33.772  15.629  -5.089  1.00 20.00    -0.377 OA
ENDROOT
BRANCH   3   8
HETATM    8  C3  UNL     1     -34.392  16.381  -2.216  1.00 20.00    -0.030 C 
HETATM    9  C1  UNL     1     -34.558  16.600  -0.907  1.00 20.00     0.007 C 
ENDBRANCH   3   8
BRANCH   4  10
HETATM   10  C4  UNL     1     -35.013  15.982  -7.072  1.00 20.00    -0.005 C 
HETATM   11  C2  UNL     1     -34.942  14.841  -7.766  1.00 20.00     0.009 C 
ENDBRANCH   4  10
TORSDOF 2
ENDMDL
MODEL 6
REMARK VINA RESULT:      -4.1      1.465      2.019
REMARK  2 active torsions:
REMARK  status: ('A' for Active; 'I' for Inactive)
REMARK    1  A    between atoms: C3_3  and  C7_7 
REMARK    2  A    between atoms: C4_4  and  C8_8 
ROOT
HETATM    1  C5  UNL     1     -33.432  16.733  -5.300  1.00 20.00     0.014 C 
HETATM    2  C6  UNL     1     -33.650  17.222  -3.869  1.00 20.00     0.037 C 
HETATM    3  C7  UNL     1     -33.975  15.310  -5.526  1.00 20.00     0.036 C 
HETATM    4  C8  UNL     1     -35.022  16.797  -3.347  1.00 20.00     0.144 C 
HETATM    5  C9  UNL     1     -34.311  14.635  -4.183  1.00 20.00     0.126 C 
HETATM    6  C10 UNL     1     -34.856  13.217  -4.333  1.00 20.00     0.040 C 
HETATM    7  O11 UNL     1     -35.265  15.390  -3.432  1.00 20.00    -0.377 OA
ENDROOT
BRANCH   3   8
HETATM    8  C3  UNL     1     -35.150  15.339  -6.464  1.00 20.00    -0.030 C 
HETATM    9  C1  UNL     1     -35.143  14.802  -7.689  1.00 20.00     0.007 C 
ENDBRANCH   3   8
BRANCH   4  10
HETATM   10  C4  UNL     1     -35.200  17.211  -1.923  1.00 20.00    -0.005 C 
HETATM   11  C2  UNL     1     -34.590  16.618  -0.890  1.00 20.00     0.009 C 
ENDBRANCH   4  10
TORSDOF 2
ENDMDL
MODEL 7
REMARK VINA RESULT:      -4.1      1.531      2.243
REMARK  2 active torsions:
REMARK  status: ('A' for Active; 'I' for Inactive)
REMARK    1  A    between atoms: C3_3  and  C7_7 
REMARK    2  A    between atoms: C4_4  and  C8_8 
ROOT
HETATM    1  C5  UNL     1     -33.657  16.997  -4.995  1.00 20.00     0.014 C 
HETATM    2  C6  UNL     1     -33.621  17.068  -3.470  1.00 20.00     0.037 C 
HETATM    3  C7  UNL     1     -34.113  15.620  -5.512  1.00 20.00     0.036 C 
HETATM    4  C8  UNL     1     -34.817  16.339  -2.858  1.00 20.00     0.144 C 
HETATM    5  C9  UNL     1     -34.109  14.582  -4.373  1.00 20.00     0.126 C 
HETATM    6  C10 UNL     1     -34.551  13.190  -4.816  1.00 20.00     0.040 C 
HETATM    7  O11 UNL     1     -34.952  14.981  -3.289  1.00 20.00    -0.377 OA
ENDROOT
BRANCH   3   8
HETATM    8  C3  UNL     1     -35.452  15.728  -6.187  1.00 20.00    -0.030 C 
HETATM    9  C1  UNL     1     -36.144  16.867  -6.296  1.00 20.00     0.007 C 
ENDBRANCH   3   8
BRANCH   4  10
HETATM   10  C4  UNL     1     -34.736  16.344  -1.367  1.00 20.00    -0.005 C 
HETATM   11  C2  UNL     1     -34.122  17.294  -0.654  1.00 20.00     0.009 C 
ENDBRANCH   4  10
TORSDOF 2
ENDMDL
MODEL 8
REMARK VINA RESULT:      -4.1      2.618      3.713
REMARK  2 active torsions:
REMARK  status: ('A' for Active; 'I' for Inactive)
REMARK    1  A    between atoms: C3_3  and  C7_7 
REMARK    2  A    between atoms: C4_4  and  C8_8 
ROOT
HETATM    1  C5  UNL     1     -34.852  15.896  -2.063  1.00 20.00     0.014 C 
HETATM    2  C6  UNL     1     -34.666  16.745  -0.807  1.00 20.00     0.037 C 
HETATM    3  C7  UNL     1     -34.529  16.673  -3.353  1.00 20.00     0.036 C 
HETATM    4  C8  UNL     1     -33.425  17.629  -0.920  1.00 20.00     0.144 C 
HETATM    5  C9  UNL     1     -34.410  18.181  -3.066  1.00 20.00     0.126 C 
HETATM    6  C10 UNL     1     -34.092  19.015  -4.304  1.00 20.00     0.040 C 
HETATM    7  O11 UNL     1     -33.406  18.458  -2.086  1.00 20.00    -0.377 OA
ENDROOT
BRANCH   3   8
HETATM    8  C3  UNL     1     -33.298  16.113  -4.010  1.00 20.00    -0.030 C 
HETATM    9  C1  UNL     1     -32.755  14.931  -3.697  1.00 20.00     0.007 C 
ENDBRANCH   3   8
BRANCH   4  10
HETATM   10  C4  UNL     1     -33.291  18.513   0.277  1.00 20.00    -0.005 C 
HETATM   11  C2  UNL     1     -34.096  18.455   1.343  1.00 20.00     0.009 C 
ENDBRANCH   4  10
TORSDOF 2
ENDMDL
MODEL 9
REMARK VINA RESULT:      -4.0      1.309      3.937
REMARK  2 active torsions:
REMARK  status: ('A' for Active; 'I' for Inactive)
REMARK    1  A    between atoms: C3_3  and  C7_7 
REMARK    2  A    between atoms: C4_4  and  C8_8 
ROOT
HETATM    1  C5  UNL     1     -34.461  14.176  -3.354  1.00 20.00     0.014 C 
HETATM    2  C6  UNL     1     -35.735  14.030  -4.184  1.00 20.00     0.037 C 
HETATM    3  C7  UNL     1     -33.701  15.479  -3.663  1.00 20.00     0.036 C 
HETATM    4  C8  UNL     1     -36.461  15.368  -4.316  1.00 20.00     0.144 C 
HETATM    5  C9  UNL     1     -34.249  16.139  -4.943  1.00 20.00     0.126 C 
HETATM    6  C10 UNL     1     -33.538  17.439  -5.311  1.00 20.00     0.040 C 
HETATM    7  O11 UNL     1     -35.647  16.422  -4.838  1.00 20.00    -0.377 OA
ENDROOT
BRANCH   3   8
HETATM    8  C3  UNL     1     -33.739  16.404  -2.478  1.00 20.00    -0.030 C 
HETATM    9  C1  UNL     1     -34.591  16.274  -1.455  1.00 20.00     0.007 C 
ENDBRANCH   3   8
BRANCH   4  10
HETATM   10  C4  UNL     1     -37.663  15.237  -5.193  1.00 20.00    -0.005 C 
HETATM   11  C2  UNL     1     -38.876  14.886  -4.752  1.00 20.00     0.009 C 
ENDBRANCH   4  10
TORSDOF 2
ENDMDL
