MODEL 1
REMARK VINA RESULT:      -5.5      0.000      0.000
REMARK  2 active torsions:
REMARK  status: ('A' for Active; 'I' for Inactive)
REMARK    1  A    between atoms: C6_6  and  C8_8 
REMARK    2  A    between atoms: C8_8  and  O9_9 
ROOT
HETATM    1  C1  UNL     1     -34.998   4.716   6.236  1.00 20.00    -0.030 C 
HETATM    2  C2  UNL     1     -34.383   5.877   6.501  1.00 20.00    -0.030 C 
HETATM    3  C3  UNL     1     -35.034   4.098   4.868  1.00 20.00     0.031 C 
HETATM    4  C4  UNL     1     -33.642   6.668   5.465  1.00 20.00     0.034 C 
HETATM    5  C5  UNL     1     -34.634   5.067   3.735  1.00 20.00    -0.009 C 
HETATM    6  C6  UNL     1     -33.389   5.881   4.165  1.00 20.00     0.016 C 
HETATM    7  C7  UNL     1     -35.826   5.942   3.323  1.00 20.00     0.011 C 
ENDROOT
BRANCH   6   8
HETATM    8  C8  UNL     1     -32.866   6.806   3.067  1.00 20.00     0.169 C 
BRANCH   8   9
HETATM    9  O9  UNL     1     -31.674   7.415   3.525  1.00 20.00    -0.400 OA
HETATM   10  H23 UNL     1     -31.566   8.244   3.027  1.00 20.00     0.209 HD
ENDBRANCH   8   9
ENDBRANCH   6   8
TORSDOF 2
ENDMDL
MODEL 2
REMARK VINA RESULT:      -4.6      1.487      2.866
REMARK  2 active torsions:
REMARK  status: ('A' for Active; 'I' for Inactive)
REMARK    1  A    between atoms: C6_6  and  C8_8 
REMARK    2  A    between atoms: C8_8  and  O9_9 
ROOT
HETATM    1  C1  UNL     1     -34.400   5.356   2.796  1.00 20.00    -0.030 C 
HETATM    2  C2  UNL     1     -33.254   5.957   3.148  1.00 20.00    -0.030 C 
HETATM    3  C3  UNL     1     -35.524   5.104   3.758  1.00 20.00     0.031 C 
HETATM    4  C4  UNL     1     -32.985   6.465   4.533  1.00 20.00     0.034 C 
HETATM    5  C5  UNL     1     -35.122   5.250   5.241  1.00 20.00    -0.009 C 
HETATM    6  C6  UNL     1     -34.246   6.515   5.417  1.00 20.00     0.016 C 
HETATM    7  C7  UNL     1     -34.454   3.967   5.752  1.00 20.00     0.011 C 
ENDROOT
BRANCH   6   8
HETATM    8  C8  UNL     1     -33.874   6.791   6.873  1.00 20.00     0.169 C 
BRANCH   8   9
HETATM    9  O9  UNL     1     -32.755   7.657   6.892  1.00 20.00    -0.400 OA
HETATM   10  H23 UNL     1     -32.464   7.770   5.971  1.00 20.00     0.209 HD
ENDBRANCH   8   9
ENDBRANCH   6   8
TORSDOF 2
ENDMDL
MODEL 3
REMARK VINA RESULT:      -4.4     11.794     12.472
REMARK  2 active torsions:
REMARK  status: ('A' for Active; 'I' for Inactive)
REMARK    1  A    between atoms: C6_6  and  C8_8 
REMARK    2  A    between atoms: C8_8  and  O9_9 
ROOT
HETATM    1  C1  UNL     1     -34.801  13.347  -4.464  1.00 20.00    -0.030 C 
HETATM    2  C2  UNL     1     -35.936  14.017  -4.221  1.00 20.00    -0.030 C 
HETATM    3  C3  UNL     1     -33.473  13.746  -3.890  1.00 20.00     0.031 C 
HETATM    4  C4  UNL     1     -36.004  15.220  -3.328  1.00 20.00     0.034 C 
HETATM    5  C5  UNL     1     -33.447  15.176  -3.310  1.00 20.00    -0.009 C 
HETATM    6  C6  UNL     1     -34.732  15.422  -2.482  1.00 20.00     0.016 C 
HETATM    7  C7  UNL     1     -33.228  16.210  -4.423  1.00 20.00     0.011 C 
ENDROOT
BRANCH   6   8
HETATM    8  C8  UNL     1     -34.753  16.785  -1.793  1.00 20.00     0.169 C 
BRANCH   8   9
HETATM    9  O9  UNL     1     -34.910  16.582  -0.402  1.00 20.00    -0.400 OA
HETATM   10  H23 UNL     1     -34.221  17.104   0.044  1.00 20.00     0.209 HD
ENDBRANCH   8   9
ENDBRANCH   6   8
TORSDOF 2
ENDMDL
MODEL 4
REMARK VINA RESULT:      -4.2     12.109     13.084
REMARK  2 active torsions:
REMARK  status: ('A' for Active; 'I' for Inactive)
REMARK    1  A    between atoms: C6_6  and  C8_8 
REMARK    2  A    between atoms: C8_8  and  O9_9 
ROOT
HETATM    1  C1  UNL     1     -33.728  17.285  -3.186  1.00 20.00    -0.030 C 
HETATM    2  C2  UNL     1     -33.567  17.139  -4.508  1.00 20.00    -0.030 C 
HETATM    3  C3  UNL     1     -34.295  16.212  -2.304  1.00 20.00     0.031 C 
HETATM    4  C4  UNL     1     -33.910  15.877  -5.243  1.00 20.00     0.034 C 
HETATM    5  C5  UNL     1     -35.011  15.082  -3.076  1.00 20.00    -0.009 C 
HETATM    6  C6  UNL     1     -34.163  14.679  -4.307  1.00 20.00     0.016 C 
HETATM    7  C7  UNL     1     -36.447  15.491  -3.427  1.00 20.00     0.011 C 
ENDROOT
BRANCH   6   8
HETATM    8  C8  UNL     1     -34.752  13.503  -5.084  1.00 20.00     0.169 C 
BRANCH   8   9
HETATM    9  O9  UNL     1     -35.116  12.494  -4.161  1.00 20.00    -0.400 OA
HETATM   10  H23 UNL     1     -34.490  11.758  -4.279  1.00 20.00     0.209 HD
ENDBRANCH   8   9
ENDBRANCH   6   8
TORSDOF 2
ENDMDL
MODEL 5
REMARK VINA RESULT:      -4.2      8.747     10.276
REMARK  2 active torsions:
REMARK  status: ('A' for Active; 'I' for Inactive)
REMARK    1  A    between atoms: C6_6  and  C8_8 
REMARK    2  A    between atoms: C8_8  and  O9_9 
ROOT
HETATM    1  C1  UNL     1     -41.113   7.248  -0.873  1.00 20.00    -0.030 C 
HETATM    2  C2  UNL     1     -41.940   7.197  -1.926  1.00 20.00    -0.030 C 
HETATM    3  C3  UNL     1     -40.638   6.026  -0.142  1.00 20.00     0.031 C 
HETATM    4  C4  UNL     1     -42.456   5.913  -2.505  1.00 20.00     0.034 C 
HETATM    5  C5  UNL     1     -41.451   4.753  -0.459  1.00 20.00    -0.009 C 
HETATM    6  C6  UNL     1     -41.710   4.669  -1.982  1.00 20.00     0.016 C 
HETATM    7  C7  UNL     1     -42.733   4.704   0.385  1.00 20.00     0.011 C 
ENDROOT
BRANCH   6   8
HETATM    8  C8  UNL     1     -42.435   3.391  -2.401  1.00 20.00     0.169 C 
BRANCH   8   9
HETATM    9  O9  UNL     1     -41.467   2.429  -2.776  1.00 20.00    -0.400 OA
HETATM   10  H23 UNL     1     -40.917   2.832  -3.471  1.00 20.00     0.209 HD
ENDBRANCH   8   9
ENDBRANCH   6   8
TORSDOF 2
ENDMDL
MODEL 6
REMARK VINA RESULT:      -4.1     11.842     12.896
REMARK  2 active torsions:
REMARK  status: ('A' for Active; 'I' for Inactive)
REMARK    1  A    between atoms: C6_6  and  C8_8 
REMARK    2  A    between atoms: C8_8  and  O9_9 
ROOT
HETATM    1  C1  UNL     1     -33.049  14.637  -3.526  1.00 20.00    -0.030 C 
HETATM    2  C2  UNL     1     -33.673  13.533  -3.959  1.00 20.00    -0.030 C 
HETATM    3  C3  UNL     1     -33.760  15.933  -3.267  1.00 20.00     0.031 C 
HETATM    4  C4  UNL     1     -35.151  13.466  -4.203  1.00 20.00     0.034 C 
HETATM    5  C5  UNL     1     -35.176  16.003  -3.879  1.00 20.00    -0.009 C 
HETATM    6  C6  UNL     1     -35.918  14.669  -3.619  1.00 20.00     0.016 C 
HETATM    7  C7  UNL     1     -35.108  16.388  -5.362  1.00 20.00     0.011 C 
ENDROOT
BRANCH   6   8
HETATM    8  C8  UNL     1     -37.363  14.678  -4.114  1.00 20.00     0.169 C 
BRANCH   8   9
HETATM    9  O9  UNL     1     -38.219  14.808  -2.994  1.00 20.00    -0.400 OA
HETATM   10  H23 UNL     1     -38.048  15.682  -2.603  1.00 20.00     0.209 HD
ENDBRANCH   8   9
ENDBRANCH   6   8
TORSDOF 2
ENDMDL
MODEL 7
REMARK VINA RESULT:      -4.1     12.125     14.025
REMARK  2 active torsions:
REMARK  status: ('A' for Active; 'I' for Inactive)
REMARK    1  A    between atoms: C6_6  and  C8_8 
REMARK    2  A    between atoms: C8_8  and  O9_9 
ROOT
HETATM    1  C1  UNL     1     -34.416  16.284  -7.179  1.00 20.00    -0.030 C 
HETATM    2  C2  UNL     1     -34.863  15.027  -7.310  1.00 20.00    -0.030 C 
HETATM    3  C3  UNL     1     -33.987  16.870  -5.866  1.00 20.00     0.031 C 
HETATM    4  C4  UNL     1     -34.955  14.065  -6.164  1.00 20.00     0.034 C 
HETATM    5  C5  UNL     1     -34.440  16.052  -4.638  1.00 20.00    -0.009 C 
HETATM    6  C6  UNL     1     -34.205  14.545  -4.906  1.00 20.00     0.016 C 
HETATM    7  C7  UNL     1     -35.890  16.390  -4.265  1.00 20.00     0.011 C 
ENDROOT
BRANCH   6   8
HETATM    8  C8  UNL     1     -34.543  13.661  -3.706  1.00 20.00     0.169 C 
BRANCH   8   9
HETATM    9  O9  UNL     1     -35.335  12.578  -4.157  1.00 20.00    -0.400 OA
HETATM   10  H23 UNL     1     -35.899  12.915  -4.875  1.00 20.00     0.209 HD
ENDBRANCH   8   9
ENDBRANCH   6   8
TORSDOF 2
ENDMDL
MODEL 8
REMARK VINA RESULT:      -4.0     11.859     13.774
REMARK  2 active torsions:
REMARK  status: ('A' for Active; 'I' for Inactive)
REMARK    1  A    between atoms: C6_6  and  C8_8 
REMARK    2  A    between atoms: C8_8  and  O9_9 
ROOT
HETATM    1  C1  UNL     1     -34.693  17.246  -5.867  1.00 20.00    -0.030 C 
HETATM    2  C2  UNL     1     -35.661  16.319  -5.863  1.00 20.00    -0.030 C 
HETATM    3  C3  UNL     1     -33.360  17.044  -5.209  1.00 20.00     0.031 C 
HETATM    4  C4  UNL     1     -35.504  14.971  -5.225  1.00 20.00     0.034 C 
HETATM    5  C5  UNL     1     -33.322  15.855  -4.226  1.00 20.00    -0.009 C 
HETATM    6  C6  UNL     1     -34.045  14.640  -4.856  1.00 20.00     0.016 C 
HETATM    7  C7  UNL     1     -33.887  16.262  -2.858  1.00 20.00     0.011 C 
ENDROOT
BRANCH   6   8
HETATM    8  C8  UNL     1     -33.980  13.384  -3.988  1.00 20.00     0.169 C 
BRANCH   8   9
HETATM    9  O9  UNL     1     -35.183  12.658  -4.161  1.00 20.00    -0.400 OA
HETATM   10  H23 UNL     1     -34.964  11.714  -4.064  1.00 20.00     0.209 HD
ENDBRANCH   8   9
ENDBRANCH   6   8
TORSDOF 2
ENDMDL
MODEL 9
REMARK VINA RESULT:      -4.0     11.583     12.962
REMARK  2 active torsions:
REMARK  status: ('A' for Active; 'I' for Inactive)
REMARK    1  A    between atoms: C6_6  and  C8_8 
REMARK    2  A    between atoms: C8_8  and  O9_9 
ROOT
HETATM    1  C1  UNL     1     -34.835  14.324  -6.040  1.00 20.00    -0.030 C 
HETATM    2  C2  UNL     1     -34.378  15.584  -6.042  1.00 20.00    -0.030 C 
HETATM    3  C3  UNL     1     -35.053  13.532  -4.784  1.00 20.00     0.031 C 
HETATM    4  C4  UNL     1     -34.061  16.345  -4.789  1.00 20.00     0.034 C 
HETATM    5  C5  UNL     1     -34.371  14.137  -3.538  1.00 20.00    -0.009 C 
HETATM    6  C6  UNL     1     -34.599  15.668  -3.514  1.00 20.00     0.016 C 
HETATM    7  C7  UNL     1     -32.890  13.737  -3.482  1.00 20.00     0.011 C 
ENDROOT
BRANCH   6   8
HETATM    8  C8  UNL     1     -34.034  16.342  -2.265  1.00 20.00     0.169 C 
BRANCH   8   9
HETATM    9  O9  UNL     1     -34.925  16.114  -1.191  1.00 20.00    -0.400 OA
HETATM   10  H23 UNL     1     -35.821  16.064  -1.567  1.00 20.00     0.209 HD
ENDBRANCH   8   9
ENDBRANCH   6   8
TORSDOF 2
ENDMDL
