MODEL 1
REMARK VINA RESULT:      -4.8      0.000      0.000
REMARK  1 active torsions:
REMARK  status: ('A' for Active; 'I' for Inactive)
REMARK    1  A    between atoms: C2_2  and  C5_5 
ROOT
HETATM    1  C3  UNL     1     -33.677  16.747  -4.356  1.00 20.00     0.039 C 
HETATM    2  C4  UNL     1     -33.986  15.554  -5.229  1.00 20.00     0.040 C 
HETATM    3  C5  UNL     1     -33.618  16.114  -2.975  1.00 20.00     0.151 C 
HETATM    4  C6  UNL     1     -34.925  14.731  -4.348  1.00 20.00     0.054 C 
HETATM    5  C9  UNL     1     -34.774  13.233  -4.598  1.00 20.00     0.045 C 
HETATM    6  C10 UNL     1     -36.387  15.150  -4.517  1.00 20.00     0.045 C 
HETATM    7  O11 UNL     1     -34.542  15.012  -2.986  1.00 20.00    -0.371 OA
ENDROOT
BRANCH   3   8
HETATM    8  C2  UNL     1     -33.971  17.046  -1.871  1.00 20.00    -0.059 C 
HETATM    9  C1  UNL     1     -34.606  16.609  -0.766  1.00 20.00    -0.026 C 
HETATM   10  C7  UNL     1     -35.023  17.399   0.408  1.00 20.00     0.036 C 
HETATM   11  C8  UNL     1     -33.567  18.477  -2.091  1.00 20.00     0.046 C 
ENDBRANCH   3   8
TORSDOF 1
ENDMDL
MODEL 2
REMARK VINA RESULT:      -4.6     11.220     12.416
REMARK  1 active torsions:
REMARK  status: ('A' for Active; 'I' for Inactive)
REMARK    1  A    between atoms: C2_2  and  C5_5 
ROOT
HETATM    1  C3  UNL     1     -34.827   6.336   3.230  1.00 20.00     0.039 C 
HETATM    2  C4  UNL     1     -35.398   5.343   4.215  1.00 20.00     0.040 C 
HETATM    3  C5  UNL     1     -33.353   5.968   3.236  1.00 20.00     0.151 C 
HETATM    4  C6  UNL     1     -34.288   5.237   5.260  1.00 20.00     0.054 C 
HETATM    5  C9  UNL     1     -34.223   3.845   5.882  1.00 20.00     0.045 C 
HETATM    6  C10 UNL     1     -34.425   6.298   6.354  1.00 20.00     0.045 C 
HETATM    7  O11 UNL     1     -33.053   5.486   4.558  1.00 20.00    -0.371 OA
ENDROOT
BRANCH   3   8
HETATM    8  C2  UNL     1     -32.448   7.103   2.906  1.00 20.00    -0.059 C 
HETATM    9  C1  UNL     1     -32.541   7.747   1.727  1.00 20.00    -0.026 C 
HETATM   10  C7  UNL     1     -31.725   8.881   1.251  1.00 20.00     0.036 C 
HETATM   11  C8  UNL     1     -31.452   7.455   3.975  1.00 20.00     0.046 C 
ENDBRANCH   3   8
TORSDOF 1
ENDMDL
MODEL 3
REMARK VINA RESULT:      -4.6      1.241      1.809
REMARK  1 active torsions:
REMARK  status: ('A' for Active; 'I' for Inactive)
REMARK    1  A    between atoms: C2_2  and  C5_5 
ROOT
HETATM    1  C3  UNL     1     -33.848  14.431  -3.468  1.00 20.00     0.039 C 
HETATM    2  C4  UNL     1     -34.324  13.896  -4.799  1.00 20.00     0.040 C 
HETATM    3  C5  UNL     1     -34.956  15.408  -3.113  1.00 20.00     0.151 C 
HETATM    4  C6  UNL     1     -34.963  15.126  -5.442  1.00 20.00     0.054 C 
HETATM    5  C9  UNL     1     -36.135  14.753  -6.345  1.00 20.00     0.045 C 
HETATM    6  C10 UNL     1     -33.944  15.964  -6.218  1.00 20.00     0.045 C 
HETATM    7  O11 UNL     1     -35.458  15.933  -4.354  1.00 20.00    -0.371 OA
ENDROOT
BRANCH   3   8
HETATM    8  C2  UNL     1     -34.511  16.531  -2.244  1.00 20.00    -0.059 C 
HETATM    9  C1  UNL     1     -34.735  16.515  -0.915  1.00 20.00    -0.026 C 
HETATM   10  C7  UNL     1     -34.360  17.542   0.076  1.00 20.00     0.036 C 
HETATM   11  C8  UNL     1     -33.811  17.651  -2.960  1.00 20.00     0.046 C 
ENDBRANCH   3   8
TORSDOF 1
ENDMDL
MODEL 4
REMARK VINA RESULT:      -4.5     12.672     14.768
REMARK  1 active torsions:
REMARK  status: ('A' for Active; 'I' for Inactive)
REMARK    1  A    between atoms: C2_2  and  C5_5 
ROOT
HETATM    1  C3  UNL     1     -40.773   4.642  -1.168  1.00 20.00     0.039 C 
HETATM    2  C4  UNL     1     -41.101   5.960  -0.506  1.00 20.00     0.040 C 
HETATM    3  C5  UNL     1     -41.911   4.503  -2.166  1.00 20.00     0.151 C 
HETATM    4  C6  UNL     1     -42.628   5.930  -0.447  1.00 20.00     0.054 C 
HETATM    5  C9  UNL     1     -43.229   7.328  -0.569  1.00 20.00     0.045 C 
HETATM    6  C10 UNL     1     -43.141   5.243   0.821  1.00 20.00     0.045 C 
HETATM    7  O11 UNL     1     -43.056   5.144  -1.577  1.00 20.00    -0.371 OA
ENDROOT
BRANCH   3   8
HETATM    8  C2  UNL     1     -42.249   3.093  -2.500  1.00 20.00    -0.059 C 
HETATM    9  C1  UNL     1     -41.540   2.405  -3.415  1.00 20.00    -0.026 C 
HETATM   10  C7  UNL     1     -41.746   1.012  -3.856  1.00 20.00     0.036 C 
HETATM   11  C8  UNL     1     -43.417   2.523  -1.746  1.00 20.00     0.046 C 
ENDBRANCH   3   8
TORSDOF 1
ENDMDL
MODEL 5
REMARK VINA RESULT:      -4.5      1.425      4.447
REMARK  1 active torsions:
REMARK  status: ('A' for Active; 'I' for Inactive)
REMARK    1  A    between atoms: C2_2  and  C5_5 
ROOT
HETATM    1  C3  UNL     1     -35.510  17.573  -2.793  1.00 20.00     0.039 C 
HETATM    2  C4  UNL     1     -35.644  18.289  -1.470  1.00 20.00     0.040 C 
HETATM    3  C5  UNL     1     -35.341  16.129  -2.350  1.00 20.00     0.151 C 
HETATM    4  C6  UNL     1     -34.681  17.512  -0.573  1.00 20.00     0.054 C 
HETATM    5  C9  UNL     1     -35.156  17.478   0.877  1.00 20.00     0.045 C 
HETATM    6  C10 UNL     1     -33.255  18.061  -0.649  1.00 20.00     0.045 C 
HETATM    7  O11 UNL     1     -34.661  16.163  -1.083  1.00 20.00    -0.371 OA
ENDROOT
BRANCH   3   8
HETATM    8  C2  UNL     1     -34.567  15.293  -3.306  1.00 20.00    -0.059 C 
HETATM    9  C1  UNL     1     -35.070  14.141  -3.790  1.00 20.00    -0.026 C 
HETATM   10  C7  UNL     1     -34.433  13.205  -4.737  1.00 20.00     0.036 C 
HETATM   11  C8  UNL     1     -33.213  15.833  -3.672  1.00 20.00     0.046 C 
ENDBRANCH   3   8
TORSDOF 1
ENDMDL
MODEL 6
REMARK VINA RESULT:      -4.3      1.413      4.543
REMARK  1 active torsions:
REMARK  status: ('A' for Active; 'I' for Inactive)
REMARK    1  A    between atoms: C2_2  and  C5_5 
ROOT
HETATM    1  C3  UNL     1     -34.710  15.870  -1.955  1.00 20.00     0.039 C 
HETATM    2  C4  UNL     1     -34.534  17.192  -1.245  1.00 20.00     0.040 C 
HETATM    3  C5  UNL     1     -33.650  15.957  -3.041  1.00 20.00     0.151 C 
HETATM    4  C6  UNL     1     -34.202  18.144  -2.394  1.00 20.00     0.054 C 
HETATM    5  C9  UNL     1     -33.263  19.263  -1.952  1.00 20.00     0.045 C 
HETATM    6  C10 UNL     1     -35.460  18.732  -3.035  1.00 20.00     0.045 C 
HETATM    7  O11 UNL     1     -33.531  17.347  -3.391  1.00 20.00    -0.371 OA
ENDROOT
BRANCH   3   8
HETATM    8  C2  UNL     1     -33.971  15.165  -4.259  1.00 20.00    -0.059 C 
HETATM    9  C1  UNL     1     -34.059  15.751  -5.468  1.00 20.00    -0.026 C 
HETATM   10  C7  UNL     1     -34.367  15.112  -6.761  1.00 20.00     0.036 C 
HETATM   11  C8  UNL     1     -34.180  13.695  -4.025  1.00 20.00     0.046 C 
ENDBRANCH   3   8
TORSDOF 1
ENDMDL
MODEL 7
REMARK VINA RESULT:      -4.3      1.213      1.913
REMARK  1 active torsions:
REMARK  status: ('A' for Active; 'I' for Inactive)
REMARK    1  A    between atoms: C2_2  and  C5_5 
ROOT
HETATM    1  C3  UNL     1     -36.245  15.324  -3.156  1.00 20.00     0.039 C 
HETATM    2  C4  UNL     1     -36.186  14.406  -4.354  1.00 20.00     0.040 C 
HETATM    3  C5  UNL     1     -35.360  16.476  -3.603  1.00 20.00     0.151 C 
HETATM    4  C6  UNL     1     -34.744  14.573  -4.830  1.00 20.00     0.054 C 
HETATM    5  C9  UNL     1     -34.623  14.424  -6.344  1.00 20.00     0.045 C 
HETATM    6  C10 UNL     1     -33.790  13.605  -4.126  1.00 20.00     0.045 C 
HETATM    7  O11 UNL     1     -34.357  15.913  -4.467  1.00 20.00    -0.371 OA
ENDROOT
BRANCH   3   8
HETATM    8  C2  UNL     1     -34.701  17.198  -2.482  1.00 20.00    -0.059 C 
HETATM    9  C1  UNL     1     -34.909  16.835  -1.202  1.00 20.00    -0.026 C 
HETATM   10  C7  UNL     1     -34.336  17.444   0.014  1.00 20.00     0.036 C 
HETATM   11  C8  UNL     1     -33.809  18.335  -2.894  1.00 20.00     0.046 C 
ENDBRANCH   3   8
TORSDOF 1
ENDMDL
MODEL 8
REMARK VINA RESULT:      -4.3      1.100      1.467
REMARK  1 active torsions:
REMARK  status: ('A' for Active; 'I' for Inactive)
REMARK    1  A    between atoms: C2_2  and  C5_5 
ROOT
HETATM    1  C3  UNL     1     -33.398  15.562  -3.240  1.00 20.00     0.039 C 
HETATM    2  C4  UNL     1     -34.061  14.981  -4.466  1.00 20.00     0.040 C 
HETATM    3  C5  UNL     1     -34.595  15.877  -2.359  1.00 20.00     0.151 C 
HETATM    4  C6  UNL     1     -35.333  15.821  -4.586  1.00 20.00     0.054 C 
HETATM    5  C9  UNL     1     -36.490  15.021  -5.177  1.00 20.00     0.045 C 
HETATM    6  C10 UNL     1     -35.104  17.098  -5.397  1.00 20.00     0.045 C 
HETATM    7  O11 UNL     1     -35.681  16.210  -3.242  1.00 20.00    -0.371 OA
ENDROOT
BRANCH   3   8
HETATM    8  C2  UNL     1     -34.365  17.001  -1.411  1.00 20.00    -0.059 C 
HETATM    9  C1  UNL     1     -34.806  16.941  -0.140  1.00 20.00    -0.026 C 
HETATM   10  C7  UNL     1     -34.661  17.963   0.915  1.00 20.00     0.036 C 
HETATM   11  C8  UNL     1     -33.619  18.173  -1.983  1.00 20.00     0.046 C 
ENDBRANCH   3   8
TORSDOF 1
ENDMDL
MODEL 9
REMARK VINA RESULT:      -4.1      2.275      3.770
REMARK  1 active torsions:
REMARK  status: ('A' for Active; 'I' for Inactive)
REMARK    1  A    between atoms: C2_2  and  C5_5 
ROOT
HETATM    1  C3  UNL     1     -36.799  15.705  -5.453  1.00 20.00     0.039 C 
HETATM    2  C4  UNL     1     -38.267  15.555  -5.778  1.00 20.00     0.040 C 
HETATM    3  C5  UNL     1     -36.576  14.554  -4.486  1.00 20.00     0.151 C 
HETATM    4  C6  UNL     1     -38.858  15.099  -4.444  1.00 20.00     0.054 C 
HETATM    5  C9  UNL     1     -40.054  14.172  -4.638  1.00 20.00     0.045 C 
HETATM    6  C10 UNL     1     -39.245  16.282  -3.553  1.00 20.00     0.045 C 
HETATM    7  O11 UNL     1     -37.811  14.368  -3.774  1.00 20.00    -0.371 OA
ENDROOT
BRANCH   3   8
HETATM    8  C2  UNL     1     -35.474  14.790  -3.515  1.00 20.00    -0.059 C 
HETATM    9  C1  UNL     1     -35.510  15.832  -2.661  1.00 20.00    -0.026 C 
HETATM   10  C7  UNL     1     -34.505  16.201  -1.645  1.00 20.00     0.036 C 
HETATM   11  C8  UNL     1     -34.352  13.793  -3.570  1.00 20.00     0.046 C 
ENDBRANCH   3   8
TORSDOF 1
ENDMDL
