MODEL 1
REMARK VINA RESULT:      -4.8      0.000      0.000
REMARK  2 active torsions:
REMARK  status: ('A' for Active; 'I' for Inactive)
REMARK    1  A    between atoms: C1_1  and  C10_10 
REMARK    2  A    between atoms: C8_8  and  C10_10 
ROOT
HETATM    1  C2  UNL     1     -34.934   4.580   6.016  1.00 20.00     0.005 C 
HETATM    2  C3  UNL     1     -34.353   5.993   6.176  1.00 20.00     0.005 C 
HETATM    3  C4  UNL     1     -35.639   5.927   4.184  1.00 20.00     0.009 C 
HETATM    4  C5  UNL     1     -33.890   4.377   3.744  1.00 20.00     0.010 C 
HETATM    5  C6  UNL     1     -35.221   4.495   4.507  1.00 20.00    -0.014 C 
HETATM    6  C7  UNL     1     -34.343   6.528   4.733  1.00 20.00    -0.010 C 
HETATM    7  C8  UNL     1     -33.251   5.769   3.941  1.00 20.00    -0.003 C 
ENDROOT
BRANCH   7   8
HETATM    8  C10 UNL     1     -32.906   6.440   2.616  1.00 20.00     0.082 C 
BRANCH   8   9
HETATM    9  C1  UNL     1     -32.006   7.644   2.795  1.00 20.00     0.123 C 
HETATM   10  C9  UNL     1     -32.111   8.708   1.734  1.00 20.00     0.091 C 
HETATM   11  O11 UNL     1     -31.228   7.766   3.740  1.00 20.00    -0.298 OA
ENDBRANCH   8   9
ENDBRANCH   7   8
TORSDOF 2
ENDMDL
MODEL 2
REMARK VINA RESULT:      -4.7     11.602     12.421
REMARK  2 active torsions:
REMARK  status: ('A' for Active; 'I' for Inactive)
REMARK    1  A    between atoms: C1_1  and  C10_10 
REMARK    2  A    between atoms: C8_8  and  C10_10 
ROOT
HETATM    1  C2  UNL     1     -35.729  17.466  -1.470  1.00 20.00     0.005 C 
HETATM    2  C3  UNL     1     -34.405  16.856  -0.985  1.00 20.00     0.005 C 
HETATM    3  C4  UNL     1     -34.123  17.590  -3.223  1.00 20.00     0.009 C 
HETATM    4  C5  UNL     1     -35.775  15.889  -3.420  1.00 20.00     0.010 C 
HETATM    5  C6  UNL     1     -35.617  17.361  -3.001  1.00 20.00    -0.014 C 
HETATM    6  C7  UNL     1     -33.715  16.441  -2.297  1.00 20.00    -0.010 C 
HETATM    7  C8  UNL     1     -34.481  15.234  -2.889  1.00 20.00    -0.003 C 
ENDROOT
BRANCH   7   8
HETATM    8  C10 UNL     1     -33.702  14.519  -3.987  1.00 20.00     0.082 C 
BRANCH   8   9
HETATM    9  C1  UNL     1     -34.589  13.645  -4.849  1.00 20.00     0.123 C 
HETATM   10  C9  UNL     1     -34.888  14.171  -6.230  1.00 20.00     0.091 C 
HETATM   11  O11 UNL     1     -35.048  12.570  -4.467  1.00 20.00    -0.298 OA
ENDBRANCH   8   9
ENDBRANCH   7   8
TORSDOF 2
ENDMDL
MODEL 3
REMARK VINA RESULT:      -4.6     11.096     12.380
REMARK  2 active torsions:
REMARK  status: ('A' for Active; 'I' for Inactive)
REMARK    1  A    between atoms: C1_1  and  C10_10 
REMARK    2  A    between atoms: C8_8  and  C10_10 
ROOT
HETATM    1  C2  UNL     1     -35.837  18.031  -1.020  1.00 20.00     0.005 C 
HETATM    2  C3  UNL     1     -34.827  17.076  -0.365  1.00 20.00     0.005 C 
HETATM    3  C4  UNL     1     -33.751  18.201  -2.155  1.00 20.00     0.009 C 
HETATM    4  C5  UNL     1     -35.454  16.954  -3.252  1.00 20.00     0.010 C 
HETATM    5  C6  UNL     1     -35.253  18.238  -2.428  1.00 20.00    -0.014 C 
HETATM    6  C7  UNL     1     -33.811  16.822  -1.493  1.00 20.00    -0.010 C 
HETATM    7  C8  UNL     1     -34.493  15.952  -2.575  1.00 20.00    -0.003 C 
ENDROOT
BRANCH   7   8
HETATM    8  C10 UNL     1     -33.500  15.346  -3.561  1.00 20.00     0.082 C 
BRANCH   8   9
HETATM    9  C1  UNL     1     -33.742  13.869  -3.791  1.00 20.00     0.123 C 
HETATM   10  C9  UNL     1     -35.151  13.483  -4.160  1.00 20.00     0.091 C 
HETATM   11  O11 UNL     1     -32.858  13.020  -3.689  1.00 20.00    -0.298 OA
ENDBRANCH   8   9
ENDBRANCH   7   8
TORSDOF 2
ENDMDL
MODEL 4
REMARK VINA RESULT:      -4.5      9.599     10.970
REMARK  2 active torsions:
REMARK  status: ('A' for Active; 'I' for Inactive)
REMARK    1  A    between atoms: C1_1  and  C10_10 
REMARK    2  A    between atoms: C8_8  and  C10_10 
ROOT
HETATM    1  C2  UNL     1     -40.882   7.193  -0.703  1.00 20.00     0.005 C 
HETATM    2  C3  UNL     1     -42.247   7.291  -1.401  1.00 20.00     0.005 C 
HETATM    3  C4  UNL     1     -42.392   5.661   0.316  1.00 20.00     0.009 C 
HETATM    4  C5  UNL     1     -40.786   4.731  -1.172  1.00 20.00     0.010 C 
HETATM    5  C6  UNL     1     -40.919   5.793  -0.066  1.00 20.00    -0.014 C 
HETATM    6  C7  UNL     1     -42.882   5.919  -1.111  1.00 20.00    -0.010 C 
HETATM    7  C8  UNL     1     -42.125   4.850  -1.933  1.00 20.00    -0.003 C 
ENDROOT
BRANCH   7   8
HETATM    8  C10 UNL     1     -42.869   3.521  -2.004  1.00 20.00     0.082 C 
BRANCH   8   9
HETATM    9  C1  UNL     1     -42.723   2.849  -3.353  1.00 20.00     0.123 C 
HETATM   10  C9  UNL     1     -41.662   1.783  -3.447  1.00 20.00     0.091 C 
HETATM   11  O11 UNL     1     -43.417   3.139  -4.327  1.00 20.00    -0.298 OA
ENDBRANCH   8   9
ENDBRANCH   7   8
TORSDOF 2
ENDMDL
MODEL 5
REMARK VINA RESULT:      -4.5     11.698     12.649
REMARK  2 active torsions:
REMARK  status: ('A' for Active; 'I' for Inactive)
REMARK    1  A    between atoms: C1_1  and  C10_10 
REMARK    2  A    between atoms: C8_8  and  C10_10 
ROOT
HETATM    1  C2  UNL     1     -33.748  18.305  -2.248  1.00 20.00     0.005 C 
HETATM    2  C3  UNL     1     -35.168  18.380  -2.830  1.00 20.00     0.005 C 
HETATM    3  C4  UNL     1     -35.104  16.642  -1.217  1.00 20.00     0.009 C 
HETATM    4  C5  UNL     1     -33.584  15.884  -2.882  1.00 20.00     0.010 C 
HETATM    5  C6  UNL     1     -33.674  16.869  -1.702  1.00 20.00    -0.014 C 
HETATM    6  C7  UNL     1     -35.718  16.964  -2.582  1.00 20.00    -0.010 C 
HETATM    7  C8  UNL     1     -34.983  15.984  -3.528  1.00 20.00    -0.003 C 
ENDROOT
BRANCH   7   8
HETATM    8  C10 UNL     1     -35.673  14.628  -3.628  1.00 20.00     0.082 C 
BRANCH   8   9
HETATM    9  C1  UNL     1     -35.101  13.770  -4.737  1.00 20.00     0.123 C 
HETATM   10  C9  UNL     1     -34.855  14.468  -6.049  1.00 20.00     0.091 C 
HETATM   11  O11 UNL     1     -34.845  12.575  -4.597  1.00 20.00    -0.298 OA
ENDBRANCH   8   9
ENDBRANCH   7   8
TORSDOF 2
ENDMDL
MODEL 6
REMARK VINA RESULT:      -4.5     11.526     12.793
REMARK  2 active torsions:
REMARK  status: ('A' for Active; 'I' for Inactive)
REMARK    1  A    between atoms: C1_1  and  C10_10 
REMARK    2  A    between atoms: C8_8  and  C10_10 
ROOT
HETATM    1  C2  UNL     1     -33.625  18.424   0.682  1.00 20.00     0.005 C 
HETATM    2  C3  UNL     1     -32.768  18.800  -0.536  1.00 20.00     0.005 C 
HETATM    3  C4  UNL     1     -35.053  18.877  -1.168  1.00 20.00     0.009 C 
HETATM    4  C5  UNL     1     -34.725  16.585  -0.622  1.00 20.00     0.010 C 
HETATM    5  C6  UNL     1     -34.944  17.955   0.044  1.00 20.00    -0.014 C 
HETATM    6  C7  UNL     1     -33.688  18.462  -1.723  1.00 20.00    -0.010 C 
HETATM    7  C8  UNL     1     -33.811  16.923  -1.820  1.00 20.00    -0.003 C 
ENDROOT
BRANCH   7   8
HETATM    8  C10 UNL     1     -34.401  16.458  -3.147  1.00 20.00     0.082 C 
BRANCH   8   9
HETATM    9  C1  UNL     1     -33.400  15.697  -3.990  1.00 20.00     0.123 C 
HETATM   10  C9  UNL     1     -33.335  14.210  -3.752  1.00 20.00     0.091 C 
HETATM   11  O11 UNL     1     -32.674  16.238  -4.823  1.00 20.00    -0.298 OA
ENDBRANCH   8   9
ENDBRANCH   7   8
TORSDOF 2
ENDMDL
MODEL 7
REMARK VINA RESULT:      -4.5     11.440     12.315
REMARK  2 active torsions:
REMARK  status: ('A' for Active; 'I' for Inactive)
REMARK    1  A    between atoms: C1_1  and  C10_10 
REMARK    2  A    between atoms: C8_8  and  C10_10 
ROOT
HETATM    1  C2  UNL     1     -35.257  13.439  -4.327  1.00 20.00     0.005 C 
HETATM    2  C3  UNL     1     -36.253  14.469  -3.772  1.00 20.00     0.005 C 
HETATM    3  C4  UNL     1     -34.731  15.587  -5.208  1.00 20.00     0.009 C 
HETATM    4  C5  UNL     1     -33.331  14.789  -3.458  1.00 20.00     0.010 C 
HETATM    5  C6  UNL     1     -34.052  14.306  -4.729  1.00 20.00    -0.014 C 
HETATM    6  C7  UNL     1     -35.479  15.794  -3.889  1.00 20.00    -0.010 C 
HETATM    7  C8  UNL     1     -34.339  15.785  -2.843  1.00 20.00    -0.003 C 
ENDROOT
BRANCH   7   8
HETATM    8  C10 UNL     1     -33.728  17.163  -2.620  1.00 20.00     0.082 C 
BRANCH   8   9
HETATM    9  C1  UNL     1     -33.718  17.562  -1.159  1.00 20.00     0.123 C 
HETATM   10  C9  UNL     1     -34.776  16.923  -0.296  1.00 20.00     0.091 C 
HETATM   11  O11 UNL     1     -32.907  18.356  -0.685  1.00 20.00    -0.298 OA
ENDBRANCH   8   9
ENDBRANCH   7   8
TORSDOF 2
ENDMDL
MODEL 8
REMARK VINA RESULT:      -4.5     11.364     12.488
REMARK  2 active torsions:
REMARK  status: ('A' for Active; 'I' for Inactive)
REMARK    1  A    between atoms: C1_1  and  C10_10 
REMARK    2  A    between atoms: C8_8  and  C10_10 
ROOT
HETATM    1  C2  UNL     1     -35.074  14.213  -5.723  1.00 20.00     0.005 C 
HETATM    2  C3  UNL     1     -33.966  15.271  -5.610  1.00 20.00     0.005 C 
HETATM    3  C4  UNL     1     -33.745  13.753  -3.801  1.00 20.00     0.009 C 
HETATM    4  C5  UNL     1     -35.867  14.755  -3.406  1.00 20.00     0.010 C 
HETATM    5  C6  UNL     1     -35.193  13.684  -4.283  1.00 20.00    -0.014 C 
HETATM    6  C7  UNL     1     -33.615  15.246  -4.112  1.00 20.00    -0.010 C 
HETATM    7  C8  UNL     1     -34.795  15.865  -3.326  1.00 20.00    -0.003 C 
ENDROOT
BRANCH   7   8
HETATM    8  C10 UNL     1     -34.431  16.215  -1.887  1.00 20.00     0.082 C 
BRANCH   8   9
HETATM    9  C1  UNL     1     -33.849  17.607  -1.761  1.00 20.00     0.123 C 
HETATM   10  C9  UNL     1     -33.368  17.997  -0.388  1.00 20.00     0.091 C 
HETATM   11  O11 UNL     1     -33.764  18.388  -2.708  1.00 20.00    -0.298 OA
ENDBRANCH   8   9
ENDBRANCH   7   8
TORSDOF 2
ENDMDL
MODEL 9
REMARK VINA RESULT:      -4.4     11.312     12.641
REMARK  2 active torsions:
REMARK  status: ('A' for Active; 'I' for Inactive)
REMARK    1  A    between atoms: C1_1  and  C10_10 
REMARK    2  A    between atoms: C8_8  and  C10_10 
ROOT
HETATM    1  C2  UNL     1     -33.239  13.710  -3.787  1.00 20.00     0.005 C 
HETATM    2  C3  UNL     1     -34.443  13.227  -4.609  1.00 20.00     0.005 C 
HETATM    3  C4  UNL     1     -34.137  15.545  -5.009  1.00 20.00     0.009 C 
HETATM    4  C5  UNL     1     -34.655  15.464  -2.689  1.00 20.00     0.010 C 
HETATM    5  C6  UNL     1     -33.489  15.223  -3.664  1.00 20.00    -0.014 C 
HETATM    6  C7  UNL     1     -35.256  14.517  -4.822  1.00 20.00    -0.010 C 
HETATM    7  C8  UNL     1     -35.877  14.929  -3.466  1.00 20.00    -0.003 C 
ENDROOT
BRANCH   7   8
HETATM    8  C10 UNL     1     -36.975  15.977  -3.612  1.00 20.00     0.082 C 
BRANCH   8   9
HETATM    9  C1  UNL     1     -38.361  15.369  -3.580  1.00 20.00     0.123 C 
HETATM   10  C9  UNL     1     -39.481  16.303  -3.197  1.00 20.00     0.091 C 
HETATM   11  O11 UNL     1     -38.584  14.189  -3.846  1.00 20.00    -0.298 OA
ENDBRANCH   8   9
ENDBRANCH   7   8
TORSDOF 2
ENDMDL
