MODEL 1
REMARK VINA RESULT:      -3.9      0.000      0.000
REMARK  1 active torsions:
REMARK  status: ('A' for Active; 'I' for Inactive)
REMARK    1  A    between atoms: C1_1  and  C3_3 
ROOT
HETATM    1  C1  UNL     1     -35.150   4.505   4.927  1.00 20.00     0.037 C 
HETATM    2  C2  UNL     1     -34.704   4.926   6.117  1.00 20.00    -0.028 C 
HETATM    3  C4  UNL     1     -34.147   6.292   6.348  1.00 20.00     0.036 C 
ENDROOT
BRANCH   1   4
HETATM    4  C3  UNL     1     -35.094   5.422   3.773  1.00 20.00     0.258 C 
HETATM    5  O5  UNL     1     -34.237   5.321   2.905  1.00 20.00    -0.302 OA
ENDBRANCH   1   4
TORSDOF 1
ENDMDL
MODEL 2
REMARK VINA RESULT:      -3.9      1.282      1.751
REMARK  1 active torsions:
REMARK  status: ('A' for Active; 'I' for Inactive)
REMARK    1  A    between atoms: C1_1  and  C3_3 
ROOT
HETATM    1  C1  UNL     1     -34.634   5.479   3.638  1.00 20.00     0.037 C 
HETATM    2  C2  UNL     1     -35.237   4.857   4.659  1.00 20.00    -0.028 C 
HETATM    3  C4  UNL     1     -34.759   4.945   6.071  1.00 20.00     0.036 C 
ENDROOT
BRANCH   1   4
HETATM    4  C3  UNL     1     -33.434   6.295   3.901  1.00 20.00     0.258 C 
HETATM    5  O5  UNL     1     -32.373   6.094   3.323  1.00 20.00    -0.302 OA
ENDBRANCH   1   4
TORSDOF 1
ENDMDL
MODEL 3
REMARK VINA RESULT:      -3.7      1.928      2.670
REMARK  1 active torsions:
REMARK  status: ('A' for Active; 'I' for Inactive)
REMARK    1  A    between atoms: C1_1  and  C3_3 
ROOT
HETATM    1  C1  UNL     1     -35.265   4.883   4.593  1.00 20.00     0.037 C 
HETATM    2  C2  UNL     1     -34.718   5.427   3.499  1.00 20.00    -0.028 C 
HETATM    3  C4  UNL     1     -33.383   6.094   3.494  1.00 20.00     0.036 C 
ENDROOT
BRANCH   1   4
HETATM    4  C3  UNL     1     -34.526   4.938   5.869  1.00 20.00     0.258 C 
HETATM    5  O5  UNL     1     -34.659   5.866   6.656  1.00 20.00    -0.302 OA
ENDBRANCH   1   4
TORSDOF 1
ENDMDL
MODEL 4
REMARK VINA RESULT:      -3.7      1.757      2.666
REMARK  1 active torsions:
REMARK  status: ('A' for Active; 'I' for Inactive)
REMARK    1  A    between atoms: C1_1  and  C3_3 
ROOT
HETATM    1  C1  UNL     1     -34.615   4.717   6.123  1.00 20.00     0.037 C 
HETATM    2  C2  UNL     1     -35.001   4.386   4.884  1.00 20.00    -0.028 C 
HETATM    3  C4  UNL     1     -35.271   5.390   3.813  1.00 20.00     0.036 C 
ENDROOT
BRANCH   1   4
HETATM    4  C3  UNL     1     -34.444   6.142   6.465  1.00 20.00     0.258 C 
HETATM    5  O5  UNL     1     -33.347   6.687   6.444  1.00 20.00    -0.302 OA
ENDBRANCH   1   4
TORSDOF 1
ENDMDL
MODEL 5
REMARK VINA RESULT:      -3.4      1.875      2.403
REMARK  1 active torsions:
REMARK  status: ('A' for Active; 'I' for Inactive)
REMARK    1  A    between atoms: C1_1  and  C3_3 
ROOT
HETATM    1  C1  UNL     1     -34.356   5.727   5.374  1.00 20.00     0.037 C 
HETATM    2  C2  UNL     1     -33.435   6.372   4.648  1.00 20.00    -0.028 C 
HETATM    3  C4  UNL     1     -33.215   6.123   3.192  1.00 20.00     0.036 C 
ENDROOT
BRANCH   1   4
HETATM    4  C3  UNL     1     -35.206   4.714   4.719  1.00 20.00     0.258 C 
HETATM    5  O5  UNL     1     -35.130   3.525   5.000  1.00 20.00    -0.302 OA
ENDBRANCH   1   4
TORSDOF 1
ENDMDL
MODEL 6
REMARK VINA RESULT:      -3.0      2.212      2.745
REMARK  1 active torsions:
REMARK  status: ('A' for Active; 'I' for Inactive)
REMARK    1  A    between atoms: C1_1  and  C3_3 
ROOT
HETATM    1  C1  UNL     1     -33.054   6.584   4.440  1.00 20.00     0.037 C 
HETATM    2  C2  UNL     1     -34.195   5.983   4.798  1.00 20.00    -0.028 C 
HETATM    3  C4  UNL     1     -35.096   5.290   3.830  1.00 20.00     0.036 C 
ENDROOT
BRANCH   1   4
HETATM    4  C3  UNL     1     -32.649   6.572   3.021  1.00 20.00     0.258 C 
HETATM    5  O5  UNL     1     -32.158   7.553   2.478  1.00 20.00    -0.302 OA
ENDBRANCH   1   4
TORSDOF 1
ENDMDL
MODEL 7
REMARK VINA RESULT:      -3.0     12.153     12.898
REMARK  1 active torsions:
REMARK  status: ('A' for Active; 'I' for Inactive)
REMARK    1  A    between atoms: C1_1  and  C3_3 
ROOT
HETATM    1  C1  UNL     1     -33.299  13.860  -3.671  1.00 20.00     0.037 C 
HETATM    2  C2  UNL     1     -32.816  15.108  -3.680  1.00 20.00    -0.028 C 
HETATM    3  C4  UNL     1     -33.249  16.149  -4.658  1.00 20.00     0.036 C 
ENDROOT
BRANCH   1   4
HETATM    4  C3  UNL     1     -34.312  13.474  -4.673  1.00 20.00     0.258 C 
HETATM    5  O5  UNL     1     -35.130  12.589  -4.460  1.00 20.00    -0.302 OA
ENDBRANCH   1   4
TORSDOF 1
ENDMDL
MODEL 8
REMARK VINA RESULT:      -3.0     12.124     12.484
REMARK  1 active torsions:
REMARK  status: ('A' for Active; 'I' for Inactive)
REMARK    1  A    between atoms: C1_1  and  C3_3 
ROOT
HETATM    1  C1  UNL     1     -33.595  14.460  -3.850  1.00 20.00     0.037 C 
HETATM    2  C2  UNL     1     -33.551  15.528  -3.045  1.00 20.00    -0.028 C 
HETATM    3  C4  UNL     1     -34.696  15.961  -2.190  1.00 20.00     0.036 C 
ENDROOT
BRANCH   1   4
HETATM    4  C3  UNL     1     -34.832  13.656  -3.909  1.00 20.00     0.258 C 
HETATM    5  O5  UNL     1     -34.902  12.622  -4.561  1.00 20.00    -0.302 OA
ENDBRANCH   1   4
TORSDOF 1
ENDMDL
MODEL 9
REMARK VINA RESULT:      -2.9     12.316     12.587
REMARK  1 active torsions:
REMARK  status: ('A' for Active; 'I' for Inactive)
REMARK    1  A    between atoms: C1_1  and  C3_3 
ROOT
HETATM    1  C1  UNL     1     -35.079  13.359  -4.207  1.00 20.00     0.037 C 
HETATM    2  C2  UNL     1     -33.821  13.726  -3.932  1.00 20.00    -0.028 C 
HETATM    3  C4  UNL     1     -33.436  15.117  -3.552  1.00 20.00     0.036 C 
ENDROOT
BRANCH   1   4
HETATM    4  C3  UNL     1     -36.153  14.368  -4.137  1.00 20.00     0.258 C 
HETATM    5  O5  UNL     1     -37.294  14.078  -3.799  1.00 20.00    -0.302 OA
ENDBRANCH   1   4
TORSDOF 1
ENDMDL
