MODEL 1
REMARK VINA RESULT:      -5.2      0.000      0.000
REMARK  1 active torsions:
REMARK  status: ('A' for Active; 'I' for Inactive)
REMARK    1  A    between atoms: C2_2  and  C3_3 
ROOT
HETATM    1  C1  UNL     1     -34.606  15.859  -4.174  1.00 20.00    -0.061 C 
HETATM    2  C2  UNL     1     -34.217  14.792  -4.880  1.00 20.00     0.088 C 
HETATM    3  C4  UNL     1     -33.866  16.592  -1.935  1.00 20.00     0.009 C 
HETATM    4  C5  UNL     1     -34.111  18.061  -2.324  1.00 20.00     0.006 C 
HETATM    5  C6  UNL     1     -36.108  16.864  -2.685  1.00 20.00     0.014 C 
HETATM    6  C7  UNL     1     -34.971  15.844  -2.701  1.00 20.00     0.016 C 
HETATM    7  C8  UNL     1     -35.263  17.962  -3.350  1.00 20.00    -0.002 C 
HETATM    8  C9  UNL     1     -34.812  17.281  -4.685  1.00 20.00    -0.020 C 
HETATM    9  C10 UNL     1     -35.926  17.356  -5.745  1.00 20.00     0.020 C 
HETATM   10  C11 UNL     1     -33.532  17.890  -5.276  1.00 20.00     0.020 C 
ENDROOT
BRANCH   2  11
HETATM   11  C3  UNL     1     -34.095  13.401  -4.247  1.00 20.00     0.198 C 
HETATM   12  O12 UNL     1     -35.122  12.675  -4.400  1.00 20.00    -0.644 OA
HETATM   13  O13 UNL     1     -33.012  13.133  -3.653  1.00 20.00    -0.644 OA
ENDBRANCH   2  11
TORSDOF 1
ENDMDL
MODEL 2
REMARK VINA RESULT:      -5.0      2.245      3.557
REMARK  1 active torsions:
REMARK  status: ('A' for Active; 'I' for Inactive)
REMARK    1  A    between atoms: C2_2  and  C3_3 
ROOT
HETATM    1  C1  UNL     1     -35.656  15.827  -3.594  1.00 20.00    -0.061 C 
HETATM    2  C2  UNL     1     -36.973  16.041  -3.505  1.00 20.00     0.088 C 
HETATM    3  C4  UNL     1     -34.274  15.473  -5.609  1.00 20.00     0.009 C 
HETATM    4  C5  UNL     1     -33.067  16.123  -4.908  1.00 20.00     0.006 C 
HETATM    5  C6  UNL     1     -33.837  14.354  -3.556  1.00 20.00     0.014 C 
HETATM    6  C7  UNL     1     -35.001  14.763  -4.455  1.00 20.00     0.016 C 
HETATM    7  C8  UNL     1     -33.310  15.791  -3.418  1.00 20.00    -0.002 C 
HETATM    8  C9  UNL     1     -34.548  16.551  -2.836  1.00 20.00    -0.020 C 
HETATM    9  C10 UNL     1     -34.658  16.339  -1.315  1.00 20.00     0.020 C 
HETATM   10  C11 UNL     1     -34.525  18.060  -3.118  1.00 20.00     0.020 C 
ENDROOT
BRANCH   2  11
HETATM   11  C3  UNL     1     -37.986  15.202  -4.294  1.00 20.00     0.198 C 
HETATM   12  O12 UNL     1     -38.275  15.681  -5.430  1.00 20.00    -0.644 OA
HETATM   13  O13 UNL     1     -38.413  14.149  -3.742  1.00 20.00    -0.644 OA
ENDBRANCH   2  11
TORSDOF 1
ENDMDL
MODEL 3
REMARK VINA RESULT:      -5.0      2.181      3.216
REMARK  1 active torsions:
REMARK  status: ('A' for Active; 'I' for Inactive)
REMARK    1  A    between atoms: C2_2  and  C3_3 
ROOT
HETATM    1  C1  UNL     1     -35.529  15.839  -4.280  1.00 20.00    -0.061 C 
HETATM    2  C2  UNL     1     -36.807  15.924  -4.665  1.00 20.00     0.088 C 
HETATM    3  C4  UNL     1     -34.335  13.923  -3.279  1.00 20.00     0.009 C 
HETATM    4  C5  UNL     1     -33.020  14.389  -3.932  1.00 20.00     0.006 C 
HETATM    5  C6  UNL     1     -33.878  16.173  -2.654  1.00 20.00     0.014 C 
HETATM    6  C7  UNL     1     -35.052  15.248  -2.966  1.00 20.00     0.016 C 
HETATM    7  C8  UNL     1     -33.194  15.923  -4.007  1.00 20.00    -0.002 C 
HETATM    8  C9  UNL     1     -34.301  16.345  -5.030  1.00 20.00    -0.020 C 
HETATM    9  C10 UNL     1     -34.328  17.873  -5.213  1.00 20.00     0.020 C 
HETATM   10  C11 UNL     1     -34.137  15.690  -6.409  1.00 20.00     0.020 C 
ENDROOT
BRANCH   2  11
HETATM   11  C3  UNL     1     -37.955  15.413  -3.786  1.00 20.00     0.198 C 
HETATM   12  O12 UNL     1     -38.553  16.324  -3.142  1.00 20.00    -0.644 OA
HETATM   13  O13 UNL     1     -38.175  14.169  -3.797  1.00 20.00    -0.644 OA
ENDBRANCH   2  11
TORSDOF 1
ENDMDL
MODEL 4
REMARK VINA RESULT:      -4.9      0.767      2.838
REMARK  1 active torsions:
REMARK  status: ('A' for Active; 'I' for Inactive)
REMARK    1  A    between atoms: C2_2  and  C3_3 
ROOT
HETATM    1  C1  UNL     1     -34.525  15.835  -3.911  1.00 20.00    -0.061 C 
HETATM    2  C2  UNL     1     -34.536  14.687  -3.226  1.00 20.00     0.088 C 
HETATM    3  C4  UNL     1     -35.397  16.300  -6.174  1.00 20.00     0.009 C 
HETATM    4  C5  UNL     1     -35.700  17.755  -5.769  1.00 20.00     0.006 C 
HETATM    5  C6  UNL     1     -33.423  17.332  -5.335  1.00 20.00     0.014 C 
HETATM    6  C7  UNL     1     -34.126  15.977  -5.369  1.00 20.00     0.016 C 
HETATM    7  C8  UNL     1     -34.624  18.050  -4.699  1.00 20.00    -0.002 C 
HETATM    8  C9  UNL     1     -34.852  17.229  -3.386  1.00 20.00    -0.020 C 
HETATM    9  C10 UNL     1     -33.875  17.673  -2.283  1.00 20.00     0.020 C 
HETATM   10  C11 UNL     1     -36.284  17.336  -2.843  1.00 20.00     0.020 C 
ENDROOT
BRANCH   2  11
HETATM   11  C3  UNL     1     -34.136  13.354  -3.870  1.00 20.00     0.198 C 
HETATM   12  O12 UNL     1     -32.907  13.075  -3.751  1.00 20.00    -0.644 OA
HETATM   13  O13 UNL     1     -35.052  12.693  -4.437  1.00 20.00    -0.644 OA
ENDBRANCH   2  11
TORSDOF 1
ENDMDL
MODEL 5
REMARK VINA RESULT:      -4.8      1.134      2.823
REMARK  1 active torsions:
REMARK  status: ('A' for Active; 'I' for Inactive)
REMARK    1  A    between atoms: C2_2  and  C3_3 
ROOT
HETATM    1  C1  UNL     1     -34.914  15.764  -4.573  1.00 20.00    -0.061 C 
HETATM    2  C2  UNL     1     -35.127  14.628  -3.901  1.00 20.00     0.088 C 
HETATM    3  C4  UNL     1     -34.560  16.091  -6.995  1.00 20.00     0.009 C 
HETATM    4  C5  UNL     1     -35.210  17.484  -6.913  1.00 20.00     0.006 C 
HETATM    5  C6  UNL     1     -33.441  17.407  -5.358  1.00 20.00     0.014 C 
HETATM    6  C7  UNL     1     -33.849  15.962  -5.637  1.00 20.00     0.016 C 
HETATM    7  C8  UNL     1     -34.879  17.938  -5.472  1.00 20.00    -0.002 C 
HETATM    8  C9  UNL     1     -35.639  17.094  -4.395  1.00 20.00    -0.020 C 
HETATM    9  C10 UNL     1     -35.427  17.680  -2.987  1.00 20.00     0.020 C 
HETATM   10  C11 UNL     1     -37.147  16.987  -4.658  1.00 20.00     0.020 C 
ENDROOT
BRANCH   2  11
HETATM   11  C3  UNL     1     -34.287  13.369  -4.150  1.00 20.00     0.198 C 
HETATM   12  O12 UNL     1     -34.836  12.531  -4.925  1.00 20.00    -0.644 OA
HETATM   13  O13 UNL     1     -33.167  13.302  -3.569  1.00 20.00    -0.644 OA
ENDBRANCH   2  11
TORSDOF 1
ENDMDL
MODEL 6
REMARK VINA RESULT:      -4.8      2.568      4.124
REMARK  1 active torsions:
REMARK  status: ('A' for Active; 'I' for Inactive)
REMARK    1  A    between atoms: C2_2  and  C3_3 
ROOT
HETATM    1  C1  UNL     1     -35.792  15.156  -4.635  1.00 20.00    -0.061 C 
HETATM    2  C2  UNL     1     -36.532  15.148  -3.521  1.00 20.00     0.088 C 
HETATM    3  C4  UNL     1     -35.925  16.677  -6.575  1.00 20.00     0.009 C 
HETATM    4  C5  UNL     1     -34.414  16.515  -6.820  1.00 20.00     0.006 C 
HETATM    5  C6  UNL     1     -35.389  14.370  -6.804  1.00 20.00     0.014 C 
HETATM    6  C7  UNL     1     -36.339  15.294  -6.044  1.00 20.00     0.016 C 
HETATM    7  C8  UNL     1     -34.129  15.088  -6.297  1.00 20.00    -0.002 C 
HETATM    8  C9  UNL     1     -34.281  14.984  -4.743  1.00 20.00    -0.020 C 
HETATM    9  C10 UNL     1     -33.821  13.605  -4.237  1.00 20.00     0.020 C 
HETATM   10  C11 UNL     1     -33.505  16.068  -3.982  1.00 20.00     0.020 C 
ENDROOT
BRANCH   2  11
HETATM   11  C3  UNL     1     -38.058  15.285  -3.560  1.00 20.00     0.198 C 
HETATM   12  O12 UNL     1     -38.666  14.199  -3.791  1.00 20.00    -0.644 OA
HETATM   13  O13 UNL     1     -38.536  16.438  -3.365  1.00 20.00    -0.644 OA
ENDBRANCH   2  11
TORSDOF 1
ENDMDL
MODEL 7
REMARK VINA RESULT:      -4.8      1.347      3.257
REMARK  1 active torsions:
REMARK  status: ('A' for Active; 'I' for Inactive)
REMARK    1  A    between atoms: C2_2  and  C3_3 
ROOT
HETATM    1  C1  UNL     1     -34.710  15.612  -5.004  1.00 20.00    -0.061 C 
HETATM    2  C2  UNL     1     -34.360  14.903  -3.924  1.00 20.00     0.088 C 
HETATM    3  C4  UNL     1     -36.406  15.087  -6.720  1.00 20.00     0.009 C 
HETATM    4  C5  UNL     1     -36.664  16.589  -6.938  1.00 20.00     0.006 C 
HETATM    5  C6  UNL     1     -34.363  16.188  -7.247  1.00 20.00     0.014 C 
HETATM    6  C7  UNL     1     -34.903  15.040  -6.397  1.00 20.00     0.016 C 
HETATM    7  C8  UNL     1     -35.296  17.229  -6.609  1.00 20.00    -0.002 C 
HETATM    8  C9  UNL     1     -34.940  17.116  -5.089  1.00 20.00    -0.020 C 
HETATM    9  C10 UNL     1     -33.664  17.913  -4.762  1.00 20.00     0.020 C 
HETATM   10  C11 UNL     1     -36.066  17.597  -4.162  1.00 20.00     0.020 C 
ENDROOT
BRANCH   2  11
HETATM   11  C3  UNL     1     -34.114  13.392  -3.991  1.00 20.00     0.198 C 
HETATM   12  O12 UNL     1     -32.912  13.057  -3.775  1.00 20.00    -0.644 OA
HETATM   13  O13 UNL     1     -35.110  12.658  -4.249  1.00 20.00    -0.644 OA
ENDBRANCH   2  11
TORSDOF 1
ENDMDL
MODEL 8
REMARK VINA RESULT:      -4.8      2.745      4.236
REMARK  1 active torsions:
REMARK  status: ('A' for Active; 'I' for Inactive)
REMARK    1  A    between atoms: C2_2  and  C3_3 
ROOT
HETATM    1  C1  UNL     1     -34.598  16.090  -4.724  1.00 20.00    -0.061 C 
HETATM    2  C2  UNL     1     -34.173  17.300  -5.104  1.00 20.00     0.088 C 
HETATM    3  C4  UNL     1     -35.055  14.100  -6.112  1.00 20.00     0.009 C 
HETATM    4  C5  UNL     1     -34.660  13.181  -4.942  1.00 20.00     0.006 C 
HETATM    5  C6  UNL     1     -36.354  14.636  -4.192  1.00 20.00     0.014 C 
HETATM    6  C7  UNL     1     -35.703  15.301  -5.403  1.00 20.00     0.016 C 
HETATM    7  C8  UNL     1     -35.037  14.019  -3.699  1.00 20.00    -0.002 C 
HETATM    8  C9  UNL     1     -34.117  15.274  -3.530  1.00 20.00    -0.020 C 
HETATM    9  C10 UNL     1     -34.399  15.986  -2.194  1.00 20.00     0.020 C 
HETATM   10  C11 UNL     1     -32.619  14.945  -3.601  1.00 20.00     0.020 C 
ENDROOT
BRANCH   2  11
HETATM   11  C3  UNL     1     -34.781  18.033  -6.306  1.00 20.00     0.198 C 
HETATM   12  O12 UNL     1     -35.722  18.823  -6.003  1.00 20.00    -0.644 OA
HETATM   13  O13 UNL     1     -34.291  17.776  -7.442  1.00 20.00    -0.644 OA
ENDBRANCH   2  11
TORSDOF 1
ENDMDL
MODEL 9
REMARK VINA RESULT:      -4.7      2.397      3.935
REMARK  1 active torsions:
REMARK  status: ('A' for Active; 'I' for Inactive)
REMARK    1  A    between atoms: C2_2  and  C3_3 
ROOT
HETATM    1  C1  UNL     1     -35.369  15.913  -3.569  1.00 20.00    -0.061 C 
HETATM    2  C2  UNL     1     -35.624  16.748  -2.555  1.00 20.00     0.088 C 
HETATM    3  C4  UNL     1     -34.068  13.814  -3.558  1.00 20.00     0.009 C 
HETATM    4  C5  UNL     1     -34.951  13.250  -4.687  1.00 20.00     0.006 C 
HETATM    5  C6  UNL     1     -34.058  15.307  -5.411  1.00 20.00     0.014 C 
HETATM    6  C7  UNL     1     -34.010  15.316  -3.885  1.00 20.00     0.016 C 
HETATM    7  C8  UNL     1     -35.376  14.518  -5.463  1.00 20.00    -0.002 C 
HETATM    8  C9  UNL     1     -36.346  15.423  -4.632  1.00 20.00    -0.020 C 
HETATM    9  C10 UNL     1     -36.888  16.580  -5.491  1.00 20.00     0.020 C 
HETATM   10  C11 UNL     1     -37.535  14.656  -4.037  1.00 20.00     0.020 C 
ENDROOT
BRANCH   2  11
HETATM   11  C3  UNL     1     -34.530  17.198  -1.580  1.00 20.00     0.198 C 
HETATM   12  O12 UNL     1     -34.526  16.563  -0.484  1.00 20.00    -0.644 OA
HETATM   13  O13 UNL     1     -33.769  18.131  -1.962  1.00 20.00    -0.644 OA
ENDBRANCH   2  11
TORSDOF 1
ENDMDL
