MODEL 1
REMARK VINA RESULT:      -4.9      0.000      0.000
REMARK  1 active torsions:
REMARK  status: ('A' for Active; 'I' for Inactive)
REMARK    1  A    between atoms: C3_3  and  C7_7 
ROOT
HETATM    1  C1  UNL     1     -34.715   5.816   6.158  1.00 20.00    -0.020 C 
HETATM    2  C2  UNL     1     -33.746   6.749   6.137  1.00 20.00    -0.086 C 
HETATM    3  C4  UNL     1     -32.944   7.047   4.894  1.00 20.00     0.045 C 
HETATM    4  C5  UNL     1     -34.566   5.566   3.646  1.00 20.00     0.020 C 
HETATM    5  C6  UNL     1     -35.126   4.997   4.962  1.00 20.00     0.005 C 
HETATM    6  C7  UNL     1     -33.106   5.996   3.790  1.00 20.00     0.051 C 
HETATM    7  C8  UNL     1     -33.405   7.562   7.351  1.00 20.00     0.043 C 
HETATM    8  C9  UNL     1     -34.715   3.537   5.165  1.00 20.00     0.014 C 
ENDROOT
BRANCH   6   9
HETATM    9  C3  UNL     1     -32.608   6.559   2.493  1.00 20.00     0.236 C 
HETATM   10  O10 UNL     1     -32.198   7.708   2.368  1.00 20.00    -0.306 OA
ENDBRANCH   6   9
TORSDOF 1
ENDMDL
MODEL 2
REMARK VINA RESULT:      -4.7     11.825     13.239
REMARK  1 active torsions:
REMARK  status: ('A' for Active; 'I' for Inactive)
REMARK    1  A    between atoms: C3_3  and  C7_7 
ROOT
HETATM    1  C1  UNL     1     -33.859  17.481  -3.085  1.00 20.00    -0.020 C 
HETATM    2  C2  UNL     1     -34.290  16.467  -2.314  1.00 20.00    -0.086 C 
HETATM    3  C4  UNL     1     -34.510  15.078  -2.861  1.00 20.00     0.045 C 
HETATM    4  C5  UNL     1     -33.398  15.877  -4.984  1.00 20.00     0.020 C 
HETATM    5  C6  UNL     1     -33.522  17.347  -4.548  1.00 20.00     0.005 C 
HETATM    6  C7  UNL     1     -34.513  15.013  -4.393  1.00 20.00     0.051 C 
HETATM    7  C8  UNL     1     -34.573  16.651  -0.853  1.00 20.00     0.043 C 
HETATM    8  C9  UNL     1     -34.554  18.100  -5.390  1.00 20.00     0.014 C 
ENDROOT
BRANCH   6   9
HETATM    9  C3  UNL     1     -34.343  13.589  -4.829  1.00 20.00     0.236 C 
HETATM   10  O10 UNL     1     -35.031  12.666  -4.405  1.00 20.00    -0.306 OA
ENDBRANCH   6   9
TORSDOF 1
ENDMDL
MODEL 3
REMARK VINA RESULT:      -4.6     11.610     13.120
REMARK  1 active torsions:
REMARK  status: ('A' for Active; 'I' for Inactive)
REMARK    1  A    between atoms: C3_3  and  C7_7 
ROOT
HETATM    1  C1  UNL     1     -34.705  17.612  -3.146  1.00 20.00    -0.020 C 
HETATM    2  C2  UNL     1     -33.968  17.346  -4.238  1.00 20.00    -0.086 C 
HETATM    3  C4  UNL     1     -33.597  15.939  -4.637  1.00 20.00     0.045 C 
HETATM    4  C5  UNL     1     -35.193  15.149  -2.845  1.00 20.00     0.020 C 
HETATM    5  C6  UNL     1     -35.265  16.556  -2.227  1.00 20.00     0.005 C 
HETATM    6  C7  UNL     1     -33.853  14.900  -3.537  1.00 20.00     0.051 C 
HETATM    7  C8  UNL     1     -33.469  18.437  -5.139  1.00 20.00     0.043 C 
HETATM    8  C9  UNL     1     -34.553  16.615  -0.874  1.00 20.00     0.014 C 
ENDROOT
BRANCH   6   9
HETATM    9  C3  UNL     1     -33.834  13.527  -4.139  1.00 20.00     0.236 C 
HETATM   10  O10 UNL     1     -34.825  12.810  -4.217  1.00 20.00    -0.306 OA
ENDBRANCH   6   9
TORSDOF 1
ENDMDL
MODEL 4
REMARK VINA RESULT:      -4.5     12.166     12.972
REMARK  1 active torsions:
REMARK  status: ('A' for Active; 'I' for Inactive)
REMARK    1  A    between atoms: C3_3  and  C7_7 
ROOT
HETATM    1  C1  UNL     1     -33.577  15.968  -2.870  1.00 20.00    -0.020 C 
HETATM    2  C2  UNL     1     -34.675  16.169  -2.122  1.00 20.00    -0.086 C 
HETATM    3  C4  UNL     1     -36.062  15.855  -2.628  1.00 20.00     0.045 C 
HETATM    4  C5  UNL     1     -34.950  14.744  -4.606  1.00 20.00     0.020 C 
HETATM    5  C6  UNL     1     -33.596  15.389  -4.262  1.00 20.00     0.005 C 
HETATM    6  C7  UNL     1     -36.124  15.606  -4.140  1.00 20.00     0.051 C 
HETATM    7  C8  UNL     1     -34.592  16.712  -0.726  1.00 20.00     0.043 C 
HETATM    8  C9  UNL     1     -33.210  16.467  -5.278  1.00 20.00     0.014 C 
ENDROOT
BRANCH   6   9
HETATM    9  C3  UNL     1     -37.420  14.933  -4.479  1.00 20.00     0.236 C 
HETATM   10  O10 UNL     1     -37.994  14.155  -3.725  1.00 20.00    -0.306 OA
ENDBRANCH   6   9
TORSDOF 1
ENDMDL
MODEL 5
REMARK VINA RESULT:      -4.4     11.709     12.716
REMARK  1 active torsions:
REMARK  status: ('A' for Active; 'I' for Inactive)
REMARK    1  A    between atoms: C3_3  and  C7_7 
ROOT
HETATM    1  C1  UNL     1     -33.675  15.771  -2.715  1.00 20.00    -0.020 C 
HETATM    2  C2  UNL     1     -34.009  14.658  -3.390  1.00 20.00    -0.086 C 
HETATM    3  C4  UNL     1     -35.428  14.371  -3.817  1.00 20.00     0.045 C 
HETATM    4  C5  UNL     1     -35.986  16.726  -3.092  1.00 20.00     0.020 C 
HETATM    5  C6  UNL     1     -34.650  16.857  -2.340  1.00 20.00     0.005 C 
HETATM    6  C7  UNL     1     -36.468  15.276  -3.145  1.00 20.00     0.051 C 
HETATM    7  C8  UNL     1     -32.987  13.628  -3.771  1.00 20.00     0.043 C 
HETATM    8  C9  UNL     1     -34.856  16.869  -0.823  1.00 20.00     0.014 C 
ENDROOT
BRANCH   6   9
HETATM    9  C3  UNL     1     -37.759  15.192  -3.901  1.00 20.00     0.236 C 
HETATM   10  O10 UNL     1     -38.545  14.257  -3.795  1.00 20.00    -0.306 OA
ENDBRANCH   6   9
TORSDOF 1
ENDMDL
MODEL 6
REMARK VINA RESULT:      -4.2     11.863     12.657
REMARK  1 active torsions:
REMARK  status: ('A' for Active; 'I' for Inactive)
REMARK    1  A    between atoms: C3_3  and  C7_7 
ROOT
HETATM    1  C1  UNL     1     -36.124  17.050  -2.561  1.00 20.00    -0.020 C 
HETATM    2  C2  UNL     1     -35.050  16.435  -2.037  1.00 20.00    -0.086 C 
HETATM    3  C4  UNL     1     -34.423  15.223  -2.681  1.00 20.00     0.045 C 
HETATM    4  C5  UNL     1     -35.935  15.650  -4.658  1.00 20.00     0.020 C 
HETATM    5  C6  UNL     1     -36.796  16.631  -3.844  1.00 20.00     0.005 C 
HETATM    6  C7  UNL     1     -35.294  14.584  -3.770  1.00 20.00     0.051 C 
HETATM    7  C8  UNL     1     -34.398  16.921  -0.776  1.00 20.00     0.043 C 
HETATM    8  C9  UNL     1     -38.178  16.050  -3.540  1.00 20.00     0.014 C 
ENDROOT
BRANCH   6   9
HETATM    9  C3  UNL     1     -34.452  13.663  -4.600  1.00 20.00     0.236 C 
HETATM   10  O10 UNL     1     -34.773  12.509  -4.866  1.00 20.00    -0.306 OA
ENDBRANCH   6   9
TORSDOF 1
ENDMDL
MODEL 7
REMARK VINA RESULT:      -4.2      9.955     11.388
REMARK  1 active torsions:
REMARK  status: ('A' for Active; 'I' for Inactive)
REMARK    1  A    between atoms: C3_3  and  C7_7 
ROOT
HETATM    1  C1  UNL     1     -41.061   4.261  -1.475  1.00 20.00    -0.020 C 
HETATM    2  C2  UNL     1     -41.892   3.962  -2.489  1.00 20.00    -0.086 C 
HETATM    3  C4  UNL     1     -42.772   5.000  -3.141  1.00 20.00     0.045 C 
HETATM    4  C5  UNL     1     -41.501   6.729  -1.809  1.00 20.00     0.020 C 
HETATM    5  C6  UNL     1     -40.888   5.646  -0.904  1.00 20.00     0.005 C 
HETATM    6  C7  UNL     1     -42.868   6.311  -2.351  1.00 20.00     0.051 C 
HETATM    7  C8  UNL     1     -41.994   2.572  -3.043  1.00 20.00     0.043 C 
HETATM    8  C9  UNL     1     -41.468   5.699   0.511  1.00 20.00     0.014 C 
ENDROOT
BRANCH   6   9
HETATM    9  C3  UNL     1     -43.417   7.386  -3.239  1.00 20.00     0.236 C 
HETATM   10  O10 UNL     1     -43.414   7.319  -4.464  1.00 20.00    -0.306 OA
ENDBRANCH   6   9
TORSDOF 1
ENDMDL
MODEL 8
REMARK VINA RESULT:      -4.2     12.085     13.267
REMARK  1 active torsions:
REMARK  status: ('A' for Active; 'I' for Inactive)
REMARK    1  A    between atoms: C3_3  and  C7_7 
ROOT
HETATM    1  C1  UNL     1     -34.809  15.291  -2.353  1.00 20.00    -0.020 C 
HETATM    2  C2  UNL     1     -34.447  16.529  -1.973  1.00 20.00    -0.086 C 
HETATM    3  C4  UNL     1     -33.943  17.557  -2.956  1.00 20.00     0.045 C 
HETATM    4  C5  UNL     1     -34.627  15.956  -4.786  1.00 20.00     0.020 C 
HETATM    5  C6  UNL     1     -34.784  14.803  -3.779  1.00 20.00     0.005 C 
HETATM    6  C7  UNL     1     -33.582  16.972  -4.327  1.00 20.00     0.051 C 
HETATM    7  C8  UNL     1     -34.530  16.972  -0.543  1.00 20.00     0.043 C 
HETATM    8  C9  UNL     1     -33.686  13.752  -3.950  1.00 20.00     0.014 C 
ENDROOT
BRANCH   6   9
HETATM    9  C3  UNL     1     -33.475  18.084  -5.327  1.00 20.00     0.236 C 
HETATM   10  O10 UNL     1     -33.332  19.262  -5.016  1.00 20.00    -0.306 OA
ENDBRANCH   6   9
TORSDOF 1
ENDMDL
MODEL 9
REMARK VINA RESULT:      -4.2     11.784     13.617
REMARK  1 active torsions:
REMARK  status: ('A' for Active; 'I' for Inactive)
REMARK    1  A    between atoms: C3_3  and  C7_7 
ROOT
HETATM    1  C1  UNL     1     -33.415  16.145  -4.625  1.00 20.00    -0.020 C 
HETATM    2  C2  UNL     1     -34.404  16.622  -5.401  1.00 20.00    -0.086 C 
HETATM    3  C4  UNL     1     -35.855  16.296  -5.147  1.00 20.00     0.045 C 
HETATM    4  C5  UNL     1     -35.108  15.261  -2.968  1.00 20.00     0.020 C 
HETATM    5  C6  UNL     1     -33.636  15.272  -3.416  1.00 20.00     0.005 C 
HETATM    6  C7  UNL     1     -36.063  15.145  -4.156  1.00 20.00     0.051 C 
HETATM    7  C8  UNL     1     -34.127  17.520  -6.571  1.00 20.00     0.043 C 
HETATM    8  C9  UNL     1     -33.120  13.859  -3.695  1.00 20.00     0.014 C 
ENDROOT
BRANCH   6   9
HETATM    9  C3  UNL     1     -37.483  15.155  -3.675  1.00 20.00     0.236 C 
HETATM   10  O10 UNL     1     -38.220  14.176  -3.723  1.00 20.00    -0.306 OA
ENDBRANCH   6   9
TORSDOF 1
ENDMDL
