MODEL 1
REMARK VINA RESULT:      -5.3      0.000      0.000
REMARK  0 active torsions:
REMARK  status: ('A' for Active; 'I' for Inactive)
ROOT
HETATM    1  C1  UNL     1     -35.209   4.694   5.989  1.00 20.00     0.000 C 
HETATM    2  C2  UNL     1     -34.007   5.534   6.432  1.00 20.00     0.003 C 
HETATM    3  C3  UNL     1     -35.057   4.209   4.546  1.00 20.00     0.003 C 
HETATM    4  C4  UNL     1     -33.762   6.705   5.480  1.00 20.00     0.040 C 
HETATM    5  C5  UNL     1     -34.815   5.375   3.586  1.00 20.00     0.040 C 
HETATM    6  C6  UNL     1     -32.322   6.121   3.382  1.00 20.00     0.207 A 
HETATM    7  C7  UNL     1     -33.665   6.207   4.069  1.00 20.00     0.082 A 
HETATM    8  O8  UNL     1     -33.233   7.202   3.129  1.00 20.00    -0.375 OA
ENDROOT
TORSDOF 0
ENDMDL
MODEL 2
REMARK VINA RESULT:      -4.2      1.853      3.410
REMARK  0 active torsions:
REMARK  status: ('A' for Active; 'I' for Inactive)
ROOT
HETATM    1  C1  UNL     1     -33.344   6.634   2.970  1.00 20.00     0.000 C 
HETATM    2  C2  UNL     1     -34.234   5.407   2.757  1.00 20.00     0.003 C 
HETATM    3  C3  UNL     1     -32.675   6.614   4.346  1.00 20.00     0.003 C 
HETATM    4  C4  UNL     1     -35.272   5.269   3.871  1.00 20.00     0.040 C 
HETATM    5  C5  UNL     1     -33.706   6.481   5.467  1.00 20.00     0.040 C 
HETATM    6  C6  UNL     1     -34.421   4.028   6.006  1.00 20.00     0.207 A 
HETATM    7  C7  UNL     1     -34.595   5.300   5.209  1.00 20.00     0.082 A 
HETATM    8  O8  UNL     1     -35.459   4.973   6.307  1.00 20.00    -0.375 OA
ENDROOT
TORSDOF 0
ENDMDL
MODEL 3
REMARK VINA RESULT:      -4.1     12.150     13.405
REMARK  0 active torsions:
REMARK  status: ('A' for Active; 'I' for Inactive)
ROOT
HETATM    1  C1  UNL     1     -33.259  16.691  -5.200  1.00 20.00     0.000 C 
HETATM    2  C2  UNL     1     -33.345  16.077  -3.800  1.00 20.00     0.003 C 
HETATM    3  C3  UNL     1     -34.392  16.198  -6.103  1.00 20.00     0.003 C 
HETATM    4  C4  UNL     1     -33.374  14.550  -3.861  1.00 20.00     0.040 C 
HETATM    5  C5  UNL     1     -34.426  14.671  -6.173  1.00 20.00     0.040 C 
HETATM    6  C6  UNL     1     -35.745  13.520  -4.236  1.00 20.00     0.207 A 
HETATM    7  C7  UNL     1     -34.462  14.094  -4.789  1.00 20.00     0.082 A 
HETATM    8  O8  UNL     1     -34.702  12.680  -4.754  1.00 20.00    -0.375 OA
ENDROOT
TORSDOF 0
ENDMDL
MODEL 4
REMARK VINA RESULT:      -4.0     11.843     12.500
REMARK  0 active torsions:
REMARK  status: ('A' for Active; 'I' for Inactive)
ROOT
HETATM    1  C1  UNL     1     -34.072  16.107  -2.534  1.00 20.00     0.000 C 
HETATM    2  C2  UNL     1     -35.448  15.984  -3.195  1.00 20.00     0.003 C 
HETATM    3  C3  UNL     1     -32.978  15.454  -3.383  1.00 20.00     0.003 C 
HETATM    4  C4  UNL     1     -35.790  14.527  -3.508  1.00 20.00     0.040 C 
HETATM    5  C5  UNL     1     -33.310  13.995  -3.697  1.00 20.00     0.040 C 
HETATM    6  C6  UNL     1     -34.847  13.650  -5.779  1.00 20.00     0.207 A 
HETATM    7  C7  UNL     1     -34.681  13.898  -4.299  1.00 20.00     0.082 A 
HETATM    8  O8  UNL     1     -34.999  12.598  -4.814  1.00 20.00    -0.375 OA
ENDROOT
TORSDOF 0
ENDMDL
MODEL 5
REMARK VINA RESULT:      -4.0      1.127      2.344
REMARK  0 active torsions:
REMARK  status: ('A' for Active; 'I' for Inactive)
ROOT
HETATM    1  C1  UNL     1     -34.226   5.180   6.802  1.00 20.00     0.000 C 
HETATM    2  C2  UNL     1     -35.237   4.290   6.075  1.00 20.00     0.003 C 
HETATM    3  C3  UNL     1     -34.014   6.508   6.070  1.00 20.00     0.003 C 
HETATM    4  C4  UNL     1     -34.832   4.058   4.620  1.00 20.00     0.040 C 
HETATM    5  C5  UNL     1     -33.605   6.285   4.614  1.00 20.00     0.040 C 
HETATM    6  C6  UNL     1     -35.596   5.927   2.964  1.00 20.00     0.207 A 
HETATM    7  C7  UNL     1     -34.585   5.372   3.940  1.00 20.00     0.082 A 
HETATM    8  O8  UNL     1     -34.401   5.267   2.521  1.00 20.00    -0.375 OA
ENDROOT
TORSDOF 0
ENDMDL
MODEL 6
REMARK VINA RESULT:      -3.9     12.375     13.533
REMARK  0 active torsions:
REMARK  status: ('A' for Active; 'I' for Inactive)
ROOT
HETATM    1  C1  UNL     1     -34.691  13.159  -4.848  1.00 20.00     0.000 C 
HETATM    2  C2  UNL     1     -35.245  14.156  -5.869  1.00 20.00     0.003 C 
HETATM    3  C3  UNL     1     -34.237  13.859  -3.565  1.00 20.00     0.003 C 
HETATM    4  C4  UNL     1     -34.236  15.262  -6.174  1.00 20.00     0.040 C 
HETATM    5  C5  UNL     1     -33.223  14.965  -3.861  1.00 20.00     0.040 C 
HETATM    6  C6  UNL     1     -34.276  17.267  -4.501  1.00 20.00     0.207 A 
HETATM    7  C7  UNL     1     -33.771  15.899  -4.898  1.00 20.00     0.082 A 
HETATM    8  O8  UNL     1     -32.981  17.081  -5.092  1.00 20.00    -0.375 OA
ENDROOT
TORSDOF 0
ENDMDL
MODEL 7
REMARK VINA RESULT:      -3.8     11.933     12.608
REMARK  0 active torsions:
REMARK  status: ('A' for Active; 'I' for Inactive)
ROOT
HETATM    1  C1  UNL     1     -33.330  14.636  -3.538  1.00 20.00     0.000 C 
HETATM    2  C2  UNL     1     -34.201  15.861  -3.247  1.00 20.00     0.003 C 
HETATM    3  C3  UNL     1     -33.955  13.740  -4.610  1.00 20.00     0.003 C 
HETATM    4  C4  UNL     1     -35.625  15.456  -2.865  1.00 20.00     0.040 C 
HETATM    5  C5  UNL     1     -35.378  13.327  -4.233  1.00 20.00     0.040 C 
HETATM    6  C6  UNL     1     -37.224  15.052  -4.889  1.00 20.00     0.207 A 
HETATM    7  C7  UNL     1     -36.196  14.541  -3.908  1.00 20.00     0.082 A 
HETATM    8  O8  UNL     1     -37.595  14.272  -3.742  1.00 20.00    -0.375 OA
ENDROOT
TORSDOF 0
ENDMDL
MODEL 8
REMARK VINA RESULT:      -3.8      9.044     10.262
REMARK  0 active torsions:
REMARK  status: ('A' for Active; 'I' for Inactive)
ROOT
HETATM    1  C1  UNL     1     -41.140   7.211  -0.815  1.00 20.00     0.000 C 
HETATM    2  C2  UNL     1     -40.828   5.913  -0.065  1.00 20.00     0.003 C 
HETATM    3  C3  UNL     1     -42.391   7.072  -1.685  1.00 20.00     0.003 C 
HETATM    4  C4  UNL     1     -40.703   4.729  -1.024  1.00 20.00     0.040 C 
HETATM    5  C5  UNL     1     -42.273   5.893  -2.651  1.00 20.00     0.040 C 
HETATM    6  C6  UNL     1     -42.967   3.586  -1.646  1.00 20.00     0.207 A 
HETATM    7  C7  UNL     1     -41.920   4.645  -1.897  1.00 20.00     0.082 A 
HETATM    8  O8  UNL     1     -41.988   3.449  -2.687  1.00 20.00    -0.375 OA
ENDROOT
TORSDOF 0
ENDMDL
MODEL 9
REMARK VINA RESULT:      -3.8      0.980      2.045
REMARK  0 active torsions:
REMARK  status: ('A' for Active; 'I' for Inactive)
ROOT
HETATM    1  C1  UNL     1     -35.150   5.022   5.710  1.00 20.00     0.000 C 
HETATM    2  C2  UNL     1     -35.441   5.035   4.206  1.00 20.00     0.003 C 
HETATM    3  C3  UNL     1     -34.297   6.222   6.129  1.00 20.00     0.003 C 
HETATM    4  C4  UNL     1     -34.152   5.107   3.388  1.00 20.00     0.040 C 
HETATM    5  C5  UNL     1     -33.003   6.299   5.319  1.00 20.00     0.040 C 
HETATM    6  C6  UNL     1     -33.227   7.522   3.023  1.00 20.00     0.207 A 
HETATM    7  C7  UNL     1     -33.314   6.262   3.852  1.00 20.00     0.082 A 
HETATM    8  O8  UNL     1     -32.184   6.536   3.011  1.00 20.00    -0.375 OA
ENDROOT
TORSDOF 0
ENDMDL
