MODEL 1
REMARK VINA RESULT:      -4.4      0.000      0.000
REMARK  2 active torsions:
REMARK  status: ('A' for Active; 'I' for Inactive)
REMARK    1  A    between atoms: C1_1  and  S11_11 
REMARK    2  A    between atoms: C8_8  and  S11_11 
ROOT
HETATM    1  C2  UNL     1     -35.828  18.028  -0.871  1.00 20.00     0.005 C 
HETATM    2  C3  UNL     1     -34.797  17.025  -0.330  1.00 20.00     0.006 C 
HETATM    3  C4  UNL     1     -33.768  18.328  -2.025  1.00 20.00     0.010 C 
HETATM    4  C5  UNL     1     -35.483  17.167  -3.203  1.00 20.00     0.020 C 
HETATM    5  C6  UNL     1     -35.276  18.374  -2.265  1.00 20.00    -0.013 C 
HETATM    6  C7  UNL     1     -33.801  16.890  -1.498  1.00 20.00     0.000 C 
HETATM    7  C8  UNL     1     -34.504  16.119  -2.638  1.00 20.00     0.059 C 
ENDROOT
BRANCH   7   8
HETATM    8  S11 UNL     1     -33.325  15.535  -3.897  1.00 20.00    -0.088 SA
BRANCH   8   9
HETATM    9  C1  UNL     1     -33.698  13.815  -3.891  1.00 20.00     0.182 C 
HETATM   10  C9  UNL     1     -35.149  13.522  -4.152  1.00 20.00     0.104 C 
HETATM   11  O10 UNL     1     -32.865  12.938  -3.695  1.00 20.00    -0.286 OA
ENDBRANCH   8   9
ENDBRANCH   7   8
TORSDOF 2
ENDMDL
MODEL 2
REMARK VINA RESULT:      -4.4     12.344     14.030
REMARK  2 active torsions:
REMARK  status: ('A' for Active; 'I' for Inactive)
REMARK    1  A    between atoms: C1_1  and  S11_11 
REMARK    2  A    between atoms: C8_8  and  S11_11 
ROOT
HETATM    1  C2  UNL     1     -40.936   7.160  -0.823  1.00 20.00     0.005 C 
HETATM    2  C3  UNL     1     -42.283   7.193  -1.562  1.00 20.00     0.006 C 
HETATM    3  C4  UNL     1     -42.452   5.671   0.250  1.00 20.00     0.010 C 
HETATM    4  C5  UNL     1     -40.793   4.674  -1.139  1.00 20.00     0.020 C 
HETATM    5  C6  UNL     1     -40.971   5.801  -0.102  1.00 20.00    -0.013 C 
HETATM    6  C7  UNL     1     -42.907   5.830  -1.203  1.00 20.00     0.000 C 
HETATM    7  C8  UNL     1     -42.109   4.731  -1.940  1.00 20.00     0.059 C 
ENDROOT
BRANCH   7   8
HETATM    8  S11 UNL     1     -42.983   3.134  -1.935  1.00 20.00    -0.088 SA
BRANCH   8   9
HETATM    9  C1  UNL     1     -42.724   2.638  -3.604  1.00 20.00     0.182 C 
HETATM   10  C9  UNL     1     -41.559   1.703  -3.771  1.00 20.00     0.104 C 
HETATM   11  O10 UNL     1     -43.417   3.014  -4.541  1.00 20.00    -0.286 OA
ENDBRANCH   8   9
ENDBRANCH   7   8
TORSDOF 2
ENDMDL
MODEL 3
REMARK VINA RESULT:      -4.3      2.956      4.521
REMARK  2 active torsions:
REMARK  status: ('A' for Active; 'I' for Inactive)
REMARK    1  A    between atoms: C1_1  and  S11_11 
REMARK    2  A    between atoms: C8_8  and  S11_11 
ROOT
HETATM    1  C2  UNL     1     -33.247  13.793  -3.756  1.00 20.00     0.005 C 
HETATM    2  C3  UNL     1     -34.458  13.367  -4.601  1.00 20.00     0.006 C 
HETATM    3  C4  UNL     1     -34.096  15.691  -4.914  1.00 20.00     0.010 C 
HETATM    4  C5  UNL     1     -34.633  15.536  -2.598  1.00 20.00     0.020 C 
HETATM    5  C6  UNL     1     -33.465  15.306  -3.578  1.00 20.00    -0.013 C 
HETATM    6  C7  UNL     1     -35.241  14.683  -4.770  1.00 20.00     0.000 C 
HETATM    7  C8  UNL     1     -35.857  15.051  -3.402  1.00 20.00     0.059 C 
ENDROOT
BRANCH   7   8
HETATM    8  S11 UNL     1     -37.132  16.343  -3.552  1.00 20.00    -0.088 SA
BRANCH   8   9
HETATM    9  C1  UNL     1     -38.582  15.343  -3.539  1.00 20.00     0.182 C 
HETATM   10  C9  UNL     1     -39.808  16.085  -3.087  1.00 20.00     0.104 C 
HETATM   11  O10 UNL     1     -38.597  14.163  -3.863  1.00 20.00    -0.286 OA
ENDBRANCH   8   9
ENDBRANCH   7   8
TORSDOF 2
ENDMDL
MODEL 4
REMARK VINA RESULT:      -4.3      1.469      2.312
REMARK  2 active torsions:
REMARK  status: ('A' for Active; 'I' for Inactive)
REMARK    1  A    between atoms: C1_1  and  S11_11 
REMARK    2  A    between atoms: C8_8  and  S11_11 
ROOT
HETATM    1  C2  UNL     1     -33.667  18.261  -2.318  1.00 20.00     0.005 C 
HETATM    2  C3  UNL     1     -35.084  18.488  -2.868  1.00 20.00     0.006 C 
HETATM    3  C4  UNL     1     -35.148  16.678  -1.335  1.00 20.00     0.010 C 
HETATM    4  C5  UNL     1     -33.730  15.867  -3.069  1.00 20.00     0.020 C 
HETATM    5  C6  UNL     1     -33.712  16.799  -1.841  1.00 20.00    -0.013 C 
HETATM    6  C7  UNL     1     -35.755  17.114  -2.672  1.00 20.00     0.000 C 
HETATM    7  C8  UNL     1     -35.122  16.127  -3.679  1.00 20.00     0.059 C 
ENDROOT
BRANCH   7   8
HETATM    8  S11 UNL     1     -36.097  14.597  -3.839  1.00 20.00    -0.088 SA
BRANCH   8   9
HETATM    9  C1  UNL     1     -35.098  13.718  -4.992  1.00 20.00     0.182 C 
HETATM   10  C9  UNL     1     -34.873  14.468  -6.274  1.00 20.00     0.104 C 
HETATM   11  O10 UNL     1     -34.631  12.606  -4.778  1.00 20.00    -0.286 OA
ENDBRANCH   8   9
ENDBRANCH   7   8
TORSDOF 2
ENDMDL
MODEL 5
REMARK VINA RESULT:      -4.3      0.893      1.232
REMARK  2 active torsions:
REMARK  status: ('A' for Active; 'I' for Inactive)
REMARK    1  A    between atoms: C1_1  and  S11_11 
REMARK    2  A    between atoms: C8_8  and  S11_11 
ROOT
HETATM    1  C2  UNL     1     -34.856  17.333  -0.246  1.00 20.00     0.005 C 
HETATM    2  C3  UNL     1     -33.468  17.762  -0.749  1.00 20.00     0.006 C 
HETATM    3  C4  UNL     1     -35.043  18.103  -2.490  1.00 20.00     0.010 C 
HETATM    4  C5  UNL     1     -35.092  15.742  -2.173  1.00 20.00     0.020 C 
HETATM    5  C6  UNL     1     -35.623  17.049  -1.549  1.00 20.00    -0.013 C 
HETATM    6  C7  UNL     1     -33.600  17.633  -2.279  1.00 20.00     0.000 C 
HETATM    7  C8  UNL     1     -33.671  16.129  -2.627  1.00 20.00     0.059 C 
ENDROOT
BRANCH   7   8
HETATM    8  S11 UNL     1     -33.413  15.827  -4.404  1.00 20.00    -0.088 SA
BRANCH   8   9
HETATM    9  C1  UNL     1     -33.874  14.130  -4.495  1.00 20.00     0.182 C 
HETATM   10  C9  UNL     1     -35.016  13.877  -5.438  1.00 20.00     0.104 C 
HETATM   11  O10 UNL     1     -33.324  13.241  -3.858  1.00 20.00    -0.286 OA
ENDBRANCH   8   9
ENDBRANCH   7   8
TORSDOF 2
ENDMDL
MODEL 6
REMARK VINA RESULT:      -4.2      2.285      4.446
REMARK  2 active torsions:
REMARK  status: ('A' for Active; 'I' for Inactive)
REMARK    1  A    between atoms: C1_1  and  S11_11 
REMARK    2  A    between atoms: C8_8  and  S11_11 
ROOT
HETATM    1  C2  UNL     1     -35.197  13.287  -4.273  1.00 20.00     0.005 C 
HETATM    2  C3  UNL     1     -36.292  14.330  -4.001  1.00 20.00     0.006 C 
HETATM    3  C4  UNL     1     -34.626  15.322  -5.367  1.00 20.00     0.010 C 
HETATM    4  C5  UNL     1     -33.453  14.838  -3.351  1.00 20.00     0.020 C 
HETATM    5  C6  UNL     1     -33.976  14.153  -4.630  1.00 20.00    -0.013 C 
HETATM    6  C7  UNL     1     -35.553  15.667  -4.198  1.00 20.00     0.000 C 
HETATM    7  C8  UNL     1     -34.571  15.846  -3.018  1.00 20.00     0.059 C 
ENDROOT
BRANCH   7   8
HETATM    8  S11 UNL     1     -33.942  17.552  -2.907  1.00 20.00    -0.088 SA
BRANCH   8   9
HETATM    9  C1  UNL     1     -33.731  17.687  -1.164  1.00 20.00     0.182 C 
HETATM   10  C9  UNL     1     -34.753  16.912  -0.381  1.00 20.00     0.104 C 
HETATM   11  O10 UNL     1     -32.843  18.343  -0.635  1.00 20.00    -0.286 OA
ENDBRANCH   8   9
ENDBRANCH   7   8
TORSDOF 2
ENDMDL
MODEL 7
REMARK VINA RESULT:      -4.2      3.119      4.885
REMARK  2 active torsions:
REMARK  status: ('A' for Active; 'I' for Inactive)
REMARK    1  A    between atoms: C1_1  and  S11_11 
REMARK    2  A    between atoms: C8_8  and  S11_11 
ROOT
HETATM    1  C2  UNL     1     -35.864  16.738  -7.909  1.00 20.00     0.005 C 
HETATM    2  C3  UNL     1     -34.449  16.524  -7.349  1.00 20.00     0.006 C 
HETATM    3  C4  UNL     1     -35.397  14.405  -7.836  1.00 20.00     0.010 C 
HETATM    4  C5  UNL     1     -36.822  15.254  -6.127  1.00 20.00     0.020 C 
HETATM    5  C6  UNL     1     -36.550  15.387  -7.638  1.00 20.00    -0.013 C 
HETATM    6  C7  UNL     1     -34.511  15.089  -6.791  1.00 20.00     0.000 C 
HETATM    7  C8  UNL     1     -35.407  15.105  -5.533  1.00 20.00     0.059 C 
ENDROOT
BRANCH   7   8
HETATM    8  S11 UNL     1     -35.233  13.581  -4.551  1.00 20.00    -0.088 SA
BRANCH   8   9
HETATM    9  C1  UNL     1     -33.698  13.905  -3.753  1.00 20.00     0.182 C 
HETATM   10  C9  UNL     1     -33.577  15.317  -3.253  1.00 20.00     0.104 C 
HETATM   11  O10 UNL     1     -32.813  13.070  -3.615  1.00 20.00    -0.286 OA
ENDBRANCH   8   9
ENDBRANCH   7   8
TORSDOF 2
ENDMDL
MODEL 8
REMARK VINA RESULT:      -4.1      2.431      4.576
REMARK  2 active torsions:
REMARK  status: ('A' for Active; 'I' for Inactive)
REMARK    1  A    between atoms: C1_1  and  S11_11 
REMARK    2  A    between atoms: C8_8  and  S11_11 
ROOT
HETATM    1  C2  UNL     1     -34.712  13.703  -5.006  1.00 20.00     0.005 C 
HETATM    2  C3  UNL     1     -34.220  14.948  -5.761  1.00 20.00     0.006 C 
HETATM    3  C4  UNL     1     -32.906  14.681  -3.804  1.00 20.00     0.010 C 
HETATM    4  C5  UNL     1     -35.090  15.073  -2.938  1.00 20.00     0.020 C 
HETATM    5  C6  UNL     1     -34.230  13.958  -3.567  1.00 20.00    -0.013 C 
HETATM    6  C7  UNL     1     -33.550  15.782  -4.652  1.00 20.00     0.000 C 
HETATM    7  C8  UNL     1     -34.662  16.326  -3.727  1.00 20.00     0.059 C 
ENDROOT
BRANCH   7   8
HETATM    8  S11 UNL     1     -34.053  17.650  -2.634  1.00 20.00    -0.088 SA
BRANCH   8   9
HETATM    9  C1  UNL     1     -35.307  17.627  -1.399  1.00 20.00     0.182 C 
HETATM   10  C9  UNL     1     -34.813  17.155  -0.061  1.00 20.00     0.104 C 
HETATM   11  O10 UNL     1     -36.468  17.961  -1.602  1.00 20.00    -0.286 OA
ENDBRANCH   8   9
ENDBRANCH   7   8
TORSDOF 2
ENDMDL
MODEL 9
REMARK VINA RESULT:      -4.0      2.393      4.629
REMARK  2 active torsions:
REMARK  status: ('A' for Active; 'I' for Inactive)
REMARK    1  A    between atoms: C1_1  and  S11_11 
REMARK    2  A    between atoms: C8_8  and  S11_11 
ROOT
HETATM    1  C2  UNL     1     -35.089  14.045  -5.725  1.00 20.00     0.005 C 
HETATM    2  C3  UNL     1     -34.033  15.161  -5.744  1.00 20.00     0.006 C 
HETATM    3  C4  UNL     1     -33.689  13.826  -3.813  1.00 20.00     0.010 C 
HETATM    4  C5  UNL     1     -35.847  14.764  -3.443  1.00 20.00     0.020 C 
HETATM    5  C6  UNL     1     -35.145  13.647  -4.240  1.00 20.00    -0.013 C 
HETATM    6  C7  UNL     1     -33.640  15.290  -4.260  1.00 20.00     0.000 C 
HETATM    7  C8  UNL     1     -34.831  15.923  -3.505  1.00 20.00     0.059 C 
ENDROOT
BRANCH   7   8
HETATM    8  S11 UNL     1     -34.356  16.506  -1.847  1.00 20.00    -0.088 SA
BRANCH   8   9
HETATM    9  C1  UNL     1     -33.981  18.188  -2.210  1.00 20.00     0.182 C 
HETATM   10  C9  UNL     1     -34.810  18.751  -3.330  1.00 20.00     0.104 C 
HETATM   11  O10 UNL     1     -33.132  18.839  -1.615  1.00 20.00    -0.286 OA
ENDBRANCH   8   9
ENDBRANCH   7   8
TORSDOF 2
ENDMDL
