MODEL 1
REMARK VINA RESULT:      -6.1      0.000      0.000
REMARK  3 active torsions:
REMARK  status: ('A' for Active; 'I' for Inactive)
REMARK    1  A    between atoms: C3_3  and  C8_8 
REMARK    2  A    between atoms: C4_4  and  C10_10 
REMARK    3  A    between atoms: C10_10  and  O11_11 
ROOT
HETATM    1  C1  UNL     1     -35.021   4.609   6.017  1.00 20.00    -0.031 C 
HETATM    2  C2  UNL     1     -34.348   5.695   6.418  1.00 20.00    -0.030 C 
HETATM    3  C5  UNL     1     -35.187   4.232   4.574  1.00 20.00     0.027 C 
HETATM    4  C6  UNL     1     -33.660   6.633   5.469  1.00 20.00     0.035 C 
HETATM    5  C7  UNL     1     -34.814   5.365   3.614  1.00 20.00     0.012 C 
HETATM    6  C8  UNL     1     -33.530   6.057   4.058  1.00 20.00     0.011 C 
ENDROOT
BRANCH   6   7
HETATM    7  C3  UNL     1     -33.268   7.208   3.105  1.00 20.00    -0.023 C 
HETATM    8  C4  UNL     1     -32.044   7.581   2.704  1.00 20.00     0.000 C 
BRANCH   8   9
HETATM    9  C10 UNL     1     -31.789   8.719   1.760  1.00 20.00     0.136 C 
HETATM   10  C9  UNL     1     -31.867   8.260   0.310  1.00 20.00     0.043 C 
BRANCH   9  11
HETATM   11  O11 UNL     1     -32.782   9.714   1.990  1.00 20.00    -0.392 OA
HETATM   12  H27 UNL     1     -33.395   9.345   2.646  1.00 20.00     0.210 HD
ENDBRANCH   9  11
ENDBRANCH   8   9
ENDBRANCH   6   7
TORSDOF 3
ENDMDL
MODEL 2
REMARK VINA RESULT:      -5.0     10.761     12.076
REMARK  3 active torsions:
REMARK  status: ('A' for Active; 'I' for Inactive)
REMARK    1  A    between atoms: C3_3  and  C8_8 
REMARK    2  A    between atoms: C4_4  and  C10_10 
REMARK    3  A    between atoms: C10_10  and  O11_11 
ROOT
HETATM    1  C1  UNL     1     -34.811  13.951  -6.026  1.00 20.00    -0.031 C 
HETATM    2  C2  UNL     1     -34.773  13.343  -4.833  1.00 20.00    -0.030 C 
HETATM    3  C5  UNL     1     -34.453  15.394  -6.224  1.00 20.00     0.027 C 
HETATM    4  C6  UNL     1     -34.336  14.032  -3.573  1.00 20.00     0.035 C 
HETATM    5  C7  UNL     1     -34.370  16.176  -4.909  1.00 20.00     0.012 C 
HETATM    6  C8  UNL     1     -33.642  15.368  -3.839  1.00 20.00     0.011 C 
ENDROOT
BRANCH   6   7
HETATM    7  C3  UNL     1     -33.667  16.173  -2.553  1.00 20.00    -0.023 C 
HETATM    8  C4  UNL     1     -34.683  16.151  -1.679  1.00 20.00     0.000 C 
BRANCH   8   9
HETATM    9  C10 UNL     1     -34.704  16.948  -0.407  1.00 20.00     0.136 C 
HETATM   10  C9  UNL     1     -33.608  18.006  -0.401  1.00 20.00     0.043 C 
BRANCH   9  11
HETATM   11  O11 UNL     1     -35.973  17.587  -0.309  1.00 20.00    -0.392 OA
HETATM   12  H27 UNL     1     -35.815  18.535  -0.438  1.00 20.00     0.210 HD
ENDBRANCH   9  11
ENDBRANCH   8   9
ENDBRANCH   6   7
TORSDOF 3
ENDMDL
MODEL 3
REMARK VINA RESULT:      -5.0     11.061     12.072
REMARK  3 active torsions:
REMARK  status: ('A' for Active; 'I' for Inactive)
REMARK    1  A    between atoms: C3_3  and  C8_8 
REMARK    2  A    between atoms: C4_4  and  C10_10 
REMARK    3  A    between atoms: C10_10  and  O11_11 
ROOT
HETATM    1  C1  UNL     1     -34.118  18.762  -0.467  1.00 20.00    -0.031 C 
HETATM    2  C2  UNL     1     -33.782  19.050  -1.732  1.00 20.00    -0.030 C 
HETATM    3  C5  UNL     1     -34.486  17.382  -0.009  1.00 20.00     0.027 C 
HETATM    4  C6  UNL     1     -33.704  18.016  -2.817  1.00 20.00     0.035 C 
HETATM    5  C7  UNL     1     -34.763  16.421  -1.169  1.00 20.00     0.012 C 
HETATM    6  C8  UNL     1     -33.726  16.586  -2.275  1.00 20.00     0.011 C 
ENDROOT
BRANCH   6   7
HETATM    7  C3  UNL     1     -34.110  15.659  -3.413  1.00 20.00    -0.023 C 
HETATM    8  C4  UNL     1     -35.139  14.802  -3.362  1.00 20.00     0.000 C 
BRANCH   8   9
HETATM    9  C10 UNL     1     -35.517  13.887  -4.490  1.00 20.00     0.136 C 
HETATM   10  C9  UNL     1     -34.818  14.287  -5.782  1.00 20.00     0.043 C 
BRANCH   9  11
HETATM   11  O11 UNL     1     -35.124  12.564  -4.135  1.00 20.00    -0.392 OA
HETATM   12  H27 UNL     1     -35.537  12.375  -3.279  1.00 20.00     0.210 HD
ENDBRANCH   9  11
ENDBRANCH   8   9
ENDBRANCH   6   7
TORSDOF 3
ENDMDL
MODEL 4
REMARK VINA RESULT:      -4.8     10.886     11.805
REMARK  3 active torsions:
REMARK  status: ('A' for Active; 'I' for Inactive)
REMARK    1  A    between atoms: C3_3  and  C8_8 
REMARK    2  A    between atoms: C4_4  and  C10_10 
REMARK    3  A    between atoms: C10_10  and  O11_11 
ROOT
HETATM    1  C1  UNL     1     -35.131  13.542  -4.291  1.00 20.00    -0.031 C 
HETATM    2  C2  UNL     1     -36.072  14.408  -3.893  1.00 20.00    -0.030 C 
HETATM    3  C5  UNL     1     -33.676  13.706  -3.969  1.00 20.00     0.027 C 
HETATM    4  C6  UNL     1     -35.775  15.617  -3.054  1.00 20.00     0.035 C 
HETATM    5  C7  UNL     1     -33.332  15.104  -3.446  1.00 20.00     0.012 C 
HETATM    6  C8  UNL     1     -34.375  15.581  -2.440  1.00 20.00     0.011 C 
ENDROOT
BRANCH   6   7
HETATM    7  C3  UNL     1     -34.008  16.995  -2.027  1.00 20.00    -0.023 C 
HETATM    8  C4  UNL     1     -33.890  17.392  -0.752  1.00 20.00     0.000 C 
BRANCH   8   9
HETATM    9  C10 UNL     1     -33.525  18.790  -0.346  1.00 20.00     0.136 C 
HETATM   10  C9  UNL     1     -32.978  18.827   1.074  1.00 20.00     0.043 C 
BRANCH   9  11
HETATM   11  O11 UNL     1     -32.527  19.263  -1.245  1.00 20.00    -0.392 OA
HETATM   12  H27 UNL     1     -32.743  18.895  -2.116  1.00 20.00     0.210 HD
ENDBRANCH   9  11
ENDBRANCH   8   9
ENDBRANCH   6   7
TORSDOF 3
ENDMDL
MODEL 5
REMARK VINA RESULT:      -4.7     10.889     11.942
REMARK  3 active torsions:
REMARK  status: ('A' for Active; 'I' for Inactive)
REMARK    1  A    between atoms: C3_3  and  C8_8 
REMARK    2  A    between atoms: C4_4  and  C10_10 
REMARK    3  A    between atoms: C10_10  and  O11_11 
ROOT
HETATM    1  C1  UNL     1     -33.132  19.063   0.964  1.00 20.00    -0.031 C 
HETATM    2  C2  UNL     1     -32.769  19.006  -0.324  1.00 20.00    -0.030 C 
HETATM    3  C5  UNL     1     -34.222  18.215   1.547  1.00 20.00     0.027 C 
HETATM    4  C6  UNL     1     -33.392  18.064  -1.313  1.00 20.00     0.035 C 
HETATM    5  C7  UNL     1     -35.091  17.540   0.482  1.00 20.00     0.012 C 
HETATM    6  C8  UNL     1     -34.232  16.975  -0.644  1.00 20.00     0.011 C 
ENDROOT
BRANCH   6   7
HETATM    7  C3  UNL     1     -35.163  16.392  -1.691  1.00 20.00    -0.023 C 
HETATM    8  C4  UNL     1     -34.770  15.535  -2.645  1.00 20.00     0.000 C 
BRANCH   8   9
HETATM    9  C10 UNL     1     -35.694  14.959  -3.678  1.00 20.00     0.136 C 
HETATM   10  C9  UNL     1     -35.237  13.575  -4.116  1.00 20.00     0.043 C 
BRANCH   9  11
HETATM   11  O11 UNL     1     -36.993  14.863  -3.101  1.00 20.00    -0.392 OA
HETATM   12  H27 UNL     1     -36.868  14.851  -2.140  1.00 20.00     0.210 HD
ENDBRANCH   9  11
ENDBRANCH   8   9
ENDBRANCH   6   7
TORSDOF 3
ENDMDL
MODEL 6
REMARK VINA RESULT:      -4.7     10.061     11.507
REMARK  3 active torsions:
REMARK  status: ('A' for Active; 'I' for Inactive)
REMARK    1  A    between atoms: C3_3  and  C8_8 
REMARK    2  A    between atoms: C4_4  and  C10_10 
REMARK    3  A    between atoms: C10_10  and  O11_11 
ROOT
HETATM    1  C1  UNL     1     -41.162   7.024  -0.854  1.00 20.00    -0.031 C 
HETATM    2  C2  UNL     1     -40.615   5.834  -0.568  1.00 20.00    -0.030 C 
HETATM    3  C5  UNL     1     -42.243   7.205  -1.877  1.00 20.00     0.027 C 
HETATM    4  C6  UNL     1     -41.051   4.552  -1.217  1.00 20.00     0.035 C 
HETATM    5  C7  UNL     1     -42.420   5.985  -2.785  1.00 20.00     0.012 C 
HETATM    6  C8  UNL     1     -42.371   4.692  -1.976  1.00 20.00     0.011 C 
ENDROOT
BRANCH   6   7
HETATM    7  C3  UNL     1     -42.477   3.532  -2.948  1.00 20.00    -0.023 C 
HETATM    8  C4  UNL     1     -41.506   2.627  -3.139  1.00 20.00     0.000 C 
BRANCH   8   9
HETATM    9  C10 UNL     1     -41.615   1.480  -4.100  1.00 20.00     0.136 C 
HETATM   10  C9  UNL     1     -42.277   0.274  -3.447  1.00 20.00     0.043 C 
BRANCH   9  11
HETATM   11  O11 UNL     1     -42.406   1.906  -5.206  1.00 20.00    -0.392 OA
HETATM   12  H27 UNL     1     -41.852   2.509  -5.725  1.00 20.00     0.210 HD
ENDBRANCH   9  11
ENDBRANCH   8   9
ENDBRANCH   6   7
TORSDOF 3
ENDMDL
MODEL 7
REMARK VINA RESULT:      -4.7     11.257     11.957
REMARK  3 active torsions:
REMARK  status: ('A' for Active; 'I' for Inactive)
REMARK    1  A    between atoms: C3_3  and  C8_8 
REMARK    2  A    between atoms: C4_4  and  C10_10 
REMARK    3  A    between atoms: C10_10  and  O11_11 
ROOT
HETATM    1  C1  UNL     1     -34.397  18.479   1.524  1.00 20.00    -0.031 C 
HETATM    2  C2  UNL     1     -35.065  17.428   1.031  1.00 20.00    -0.030 C 
HETATM    3  C5  UNL     1     -33.335  19.210   0.757  1.00 20.00     0.027 C 
HETATM    4  C6  UNL     1     -34.846  16.891  -0.354  1.00 20.00     0.035 C 
HETATM    5  C7  UNL     1     -32.860  18.447  -0.483  1.00 20.00     0.012 C 
HETATM    6  C8  UNL     1     -34.040  17.843  -1.238  1.00 20.00     0.011 C 
ENDROOT
BRANCH   6   7
HETATM    7  C3  UNL     1     -33.487  17.046  -2.404  1.00 20.00    -0.023 C 
HETATM    8  C4  UNL     1     -33.850  15.786  -2.685  1.00 20.00     0.000 C 
BRANCH   8   9
HETATM    9  C10 UNL     1     -33.302  15.000  -3.840  1.00 20.00     0.136 C 
HETATM   10  C9  UNL     1     -34.419  14.348  -4.643  1.00 20.00     0.043 C 
BRANCH   9  11
HETATM   11  O11 UNL     1     -32.582  15.897  -4.681  1.00 20.00    -0.392 OA
HETATM   12  H27 UNL     1     -31.661  15.879  -4.379  1.00 20.00     0.210 HD
ENDBRANCH   9  11
ENDBRANCH   8   9
ENDBRANCH   6   7
TORSDOF 3
ENDMDL
MODEL 8
REMARK VINA RESULT:      -4.4     10.635     11.955
REMARK  3 active torsions:
REMARK  status: ('A' for Active; 'I' for Inactive)
REMARK    1  A    between atoms: C3_3  and  C8_8 
REMARK    2  A    between atoms: C4_4  and  C10_10 
REMARK    3  A    between atoms: C10_10  and  O11_11 
ROOT
HETATM    1  C1  UNL     1     -36.023  18.729  -0.629  1.00 20.00    -0.031 C 
HETATM    2  C2  UNL     1     -36.284  18.586  -1.935  1.00 20.00    -0.030 C 
HETATM    3  C5  UNL     1     -35.049  17.863   0.113  1.00 20.00     0.027 C 
HETATM    4  C6  UNL     1     -35.604  17.566  -2.802  1.00 20.00     0.035 C 
HETATM    5  C7  UNL     1     -34.645  16.610  -0.669  1.00 20.00     0.012 C 
HETATM    6  C8  UNL     1     -34.378  16.944  -2.134  1.00 20.00     0.011 C 
ENDROOT
BRANCH   6   7
HETATM    7  C3  UNL     1     -34.059  15.648  -2.855  1.00 20.00    -0.023 C 
HETATM    8  C4  UNL     1     -34.991  14.811  -3.333  1.00 20.00     0.000 C 
BRANCH   8   9
HETATM    9  C10 UNL     1     -34.672  13.530  -4.047  1.00 20.00     0.136 C 
HETATM   10  C9  UNL     1     -34.840  13.682  -5.553  1.00 20.00     0.043 C 
BRANCH   9  11
HETATM   11  O11 UNL     1     -33.318  13.191  -3.759  1.00 20.00    -0.392 OA
HETATM   12  H27 UNL     1     -32.786  13.971  -3.979  1.00 20.00     0.210 HD
ENDBRANCH   9  11
ENDBRANCH   8   9
ENDBRANCH   6   7
TORSDOF 3
ENDMDL
MODEL 9
REMARK VINA RESULT:      -4.3      9.967     11.332
REMARK  3 active torsions:
REMARK  status: ('A' for Active; 'I' for Inactive)
REMARK    1  A    between atoms: C3_3  and  C8_8 
REMARK    2  A    between atoms: C4_4  and  C10_10 
REMARK    3  A    between atoms: C10_10  and  O11_11 
ROOT
HETATM    1  C1  UNL     1     -42.250   0.157  -3.803  1.00 20.00    -0.031 C 
HETATM    2  C2  UNL     1     -41.227   0.979  -4.072  1.00 20.00    -0.030 C 
HETATM    3  C5  UNL     1     -43.417   0.551  -2.948  1.00 20.00     0.027 C 
HETATM    4  C6  UNL     1     -41.158   2.394  -3.575  1.00 20.00     0.035 C 
HETATM    5  C7  UNL     1     -43.170   1.836  -2.153  1.00 20.00     0.012 C 
HETATM    6  C8  UNL     1     -42.493   2.892  -3.019  1.00 20.00     0.011 C 
ENDROOT
BRANCH   6   7
HETATM    7  C3  UNL     1     -42.215   4.101  -2.146  1.00 20.00    -0.023 C 
HETATM    8  C4  UNL     1     -41.067   4.291  -1.478  1.00 20.00     0.000 C 
BRANCH   8   9
HETATM    9  C10 UNL     1     -40.795   5.489  -0.616  1.00 20.00     0.136 C 
HETATM   10  C9  UNL     1     -41.285   6.769  -1.279  1.00 20.00     0.043 C 
BRANCH   9  11
HETATM   11  O11 UNL     1     -41.483   5.308   0.618  1.00 20.00    -0.392 OA
HETATM   12  H27 UNL     1     -40.979   5.794   1.289  1.00 20.00     0.210 HD
ENDBRANCH   9  11
ENDBRANCH   8   9
ENDBRANCH   6   7
TORSDOF 3
ENDMDL
