MODEL 1
REMARK VINA RESULT:      -4.0      0.000      0.000
REMARK  2 active torsions:
REMARK  status: ('A' for Active; 'I' for Inactive)
REMARK    1  A    between atoms: C1_1  and  S6_6 
REMARK    2  A    between atoms: N4_4  and  O5_5 
ROOT
HETATM    1  C1  UNL     1     -34.468   5.487   5.558  1.00 20.00     0.093 C 
HETATM    2  C2  UNL     1     -33.924   6.615   6.399  1.00 20.00     0.081 C 
HETATM    3  N4  UNL     1     -34.970   4.390   6.030  1.00 20.00    -0.134 NA
ENDROOT
BRANCH   1   4
HETATM    4  S6  UNL     1     -34.389   5.764   3.820  1.00 20.00    -0.117 SA
HETATM    5  C3  UNL     1     -32.744   6.486   3.635  1.00 20.00     0.097 C 
ENDBRANCH   1   4
BRANCH   3   6
HETATM    6  O5  UNL     1     -35.386   3.547   4.998  1.00 20.00    -0.266 OA
HETATM    7  H13 UNL     1     -35.232   4.103   4.216  1.00 20.00     0.247 HD
ENDBRANCH   3   6
TORSDOF 2
ENDMDL
MODEL 2
REMARK VINA RESULT:      -3.4     12.412     12.573
REMARK  2 active torsions:
REMARK  status: ('A' for Active; 'I' for Inactive)
REMARK    1  A    between atoms: C1_1  and  S6_6 
REMARK    2  A    between atoms: N4_4  and  O5_5 
ROOT
HETATM    1  C1  UNL     1     -33.949  14.255  -3.745  1.00 20.00     0.093 C 
HETATM    2  C2  UNL     1     -32.651  15.015  -3.633  1.00 20.00     0.081 C 
HETATM    3  N4  UNL     1     -34.053  13.025  -4.137  1.00 20.00    -0.134 NA
ENDROOT
BRANCH   1   4
HETATM    4  S6  UNL     1     -35.379  15.174  -3.281  1.00 20.00    -0.117 SA
HETATM    5  C3  UNL     1     -34.760  16.143  -1.888  1.00 20.00     0.097 C 
ENDBRANCH   1   4
BRANCH   3   6
HETATM    6  O5  UNL     1     -35.386  12.610  -4.131  1.00 20.00    -0.266 OA
HETATM    7  H13 UNL     1     -35.771  13.179  -4.819  1.00 20.00     0.247 HD
ENDBRANCH   3   6
TORSDOF 2
ENDMDL
MODEL 3
REMARK VINA RESULT:      -3.3     12.737     13.184
REMARK  2 active torsions:
REMARK  status: ('A' for Active; 'I' for Inactive)
REMARK    1  A    between atoms: C1_1  and  S6_6 
REMARK    2  A    between atoms: N4_4  and  O5_5 
ROOT
HETATM    1  C1  UNL     1     -34.142  14.375  -4.135  1.00 20.00     0.093 C 
HETATM    2  C2  UNL     1     -33.040  15.349  -3.796  1.00 20.00     0.081 C 
HETATM    3  N4  UNL     1     -34.239  13.176  -3.655  1.00 20.00    -0.134 NA
ENDROOT
BRANCH   1   4
HETATM    4  S6  UNL     1     -35.347  14.993  -5.261  1.00 20.00    -0.117 SA
HETATM    5  C3  UNL     1     -34.441  14.969  -6.823  1.00 20.00     0.097 C 
ENDBRANCH   1   4
BRANCH   3   6
HETATM    6  O5  UNL     1     -35.367  12.527  -4.160  1.00 20.00    -0.266 OA
HETATM    7  H13 UNL     1     -35.079  12.307  -5.063  1.00 20.00     0.247 HD
ENDBRANCH   3   6
TORSDOF 2
ENDMDL
MODEL 4
REMARK VINA RESULT:      -3.2      2.439      2.857
REMARK  2 active torsions:
REMARK  status: ('A' for Active; 'I' for Inactive)
REMARK    1  A    between atoms: C1_1  and  S6_6 
REMARK    2  A    between atoms: N4_4  and  O5_5 
ROOT
HETATM    1  C1  UNL     1     -33.786   6.253   4.878  1.00 20.00     0.093 C 
HETATM    2  C2  UNL     1     -33.889   6.667   6.325  1.00 20.00     0.081 C 
HETATM    3  N4  UNL     1     -32.869   6.659   4.059  1.00 20.00    -0.134 NA
ENDROOT
BRANCH   1   4
HETATM    4  S6  UNL     1     -35.033   5.128   4.346  1.00 20.00    -0.117 SA
HETATM    5  C3  UNL     1     -35.038   3.919   5.687  1.00 20.00     0.097 C 
ENDBRANCH   1   4
BRANCH   3   6
HETATM    6  O5  UNL     1     -33.046   6.097   2.793  1.00 20.00    -0.266 OA
HETATM    7  H13 UNL     1     -34.012   5.989   2.760  1.00 20.00     0.247 HD
ENDBRANCH   3   6
TORSDOF 2
ENDMDL
MODEL 5
REMARK VINA RESULT:      -3.1     13.172     13.562
REMARK  2 active torsions:
REMARK  status: ('A' for Active; 'I' for Inactive)
REMARK    1  A    between atoms: C1_1  and  S6_6 
REMARK    2  A    between atoms: N4_4  and  O5_5 
ROOT
HETATM    1  C1  UNL     1     -34.769  14.193  -5.524  1.00 20.00     0.093 C 
HETATM    2  C2  UNL     1     -34.519  14.822  -6.872  1.00 20.00     0.081 C 
HETATM    3  N4  UNL     1     -34.839  12.918  -5.307  1.00 20.00    -0.134 NA
ENDROOT
BRANCH   1   4
HETATM    4  S6  UNL     1     -34.958  15.342  -4.202  1.00 20.00    -0.117 SA
HETATM    5  C3  UNL     1     -33.241  15.706  -3.780  1.00 20.00     0.097 C 
ENDBRANCH   1   4
BRANCH   3   6
HETATM    6  O5  UNL     1     -35.079  12.654  -3.957  1.00 20.00    -0.266 OA
HETATM    7  H13 UNL     1     -34.945  13.531  -3.559  1.00 20.00     0.247 HD
ENDBRANCH   3   6
TORSDOF 2
ENDMDL
MODEL 6
REMARK VINA RESULT:      -3.1     12.600     12.988
REMARK  2 active torsions:
REMARK  status: ('A' for Active; 'I' for Inactive)
REMARK    1  A    between atoms: C1_1  and  S6_6 
REMARK    2  A    between atoms: N4_4  and  O5_5 
ROOT
HETATM    1  C1  UNL     1     -35.044  14.075  -3.988  1.00 20.00     0.093 C 
HETATM    2  C2  UNL     1     -36.505  14.446  -4.045  1.00 20.00     0.081 C 
HETATM    3  N4  UNL     1     -34.556  12.941  -4.379  1.00 20.00    -0.134 NA
ENDROOT
BRANCH   1   4
HETATM    4  S6  UNL     1     -33.992  15.331  -3.341  1.00 20.00    -0.117 SA
HETATM    5  C3  UNL     1     -33.603  16.287  -4.822  1.00 20.00     0.097 C 
ENDBRANCH   1   4
BRANCH   3   6
HETATM    6  O5  UNL     1     -33.172  12.904  -4.198  1.00 20.00    -0.266 OA
HETATM    7  H13 UNL     1     -33.080  12.206  -3.527  1.00 20.00     0.247 HD
ENDBRANCH   3   6
TORSDOF 2
ENDMDL
MODEL 7
REMARK VINA RESULT:      -3.1      1.453      2.139
REMARK  2 active torsions:
REMARK  status: ('A' for Active; 'I' for Inactive)
REMARK    1  A    between atoms: C1_1  and  S6_6 
REMARK    2  A    between atoms: N4_4  and  O5_5 
ROOT
HETATM    1  C1  UNL     1     -34.352   5.471   4.666  1.00 20.00     0.093 C 
HETATM    2  C2  UNL     1     -33.584   6.529   3.913  1.00 20.00     0.081 C 
HETATM    3  N4  UNL     1     -34.939   4.455   4.117  1.00 20.00    -0.134 NA
ENDROOT
BRANCH   1   4
HETATM    4  S6  UNL     1     -34.398   5.701   6.412  1.00 20.00    -0.117 SA
HETATM    5  C3  UNL     1     -33.454   7.227   6.609  1.00 20.00     0.097 C 
ENDBRANCH   1   4
BRANCH   3   6
HETATM    6  O5  UNL     1     -35.563   3.660   5.080  1.00 20.00    -0.266 OA
HETATM    7  H13 UNL     1     -35.416   4.179   5.889  1.00 20.00     0.247 HD
ENDBRANCH   3   6
TORSDOF 2
ENDMDL
MODEL 8
REMARK VINA RESULT:      -3.0      2.205      2.450
REMARK  2 active torsions:
REMARK  status: ('A' for Active; 'I' for Inactive)
REMARK    1  A    between atoms: C1_1  and  S6_6 
REMARK    2  A    between atoms: N4_4  and  O5_5 
ROOT
HETATM    1  C1  UNL     1     -34.430   5.402   5.473  1.00 20.00     0.093 C 
HETATM    2  C2  UNL     1     -35.090   4.104   5.077  1.00 20.00     0.081 C 
HETATM    3  N4  UNL     1     -34.466   5.913   6.663  1.00 20.00    -0.134 NA
ENDROOT
BRANCH   1   4
HETATM    4  S6  UNL     1     -33.562   6.211   4.172  1.00 20.00    -0.117 SA
HETATM    5  C3  UNL     1     -34.238   5.393   2.711  1.00 20.00     0.097 C 
ENDBRANCH   1   4
BRANCH   3   6
HETATM    6  O5  UNL     1     -33.761   7.118   6.709  1.00 20.00    -0.266 OA
HETATM    7  H13 UNL     1     -34.229   7.591   7.418  1.00 20.00     0.247 HD
ENDBRANCH   3   6
TORSDOF 2
ENDMDL
MODEL 9
REMARK VINA RESULT:      -3.0     12.868     12.938
REMARK  2 active torsions:
REMARK  status: ('A' for Active; 'I' for Inactive)
REMARK    1  A    between atoms: C1_1  and  S6_6 
REMARK    2  A    between atoms: N4_4  and  O5_5 
ROOT
HETATM    1  C1  UNL     1     -35.671  14.170  -3.977  1.00 20.00     0.093 C 
HETATM    2  C2  UNL     1     -34.804  13.300  -4.854  1.00 20.00     0.081 C 
HETATM    3  N4  UNL     1     -36.958  14.068  -3.880  1.00 20.00    -0.134 NA
ENDROOT
BRANCH   1   4
HETATM    4  S6  UNL     1     -34.792  15.378  -3.044  1.00 20.00    -0.117 SA
HETATM    5  C3  UNL     1     -33.112  15.185  -3.679  1.00 20.00     0.097 C 
ENDBRANCH   1   4
BRANCH   3   6
HETATM    6  O5  UNL     1     -37.468  15.014  -2.989  1.00 20.00    -0.266 OA
HETATM    7  H13 UNL     1     -37.412  15.830  -3.515  1.00 20.00     0.247 HD
ENDBRANCH   3   6
TORSDOF 2
ENDMDL
