MODEL 1
REMARK VINA RESULT:      -4.5      0.000      0.000
REMARK  2 active torsions:
REMARK  status: ('A' for Active; 'I' for Inactive)
REMARK    1  A    between atoms: C1_1  and  S11_11 
REMARK    2  A    between atoms: C8_8  and  S11_11 
ROOT
HETATM    1  C2  UNL     1     -35.313  18.757  -1.910  1.00 20.00     0.005 C 
HETATM    2  C3  UNL     1     -35.791  17.516  -1.145  1.00 20.00     0.006 C 
HETATM    3  C4  UNL     1     -33.440  17.656  -0.938  1.00 20.00     0.010 C 
HETATM    4  C5  UNL     1     -33.755  17.365  -3.289  1.00 20.00     0.020 C 
HETATM    5  C6  UNL     1     -33.834  18.443  -2.189  1.00 20.00    -0.013 C 
HETATM    6  C7  UNL     1     -34.545  16.612  -1.136  1.00 20.00     0.000 C 
HETATM    7  C8  UNL     1     -34.181  16.085  -2.543  1.00 20.00     0.059 C 
ENDROOT
BRANCH   7   8
HETATM    8  S11 UNL     1     -35.490  15.163  -3.396  1.00 20.00    -0.088 SA
BRANCH   8   9
HETATM    9  C1  UNL     1     -34.602  13.711  -3.853  1.00 20.00     0.182 C 
HETATM   10  C9  UNL     1     -33.121  13.821  -3.631  1.00 20.00     0.104 C 
HETATM   11  O10 UNL     1     -35.137  12.707  -4.306  1.00 20.00    -0.286 OA
ENDBRANCH   8   9
ENDBRANCH   7   8
TORSDOF 2
ENDMDL
MODEL 2
REMARK VINA RESULT:      -4.3      2.394      4.477
REMARK  2 active torsions:
REMARK  status: ('A' for Active; 'I' for Inactive)
REMARK    1  A    between atoms: C1_1  and  S11_11 
REMARK    2  A    between atoms: C8_8  and  S11_11 
ROOT
HETATM    1  C2  UNL     1     -34.403  14.901  -5.914  1.00 20.00     0.005 C 
HETATM    2  C3  UNL     1     -33.583  15.764  -4.946  1.00 20.00     0.006 C 
HETATM    3  C4  UNL     1     -33.738  13.583  -4.047  1.00 20.00     0.010 C 
HETATM    4  C5  UNL     1     -36.015  14.307  -4.093  1.00 20.00     0.020 C 
HETATM    5  C6  UNL     1     -34.908  13.759  -5.016  1.00 20.00    -0.013 C 
HETATM    6  C7  UNL     1     -33.772  15.048  -3.596  1.00 20.00     0.000 C 
HETATM    7  C8  UNL     1     -35.223  15.143  -3.069  1.00 20.00     0.059 C 
ENDROOT
BRANCH   7   8
HETATM    8  S11 UNL     1     -35.872  16.826  -2.865  1.00 20.00    -0.088 SA
BRANCH   8   9
HETATM    9  C1  UNL     1     -34.635  17.511  -1.813  1.00 20.00     0.182 C 
HETATM   10  C9  UNL     1     -34.652  16.945  -0.422  1.00 20.00     0.104 C 
HETATM   11  O10 UNL     1     -33.836  18.365  -2.176  1.00 20.00    -0.286 OA
ENDBRANCH   8   9
ENDBRANCH   7   8
TORSDOF 2
ENDMDL
MODEL 3
REMARK VINA RESULT:      -4.3      1.311      2.147
REMARK  2 active torsions:
REMARK  status: ('A' for Active; 'I' for Inactive)
REMARK    1  A    between atoms: C1_1  and  S11_11 
REMARK    2  A    between atoms: C8_8  and  S11_11 
ROOT
HETATM    1  C2  UNL     1     -34.822  16.842  -0.843  1.00 20.00     0.005 C 
HETATM    2  C3  UNL     1     -33.474  17.048  -1.546  1.00 20.00     0.006 C 
HETATM    3  C4  UNL     1     -35.125  18.246  -2.742  1.00 20.00     0.010 C 
HETATM    4  C5  UNL     1     -35.846  15.978  -2.958  1.00 20.00     0.020 C 
HETATM    5  C6  UNL     1     -35.841  17.148  -1.953  1.00 20.00    -0.013 C 
HETATM    6  C7  UNL     1     -33.883  17.383  -2.992  1.00 20.00     0.000 C 
HETATM    7  C8  UNL     1     -34.524  16.180  -3.724  1.00 20.00     0.059 C 
ENDROOT
BRANCH   7   8
HETATM    8  S11 UNL     1     -33.506  14.680  -3.801  1.00 20.00    -0.088 SA
BRANCH   8   9
HETATM    9  C1  UNL     1     -34.479  13.699  -4.894  1.00 20.00     0.182 C 
HETATM   10  C9  UNL     1     -34.783  14.379  -6.198  1.00 20.00     0.104 C 
HETATM   11  O10 UNL     1     -34.872  12.571  -4.622  1.00 20.00    -0.286 OA
ENDBRANCH   8   9
ENDBRANCH   7   8
TORSDOF 2
ENDMDL
MODEL 4
REMARK VINA RESULT:      -4.3      1.146      1.346
REMARK  2 active torsions:
REMARK  status: ('A' for Active; 'I' for Inactive)
REMARK    1  A    between atoms: C1_1  and  S11_11 
REMARK    2  A    between atoms: C8_8  and  S11_11 
ROOT
HETATM    1  C2  UNL     1     -35.022  18.419  -2.928  1.00 20.00     0.005 C 
HETATM    2  C3  UNL     1     -35.969  17.551  -2.088  1.00 20.00     0.006 C 
HETATM    3  C4  UNL     1     -33.750  17.104  -1.405  1.00 20.00     0.010 C 
HETATM    4  C5  UNL     1     -33.763  16.392  -3.686  1.00 20.00     0.020 C 
HETATM    5  C6  UNL     1     -33.684  17.669  -2.825  1.00 20.00    -0.013 C 
HETATM    6  C7  UNL     1     -35.074  16.374  -1.660  1.00 20.00     0.000 C 
HETATM    7  C8  UNL     1     -34.670  15.470  -2.848  1.00 20.00     0.059 C 
ENDROOT
BRANCH   7   8
HETATM    8  S11 UNL     1     -36.045  14.764  -3.797  1.00 20.00    -0.088 SA
BRANCH   8   9
HETATM    9  C1  UNL     1     -35.157  13.712  -4.897  1.00 20.00     0.182 C 
HETATM   10  C9  UNL     1     -35.122  14.218  -6.311  1.00 20.00     0.104 C 
HETATM   11  O10 UNL     1     -34.619  12.669  -4.548  1.00 20.00    -0.286 OA
ENDBRANCH   8   9
ENDBRANCH   7   8
TORSDOF 2
ENDMDL
MODEL 5
REMARK VINA RESULT:      -4.2     12.469     14.089
REMARK  2 active torsions:
REMARK  status: ('A' for Active; 'I' for Inactive)
REMARK    1  A    between atoms: C1_1  and  S11_11 
REMARK    2  A    between atoms: C8_8  and  S11_11 
ROOT
HETATM    1  C2  UNL     1     -41.199   6.947  -1.393  1.00 20.00     0.005 C 
HETATM    2  C3  UNL     1     -42.709   6.725  -1.555  1.00 20.00     0.006 C 
HETATM    3  C4  UNL     1     -42.020   5.699   0.461  1.00 20.00     0.010 C 
HETATM    4  C5  UNL     1     -40.810   4.481  -1.202  1.00 20.00     0.020 C 
HETATM    5  C6  UNL     1     -40.785   5.818  -0.434  1.00 20.00    -0.013 C 
HETATM    6  C7  UNL     1     -42.966   5.456  -0.722  1.00 20.00     0.000 C 
HETATM    7  C8  UNL     1     -42.319   4.196  -1.341  1.00 20.00     0.059 C 
ENDROOT
BRANCH   7   8
HETATM    8  S11 UNL     1     -42.820   3.816  -3.043  1.00 20.00    -0.088 SA
BRANCH   8   9
HETATM    9  C1  UNL     1     -42.460   2.092  -3.097  1.00 20.00     0.182 C 
HETATM   10  C9  UNL     1     -41.294   1.752  -3.981  1.00 20.00     0.104 C 
HETATM   11  O10 UNL     1     -43.094   1.249  -2.475  1.00 20.00    -0.286 OA
ENDBRANCH   8   9
ENDBRANCH   7   8
TORSDOF 2
ENDMDL
MODEL 6
REMARK VINA RESULT:      -4.2     12.697     13.906
REMARK  2 active torsions:
REMARK  status: ('A' for Active; 'I' for Inactive)
REMARK    1  A    between atoms: C1_1  and  S11_11 
REMARK    2  A    between atoms: C8_8  and  S11_11 
ROOT
HETATM    1  C2  UNL     1     -43.015   6.973  -0.373  1.00 20.00     0.005 C 
HETATM    2  C3  UNL     1     -42.935   5.733   0.529  1.00 20.00     0.006 C 
HETATM    3  C4  UNL     1     -40.753   6.244  -0.227  1.00 20.00     0.010 C 
HETATM    4  C5  UNL     1     -41.916   5.734  -2.251  1.00 20.00     0.020 C 
HETATM    5  C6  UNL     1     -41.736   6.867  -1.220  1.00 20.00    -0.013 C 
HETATM    6  C7  UNL     1     -41.653   5.032   0.043  1.00 20.00     0.000 C 
HETATM    7  C8  UNL     1     -41.791   4.464  -1.388  1.00 20.00     0.059 C 
ENDROOT
BRANCH   7   8
HETATM    8  S11 UNL     1     -43.154   3.293  -1.637  1.00 20.00    -0.088 SA
BRANCH   8   9
HETATM    9  C1  UNL     1     -42.854   2.814  -3.306  1.00 20.00     0.182 C 
HETATM   10  C9  UNL     1     -41.841   1.714  -3.440  1.00 20.00     0.104 C 
HETATM   11  O10 UNL     1     -43.416   3.326  -4.267  1.00 20.00    -0.286 OA
ENDBRANCH   8   9
ENDBRANCH   7   8
TORSDOF 2
ENDMDL
MODEL 7
REMARK VINA RESULT:      -4.1      2.707      3.722
REMARK  2 active torsions:
REMARK  status: ('A' for Active; 'I' for Inactive)
REMARK    1  A    between atoms: C1_1  and  S11_11 
REMARK    2  A    between atoms: C8_8  and  S11_11 
ROOT
HETATM    1  C2  UNL     1     -33.856  16.076  -2.671  1.00 20.00     0.005 C 
HETATM    2  C3  UNL     1     -35.117  15.204  -2.731  1.00 20.00     0.006 C 
HETATM    3  C4  UNL     1     -33.332  13.996  -3.704  1.00 20.00     0.010 C 
HETATM    4  C5  UNL     1     -33.552  15.888  -5.149  1.00 20.00     0.020 C 
HETATM    5  C6  UNL     1     -32.971  15.481  -3.779  1.00 20.00    -0.013 C 
HETATM    6  C7  UNL     1     -34.829  14.257  -3.910  1.00 20.00     0.000 C 
HETATM    7  C8  UNL     1     -34.800  14.991  -5.271  1.00 20.00     0.059 C 
ENDROOT
BRANCH   7   8
HETATM    8  S11 UNL     1     -36.304  15.913  -5.694  1.00 20.00    -0.088 SA
BRANCH   8   9
HETATM    9  C1  UNL     1     -36.761  15.096  -7.187  1.00 20.00     0.182 C 
HETATM   10  C9  UNL     1     -35.600  14.467  -7.904  1.00 20.00     0.104 C 
HETATM   11  O10 UNL     1     -37.912  15.041  -7.602  1.00 20.00    -0.286 OA
ENDBRANCH   8   9
ENDBRANCH   7   8
TORSDOF 2
ENDMDL
MODEL 8
REMARK VINA RESULT:      -4.1      2.602      3.656
REMARK  2 active torsions:
REMARK  status: ('A' for Active; 'I' for Inactive)
REMARK    1  A    between atoms: C1_1  and  S11_11 
REMARK    2  A    between atoms: C8_8  and  S11_11 
ROOT
HETATM    1  C2  UNL     1     -33.523  16.307  -2.796  1.00 20.00     0.005 C 
HETATM    2  C3  UNL     1     -34.791  15.584  -2.322  1.00 20.00     0.006 C 
HETATM    3  C4  UNL     1     -33.597  14.129  -3.754  1.00 20.00     0.010 C 
HETATM    4  C5  UNL     1     -34.161  15.953  -5.191  1.00 20.00     0.020 C 
HETATM    5  C6  UNL     1     -33.159  15.556  -4.088  1.00 20.00    -0.013 C 
HETATM    6  C7  UNL     1     -35.037  14.548  -3.435  1.00 20.00     0.000 C 
HETATM    7  C8  UNL     1     -35.441  15.201  -4.777  1.00 20.00     0.059 C 
ENDROOT
BRANCH   7   8
HETATM    8  S11 UNL     1     -36.909  16.266  -4.719  1.00 20.00    -0.088 SA
BRANCH   8   9
HETATM    9  C1  UNL     1     -38.179  15.045  -4.693  1.00 20.00     0.182 C 
HETATM   10  C9  UNL     1     -39.077  15.091  -5.896  1.00 20.00     0.104 C 
HETATM   11  O10 UNL     1     -38.319  14.235  -3.786  1.00 20.00    -0.286 OA
ENDBRANCH   8   9
ENDBRANCH   7   8
TORSDOF 2
ENDMDL
MODEL 9
REMARK VINA RESULT:      -4.0      3.139      4.492
REMARK  2 active torsions:
REMARK  status: ('A' for Active; 'I' for Inactive)
REMARK    1  A    between atoms: C1_1  and  S11_11 
REMARK    2  A    between atoms: C8_8  and  S11_11 
ROOT
HETATM    1  C2  UNL     1     -32.806  14.822  -3.736  1.00 20.00     0.005 C 
HETATM    2  C3  UNL     1     -33.376  16.096  -4.375  1.00 20.00     0.006 C 
HETATM    3  C4  UNL     1     -35.112  15.026  -3.177  1.00 20.00     0.010 C 
HETATM    4  C5  UNL     1     -34.552  13.423  -4.859  1.00 20.00     0.020 C 
HETATM    5  C6  UNL     1     -34.060  13.963  -3.501  1.00 20.00    -0.013 C 
HETATM    6  C7  UNL     1     -34.879  15.785  -4.489  1.00 20.00     0.000 C 
HETATM    7  C8  UNL     1     -35.181  14.668  -5.515  1.00 20.00     0.059 C 
ENDROOT
BRANCH   7   8
HETATM    8  S11 UNL     1     -34.578  14.970  -7.199  1.00 20.00    -0.088 SA
BRANCH   8   9
HETATM    9  C1  UNL     1     -35.442  16.459  -7.577  1.00 20.00     0.182 C 
HETATM   10  C9  UNL     1     -34.536  17.639  -7.788  1.00 20.00     0.104 C 
HETATM   11  O10 UNL     1     -36.661  16.529  -7.662  1.00 20.00    -0.286 OA
ENDBRANCH   8   9
ENDBRANCH   7   8
TORSDOF 2
ENDMDL
