MODEL 1
REMARK VINA RESULT:      -5.2      0.000      0.000
REMARK  1 active torsions:
REMARK  status: ('A' for Active; 'I' for Inactive)
REMARK    1  A    between atoms: C3_3  and  C6_6 
ROOT
HETATM    1  C1  UNL     1     -35.217   4.181   4.416  1.00 20.00    -0.030 C 
HETATM    2  C2  UNL     1     -35.246   4.202   5.754  1.00 20.00    -0.030 C 
HETATM    3  C4  UNL     1     -34.466   5.185   3.595  1.00 20.00     0.038 C 
HETATM    4  C5  UNL     1     -34.551   5.248   6.572  1.00 20.00     0.031 C 
HETATM    5  C6  UNL     1     -33.492   6.048   4.414  1.00 20.00     0.054 C 
HETATM    6  C7  UNL     1     -34.115   6.481   5.755  1.00 20.00    -0.004 C 
HETATM    7  C8  UNL     1     -33.159   7.337   6.592  1.00 20.00     0.011 C 
ENDROOT
BRANCH   5   8
HETATM    8  C3  UNL     1     -33.116   7.235   3.578  1.00 20.00     0.236 C 
HETATM    9  O9  UNL     1     -32.215   7.216   2.745  1.00 20.00    -0.306 OA
ENDBRANCH   5   8
TORSDOF 1
ENDMDL
MODEL 2
REMARK VINA RESULT:      -5.0      0.819      2.467
REMARK  1 active torsions:
REMARK  status: ('A' for Active; 'I' for Inactive)
REMARK    1  A    between atoms: C3_3  and  C6_6 
ROOT
HETATM    1  C1  UNL     1     -34.288   5.931   6.484  1.00 20.00    -0.030 C 
HETATM    2  C2  UNL     1     -35.167   5.055   5.985  1.00 20.00    -0.030 C 
HETATM    3  C4  UNL     1     -33.300   6.676   5.639  1.00 20.00     0.038 C 
HETATM    4  C5  UNL     1     -35.239   4.706   4.529  1.00 20.00     0.031 C 
HETATM    5  C6  UNL     1     -33.582   6.581   4.130  1.00 20.00     0.054 C 
HETATM    6  C7  UNL     1     -34.001   5.155   3.725  1.00 20.00    -0.004 C 
HETATM    7  C8  UNL     1     -34.296   5.037   2.226  1.00 20.00     0.011 C 
ENDROOT
BRANCH   5   8
HETATM    8  C3  UNL     1     -32.344   7.014   3.403  1.00 20.00     0.236 C 
HETATM    9  O9  UNL     1     -32.333   7.906   2.561  1.00 20.00    -0.306 OA
ENDBRANCH   5   8
TORSDOF 1
ENDMDL
MODEL 3
REMARK VINA RESULT:      -4.7      1.631      2.752
REMARK  1 active torsions:
REMARK  status: ('A' for Active; 'I' for Inactive)
REMARK    1  A    between atoms: C3_3  and  C6_6 
ROOT
HETATM    1  C1  UNL     1     -35.290   4.259   5.698  1.00 20.00    -0.030 C 
HETATM    2  C2  UNL     1     -35.258   4.174   4.363  1.00 20.00    -0.030 C 
HETATM    3  C4  UNL     1     -34.583   5.332   6.469  1.00 20.00     0.038 C 
HETATM    4  C5  UNL     1     -34.489   5.127   3.499  1.00 20.00     0.031 C 
HETATM    5  C6  UNL     1     -34.077   6.490   5.595  1.00 20.00     0.054 C 
HETATM    6  C7  UNL     1     -33.463   5.976   4.279  1.00 20.00    -0.004 C 
HETATM    7  C8  UNL     1     -32.959   7.114   3.387  1.00 20.00     0.011 C 
ENDROOT
BRANCH   5   8
HETATM    8  C3  UNL     1     -33.076   7.268   6.396  1.00 20.00     0.236 C 
HETATM    9  O9  UNL     1     -33.355   7.859   7.435  1.00 20.00    -0.306 OA
ENDBRANCH   5   8
TORSDOF 1
ENDMDL
MODEL 4
REMARK VINA RESULT:      -4.5      1.970      3.214
REMARK  1 active torsions:
REMARK  status: ('A' for Active; 'I' for Inactive)
REMARK    1  A    between atoms: C3_3  and  C6_6 
ROOT
HETATM    1  C1  UNL     1     -32.785   6.070   2.401  1.00 20.00    -0.030 C 
HETATM    2  C2  UNL     1     -32.146   6.968   3.161  1.00 20.00    -0.030 C 
HETATM    3  C4  UNL     1     -33.962   5.277   2.883  1.00 20.00     0.038 C 
HETATM    4  C5  UNL     1     -32.523   7.255   4.583  1.00 20.00     0.031 C 
HETATM    5  C6  UNL     1     -34.558   5.795   4.203  1.00 20.00     0.054 C 
HETATM    6  C7  UNL     1     -33.454   6.193   5.201  1.00 20.00    -0.004 C 
HETATM    7  C8  UNL     1     -34.025   6.720   6.521  1.00 20.00     0.011 C 
ENDROOT
BRANCH   5   8
HETATM    8  C3  UNL     1     -35.439   4.719   4.763  1.00 20.00     0.236 C 
HETATM    9  O9  UNL     1     -35.082   3.552   4.891  1.00 20.00    -0.306 OA
ENDBRANCH   5   8
TORSDOF 1
ENDMDL
MODEL 5
REMARK VINA RESULT:      -4.3     12.157     12.667
REMARK  1 active torsions:
REMARK  status: ('A' for Active; 'I' for Inactive)
REMARK    1  A    between atoms: C3_3  and  C6_6 
ROOT
HETATM    1  C1  UNL     1     -34.078  13.422  -4.313  1.00 20.00    -0.030 C 
HETATM    2  C2  UNL     1     -33.184  14.265  -3.784  1.00 20.00    -0.030 C 
HETATM    3  C4  UNL     1     -35.555  13.674  -4.294  1.00 20.00     0.038 C 
HETATM    4  C5  UNL     1     -33.567  15.538  -3.092  1.00 20.00     0.031 C 
HETATM    5  C6  UNL     1     -35.932  15.110  -3.894  1.00 20.00     0.054 C 
HETATM    6  C7  UNL     1     -35.064  15.615  -2.727  1.00 20.00    -0.004 C 
HETATM    7  C8  UNL     1     -35.416  17.048  -2.315  1.00 20.00     0.011 C 
ENDROOT
BRANCH   5   8
HETATM    8  C3  UNL     1     -37.388  15.121  -3.536  1.00 20.00     0.236 C 
HETATM    9  O9  UNL     1     -38.144  14.179  -3.755  1.00 20.00    -0.306 OA
ENDBRANCH   5   8
TORSDOF 1
ENDMDL
MODEL 6
REMARK VINA RESULT:      -4.3     12.105     13.726
REMARK  1 active torsions:
REMARK  status: ('A' for Active; 'I' for Inactive)
REMARK    1  A    between atoms: C3_3  and  C6_6 
ROOT
HETATM    1  C1  UNL     1     -34.000  16.249  -2.565  1.00 20.00    -0.030 C 
HETATM    2  C2  UNL     1     -33.723  17.294  -3.354  1.00 20.00    -0.030 C 
HETATM    3  C4  UNL     1     -34.341  14.889  -3.095  1.00 20.00     0.038 C 
HETATM    4  C5  UNL     1     -33.749  17.221  -4.850  1.00 20.00     0.031 C 
HETATM    5  C6  UNL     1     -34.048  14.719  -4.595  1.00 20.00     0.054 C 
HETATM    6  C7  UNL     1     -34.464  15.968  -5.395  1.00 20.00    -0.004 C 
HETATM    7  C8  UNL     1     -34.174  15.824  -6.892  1.00 20.00     0.011 C 
ENDROOT
BRANCH   5   8
HETATM    8  C3  UNL     1     -34.778  13.498  -5.070  1.00 20.00     0.236 C 
HETATM    9  O9  UNL     1     -35.092  12.569  -4.332  1.00 20.00    -0.306 OA
ENDBRANCH   5   8
TORSDOF 1
ENDMDL
MODEL 7
REMARK VINA RESULT:      -4.2     11.888     13.887
REMARK  1 active torsions:
REMARK  status: ('A' for Active; 'I' for Inactive)
REMARK    1  A    between atoms: C3_3  and  C6_6 
ROOT
HETATM    1  C1  UNL     1     -34.271  15.947  -6.862  1.00 20.00    -0.030 C 
HETATM    2  C2  UNL     1     -33.880  17.100  -6.306  1.00 20.00    -0.030 C 
HETATM    3  C4  UNL     1     -34.578  14.715  -6.065  1.00 20.00     0.038 C 
HETATM    4  C5  UNL     1     -33.683  17.273  -4.831  1.00 20.00     0.031 C 
HETATM    5  C6  UNL     1     -34.703  14.971  -4.554  1.00 20.00     0.054 C 
HETATM    6  C7  UNL     1     -33.615  15.941  -4.057  1.00 20.00    -0.004 C 
HETATM    7  C8  UNL     1     -33.724  16.218  -2.554  1.00 20.00     0.011 C 
ENDROOT
BRANCH   5   8
HETATM    8  C3  UNL     1     -34.615  13.647  -3.855  1.00 20.00     0.236 C 
HETATM    9  O9  UNL     1     -35.020  12.597  -4.344  1.00 20.00    -0.306 OA
ENDBRANCH   5   8
TORSDOF 1
ENDMDL
MODEL 8
REMARK VINA RESULT:      -4.1     12.476     12.892
REMARK  1 active torsions:
REMARK  status: ('A' for Active; 'I' for Inactive)
REMARK    1  A    between atoms: C3_3  and  C6_6 
ROOT
HETATM    1  C1  UNL     1     -33.407  16.033  -2.784  1.00 20.00    -0.030 C 
HETATM    2  C2  UNL     1     -34.493  16.580  -2.225  1.00 20.00    -0.030 C 
HETATM    3  C4  UNL     1     -33.472  15.023  -3.889  1.00 20.00     0.038 C 
HETATM    4  C5  UNL     1     -35.891  16.219  -2.628  1.00 20.00     0.031 C 
HETATM    5  C6  UNL     1     -34.864  14.898  -4.529  1.00 20.00     0.054 C 
HETATM    6  C7  UNL     1     -35.978  14.928  -3.466  1.00 20.00    -0.004 C 
HETATM    7  C8  UNL     1     -37.375  14.811  -4.082  1.00 20.00     0.011 C 
ENDROOT
BRANCH   5   8
HETATM    8  C3  UNL     1     -34.894  13.621  -5.316  1.00 20.00     0.236 C 
HETATM    9  O9  UNL     1     -34.759  12.512  -4.809  1.00 20.00    -0.306 OA
ENDBRANCH   5   8
TORSDOF 1
ENDMDL
MODEL 9
REMARK VINA RESULT:      -4.0      1.783      3.540
REMARK  1 active torsions:
REMARK  status: ('A' for Active; 'I' for Inactive)
REMARK    1  A    between atoms: C3_3  and  C6_6 
ROOT
HETATM    1  C1  UNL     1     -32.200   7.003   3.080  1.00 20.00    -0.030 C 
HETATM    2  C2  UNL     1     -32.822   6.094   2.319  1.00 20.00    -0.030 C 
HETATM    3  C4  UNL     1     -32.528   7.227   4.525  1.00 20.00     0.038 C 
HETATM    4  C5  UNL     1     -33.932   5.224   2.825  1.00 20.00     0.031 C 
HETATM    5  C6  UNL     1     -33.416   6.129   5.134  1.00 20.00     0.054 C 
HETATM    6  C7  UNL     1     -34.533   5.705   4.162  1.00 20.00    -0.004 C 
HETATM    7  C8  UNL     1     -35.426   4.606   4.745  1.00 20.00     0.011 C 
ENDROOT
BRANCH   5   8
HETATM    8  C3  UNL     1     -33.981   6.657   6.419  1.00 20.00     0.236 C 
HETATM    9  O9  UNL     1     -33.442   7.536   7.084  1.00 20.00    -0.306 OA
ENDBRANCH   5   8
TORSDOF 1
ENDMDL
