MODEL 1
REMARK VINA RESULT:      -3.3      0.000      0.000
REMARK  1 active torsions:
REMARK  status: ('A' for Active; 'I' for Inactive)
REMARK    1  A    between atoms: C2_2  and  C3_3 
ROOT
HETATM    1  C3  UNL     1     -34.122  15.183  -3.614  1.00 20.00     0.216 C 
HETATM    2 CL5  UNL     1     -34.539  15.862  -2.001  1.00 20.00    -0.081 Cl
HETATM    3 CL6  UNL     1     -32.492  14.433  -3.501  1.00 20.00    -0.081 Cl
HETATM    4 CL7  UNL     1     -34.028  16.547  -4.783  1.00 20.00    -0.081 Cl
ENDROOT
BRANCH   1   5
HETATM    5  C2  UNL     1     -35.135  14.186  -4.046  1.00 20.00     0.199 A 
HETATM    6  C1  UNL     1     -34.948  13.379  -5.300  1.00 20.00     0.204 A 
HETATM    7  O4  UNL     1     -34.689  12.827  -3.999  1.00 20.00    -0.377 OA
ENDBRANCH   1   5
TORSDOF 1
ENDMDL
MODEL 2
REMARK VINA RESULT:      -3.3      0.061      1.891
REMARK  1 active torsions:
REMARK  status: ('A' for Active; 'I' for Inactive)
REMARK    1  A    between atoms: C2_2  and  C3_3 
ROOT
HETATM    1  C3  UNL     1     -34.098  15.166  -3.636  1.00 20.00     0.216 C 
HETATM    2 CL5  UNL     1     -32.497  14.360  -3.486  1.00 20.00    -0.081 Cl
HETATM    3 CL6  UNL     1     -33.936  16.518  -4.811  1.00 20.00    -0.081 Cl
HETATM    4 CL7  UNL     1     -34.520  15.868  -2.035  1.00 20.00    -0.081 Cl
ENDROOT
BRANCH   1   5
HETATM    5  C2  UNL     1     -35.137  14.201  -4.079  1.00 20.00     0.199 A 
HETATM    6  C1  UNL     1     -34.966  13.399  -5.340  1.00 20.00     0.204 A 
HETATM    7  O4  UNL     1     -34.729  12.829  -4.042  1.00 20.00    -0.377 OA
ENDBRANCH   1   5
TORSDOF 1
ENDMDL
MODEL 3
REMARK VINA RESULT:      -3.3      0.115      1.935
REMARK  1 active torsions:
REMARK  status: ('A' for Active; 'I' for Inactive)
REMARK    1  A    between atoms: C2_2  and  C3_3 
ROOT
HETATM    1  C3  UNL     1     -34.071  15.145  -3.640  1.00 20.00     0.216 C 
HETATM    2 CL5  UNL     1     -33.848  16.479  -4.827  1.00 20.00    -0.081 Cl
HETATM    3 CL6  UNL     1     -34.491  15.876  -2.051  1.00 20.00    -0.081 Cl
HETATM    4 CL7  UNL     1     -32.499  14.290  -3.462  1.00 20.00    -0.081 Cl
ENDROOT
BRANCH   1   5
HETATM    5  C2  UNL     1     -35.134  14.210  -4.090  1.00 20.00     0.199 A 
HETATM    6  C1  UNL     1     -34.991  13.423  -5.362  1.00 20.00     0.204 A 
HETATM    7  O4  UNL     1     -34.757  12.829  -4.075  1.00 20.00    -0.377 OA
ENDBRANCH   1   5
TORSDOF 1
ENDMDL
MODEL 4
REMARK VINA RESULT:      -3.2      2.125      2.760
REMARK  1 active torsions:
REMARK  status: ('A' for Active; 'I' for Inactive)
REMARK    1  A    between atoms: C2_2  and  C3_3 
ROOT
HETATM    1  C3  UNL     1     -35.144  14.695  -5.832  1.00 20.00     0.216 C 
HETATM    2 CL5  UNL     1     -36.746  14.948  -5.054  1.00 20.00    -0.081 Cl
HETATM    3 CL6  UNL     1     -34.244  16.251  -5.776  1.00 20.00    -0.081 Cl
HETATM    4 CL7  UNL     1     -35.424  14.275  -7.558  1.00 20.00    -0.081 Cl
ENDROOT
BRANCH   1   5
HETATM    5  C2  UNL     1     -34.385  13.620  -5.142  1.00 20.00     0.199 A 
HETATM    6  C1  UNL     1     -34.194  13.636  -3.651  1.00 20.00     0.204 A 
HETATM    7  O4  UNL     1     -35.175  12.794  -4.279  1.00 20.00    -0.377 OA
ENDBRANCH   1   5
TORSDOF 1
ENDMDL
MODEL 5
REMARK VINA RESULT:      -3.2      2.123      2.961
REMARK  1 active torsions:
REMARK  status: ('A' for Active; 'I' for Inactive)
REMARK    1  A    between atoms: C2_2  and  C3_3 
ROOT
HETATM    1  C3  UNL     1     -35.159  14.702  -5.812  1.00 20.00     0.216 C 
HETATM    2 CL5  UNL     1     -34.280  16.270  -5.757  1.00 20.00    -0.081 Cl
HETATM    3 CL6  UNL     1     -35.443  14.280  -7.537  1.00 20.00    -0.081 Cl
HETATM    4 CL7  UNL     1     -36.758  14.933  -5.024  1.00 20.00    -0.081 Cl
ENDROOT
BRANCH   1   5
HETATM    5  C2  UNL     1     -34.381  13.636  -5.128  1.00 20.00     0.199 A 
HETATM    6  C1  UNL     1     -34.201  13.640  -3.636  1.00 20.00     0.204 A 
HETATM    7  O4  UNL     1     -35.158  12.784  -4.280  1.00 20.00    -0.377 OA
ENDBRANCH   1   5
TORSDOF 1
ENDMDL
MODEL 6
REMARK VINA RESULT:      -3.1     11.980     12.508
REMARK  1 active torsions:
REMARK  status: ('A' for Active; 'I' for Inactive)
REMARK    1  A    between atoms: C2_2  and  C3_3 
ROOT
HETATM    1  C3  UNL     1     -34.369   5.434   4.798  1.00 20.00     0.216 C 
HETATM    2 CL5  UNL     1     -34.320   6.583   6.181  1.00 20.00    -0.081 Cl
HETATM    3 CL6  UNL     1     -35.870   5.753   3.859  1.00 20.00    -0.081 Cl
HETATM    4 CL7  UNL     1     -34.473   3.767   5.464  1.00 20.00    -0.081 Cl
ENDROOT
BRANCH   1   5
HETATM    5  C2  UNL     1     -33.166   5.588   3.941  1.00 20.00     0.199 A 
HETATM    6  C1  UNL     1     -33.066   6.697   2.932  1.00 20.00     0.204 A 
HETATM    7  O4  UNL     1     -32.396   6.767   4.201  1.00 20.00    -0.377 OA
ENDBRANCH   1   5
TORSDOF 1
ENDMDL
MODEL 7
REMARK VINA RESULT:      -3.1     11.979     12.465
REMARK  1 active torsions:
REMARK  status: ('A' for Active; 'I' for Inactive)
REMARK    1  A    between atoms: C2_2  and  C3_3 
ROOT
HETATM    1  C3  UNL     1     -34.374   5.434   4.795  1.00 20.00     0.216 C 
HETATM    2 CL5  UNL     1     -34.479   3.766   5.459  1.00 20.00    -0.081 Cl
HETATM    3 CL6  UNL     1     -34.323   6.583   6.178  1.00 20.00    -0.081 Cl
HETATM    4 CL7  UNL     1     -35.875   5.756   3.859  1.00 20.00    -0.081 Cl
ENDROOT
BRANCH   1   5
HETATM    5  C2  UNL     1     -33.172   5.587   3.936  1.00 20.00     0.199 A 
HETATM    6  C1  UNL     1     -33.068   6.702   2.933  1.00 20.00     0.204 A 
HETATM    7  O4  UNL     1     -32.396   6.760   4.201  1.00 20.00    -0.377 OA
ENDBRANCH   1   5
TORSDOF 1
ENDMDL
MODEL 8
REMARK VINA RESULT:      -3.1     11.980     12.470
REMARK  1 active torsions:
REMARK  status: ('A' for Active; 'I' for Inactive)
REMARK    1  A    between atoms: C2_2  and  C3_3 
ROOT
HETATM    1  C3  UNL     1     -34.368   5.434   4.798  1.00 20.00     0.216 C 
HETATM    2 CL5  UNL     1     -35.869   5.754   3.859  1.00 20.00    -0.081 Cl
HETATM    3 CL6  UNL     1     -34.471   3.766   5.464  1.00 20.00    -0.081 Cl
HETATM    4 CL7  UNL     1     -34.321   6.583   6.180  1.00 20.00    -0.081 Cl
ENDROOT
BRANCH   1   5
HETATM    5  C2  UNL     1     -33.166   5.588   3.940  1.00 20.00     0.199 A 
HETATM    6  C1  UNL     1     -33.066   6.698   2.931  1.00 20.00     0.204 A 
HETATM    7  O4  UNL     1     -32.396   6.767   4.201  1.00 20.00    -0.377 OA
ENDBRANCH   1   5
TORSDOF 1
ENDMDL
MODEL 9
REMARK VINA RESULT:      -3.1      2.258      2.941
REMARK  1 active torsions:
REMARK  status: ('A' for Active; 'I' for Inactive)
REMARK    1  A    between atoms: C2_2  and  C3_3 
ROOT
HETATM    1  C3  UNL     1     -34.059  15.099  -3.634  1.00 20.00     0.216 C 
HETATM    2 CL5  UNL     1     -35.111  13.683  -3.987  1.00 20.00    -0.081 Cl
HETATM    3 CL6  UNL     1     -32.371  14.509  -3.448  1.00 20.00    -0.081 Cl
HETATM    4 CL7  UNL     1     -34.580  15.801  -2.062  1.00 20.00    -0.081 Cl
ENDROOT
BRANCH   1   5
HETATM    5  C2  UNL     1     -34.150  16.109  -4.719  1.00 20.00     0.199 A 
HETATM    6  C1  UNL     1     -33.688  17.524  -4.508  1.00 20.00     0.204 A 
HETATM    7  O4  UNL     1     -32.887  16.564  -5.216  1.00 20.00    -0.377 OA
ENDBRANCH   1   5
TORSDOF 1
ENDMDL
