MODEL 1
REMARK VINA RESULT:      -4.8      0.000      0.000
REMARK  1 active torsions:
REMARK  status: ('A' for Active; 'I' for Inactive)
REMARK    1  A    between atoms: C8_8  and  C9_9 
ROOT
HETATM    1  C1  UNL     1     -32.106   7.670   2.476  1.00 20.00     0.059 C 
HETATM    2  C9  UNL     1     -32.243   6.563   3.416  1.00 20.00     0.129 C 
HETATM    3  N10 UNL     1     -31.971   8.553   1.735  1.00 20.00    -0.197 NA
ENDROOT
BRANCH   2   4
HETATM    4  C8  UNL     1     -33.688   6.114   3.266  1.00 20.00     0.003 C 
HETATM    5  C5  UNL     1     -33.863   4.582   3.309  1.00 20.00     0.010 C 
HETATM    6  C6  UNL     1     -34.968   4.392   4.368  1.00 20.00    -0.014 C 
HETATM    7  C2  UNL     1     -34.367   4.659   5.758  1.00 20.00     0.005 C 
HETATM    8  C4  UNL     1     -35.833   5.633   4.157  1.00 20.00     0.009 C 
HETATM    9  C3  UNL     1     -34.188   6.184   5.769  1.00 20.00     0.005 C 
HETATM   10  C7  UNL     1     -34.662   6.598   4.365  1.00 20.00    -0.009 C 
ENDBRANCH   2   4
TORSDOF 1
ENDMDL
MODEL 2
REMARK VINA RESULT:      -4.5     11.348     12.226
REMARK  1 active torsions:
REMARK  status: ('A' for Active; 'I' for Inactive)
REMARK    1  A    between atoms: C8_8  and  C9_9 
ROOT
HETATM    1  C1  UNL     1     -34.386  16.672  -1.204  1.00 20.00     0.059 C 
HETATM    2  C9  UNL     1     -33.875  16.365  -2.535  1.00 20.00     0.129 C 
HETATM    3  N10 UNL     1     -34.780  16.938  -0.145  1.00 20.00    -0.197 NA
ENDROOT
BRANCH   2   4
HETATM    4  C8  UNL     1     -34.523  15.038  -2.896  1.00 20.00     0.003 C 
HETATM    5  C5  UNL     1     -36.026  15.155  -3.219  1.00 20.00     0.010 C 
HETATM    6  C6  UNL     1     -36.144  14.435  -4.577  1.00 20.00    -0.014 C 
HETATM    7  C2  UNL     1     -35.537  15.336  -5.665  1.00 20.00     0.005 C 
HETATM    8  C4  UNL     1     -35.085  13.340  -4.453  1.00 20.00     0.009 C 
HETATM    9  C3  UNL     1     -34.030  15.240  -5.394  1.00 20.00     0.005 C 
HETATM   10  C7  UNL     1     -33.959  14.333  -4.152  1.00 20.00    -0.009 C 
ENDBRANCH   2   4
TORSDOF 1
ENDMDL
MODEL 3
REMARK VINA RESULT:      -4.5     11.240     12.590
REMARK  1 active torsions:
REMARK  status: ('A' for Active; 'I' for Inactive)
REMARK    1  A    between atoms: C8_8  and  C9_9 
ROOT
HETATM    1  C1  UNL     1     -35.078  13.723  -4.033  1.00 20.00     0.059 C 
HETATM    2  C9  UNL     1     -35.678  14.897  -3.408  1.00 20.00     0.129 C 
HETATM    3  N10 UNL     1     -34.624  12.784  -4.541  1.00 20.00    -0.197 NA
ENDROOT
BRANCH   2   4
HETATM    4  C8  UNL     1     -34.524  15.576  -2.689  1.00 20.00     0.003 C 
HETATM    5  C5  UNL     1     -33.740  16.564  -3.578  1.00 20.00     0.010 C 
HETATM    6  C6  UNL     1     -33.709  17.846  -2.724  1.00 20.00    -0.014 C 
HETATM    7  C2  UNL     1     -35.110  18.482  -2.741  1.00 20.00     0.005 C 
HETATM    8  C4  UNL     1     -33.638  17.286  -1.304  1.00 20.00     0.009 C 
HETATM    9  C3  UNL     1     -35.929  17.537  -1.850  1.00 20.00     0.005 C 
HETATM   10  C7  UNL     1     -34.909  16.449  -1.471  1.00 20.00    -0.009 C 
ENDBRANCH   2   4
TORSDOF 1
ENDMDL
MODEL 4
REMARK VINA RESULT:      -4.5      8.900     10.172
REMARK  1 active torsions:
REMARK  status: ('A' for Active; 'I' for Inactive)
REMARK    1  A    between atoms: C8_8  and  C9_9 
ROOT
HETATM    1  C1  UNL     1     -42.504   7.962  -3.831  1.00 20.00     0.059 C 
HETATM    2  C9  UNL     1     -42.973   7.158  -2.707  1.00 20.00     0.129 C 
HETATM    3  N10 UNL     1     -42.156   8.611  -4.727  1.00 20.00    -0.197 NA
ENDROOT
BRANCH   2   4
HETATM    4  C8  UNL     1     -41.732   6.431  -2.216  1.00 20.00     0.003 C 
HETATM    5  C5  UNL     1     -41.122   7.046  -0.940  1.00 20.00     0.010 C 
HETATM    6  C6  UNL     1     -40.980   5.829  -0.005  1.00 20.00    -0.014 C 
HETATM    7  C2  UNL     1     -42.377   5.431   0.499  1.00 20.00     0.005 C 
HETATM    8  C4  UNL     1     -40.669   4.702  -0.988  1.00 20.00     0.009 C 
HETATM    9  C3  UNL     1     -43.023   4.794  -0.739  1.00 20.00     0.005 C 
HETATM   10  C7  UNL     1     -41.934   4.950  -1.815  1.00 20.00    -0.009 C 
ENDBRANCH   2   4
TORSDOF 1
ENDMDL
MODEL 5
REMARK VINA RESULT:      -4.4      8.774     10.188
REMARK  1 active torsions:
REMARK  status: ('A' for Active; 'I' for Inactive)
REMARK    1  A    between atoms: C8_8  and  C9_9 
ROOT
HETATM    1  C1  UNL     1     -41.752   2.672  -3.050  1.00 20.00     0.059 C 
HETATM    2  C9  UNL     1     -42.488   3.512  -2.111  1.00 20.00     0.129 C 
HETATM    3  N10 UNL     1     -41.189   1.990  -3.801  1.00 20.00    -0.197 NA
ENDROOT
BRANCH   2   4
HETATM    4  C8  UNL     1     -41.482   4.566  -1.676  1.00 20.00     0.003 C 
HETATM    5  C5  UNL     1     -41.814   5.982  -2.188  1.00 20.00     0.010 C 
HETATM    6  C6  UNL     1     -41.751   6.836  -0.907  1.00 20.00    -0.014 C 
HETATM    7  C2  UNL     1     -42.993   6.533  -0.052  1.00 20.00     0.005 C 
HETATM    8  C4  UNL     1     -40.647   6.140  -0.111  1.00 20.00     0.009 C 
HETATM    9  C3  UNL     1     -42.702   5.129   0.497  1.00 20.00     0.005 C 
HETATM   10  C7  UNL     1     -41.349   4.780  -0.149  1.00 20.00    -0.009 C 
ENDBRANCH   2   4
TORSDOF 1
ENDMDL
MODEL 6
REMARK VINA RESULT:      -4.4     11.467     12.638
REMARK  1 active torsions:
REMARK  status: ('A' for Active; 'I' for Inactive)
REMARK    1  A    between atoms: C8_8  and  C9_9 
ROOT
HETATM    1  C1  UNL     1     -37.653  14.975  -4.281  1.00 20.00     0.059 C 
HETATM    2  C9  UNL     1     -36.640  15.875  -4.820  1.00 20.00     0.129 C 
HETATM    3  N10 UNL     1     -38.478  14.277  -3.856  1.00 20.00    -0.197 NA
ENDROOT
BRANCH   2   4
HETATM    4  C8  UNL     1     -35.359  15.055  -4.809  1.00 20.00     0.003 C 
HETATM    5  C5  UNL     1     -34.122  15.839  -5.294  1.00 20.00     0.010 C 
HETATM    6  C6  UNL     1     -33.098  15.597  -4.167  1.00 20.00    -0.014 C 
HETATM    7  C2  UNL     1     -33.512  16.428  -2.941  1.00 20.00     0.005 C 
HETATM    8  C4  UNL     1     -33.445  14.179  -3.716  1.00 20.00     0.009 C 
HETATM    9  C3  UNL     1     -34.739  15.673  -2.410  1.00 20.00     0.005 C 
HETATM   10  C7  UNL     1     -34.908  14.530  -3.426  1.00 20.00    -0.009 C 
ENDBRANCH   2   4
TORSDOF 1
ENDMDL
MODEL 7
REMARK VINA RESULT:      -4.3     11.485     12.673
REMARK  1 active torsions:
REMARK  status: ('A' for Active; 'I' for Inactive)
REMARK    1  A    between atoms: C8_8  and  C9_9 
ROOT
HETATM    1  C1  UNL     1     -37.616  14.639  -3.883  1.00 20.00     0.059 C 
HETATM    2  C9  UNL     1     -36.329  14.339  -4.503  1.00 20.00     0.129 C 
HETATM    3  N10 UNL     1     -38.651  14.869  -3.412  1.00 20.00    -0.197 NA
ENDROOT
BRANCH   2   4
HETATM    4  C8  UNL     1     -35.302  14.719  -3.449  1.00 20.00     0.003 C 
HETATM    5  C5  UNL     1     -33.894  14.155  -3.729  1.00 20.00     0.010 C 
HETATM    6  C6  UNL     1     -32.994  15.401  -3.613  1.00 20.00    -0.014 C 
HETATM    7  C2  UNL     1     -33.211  16.281  -4.855  1.00 20.00     0.005 C 
HETATM    8  C4  UNL     1     -33.703  16.210  -2.528  1.00 20.00     0.009 C 
HETATM    9  C3  UNL     1     -34.603  16.882  -4.614  1.00 20.00     0.005 C 
HETATM   10  C7  UNL     1     -35.034  16.234  -3.286  1.00 20.00    -0.009 C 
ENDBRANCH   2   4
TORSDOF 1
ENDMDL
MODEL 8
REMARK VINA RESULT:      -4.2     11.388     12.268
REMARK  1 active torsions:
REMARK  status: ('A' for Active; 'I' for Inactive)
REMARK    1  A    between atoms: C8_8  and  C9_9 
ROOT
HETATM    1  C1  UNL     1     -33.806  17.279  -1.120  1.00 20.00     0.059 C 
HETATM    2  C9  UNL     1     -34.598  16.177  -1.656  1.00 20.00     0.129 C 
HETATM    3  N10 UNL     1     -33.185  18.150  -0.670  1.00 20.00    -0.197 NA
ENDROOT
BRANCH   2   4
HETATM    4  C8  UNL     1     -34.249  16.142  -3.135  1.00 20.00     0.003 C 
HETATM    5  C5  UNL     1     -33.308  14.981  -3.518  1.00 20.00     0.010 C 
HETATM    6  C6  UNL     1     -34.040  14.321  -4.703  1.00 20.00    -0.014 C 
HETATM    7  C2  UNL     1     -35.255  13.550  -4.162  1.00 20.00     0.005 C 
HETATM    8  C4  UNL     1     -34.705  15.520  -5.378  1.00 20.00     0.009 C 
HETATM    9  C3  UNL     1     -36.233  14.669  -3.780  1.00 20.00     0.005 C 
HETATM   10  C7  UNL     1     -35.439  15.947  -4.103  1.00 20.00    -0.009 C 
ENDBRANCH   2   4
TORSDOF 1
ENDMDL
MODEL 9
REMARK VINA RESULT:      -4.2     11.177     12.712
REMARK  1 active torsions:
REMARK  status: ('A' for Active; 'I' for Inactive)
REMARK    1  A    between atoms: C8_8  and  C9_9 
ROOT
HETATM    1  C1  UNL     1     -34.311  13.651  -4.061  1.00 20.00     0.059 C 
HETATM    2  C9  UNL     1     -33.668  14.770  -3.381  1.00 20.00     0.129 C 
HETATM    3  N10 UNL     1     -34.799  12.752  -4.607  1.00 20.00    -0.197 NA
ENDROOT
BRANCH   2   4
HETATM    4  C8  UNL     1     -34.821  15.608  -2.852  1.00 20.00     0.003 C 
HETATM    5  C5  UNL     1     -34.538  16.248  -1.478  1.00 20.00     0.010 C 
HETATM    6  C6  UNL     1     -34.886  17.732  -1.710  1.00 20.00    -0.014 C 
HETATM    7  C2  UNL     1     -33.778  18.368  -2.566  1.00 20.00     0.005 C 
HETATM    8  C4  UNL     1     -36.039  17.638  -2.709  1.00 20.00     0.009 C 
HETATM    9  C3  UNL     1     -34.030  17.770  -3.958  1.00 20.00     0.005 C 
HETATM   10  C7  UNL     1     -35.221  16.826  -3.718  1.00 20.00    -0.009 C 
ENDBRANCH   2   4
TORSDOF 1
ENDMDL
