MODEL 1
REMARK VINA RESULT:      -4.7      0.000      0.000
REMARK  1 active torsions:
REMARK  status: ('A' for Active; 'I' for Inactive)
REMARK    1  A    between atoms: C8_8  and  C9_9 
ROOT
HETATM    1  C1  UNL     1     -34.544  17.049  -0.756  1.00 20.00     0.059 C 
HETATM    2  C9  UNL     1     -34.004  16.980  -2.108  1.00 20.00     0.129 C 
HETATM    3  N10 UNL     1     -34.967  17.132   0.321  1.00 20.00    -0.197 NA
ENDROOT
BRANCH   2   4
HETATM    4  C8  UNL     1     -34.285  15.550  -2.554  1.00 20.00     0.003 C 
HETATM    5  C5  UNL     1     -35.687  15.397  -3.181  1.00 20.00     0.010 C 
HETATM    6  C6  UNL     1     -35.386  14.797  -4.566  1.00 20.00    -0.014 C 
HETATM    7  C2  UNL     1     -34.878  13.355  -4.393  1.00 20.00     0.005 C 
HETATM    8  C4  UNL     1     -34.108  15.537  -4.954  1.00 20.00     0.009 C 
HETATM    9  C3  UNL     1     -33.466  13.554  -3.822  1.00 20.00     0.005 C 
HETATM   10  C7  UNL     1     -33.355  15.085  -3.700  1.00 20.00    -0.009 C 
ENDBRANCH   2   4
TORSDOF 1
ENDMDL
MODEL 2
REMARK VINA RESULT:      -4.6      2.333      4.138
REMARK  1 active torsions:
REMARK  status: ('A' for Active; 'I' for Inactive)
REMARK    1  A    between atoms: C8_8  and  C9_9 
ROOT
HETATM    1  C1  UNL     1     -35.162  13.689  -4.181  1.00 20.00     0.059 C 
HETATM    2  C9  UNL     1     -35.852  14.870  -3.680  1.00 20.00     0.129 C 
HETATM    3  N10 UNL     1     -34.636  12.743  -4.600  1.00 20.00    -0.197 NA
ENDROOT
BRANCH   2   4
HETATM    4  C8  UNL     1     -34.895  15.455  -2.647  1.00 20.00     0.003 C 
HETATM    5  C5  UNL     1     -33.700  16.181  -3.300  1.00 20.00     0.010 C 
HETATM    6  C6  UNL     1     -33.770  17.590  -2.686  1.00 20.00    -0.014 C 
HETATM    7  C2  UNL     1     -33.407  17.510  -1.193  1.00 20.00     0.005 C 
HETATM    8  C4  UNL     1     -35.277  17.831  -2.631  1.00 20.00     0.009 C 
HETATM    9  C3  UNL     1     -34.640  16.835  -0.575  1.00 20.00     0.005 C 
HETATM   10  C7  UNL     1     -35.541  16.575  -1.797  1.00 20.00    -0.009 C 
ENDBRANCH   2   4
TORSDOF 1
ENDMDL
MODEL 3
REMARK VINA RESULT:      -4.6     11.920     12.900
REMARK  1 active torsions:
REMARK  status: ('A' for Active; 'I' for Inactive)
REMARK    1  A    between atoms: C8_8  and  C9_9 
ROOT
HETATM    1  C1  UNL     1     -32.546   6.850   2.938  1.00 20.00     0.059 C 
HETATM    2  C9  UNL     1     -33.567   5.820   2.801  1.00 20.00     0.129 C 
HETATM    3  N10 UNL     1     -31.722   7.664   3.019  1.00 20.00    -0.197 NA
ENDROOT
BRANCH   2   4
HETATM    4  C8  UNL     1     -34.370   5.912   4.094  1.00 20.00     0.003 C 
HETATM    5  C5  UNL     1     -35.419   4.786   4.212  1.00 20.00     0.010 C 
HETATM    6  C6  UNL     1     -35.067   4.121   5.555  1.00 20.00    -0.014 C 
HETATM    7  C2  UNL     1     -35.403   5.089   6.703  1.00 20.00     0.005 C 
HETATM    8  C4  UNL     1     -33.540   4.173   5.537  1.00 20.00     0.009 C 
HETATM    9  C3  UNL     1     -34.308   6.159   6.584  1.00 20.00     0.005 C 
HETATM   10  C7  UNL     1     -33.502   5.693   5.356  1.00 20.00    -0.009 C 
ENDBRANCH   2   4
TORSDOF 1
ENDMDL
MODEL 4
REMARK VINA RESULT:      -4.3      2.237      3.390
REMARK  1 active torsions:
REMARK  status: ('A' for Active; 'I' for Inactive)
REMARK    1  A    between atoms: C8_8  and  C9_9 
ROOT
HETATM    1  C1  UNL     1     -37.622  14.999  -4.308  1.00 20.00     0.059 C 
HETATM    2  C9  UNL     1     -36.719  16.003  -4.857  1.00 20.00     0.129 C 
HETATM    3  N10 UNL     1     -38.364  14.219  -3.876  1.00 20.00    -0.197 NA
ENDROOT
BRANCH   2   4
HETATM    4  C8  UNL     1     -35.344  15.348  -4.791  1.00 20.00     0.003 C 
HETATM    5  C5  UNL     1     -34.200  16.383  -4.837  1.00 20.00     0.010 C 
HETATM    6  C6  UNL     1     -33.397  16.073  -3.561  1.00 20.00    -0.014 C 
HETATM    7  C2  UNL     1     -32.697  14.712  -3.723  1.00 20.00     0.005 C 
HETATM    8  C4  UNL     1     -34.508  15.739  -2.568  1.00 20.00     0.009 C 
HETATM    9  C3  UNL     1     -33.858  13.713  -3.616  1.00 20.00     0.005 C 
HETATM   10  C7  UNL     1     -35.086  14.627  -3.446  1.00 20.00    -0.009 C 
ENDBRANCH   2   4
TORSDOF 1
ENDMDL
MODEL 5
REMARK VINA RESULT:      -4.3     11.236     12.415
REMARK  1 active torsions:
REMARK  status: ('A' for Active; 'I' for Inactive)
REMARK    1  A    between atoms: C8_8  and  C9_9 
ROOT
HETATM    1  C1  UNL     1     -43.206   7.956  -3.825  1.00 20.00     0.059 C 
HETATM    2  C9  UNL     1     -42.964   7.929  -2.389  1.00 20.00     0.129 C 
HETATM    3  N10 UNL     1     -43.417   8.002  -4.966  1.00 20.00    -0.197 NA
ENDROOT
BRANCH   2   4
HETATM    4  C8  UNL     1     -41.968   6.791  -2.196  1.00 20.00     0.003 C 
HETATM    5  C5  UNL     1     -41.010   7.046  -1.013  1.00 20.00     0.010 C 
HETATM    6  C6  UNL     1     -41.207   5.800  -0.131  1.00 20.00    -0.014 C 
HETATM    7  C2  UNL     1     -40.620   4.573  -0.850  1.00 20.00     0.005 C 
HETATM    8  C4  UNL     1     -42.708   5.556  -0.268  1.00 20.00     0.009 C 
HETATM    9  C3  UNL     1     -41.628   4.321  -1.981  1.00 20.00     0.005 C 
HETATM   10  C7  UNL     1     -42.648   5.460  -1.794  1.00 20.00    -0.009 C 
ENDBRANCH   2   4
TORSDOF 1
ENDMDL
MODEL 6
REMARK VINA RESULT:      -4.3     12.023     13.592
REMARK  1 active torsions:
REMARK  status: ('A' for Active; 'I' for Inactive)
REMARK    1  A    between atoms: C8_8  and  C9_9 
ROOT
HETATM    1  C1  UNL     1     -41.777   2.531  -3.134  1.00 20.00     0.059 C 
HETATM    2  C9  UNL     1     -42.581   3.294  -2.188  1.00 20.00     0.129 C 
HETATM    3  N10 UNL     1     -41.159   1.902  -3.889  1.00 20.00    -0.197 NA
ENDROOT
BRANCH   2   4
HETATM    4  C8  UNL     1     -41.755   4.546  -1.916  1.00 20.00     0.003 C 
HETATM    5  C5  UNL     1     -42.369   5.805  -2.565  1.00 20.00     0.010 C 
HETATM    6  C6  UNL     1     -42.533   6.766  -1.374  1.00 20.00    -0.014 C 
HETATM    7  C2  UNL     1     -41.143   7.216  -0.891  1.00 20.00     0.005 C 
HETATM    8  C4  UNL     1     -42.959   5.811  -0.260  1.00 20.00     0.009 C 
HETATM    9  C3  UNL     1     -40.592   5.957  -0.206  1.00 20.00     0.005 C 
HETATM   10  C7  UNL     1     -41.719   4.928  -0.417  1.00 20.00    -0.009 C 
ENDBRANCH   2   4
TORSDOF 1
ENDMDL
MODEL 7
REMARK VINA RESULT:      -4.2      2.352      4.039
REMARK  1 active torsions:
REMARK  status: ('A' for Active; 'I' for Inactive)
REMARK    1  A    between atoms: C8_8  and  C9_9 
ROOT
HETATM    1  C1  UNL     1     -34.121  13.695  -4.195  1.00 20.00     0.059 C 
HETATM    2  C9  UNL     1     -33.318  14.840  -3.784  1.00 20.00     0.129 C 
HETATM    3  N10 UNL     1     -34.734  12.767  -4.524  1.00 20.00    -0.197 NA
ENDROOT
BRANCH   2   4
HETATM    4  C8  UNL     1     -34.340  15.941  -3.521  1.00 20.00     0.003 C 
HETATM    5  C5  UNL     1     -35.275  15.602  -2.341  1.00 20.00     0.010 C 
HETATM    6  C6  UNL     1     -35.097  16.807  -1.399  1.00 20.00    -0.014 C 
HETATM    7  C2  UNL     1     -35.724  18.053  -2.047  1.00 20.00     0.005 C 
HETATM    8  C4  UNL     1     -33.604  17.096  -1.542  1.00 20.00     0.009 C 
HETATM    9  C3  UNL     1     -34.739  18.388  -3.176  1.00 20.00     0.005 C 
HETATM   10  C7  UNL     1     -33.688  17.267  -3.061  1.00 20.00    -0.009 C 
ENDBRANCH   2   4
TORSDOF 1
ENDMDL
MODEL 8
REMARK VINA RESULT:      -4.2      1.324      2.112
REMARK  1 active torsions:
REMARK  status: ('A' for Active; 'I' for Inactive)
REMARK    1  A    between atoms: C8_8  and  C9_9 
ROOT
HETATM    1  C1  UNL     1     -34.003  17.311  -1.978  1.00 20.00     0.059 C 
HETATM    2  C9  UNL     1     -34.496  15.940  -1.950  1.00 20.00     0.129 C 
HETATM    3  N10 UNL     1     -33.616  18.405  -1.969  1.00 20.00    -0.197 NA
ENDROOT
BRANCH   2   4
HETATM    4  C8  UNL     1     -34.311  15.445  -3.380  1.00 20.00     0.003 C 
HETATM    5  C5  UNL     1     -34.153  13.912  -3.453  1.00 20.00     0.010 C 
HETATM    6  C6  UNL     1     -35.270  13.492  -4.425  1.00 20.00    -0.014 C 
HETATM    7  C2  UNL     1     -34.922  13.986  -5.840  1.00 20.00     0.005 C 
HETATM    8  C4  UNL     1     -36.400  14.440  -4.030  1.00 20.00     0.009 C 
HETATM    9  C3  UNL     1     -35.145  15.502  -5.740  1.00 20.00     0.005 C 
HETATM   10  C7  UNL     1     -35.555  15.695  -4.267  1.00 20.00    -0.009 C 
ENDBRANCH   2   4
TORSDOF 1
ENDMDL
MODEL 9
REMARK VINA RESULT:      -4.2      1.153      2.067
REMARK  1 active torsions:
REMARK  status: ('A' for Active; 'I' for Inactive)
REMARK    1  A    between atoms: C8_8  and  C9_9 
ROOT
HETATM    1  C1  UNL     1     -33.811  17.394  -0.970  1.00 20.00     0.059 C 
HETATM    2  C9  UNL     1     -34.683  16.278  -1.311  1.00 20.00     0.129 C 
HETATM    3  N10 UNL     1     -33.121  18.277  -0.669  1.00 20.00    -0.197 NA
ENDROOT
BRANCH   2   4
HETATM    4  C8  UNL     1     -34.677  16.248  -2.835  1.00 20.00     0.003 C 
HETATM    5  C5  UNL     1     -33.283  15.917  -3.409  1.00 20.00     0.010 C 
HETATM    6  C6  UNL     1     -33.553  14.691  -4.299  1.00 20.00    -0.014 C 
HETATM    7  C2  UNL     1     -34.384  15.125  -5.520  1.00 20.00     0.005 C 
HETATM    8  C4  UNL     1     -34.586  13.928  -3.472  1.00 20.00     0.009 C 
HETATM    9  C3  UNL     1     -35.771  15.389  -4.916  1.00 20.00     0.005 C 
HETATM   10  C7  UNL     1     -35.554  15.113  -3.417  1.00 20.00    -0.009 C 
ENDBRANCH   2   4
TORSDOF 1
ENDMDL
