MODEL 1
REMARK VINA RESULT:      -4.6      0.000      0.000
REMARK  0 active torsions:
REMARK  status: ('A' for Active; 'I' for Inactive)
ROOT
HETATM    1  C1  UNL     1     -34.584  13.763  -4.698  1.00 20.00     0.086 C 
HETATM    2  C2  UNL     1     -33.934  17.719  -3.082  1.00 20.00     0.005 C 
HETATM    3  C3  UNL     1     -35.177  17.507  -3.957  1.00 20.00     0.008 C 
HETATM    4  C4  UNL     1     -35.048  15.727  -2.410  1.00 20.00     0.012 C 
HETATM    5  C5  UNL     1     -33.046  15.455  -3.694  1.00 20.00     0.046 C 
HETATM    6  C6  UNL     1     -33.641  16.306  -2.551  1.00 20.00    -0.011 C 
HETATM    7  C7  UNL     1     -35.398  15.981  -3.886  1.00 20.00     0.024 C 
HETATM    8  C8  UNL     1     -34.266  15.199  -4.608  1.00 20.00     0.129 C 
HETATM    9  N9  UNL     1     -34.835  12.633  -4.769  1.00 20.00    -0.195 NA
HETATM   10 CL10 UNL     1     -33.977  15.743  -6.279  1.00 20.00    -0.102 Cl
ENDROOT
TORSDOF 0
ENDMDL
MODEL 2
REMARK VINA RESULT:      -4.6      1.793      2.245
REMARK  0 active torsions:
REMARK  status: ('A' for Active; 'I' for Inactive)
ROOT
HETATM    1  C1  UNL     1     -37.190  14.552  -4.085  1.00 20.00     0.086 C 
HETATM    2  C2  UNL     1     -32.957  15.426  -4.033  1.00 20.00     0.005 C 
HETATM    3  C3  UNL     1     -33.897  16.508  -4.581  1.00 20.00     0.008 C 
HETATM    4  C4  UNL     1     -34.806  15.693  -2.561  1.00 20.00     0.012 C 
HETATM    5  C5  UNL     1     -34.826  13.755  -3.966  1.00 20.00     0.046 C 
HETATM    6  C6  UNL     1     -33.873  14.613  -3.104  1.00 20.00    -0.011 C 
HETATM    7  C7  UNL     1     -35.260  16.134  -3.962  1.00 20.00     0.024 C 
HETATM    8  C8  UNL     1     -35.811  14.801  -4.539  1.00 20.00     0.129 C 
HETATM    9  N9  UNL     1     -38.276  14.357  -3.727  1.00 20.00    -0.195 NA
HETATM   10 CL10 UNL     1     -35.867  14.763  -6.319  1.00 20.00    -0.102 Cl
ENDROOT
TORSDOF 0
ENDMDL
MODEL 3
REMARK VINA RESULT:      -4.6      2.041      2.795
REMARK  0 active torsions:
REMARK  status: ('A' for Active; 'I' for Inactive)
ROOT
HETATM    1  C1  UNL     1     -37.299  14.912  -3.812  1.00 20.00     0.086 C 
HETATM    2  C2  UNL     1     -33.090  15.821  -4.195  1.00 20.00     0.005 C 
HETATM    3  C3  UNL     1     -33.744  16.053  -2.826  1.00 20.00     0.008 C 
HETATM    4  C4  UNL     1     -34.416  13.932  -3.616  1.00 20.00     0.012 C 
HETATM    5  C5  UNL     1     -35.326  15.419  -5.258  1.00 20.00     0.046 C 
HETATM    6  C6  UNL     1     -33.998  14.756  -4.833  1.00 20.00    -0.011 C 
HETATM    7  C7  UNL     1     -34.994  15.151  -2.878  1.00 20.00     0.024 C 
HETATM    8  C8  UNL     1     -36.038  15.667  -3.907  1.00 20.00     0.129 C 
HETATM    9  N9  UNL     1     -38.292  14.317  -3.737  1.00 20.00    -0.195 NA
HETATM   10 CL10 UNL     1     -36.473  17.379  -3.684  1.00 20.00    -0.102 Cl
ENDROOT
TORSDOF 0
ENDMDL
MODEL 4
REMARK VINA RESULT:      -4.5      2.222      3.466
REMARK  0 active torsions:
REMARK  status: ('A' for Active; 'I' for Inactive)
ROOT
HETATM    1  C1  UNL     1     -34.457  15.880  -2.224  1.00 20.00     0.086 C 
HETATM    2  C2  UNL     1     -35.119  14.145  -6.127  1.00 20.00     0.005 C 
HETATM    3  C3  UNL     1     -34.632  13.212  -5.010  1.00 20.00     0.008 C 
HETATM    4  C4  UNL     1     -36.394  14.531  -4.156  1.00 20.00     0.012 C 
HETATM    5  C5  UNL     1     -34.725  16.162  -4.691  1.00 20.00     0.046 C 
HETATM    6  C6  UNL     1     -35.807  15.280  -5.352  1.00 20.00    -0.011 C 
HETATM    7  C7  UNL     1     -35.030  13.967  -3.726  1.00 20.00     0.024 C 
HETATM    8  C8  UNL     1     -34.204  15.270  -3.541  1.00 20.00     0.129 C 
HETATM    9  N9  UNL     1     -34.656  16.360  -1.187  1.00 20.00    -0.195 NA
HETATM   10 CL10 UNL     1     -32.444  15.018  -3.635  1.00 20.00    -0.102 Cl
ENDROOT
TORSDOF 0
ENDMDL
MODEL 5
REMARK VINA RESULT:      -4.5      1.557      2.029
REMARK  0 active torsions:
REMARK  status: ('A' for Active; 'I' for Inactive)
ROOT
HETATM    1  C1  UNL     1     -34.956  13.565  -4.458  1.00 20.00     0.086 C 
HETATM    2  C2  UNL     1     -34.181  17.545  -2.960  1.00 20.00     0.005 C 
HETATM    3  C3  UNL     1     -34.531  16.458  -1.935  1.00 20.00     0.008 C 
HETATM    4  C4  UNL     1     -32.917  15.582  -3.419  1.00 20.00     0.012 C 
HETATM    5  C5  UNL     1     -34.776  16.023  -4.862  1.00 20.00     0.046 C 
HETATM    6  C6  UNL     1     -33.613  16.737  -4.138  1.00 20.00    -0.011 C 
HETATM    7  C7  UNL     1     -34.197  15.151  -2.683  1.00 20.00     0.024 C 
HETATM    8  C8  UNL     1     -35.165  14.901  -3.873  1.00 20.00     0.129 C 
HETATM    9  N9  UNL     1     -34.793  12.513  -4.918  1.00 20.00    -0.195 NA
HETATM   10 CL10 UNL     1     -36.885  14.975  -3.419  1.00 20.00    -0.102 Cl
ENDROOT
TORSDOF 0
ENDMDL
MODEL 6
REMARK VINA RESULT:      -4.5      2.249      3.455
REMARK  0 active torsions:
REMARK  status: ('A' for Active; 'I' for Inactive)
ROOT
HETATM    1  C1  UNL     1     -34.810  16.162  -2.038  1.00 20.00     0.086 C 
HETATM    2  C2  UNL     1     -35.103  14.048  -5.796  1.00 20.00     0.005 C 
HETATM    3  C3  UNL     1     -34.045  15.153  -5.686  1.00 20.00     0.008 C 
HETATM    4  C4  UNL     1     -33.910  13.805  -3.753  1.00 20.00     0.012 C 
HETATM    5  C5  UNL     1     -36.117  14.721  -3.604  1.00 20.00     0.046 C 
HETATM    6  C6  UNL     1     -35.312  13.624  -4.333  1.00 20.00    -0.011 C 
HETATM    7  C7  UNL     1     -33.834  15.284  -4.163  1.00 20.00     0.024 C 
HETATM    8  C8  UNL     1     -35.088  15.865  -3.453  1.00 20.00     0.129 C 
HETATM    9  N9  UNL     1     -34.591  16.396  -0.923  1.00 20.00    -0.195 NA
HETATM   10 CL10 UNL     1     -35.671  17.388  -4.169  1.00 20.00    -0.102 Cl
ENDROOT
TORSDOF 0
ENDMDL
MODEL 7
REMARK VINA RESULT:      -4.4      2.024      2.492
REMARK  0 active torsions:
REMARK  status: ('A' for Active; 'I' for Inactive)
ROOT
HETATM    1  C1  UNL     1     -37.036  14.512  -3.974  1.00 20.00     0.086 C 
HETATM    2  C2  UNL     1     -33.246  16.486  -4.625  1.00 20.00     0.005 C 
HETATM    3  C3  UNL     1     -33.937  15.861  -5.844  1.00 20.00     0.008 C 
HETATM    4  C4  UNL     1     -35.547  17.092  -4.632  1.00 20.00     0.012 C 
HETATM    5  C5  UNL     1     -34.887  15.404  -3.067  1.00 20.00     0.046 C 
HETATM    6  C6  UNL     1     -34.416  16.749  -3.663  1.00 20.00    -0.011 C 
HETATM    7  C7  UNL     1     -35.412  15.767  -5.399  1.00 20.00     0.024 C 
HETATM    8  C8  UNL     1     -35.607  14.730  -4.258  1.00 20.00     0.129 C 
HETATM    9  N9  UNL     1     -38.162  14.340  -3.752  1.00 20.00    -0.195 NA
HETATM   10 CL10 UNL     1     -34.930  13.125  -4.628  1.00 20.00    -0.102 Cl
ENDROOT
TORSDOF 0
ENDMDL
MODEL 8
REMARK VINA RESULT:      -4.4      1.379      1.830
REMARK  0 active torsions:
REMARK  status: ('A' for Active; 'I' for Inactive)
ROOT
HETATM    1  C1  UNL     1     -34.505  13.653  -4.324  1.00 20.00     0.086 C 
HETATM    2  C2  UNL     1     -34.184  17.903  -3.605  1.00 20.00     0.005 C 
HETATM    3  C3  UNL     1     -33.432  17.330  -4.815  1.00 20.00     0.008 C 
HETATM    4  C4  UNL     1     -35.622  16.448  -4.819  1.00 20.00     0.012 C 
HETATM    5  C5  UNL     1     -34.716  15.599  -2.772  1.00 20.00     0.046 C 
HETATM    6  C6  UNL     1     -35.313  16.883  -3.387  1.00 20.00    -0.011 C 
HETATM    7  C7  UNL     1     -34.175  16.007  -5.093  1.00 20.00     0.024 C 
HETATM    8  C8  UNL     1     -33.951  14.968  -3.959  1.00 20.00     0.129 C 
HETATM    9  N9  UNL     1     -34.941  12.617  -4.612  1.00 20.00    -0.195 NA
HETATM   10 CL10 UNL     1     -32.235  14.689  -3.577  1.00 20.00    -0.102 Cl
ENDROOT
TORSDOF 0
ENDMDL
MODEL 9
REMARK VINA RESULT:      -4.4      1.814      2.525
REMARK  0 active torsions:
REMARK  status: ('A' for Active; 'I' for Inactive)
ROOT
HETATM    1  C1  UNL     1     -36.539  15.095  -5.796  1.00 20.00     0.086 C 
HETATM    2  C2  UNL     1     -32.844  14.387  -3.669  1.00 20.00     0.005 C 
HETATM    3  C3  UNL     1     -33.078  15.795  -4.234  1.00 20.00     0.008 C 
HETATM    4  C4  UNL     1     -35.049  15.102  -3.135  1.00 20.00     0.012 C 
HETATM    5  C5  UNL     1     -34.839  13.499  -4.902  1.00 20.00     0.046 C 
HETATM    6  C6  UNL     1     -34.271  13.840  -3.506  1.00 20.00    -0.011 C 
HETATM    7  C7  UNL     1     -34.610  15.853  -4.402  1.00 20.00     0.024 C 
HETATM    8  C8  UNL     1     -35.107  14.892  -5.517  1.00 20.00     0.129 C 
HETATM    9  N9  UNL     1     -37.667  15.255  -6.017  1.00 20.00    -0.195 NA
HETATM   10 CL10 UNL     1     -34.268  15.109  -7.072  1.00 20.00    -0.102 Cl
ENDROOT
TORSDOF 0
ENDMDL
