MODEL 1
REMARK VINA RESULT:      -4.8      0.000      0.000
REMARK  1 active torsions:
REMARK  status: ('A' for Active; 'I' for Inactive)
REMARK    1  A    between atoms: C8_8  and  O10_10 
ROOT
HETATM    1  C1  UNL     1     -34.643  15.572  -2.680  1.00 20.00     0.005 C 
HETATM    2  C2  UNL     1     -33.217  13.781  -3.696  1.00 20.00     0.005 C 
HETATM    3  C3  UNL     1     -35.807  15.137  -3.581  1.00 20.00     0.008 C 
HETATM    4  C4  UNL     1     -34.391  13.370  -4.596  1.00 20.00     0.008 C 
HETATM    5  C5  UNL     1     -33.228  16.084  -4.682  1.00 20.00     0.042 C 
HETATM    6  C6  UNL     1     -33.296  15.282  -3.368  1.00 20.00    -0.012 C 
HETATM    7  C7  UNL     1     -35.265  14.602  -4.918  1.00 20.00     0.019 C 
HETATM    8  C8  UNL     1     -34.392  15.679  -5.618  1.00 20.00     0.058 C 
HETATM    9  C9  UNL     1     -35.199  16.905  -6.057  1.00 20.00     0.046 C 
ENDROOT
BRANCH   8  10
HETATM   10  O10 UNL     1     -33.824  15.117  -6.807  1.00 20.00    -0.390 OA
HETATM   11  H26 UNL     1     -34.369  14.348  -7.027  1.00 20.00     0.210 HD
ENDBRANCH   8  10
TORSDOF 1
ENDMDL
MODEL 2
REMARK VINA RESULT:      -4.7      1.342      2.548
REMARK  1 active torsions:
REMARK  status: ('A' for Active; 'I' for Inactive)
REMARK    1  A    between atoms: C8_8  and  O10_10 
ROOT
HETATM    1  C1  UNL     1     -36.417  14.395  -4.103  1.00 20.00     0.005 C 
HETATM    2  C2  UNL     1     -34.863  13.742  -5.955  1.00 20.00     0.005 C 
HETATM    3  C3  UNL     1     -36.126  15.872  -4.395  1.00 20.00     0.008 C 
HETATM    4  C4  UNL     1     -34.576  15.226  -6.224  1.00 20.00     0.008 C 
HETATM    5  C5  UNL     1     -33.998  13.967  -3.615  1.00 20.00     0.042 C 
HETATM    6  C6  UNL     1     -35.201  13.525  -4.471  1.00 20.00    -0.012 C 
HETATM    7  C7  UNL     1     -34.683  16.031  -4.910  1.00 20.00     0.019 C 
HETATM    8  C8  UNL     1     -33.675  15.457  -3.877  1.00 20.00     0.058 C 
HETATM    9  C9  UNL     1     -33.647  16.254  -2.569  1.00 20.00     0.046 C 
ENDROOT
BRANCH   8  10
HETATM   10  O10 UNL     1     -32.353  15.531  -4.427  1.00 20.00    -0.390 OA
HETATM   11  H26 UNL     1     -31.998  14.631  -4.391  1.00 20.00     0.210 HD
ENDBRANCH   8  10
TORSDOF 1
ENDMDL
MODEL 3
REMARK VINA RESULT:      -4.5      1.769      2.954
REMARK  1 active torsions:
REMARK  status: ('A' for Active; 'I' for Inactive)
REMARK    1  A    between atoms: C8_8  and  O10_10 
ROOT
HETATM    1  C1  UNL     1     -33.064  15.975  -4.873  1.00 20.00     0.005 C 
HETATM    2  C2  UNL     1     -34.889  14.555  -5.834  1.00 20.00     0.005 C 
HETATM    3  C3  UNL     1     -32.968  15.020  -3.676  1.00 20.00     0.008 C 
HETATM    4  C4  UNL     1     -34.785  13.618  -4.622  1.00 20.00     0.008 C 
HETATM    5  C5  UNL     1     -35.458  16.480  -4.335  1.00 20.00     0.042 C 
HETATM    6  C6  UNL     1     -34.497  15.987  -5.436  1.00 20.00    -0.012 C 
HETATM    7  C7  UNL     1     -34.352  14.417  -3.373  1.00 20.00     0.019 C 
HETATM    8  C8  UNL     1     -35.386  15.545  -3.105  1.00 20.00     0.058 C 
HETATM    9  C9  UNL     1     -35.085  16.335  -1.828  1.00 20.00     0.046 C 
ENDROOT
BRANCH   8  10
HETATM   10  O10 UNL     1     -36.680  14.956  -2.925  1.00 20.00    -0.390 OA
HETATM   11  H26 UNL     1     -37.092  15.432  -2.190  1.00 20.00     0.210 HD
ENDBRANCH   8  10
TORSDOF 1
ENDMDL
MODEL 4
REMARK VINA RESULT:      -4.5      1.588      3.115
REMARK  1 active torsions:
REMARK  status: ('A' for Active; 'I' for Inactive)
REMARK    1  A    between atoms: C8_8  and  O10_10 
ROOT
HETATM    1  C1  UNL     1     -34.762  16.831  -4.862  1.00 20.00     0.005 C 
HETATM    2  C2  UNL     1     -36.786  15.467  -5.424  1.00 20.00     0.005 C 
HETATM    3  C3  UNL     1     -33.912  15.911  -5.748  1.00 20.00     0.008 C 
HETATM    4  C4  UNL     1     -35.915  14.552  -6.297  1.00 20.00     0.008 C 
HETATM    5  C5  UNL     1     -35.415  14.901  -3.406  1.00 20.00     0.042 C 
HETATM    6  C6  UNL     1     -35.955  16.056  -4.272  1.00 20.00    -0.012 C 
HETATM    7  C7  UNL     1     -34.482  14.482  -5.721  1.00 20.00     0.019 C 
HETATM    8  C8  UNL     1     -34.543  13.951  -4.263  1.00 20.00     0.058 C 
HETATM    9  C9  UNL     1     -33.157  13.763  -3.641  1.00 20.00     0.046 C 
ENDROOT
BRANCH   8  10
HETATM   10  O10 UNL     1     -35.169  12.662  -4.263  1.00 20.00    -0.390 OA
HETATM   11  H26 UNL     1     -35.472  12.511  -3.356  1.00 20.00     0.210 HD
ENDBRANCH   8  10
TORSDOF 1
ENDMDL
MODEL 5
REMARK VINA RESULT:      -4.5     11.562     12.611
REMARK  1 active torsions:
REMARK  status: ('A' for Active; 'I' for Inactive)
REMARK    1  A    between atoms: C8_8  and  O10_10 
ROOT
HETATM    1  C1  UNL     1     -42.299   4.758   0.595  1.00 20.00     0.005 C 
HETATM    2  C2  UNL     1     -40.785   4.167  -1.310  1.00 20.00     0.005 C 
HETATM    3  C3  UNL     1     -43.417   5.072  -0.407  1.00 20.00     0.008 C 
HETATM    4  C4  UNL     1     -41.914   4.497  -2.297  1.00 20.00     0.008 C 
HETATM    5  C5  UNL     1     -40.830   6.511  -0.427  1.00 20.00     0.042 C 
HETATM    6  C6  UNL     1     -40.921   5.022  -0.039  1.00 20.00    -0.012 C 
HETATM    7  C7  UNL     1     -42.813   5.611  -1.716  1.00 20.00     0.019 C 
HETATM    8  C8  UNL     1     -41.948   6.870  -1.434  1.00 20.00     0.058 C 
HETATM    9  C9  UNL     1     -42.776   8.060  -0.939  1.00 20.00     0.046 C 
ENDROOT
BRANCH   8  10
HETATM   10  O10 UNL     1     -41.323   7.288  -2.654  1.00 20.00    -0.390 OA
HETATM   11  H26 UNL     1     -40.428   6.920  -2.636  1.00 20.00     0.210 HD
ENDBRANCH   8  10
TORSDOF 1
ENDMDL
MODEL 6
REMARK VINA RESULT:      -4.5      1.136      2.073
REMARK  1 active torsions:
REMARK  status: ('A' for Active; 'I' for Inactive)
REMARK    1  A    between atoms: C8_8  and  O10_10 
ROOT
HETATM    1  C1  UNL     1     -36.473  14.610  -3.906  1.00 20.00     0.005 C 
HETATM    2  C2  UNL     1     -34.736  15.728  -2.489  1.00 20.00     0.005 C 
HETATM    3  C3  UNL     1     -35.417  13.604  -4.384  1.00 20.00     0.008 C 
HETATM    4  C4  UNL     1     -33.693  14.719  -2.988  1.00 20.00     0.008 C 
HETATM    5  C5  UNL     1     -35.139  16.517  -4.832  1.00 20.00     0.042 C 
HETATM    6  C6  UNL     1     -35.813  15.958  -3.563  1.00 20.00    -0.012 C 
HETATM    7  C7  UNL     1     -34.033  14.277  -4.430  1.00 20.00     0.019 C 
HETATM    8  C8  UNL     1     -34.070  15.527  -5.351  1.00 20.00     0.058 C 
HETATM    9  C9  UNL     1     -34.312  15.173  -6.822  1.00 20.00     0.046 C 
ENDROOT
BRANCH   8  10
HETATM   10  O10 UNL     1     -32.798  16.184  -5.294  1.00 20.00    -0.390 OA
HETATM   11  H26 UNL     1     -32.365  16.005  -6.141  1.00 20.00     0.210 HD
ENDBRANCH   8  10
TORSDOF 1
ENDMDL
MODEL 7
REMARK VINA RESULT:      -4.4      1.590      2.810
REMARK  1 active torsions:
REMARK  status: ('A' for Active; 'I' for Inactive)
REMARK    1  A    between atoms: C8_8  and  O10_10 
ROOT
HETATM    1  C1  UNL     1     -36.002  16.596  -4.254  1.00 20.00     0.005 C 
HETATM    2  C2  UNL     1     -33.895  17.582  -3.325  1.00 20.00     0.005 C 
HETATM    3  C3  UNL     1     -35.951  15.505  -3.177  1.00 20.00     0.008 C 
HETATM    4  C4  UNL     1     -33.857  16.476  -2.262  1.00 20.00     0.008 C 
HETATM    5  C5  UNL     1     -33.778  15.874  -5.153  1.00 20.00     0.042 C 
HETATM    6  C6  UNL     1     -34.579  17.071  -4.604  1.00 20.00    -0.012 C 
HETATM    7  C7  UNL     1     -34.487  15.182  -2.825  1.00 20.00     0.019 C 
HETATM    8  C8  UNL     1     -33.709  14.746  -4.096  1.00 20.00     0.058 C 
HETATM    9  C9  UNL     1     -34.209  13.418  -4.673  1.00 20.00     0.046 C 
ENDROOT
BRANCH   8  10
HETATM   10  O10 UNL     1     -32.331  14.549  -3.754  1.00 20.00    -0.390 OA
HETATM   11  H26 UNL     1     -32.175  13.595  -3.809  1.00 20.00     0.210 HD
ENDBRANCH   8  10
TORSDOF 1
ENDMDL
MODEL 8
REMARK VINA RESULT:      -4.4     11.949     13.131
REMARK  1 active torsions:
REMARK  status: ('A' for Active; 'I' for Inactive)
REMARK    1  A    between atoms: C8_8  and  O10_10 
ROOT
HETATM    1  C1  UNL     1     -43.395   6.985  -0.618  1.00 20.00     0.005 C 
HETATM    2  C2  UNL     1     -40.917   7.130  -0.951  1.00 20.00     0.005 C 
HETATM    3  C3  UNL     1     -43.176   5.894   0.439  1.00 20.00     0.008 C 
HETATM    4  C4  UNL     1     -40.720   6.029   0.101  1.00 20.00     0.008 C 
HETATM    5  C5  UNL     1     -42.282   5.578  -2.366  1.00 20.00     0.042 C 
HETATM    6  C6  UNL     1     -42.267   6.951  -1.665  1.00 20.00    -0.012 C 
HETATM    7  C7  UNL     1     -41.928   5.064   0.087  1.00 20.00     0.019 C 
HETATM    8  C8  UNL     1     -42.071   4.447  -1.331  1.00 20.00     0.058 C 
HETATM    9  C9  UNL     1     -43.191   3.406  -1.415  1.00 20.00     0.046 C 
ENDROOT
BRANCH   8  10
HETATM   10  O10 UNL     1     -40.855   3.766  -1.667  1.00 20.00    -0.390 OA
HETATM   11  H26 UNL     1     -40.982   3.414  -2.560  1.00 20.00     0.210 HD
ENDBRANCH   8  10
TORSDOF 1
ENDMDL
MODEL 9
REMARK VINA RESULT:      -4.4      1.493      2.514
REMARK  1 active torsions:
REMARK  status: ('A' for Active; 'I' for Inactive)
REMARK    1  A    between atoms: C8_8  and  O10_10 
ROOT
HETATM    1  C1  UNL     1     -33.537  16.618  -4.436  1.00 20.00     0.005 C 
HETATM    2  C2  UNL     1     -34.526  15.713  -2.321  1.00 20.00     0.005 C 
HETATM    3  C3  UNL     1     -34.924  16.574  -5.089  1.00 20.00     0.008 C 
HETATM    4  C4  UNL     1     -35.904  15.667  -2.996  1.00 20.00     0.008 C 
HETATM    5  C5  UNL     1     -33.596  14.146  -4.039  1.00 20.00     0.042 C 
HETATM    6  C6  UNL     1     -33.413  15.520  -3.364  1.00 20.00    -0.012 C 
HETATM    7  C7  UNL     1     -35.740  15.404  -4.510  1.00 20.00     0.019 C 
HETATM    8  C8  UNL     1     -34.984  14.063  -4.717  1.00 20.00     0.058 C 
HETATM    9  C9  UNL     1     -34.856  13.675  -6.193  1.00 20.00     0.046 C 
ENDROOT
BRANCH   8  10
HETATM   10  O10 UNL     1     -35.721  13.011  -4.082  1.00 20.00    -0.390 OA
HETATM   11  H26 UNL     1     -35.085  12.301  -3.914  1.00 20.00     0.210 HD
ENDBRANCH   8  10
TORSDOF 1
ENDMDL
