MODEL 1
REMARK VINA RESULT:      -4.6      0.000      0.000
REMARK  0 active torsions:
REMARK  status: ('A' for Active; 'I' for Inactive)
ROOT
HETATM    1  C1  UNL     1     -33.516  17.319  -4.939  1.00 20.00     0.018 C 
HETATM    2  C2  UNL     1     -35.743  14.632  -3.778  1.00 20.00     0.018 C 
HETATM    3  C3  UNL     1     -33.787  16.164  -5.908  1.00 20.00     0.022 C 
HETATM    4  C4  UNL     1     -34.344  14.728  -3.161  1.00 20.00     0.022 C 
HETATM    5  C5  UNL     1     -34.281  17.303  -3.607  1.00 20.00     0.066 C 
HETATM    6  C6  UNL     1     -36.118  15.713  -4.803  1.00 20.00     0.066 C 
HETATM    7  C7  UNL     1     -35.267  15.805  -6.084  1.00 20.00     0.096 C 
HETATM    8  C8  UNL     1     -33.922  16.122  -2.683  1.00 20.00     0.096 C 
HETATM    9  S9  UNL     1     -36.063  17.330  -3.975  1.00 20.00    -0.156 SA
HETATM   10 CL10 UNL     1     -35.390  14.282  -7.028  1.00 20.00    -0.124 Cl
HETATM   11 CL11 UNL     1     -34.611  16.409  -1.037  1.00 20.00    -0.124 Cl
ENDROOT
TORSDOF 0
ENDMDL
MODEL 2
REMARK VINA RESULT:      -4.5      1.661      2.625
REMARK  0 active torsions:
REMARK  status: ('A' for Active; 'I' for Inactive)
ROOT
HETATM    1  C1  UNL     1     -35.099  13.630  -4.350  1.00 20.00     0.018 C 
HETATM    2  C2  UNL     1     -34.429  17.242  -4.541  1.00 20.00     0.018 C 
HETATM    3  C3  UNL     1     -35.366  14.324  -5.689  1.00 20.00     0.022 C 
HETATM    4  C4  UNL     1     -35.640  16.775  -3.729  1.00 20.00     0.022 C 
HETATM    5  C5  UNL     1     -34.476  14.486  -3.236  1.00 20.00     0.066 C 
HETATM    6  C6  UNL     1     -33.557  16.144  -5.170  1.00 20.00     0.066 C 
HETATM    7  C7  UNL     1     -34.222  15.208  -6.197  1.00 20.00     0.096 C 
HETATM    8  C8  UNL     1     -35.378  15.633  -2.739  1.00 20.00     0.096 C 
HETATM    9  S9  UNL     1     -32.877  15.118  -3.832  1.00 20.00    -0.156 SA
HETATM   10 CL10 UNL     1     -34.793  16.144  -7.619  1.00 20.00    -0.124 Cl
HETATM   11 CL11 UNL     1     -34.691  16.328  -1.218  1.00 20.00    -0.124 Cl
ENDROOT
TORSDOF 0
ENDMDL
MODEL 3
REMARK VINA RESULT:      -4.5      1.506      3.994
REMARK  0 active torsions:
REMARK  status: ('A' for Active; 'I' for Inactive)
ROOT
HETATM    1  C1  UNL     1     -33.731  13.577  -4.087  1.00 20.00     0.018 C 
HETATM    2  C2  UNL     1     -35.298  16.773  -5.010  1.00 20.00     0.018 C 
HETATM    3  C3  UNL     1     -33.284  14.825  -3.321  1.00 20.00     0.022 C 
HETATM    4  C4  UNL     1     -34.304  16.147  -5.992  1.00 20.00     0.022 C 
HETATM    5  C5  UNL     1     -34.871  13.755  -5.102  1.00 20.00     0.066 C 
HETATM    6  C6  UNL     1     -35.599  15.975  -3.733  1.00 20.00     0.066 C 
HETATM    7  C7  UNL     1     -34.425  15.691  -2.777  1.00 20.00     0.096 C 
HETATM    8  C8  UNL     1     -34.518  14.660  -6.299  1.00 20.00     0.096 C 
HETATM    9  S9  UNL     1     -36.330  14.381  -4.213  1.00 20.00    -0.156 SA
HETATM   10 CL10 UNL     1     -33.743  17.230  -2.150  1.00 20.00    -0.124 Cl
HETATM   11 CL11 UNL     1     -35.792  14.505  -7.571  1.00 20.00    -0.124 Cl
ENDROOT
TORSDOF 0
ENDMDL
MODEL 4
REMARK VINA RESULT:      -4.5      1.493      2.209
REMARK  0 active torsions:
REMARK  status: ('A' for Active; 'I' for Inactive)
ROOT
HETATM    1  C1  UNL     1     -33.800  13.600  -4.163  1.00 20.00     0.018 C 
HETATM    2  C2  UNL     1     -35.969  16.537  -4.607  1.00 20.00     0.018 C 
HETATM    3  C3  UNL     1     -34.819  13.554  -5.305  1.00 20.00     0.022 C 
HETATM    4  C4  UNL     1     -36.217  15.632  -3.396  1.00 20.00     0.022 C 
HETATM    5  C5  UNL     1     -33.704  14.912  -3.369  1.00 20.00     0.066 C 
HETATM    6  C6  UNL     1     -34.786  16.163  -5.513  1.00 20.00     0.066 C 
HETATM    7  C7  UNL     1     -34.829  14.791  -6.211  1.00 20.00     0.096 C 
HETATM    8  C8  UNL     1     -34.976  15.266  -2.574  1.00 20.00     0.096 C 
HETATM    9  S9  UNL     1     -33.262  16.245  -4.527  1.00 20.00    -0.156 SA
HETATM   10 CL10 UNL     1     -36.241  14.694  -7.316  1.00 20.00    -0.124 Cl
HETATM   11 CL11 UNL     1     -34.617  16.616  -1.427  1.00 20.00    -0.124 Cl
ENDROOT
TORSDOF 0
ENDMDL
MODEL 5
REMARK VINA RESULT:      -4.5      1.362      3.974
REMARK  0 active torsions:
REMARK  status: ('A' for Active; 'I' for Inactive)
ROOT
HETATM    1  C1  UNL     1     -34.922  13.461  -4.556  1.00 20.00     0.018 C 
HETATM    2  C2  UNL     1     -34.740  17.133  -4.667  1.00 20.00     0.018 C 
HETATM    3  C3  UNL     1     -34.411  14.177  -3.302  1.00 20.00     0.022 C 
HETATM    4  C4  UNL     1     -33.726  16.335  -5.492  1.00 20.00     0.022 C 
HETATM    5  C5  UNL     1     -35.411  14.348  -5.712  1.00 20.00     0.066 C 
HETATM    6  C6  UNL     1     -35.792  16.320  -3.896  1.00 20.00     0.066 C 
HETATM    7  C7  UNL     1     -35.287  15.340  -2.822  1.00 20.00     0.096 C 
HETATM    8  C8  UNL     1     -34.310  15.212  -6.358  1.00 20.00     0.096 C 
HETATM    9  S9  UNL     1     -36.779  15.379  -5.097  1.00 20.00    -0.156 SA
HETATM   10 CL10 UNL     1     -34.420  16.226  -1.523  1.00 20.00    -0.124 Cl
HETATM   11 CL11 UNL     1     -34.926  15.924  -7.900  1.00 20.00    -0.124 Cl
ENDROOT
TORSDOF 0
ENDMDL
MODEL 6
REMARK VINA RESULT:      -4.4      1.301      3.747
REMARK  0 active torsions:
REMARK  status: ('A' for Active; 'I' for Inactive)
ROOT
HETATM    1  C1  UNL     1     -35.711  17.660  -4.593  1.00 20.00     0.018 C 
HETATM    2  C2  UNL     1     -34.379  14.469  -3.341  1.00 20.00     0.018 C 
HETATM    3  C3  UNL     1     -35.693  17.454  -3.076  1.00 20.00     0.022 C 
HETATM    4  C4  UNL     1     -35.740  14.457  -4.043  1.00 20.00     0.022 C 
HETATM    5  C5  UNL     1     -35.075  16.556  -5.453  1.00 20.00     0.066 C 
HETATM    6  C6  UNL     1     -33.655  15.822  -3.267  1.00 20.00     0.066 C 
HETATM    7  C7  UNL     1     -34.356  16.964  -2.508  1.00 20.00     0.096 C 
HETATM    8  C8  UNL     1     -35.804  15.200  -5.383  1.00 20.00     0.096 C 
HETATM    9  S9  UNL     1     -33.331  16.390  -4.963  1.00 20.00    -0.156 SA
HETATM   10 CL10 UNL     1     -34.581  16.523  -0.782  1.00 20.00    -0.124 Cl
HETATM   11 CL11 UNL     1     -35.182  14.110  -6.684  1.00 20.00    -0.124 Cl
ENDROOT
TORSDOF 0
ENDMDL
MODEL 7
REMARK VINA RESULT:      -4.4      1.435      3.748
REMARK  0 active torsions:
REMARK  status: ('A' for Active; 'I' for Inactive)
ROOT
HETATM    1  C1  UNL     1     -33.345  16.354  -5.225  1.00 20.00     0.018 C 
HETATM    2  C2  UNL     1     -36.507  15.170  -3.767  1.00 20.00     0.018 C 
HETATM    3  C3  UNL     1     -33.649  16.762  -3.780  1.00 20.00     0.022 C 
HETATM    4  C4  UNL     1     -36.571  16.260  -4.842  1.00 20.00     0.022 C 
HETATM    5  C5  UNL     1     -34.341  15.400  -5.902  1.00 20.00     0.066 C 
HETATM    6  C6  UNL     1     -35.114  14.622  -3.426  1.00 20.00     0.066 C 
HETATM    7  C7  UNL     1     -34.077  15.612  -2.862  1.00 20.00     0.096 C 
HETATM    8  C8  UNL     1     -35.748  15.995  -6.108  1.00 20.00     0.096 C 
HETATM    9  S9  UNL     1     -34.413  13.867  -4.923  1.00 20.00    -0.156 SA
HETATM   10 CL10 UNL     1     -34.646  16.292  -1.300  1.00 20.00    -0.124 Cl
HETATM   11 CL11 UNL     1     -36.702  14.925  -7.210  1.00 20.00    -0.124 Cl
ENDROOT
TORSDOF 0
ENDMDL
MODEL 8
REMARK VINA RESULT:      -4.2      1.670      3.971
REMARK  0 active torsions:
REMARK  status: ('A' for Active; 'I' for Inactive)
ROOT
HETATM    1  C1  UNL     1     -36.229  14.016  -4.178  1.00 20.00     0.018 C 
HETATM    2  C2  UNL     1     -33.834  16.070  -6.067  1.00 20.00     0.018 C 
HETATM    3  C3  UNL     1     -34.742  13.824  -3.868  1.00 20.00     0.022 C 
HETATM    4  C4  UNL     1     -34.556  14.941  -6.807  1.00 20.00     0.022 C 
HETATM    5  C5  UNL     1     -36.594  15.125  -5.178  1.00 20.00     0.066 C 
HETATM    6  C6  UNL     1     -34.217  16.283  -4.594  1.00 20.00     0.066 C 
HETATM    7  C7  UNL     1     -33.963  15.120  -3.617  1.00 20.00     0.096 C 
HETATM    8  C8  UNL     1     -36.076  14.882  -6.609  1.00 20.00     0.096 C 
HETATM    9  S9  UNL     1     -35.982  16.706  -4.518  1.00 20.00    -0.156 SA
HETATM   10 CL10 UNL     1     -32.209  14.742  -3.536  1.00 20.00    -0.124 Cl
HETATM   11 CL11 UNL     1     -36.857  16.054  -7.742  1.00 20.00    -0.124 Cl
ENDROOT
TORSDOF 0
ENDMDL
MODEL 9
REMARK VINA RESULT:      -4.2      1.892      2.217
REMARK  0 active torsions:
REMARK  status: ('A' for Active; 'I' for Inactive)
ROOT
HETATM    1  C1  UNL     1     -33.822  17.397  -5.177  1.00 20.00     0.018 C 
HETATM    2  C2  UNL     1     -34.691  15.883  -1.940  1.00 20.00     0.018 C 
HETATM    3  C3  UNL     1     -33.208  16.032  -4.853  1.00 20.00     0.022 C 
HETATM    4  C4  UNL     1     -33.759  17.098  -1.941  1.00 20.00     0.022 C 
HETATM    5  C5  UNL     1     -34.829  17.965  -4.165  1.00 20.00     0.066 C 
HETATM    6  C6  UNL     1     -35.231  15.428  -3.305  1.00 20.00     0.066 C 
HETATM    7  C7  UNL     1     -34.205  14.977  -4.362  1.00 20.00     0.096 C 
HETATM    8  C8  UNL     1     -34.224  18.292  -2.785  1.00 20.00     0.096 C 
HETATM    9  S9  UNL     1     -36.208  16.787  -4.015  1.00 20.00    -0.156 SA
HETATM   10 CL10 UNL     1     -33.297  13.541  -3.779  1.00 20.00    -0.124 Cl
HETATM   11 CL11 UNL     1     -35.405  19.263  -1.821  1.00 20.00    -0.124 Cl
ENDROOT
TORSDOF 0
ENDMDL
