MODEL 1
REMARK VINA RESULT:      -4.8      0.000      0.000
REMARK  1 active torsions:
REMARK  status: ('A' for Active; 'I' for Inactive)
REMARK    1  A    between atoms: C9_9  and  O11_11 
ROOT
HETATM    1  C1  UNL     1     -34.976  16.467  -1.872  1.00 20.00    -0.025 C 
HETATM    2  C2  UNL     1     -35.808  17.002  -2.786  1.00 20.00    -0.025 C 
HETATM    3  C3  UNL     1     -33.914  13.529  -3.679  1.00 20.00    -0.022 C 
HETATM    4  C4  UNL     1     -34.461  13.251  -4.885  1.00 20.00     0.001 C 
HETATM    5  C5  UNL     1     -33.726  17.291  -3.618  1.00 20.00     0.018 C 
HETATM    6  C6  UNL     1     -33.677  16.135  -2.569  1.00 20.00     0.017 C 
HETATM    7  C7  UNL     1     -35.116  16.908  -4.146  1.00 20.00     0.016 C 
HETATM    8  C8  UNL     1     -33.761  15.001  -3.604  1.00 20.00     0.023 C 
HETATM    9  C9  UNL     1     -34.932  14.516  -5.608  1.00 20.00     0.146 C 
HETATM   10  C10 UNL     1     -35.056  15.384  -4.376  1.00 20.00     0.034 C 
ENDROOT
BRANCH   9  11
HETATM   11  O11 UNL     1     -33.965  14.968  -6.532  1.00 20.00    -0.391 OA
HETATM   12  H23 UNL     1     -33.348  14.232  -6.688  1.00 20.00     0.210 HD
ENDBRANCH   9  11
TORSDOF 1
ENDMDL
MODEL 2
REMARK VINA RESULT:      -4.8      1.354      1.746
REMARK  1 active torsions:
REMARK  status: ('A' for Active; 'I' for Inactive)
REMARK    1  A    between atoms: C9_9  and  O11_11 
ROOT
HETATM    1  C1  UNL     1     -33.695  17.338  -1.361  1.00 20.00    -0.025 C 
HETATM    2  C2  UNL     1     -34.901  16.845  -1.021  1.00 20.00    -0.025 C 
HETATM    3  C3  UNL     1     -32.661  14.815  -3.725  1.00 20.00    -0.022 C 
HETATM    4  C4  UNL     1     -33.440  13.727  -3.926  1.00 20.00     0.001 C 
HETATM    5  C5  UNL     1     -35.131  17.600  -3.139  1.00 20.00     0.018 C 
HETATM    6  C6  UNL     1     -33.612  17.353  -2.870  1.00 20.00     0.017 C 
HETATM    7  C7  UNL     1     -35.591  16.393  -2.308  1.00 20.00     0.016 C 
HETATM    8  C8  UNL     1     -33.572  15.968  -3.536  1.00 20.00     0.023 C 
HETATM    9  C9  UNL     1     -34.919  14.021  -3.654  1.00 20.00     0.146 C 
HETATM   10  C10 UNL     1     -34.696  15.223  -2.763  1.00 20.00     0.034 C 
ENDROOT
BRANCH   9  11
HETATM   11  O11 UNL     1     -35.610  14.314  -4.849  1.00 20.00    -0.391 OA
HETATM   12  H23 UNL     1     -35.818  13.467  -5.280  1.00 20.00     0.210 HD
ENDBRANCH   9  11
TORSDOF 1
ENDMDL
MODEL 3
REMARK VINA RESULT:      -4.8      1.924      3.337
REMARK  1 active torsions:
REMARK  status: ('A' for Active; 'I' for Inactive)
REMARK    1  A    between atoms: C9_9  and  O11_11 
ROOT
HETATM    1  C1  UNL     1     -35.320  17.006  -6.897  1.00 20.00    -0.025 C 
HETATM    2  C2  UNL     1     -36.457  16.286  -6.936  1.00 20.00    -0.025 C 
HETATM    3  C3  UNL     1     -33.745  15.482  -4.029  1.00 20.00    -0.022 C 
HETATM    4  C4  UNL     1     -34.411  14.538  -3.323  1.00 20.00     0.001 C 
HETATM    5  C5  UNL     1     -34.819  14.871  -7.589  1.00 20.00     0.018 C 
HETATM    6  C6  UNL     1     -34.165  16.039  -6.785  1.00 20.00     0.017 C 
HETATM    7  C7  UNL     1     -36.079  14.821  -6.712  1.00 20.00     0.016 C 
HETATM    8  C8  UNL     1     -34.083  15.269  -5.457  1.00 20.00     0.023 C 
HETATM    9  C9  UNL     1     -35.421  13.779  -4.188  1.00 20.00     0.146 C 
HETATM   10  C10 UNL     1     -35.563  14.837  -5.259  1.00 20.00     0.034 C 
ENDROOT
BRANCH   9  11
HETATM   11  O11 UNL     1     -34.881  12.561  -4.655  1.00 20.00    -0.391 OA
HETATM   12  H23 UNL     1     -33.915  12.611  -4.545  1.00 20.00     0.210 HD
ENDBRANCH   9  11
TORSDOF 1
ENDMDL
MODEL 4
REMARK VINA RESULT:      -4.7      1.576      2.900
REMARK  1 active torsions:
REMARK  status: ('A' for Active; 'I' for Inactive)
REMARK    1  A    between atoms: C9_9  and  O11_11 
ROOT
HETATM    1  C1  UNL     1     -32.678  14.759  -3.619  1.00 20.00    -0.025 C 
HETATM    2  C2  UNL     1     -33.296  13.564  -3.686  1.00 20.00    -0.025 C 
HETATM    3  C3  UNL     1     -33.976  16.272  -6.628  1.00 20.00    -0.022 C 
HETATM    4  C4  UNL     1     -34.764  15.547  -7.455  1.00 20.00     0.001 C 
HETATM    5  C5  UNL     1     -34.917  15.057  -3.188  1.00 20.00     0.018 C 
HETATM    6  C6  UNL     1     -33.723  15.830  -3.832  1.00 20.00     0.017 C 
HETATM    7  C7  UNL     1     -34.749  13.821  -4.083  1.00 20.00     0.016 C 
HETATM    8  C8  UNL     1     -34.330  15.880  -5.243  1.00 20.00     0.023 C 
HETATM    9  C9  UNL     1     -35.532  14.453  -6.706  1.00 20.00     0.146 C 
HETATM   10  C10 UNL     1     -34.603  14.374  -5.515  1.00 20.00     0.034 C 
ENDROOT
BRANCH   9  11
HETATM   11  O11 UNL     1     -36.840  14.875  -6.385  1.00 20.00    -0.391 OA
HETATM   12  H23 UNL     1     -37.363  14.850  -7.205  1.00 20.00     0.210 HD
ENDBRANCH   9  11
TORSDOF 1
ENDMDL
MODEL 5
REMARK VINA RESULT:      -4.7      1.399      1.823
REMARK  1 active torsions:
REMARK  status: ('A' for Active; 'I' for Inactive)
REMARK    1  A    between atoms: C9_9  and  O11_11 
ROOT
HETATM    1  C1  UNL     1     -35.820  17.539  -1.696  1.00 20.00    -0.025 C 
HETATM    2  C2  UNL     1     -35.206  18.446  -2.480  1.00 20.00    -0.025 C 
HETATM    3  C3  UNL     1     -35.082  14.539  -3.563  1.00 20.00    -0.022 C 
HETATM    4  C4  UNL     1     -34.437  14.631  -4.749  1.00 20.00     0.001 C 
HETATM    5  C5  UNL     1     -33.544  17.281  -1.485  1.00 20.00     0.018 C 
HETATM    6  C6  UNL     1     -34.843  16.415  -1.440  1.00 20.00     0.017 C 
HETATM    7  C7  UNL     1     -33.846  17.868  -2.872  1.00 20.00     0.016 C 
HETATM    8  C8  UNL     1     -34.489  15.563  -2.670  1.00 20.00     0.023 C 
HETATM    9  C9  UNL     1     -33.536  15.868  -4.820  1.00 20.00     0.146 C 
HETATM   10  C10 UNL     1     -34.245  16.661  -3.744  1.00 20.00     0.034 C 
ENDROOT
BRANCH   9  11
HETATM   11  O11 UNL     1     -32.199  15.545  -4.506  1.00 20.00    -0.391 OA
HETATM   12  H23 UNL     1     -31.634  16.232  -4.900  1.00 20.00     0.210 HD
ENDBRANCH   9  11
TORSDOF 1
ENDMDL
MODEL 6
REMARK VINA RESULT:      -4.7      1.367      2.380
REMARK  1 active torsions:
REMARK  status: ('A' for Active; 'I' for Inactive)
REMARK    1  A    between atoms: C9_9  and  O11_11 
ROOT
HETATM    1  C1  UNL     1     -34.385  17.493  -3.753  1.00 20.00    -0.025 C 
HETATM    2  C2  UNL     1     -33.579  16.725  -2.996  1.00 20.00    -0.025 C 
HETATM    3  C3  UNL     1     -35.396  15.054  -6.214  1.00 20.00    -0.022 C 
HETATM    4  C4  UNL     1     -34.858  13.812  -6.186  1.00 20.00     0.001 C 
HETATM    5  C5  UNL     1     -35.678  15.998  -2.577  1.00 20.00     0.018 C 
HETATM    6  C6  UNL     1     -35.684  16.746  -3.948  1.00 20.00     0.017 C 
HETATM    7  C7  UNL     1     -34.285  15.385  -2.788  1.00 20.00     0.016 C 
HETATM    8  C8  UNL     1     -35.584  15.473  -4.805  1.00 20.00     0.023 C 
HETATM    9  C9  UNL     1     -34.427  13.404  -4.774  1.00 20.00     0.146 C 
HETATM   10  C10 UNL     1     -34.310  14.805  -4.216  1.00 20.00     0.034 C 
ENDROOT
BRANCH   9  11
HETATM   11  O11 UNL     1     -35.417  12.618  -4.145  1.00 20.00    -0.391 OA
HETATM   12  H23 UNL     1     -34.976  11.828  -3.787  1.00 20.00     0.210 HD
ENDBRANCH   9  11
TORSDOF 1
ENDMDL
MODEL 7
REMARK VINA RESULT:      -4.7      1.662      2.473
REMARK  1 active torsions:
REMARK  status: ('A' for Active; 'I' for Inactive)
REMARK    1  A    between atoms: C9_9  and  O11_11 
ROOT
HETATM    1  C1  UNL     1     -33.722  17.406  -3.972  1.00 20.00    -0.025 C 
HETATM    2  C2  UNL     1     -33.326  16.747  -5.078  1.00 20.00    -0.025 C 
HETATM    3  C3  UNL     1     -36.651  15.469  -3.138  1.00 20.00    -0.022 C 
HETATM    4  C4  UNL     1     -37.055  14.477  -3.964  1.00 20.00     0.001 C 
HETATM    5  C5  UNL     1     -32.891  15.352  -3.353  1.00 20.00     0.018 C 
HETATM    6  C6  UNL     1     -33.970  16.382  -2.889  1.00 20.00     0.017 C 
HETATM    7  C7  UNL     1     -33.438  15.251  -4.784  1.00 20.00     0.016 C 
HETATM    8  C8  UNL     1     -35.169  15.450  -3.133  1.00 20.00     0.023 C 
HETATM    9  C9  UNL     1     -35.887  13.875  -4.753  1.00 20.00     0.146 C 
HETATM   10  C10 UNL     1     -34.960  15.064  -4.624  1.00 20.00     0.034 C 
ENDROOT
BRANCH   9  11
HETATM   11  O11 UNL     1     -35.404  12.702  -4.136  1.00 20.00    -0.391 OA
HETATM   12  H23 UNL     1     -35.726  11.946  -4.656  1.00 20.00     0.210 HD
ENDBRANCH   9  11
TORSDOF 1
ENDMDL
MODEL 8
REMARK VINA RESULT:      -4.7      1.747      3.372
REMARK  1 active torsions:
REMARK  status: ('A' for Active; 'I' for Inactive)
REMARK    1  A    between atoms: C9_9  and  O11_11 
ROOT
HETATM    1  C1  UNL     1     -35.809  16.614  -6.754  1.00 20.00    -0.025 C 
HETATM    2  C2  UNL     1     -36.489  15.472  -6.536  1.00 20.00    -0.025 C 
HETATM    3  C3  UNL     1     -33.497  16.471  -3.985  1.00 20.00    -0.022 C 
HETATM    4  C4  UNL     1     -33.602  15.473  -3.077  1.00 20.00     0.001 C 
HETATM    5  C5  UNL     1     -34.440  14.831  -7.244  1.00 20.00     0.018 C 
HETATM    6  C6  UNL     1     -34.334  16.290  -6.696  1.00 20.00     0.017 C 
HETATM    7  C7  UNL     1     -35.467  14.388  -6.191  1.00 20.00     0.016 C 
HETATM    8  C8  UNL     1     -33.808  15.883  -5.310  1.00 20.00     0.023 C 
HETATM    9  C9  UNL     1     -34.215  14.206  -3.683  1.00 20.00     0.146 C 
HETATM   10  C10 UNL     1     -34.906  14.887  -4.844  1.00 20.00     0.034 C 
ENDROOT
BRANCH   9  11
HETATM   11  O11 UNL     1     -33.214  13.290  -4.071  1.00 20.00    -0.391 OA
HETATM   12  H23 UNL     1     -32.797  13.638  -4.878  1.00 20.00     0.210 HD
ENDBRANCH   9  11
TORSDOF 1
ENDMDL
MODEL 9
REMARK VINA RESULT:      -4.6      1.628      3.424
REMARK  1 active torsions:
REMARK  status: ('A' for Active; 'I' for Inactive)
REMARK    1  A    between atoms: C9_9  and  O11_11 
ROOT
HETATM    1  C1  UNL     1     -35.213  13.392  -4.184  1.00 20.00    -0.025 C 
HETATM    2  C2  UNL     1     -34.406  13.847  -5.162  1.00 20.00    -0.025 C 
HETATM    3  C3  UNL     1     -34.761  16.027  -1.760  1.00 20.00    -0.022 C 
HETATM    4  C4  UNL     1     -33.872  17.017  -2.006  1.00 20.00     0.001 C 
HETATM    5  C5  UNL     1     -36.192  15.233  -5.154  1.00 20.00     0.018 C 
HETATM    6  C6  UNL     1     -36.113  14.529  -3.762  1.00 20.00     0.017 C 
HETATM    7  C7  UNL     1     -34.668  15.346  -5.311  1.00 20.00     0.016 C 
HETATM    8  C8  UNL     1     -35.405  15.695  -3.053  1.00 20.00     0.023 C 
HETATM    9  C9  UNL     1     -33.682  17.260  -3.507  1.00 20.00     0.146 C 
HETATM   10  C10 UNL     1     -34.162  15.900  -3.964  1.00 20.00     0.034 C 
ENDROOT
BRANCH   9  11
HETATM   11  O11 UNL     1     -34.483  18.331  -3.957  1.00 20.00    -0.391 OA
HETATM   12  H23 UNL     1     -34.173  19.135  -3.506  1.00 20.00     0.210 HD
ENDBRANCH   9  11
TORSDOF 1
ENDMDL
