MODEL 1
REMARK VINA RESULT:      -5.0      0.000      0.000
REMARK  3 active torsions:
REMARK  status: ('A' for Active; 'I' for Inactive)
REMARK    1  A    between atoms: C1_1  and  C7_7 
REMARK    2  A    between atoms: C8_8  and  C10_10 
REMARK    3  A    between atoms: C9_9  and  C11_11 
ROOT
HETATM    1  C2  UNL     1     -33.780  15.674  -3.061  1.00 20.00     0.012 C 
HETATM    2  C3  UNL     1     -33.681  17.096  -3.708  1.00 20.00     0.006 C 
HETATM    3  C7  UNL     1     -33.903  14.649  -4.244  1.00 20.00     0.052 C 
HETATM    4  C10 UNL     1     -33.277  16.711  -5.103  1.00 20.00    -0.005 C 
HETATM    5  C11 UNL     1     -34.277  15.582  -5.371  1.00 20.00     0.004 C 
ENDROOT
BRANCH   3   6
HETATM    6  C1  UNL     1     -34.966  13.636  -3.970  1.00 20.00     0.236 C 
HETATM    7  O12 UNL     1     -34.998  12.529  -4.497  1.00 20.00    -0.306 OA
ENDBRANCH   3   6
BRANCH   5   8
HETATM    8  C9  UNL     1     -34.175  15.428  -6.897  1.00 20.00    -0.009 C 
HETATM    9  C5  UNL     1     -35.286  14.408  -7.258  1.00 20.00     0.005 C 
HETATM   10  C4  UNL     1     -36.576  15.157  -6.833  1.00 20.00     0.005 C 
HETATM   11  C8  UNL     1     -36.083  16.588  -6.536  1.00 20.00    -0.010 C 
HETATM   12  C6  UNL     1     -34.855  16.681  -7.480  1.00 20.00     0.010 C 
ENDBRANCH   5   8
TORSDOF 3
ENDMDL
MODEL 2
REMARK VINA RESULT:      -4.7      1.161      3.382
REMARK  3 active torsions:
REMARK  status: ('A' for Active; 'I' for Inactive)
REMARK    1  A    between atoms: C1_1  and  C7_7 
REMARK    2  A    between atoms: C8_8  and  C10_10 
REMARK    3  A    between atoms: C9_9  and  C11_11 
ROOT
HETATM    1  C2  UNL     1     -34.545  14.878  -7.115  1.00 20.00     0.012 C 
HETATM    2  C3  UNL     1     -34.485  16.437  -7.248  1.00 20.00     0.006 C 
HETATM    3  C7  UNL     1     -35.218  14.571  -5.730  1.00 20.00     0.052 C 
HETATM    4  C10 UNL     1     -35.516  16.818  -6.224  1.00 20.00    -0.005 C 
HETATM    5  C11 UNL     1     -35.085  15.918  -5.061  1.00 20.00     0.004 C 
ENDROOT
BRANCH   3   6
HETATM    6  C1  UNL     1     -34.478  13.499  -4.999  1.00 20.00     0.236 C 
HETATM    7  O12 UNL     1     -35.030  12.632  -4.329  1.00 20.00    -0.306 OA
ENDBRANCH   3   6
BRANCH   5   8
HETATM    8  C9  UNL     1     -35.840  16.548  -3.879  1.00 20.00    -0.009 C 
HETATM    9  C5  UNL     1     -35.333  15.770  -2.637  1.00 20.00     0.005 C 
HETATM   10  C4  UNL     1     -33.822  16.124  -2.618  1.00 20.00     0.005 C 
HETATM   11  C8  UNL     1     -33.699  17.248  -3.666  1.00 20.00    -0.010 C 
HETATM   12  C6  UNL     1     -35.116  17.877  -3.594  1.00 20.00     0.010 C 
ENDBRANCH   5   8
TORSDOF 3
ENDMDL
MODEL 3
REMARK VINA RESULT:      -4.7      2.115      3.813
REMARK  3 active torsions:
REMARK  status: ('A' for Active; 'I' for Inactive)
REMARK    1  A    between atoms: C1_1  and  C7_7 
REMARK    2  A    between atoms: C8_8  and  C10_10 
REMARK    3  A    between atoms: C9_9  and  C11_11 
ROOT
HETATM    1  C2  UNL     1     -34.816  13.386  -4.514  1.00 20.00     0.012 C 
HETATM    2  C3  UNL     1     -33.511  13.515  -3.658  1.00 20.00     0.006 C 
HETATM    3  C7  UNL     1     -35.349  14.845  -4.742  1.00 20.00     0.052 C 
HETATM    4  C10 UNL     1     -33.189  14.962  -3.905  1.00 20.00    -0.005 C 
HETATM    5  C11 UNL     1     -34.570  15.586  -3.682  1.00 20.00     0.004 C 
ENDROOT
BRANCH   3   6
HETATM    6  C1  UNL     1     -36.824  14.919  -4.519  1.00 20.00     0.236 C 
HETATM    7  O12 UNL     1     -37.419  14.231  -3.696  1.00 20.00    -0.306 OA
ENDBRANCH   3   6
BRANCH   5   8
HETATM    8  C9  UNL     1     -34.220  17.075  -3.529  1.00 20.00    -0.009 C 
HETATM    9  C5  UNL     1     -35.579  17.764  -3.238  1.00 20.00     0.005 C 
HETATM   10  C4  UNL     1     -35.994  17.121  -1.888  1.00 20.00     0.005 C 
HETATM   11  C8  UNL     1     -34.729  16.360  -1.444  1.00 20.00    -0.010 C 
HETATM   12  C6  UNL     1     -33.619  17.211  -2.117  1.00 20.00     0.010 C 
ENDBRANCH   5   8
TORSDOF 3
ENDMDL
MODEL 4
REMARK VINA RESULT:      -4.7      2.055      2.762
REMARK  3 active torsions:
REMARK  status: ('A' for Active; 'I' for Inactive)
REMARK    1  A    between atoms: C1_1  and  C7_7 
REMARK    2  A    between atoms: C8_8  and  C10_10 
REMARK    3  A    between atoms: C9_9  and  C11_11 
ROOT
HETATM    1  C2  UNL     1     -33.723  17.950  -3.268  1.00 20.00     0.012 C 
HETATM    2  C3  UNL     1     -33.697  18.017  -4.832  1.00 20.00     0.006 C 
HETATM    3  C7  UNL     1     -33.757  16.427  -2.885  1.00 20.00     0.052 C 
HETATM    4  C10 UNL     1     -33.238  16.619  -5.138  1.00 20.00    -0.005 C 
HETATM    5  C11 UNL     1     -34.162  15.825  -4.209  1.00 20.00     0.004 C 
ENDROOT
BRANCH   3   6
HETATM    6  C1  UNL     1     -34.762  16.166  -1.811  1.00 20.00     0.236 C 
HETATM    7  O12 UNL     1     -34.603  16.497  -0.641  1.00 20.00    -0.306 OA
ENDBRANCH   3   6
BRANCH   5   8
HETATM    8  C9  UNL     1     -34.017  14.399  -4.766  1.00 20.00    -0.009 C 
HETATM    9  C5  UNL     1     -34.995  13.549  -3.914  1.00 20.00     0.005 C 
HETATM   10  C4  UNL     1     -36.370  14.175  -4.264  1.00 20.00     0.005 C 
HETATM   11  C8  UNL     1     -36.054  15.108  -5.450  1.00 20.00    -0.010 C 
HETATM   12  C6  UNL     1     -34.829  14.388  -6.075  1.00 20.00     0.010 C 
ENDBRANCH   5   8
TORSDOF 3
ENDMDL
MODEL 5
REMARK VINA RESULT:      -4.6      1.546      1.747
REMARK  3 active torsions:
REMARK  status: ('A' for Active; 'I' for Inactive)
REMARK    1  A    between atoms: C1_1  and  C7_7 
REMARK    2  A    between atoms: C8_8  and  C10_10 
REMARK    3  A    between atoms: C9_9  and  C11_11 
ROOT
HETATM    1  C2  UNL     1     -35.004  15.719  -2.343  1.00 20.00     0.012 C 
HETATM    2  C3  UNL     1     -33.684  16.303  -2.952  1.00 20.00     0.006 C 
HETATM    3  C7  UNL     1     -35.655  14.825  -3.458  1.00 20.00     0.052 C 
HETATM    4  C10 UNL     1     -33.483  15.342  -4.088  1.00 20.00    -0.005 C 
HETATM    5  C11 UNL     1     -34.900  15.313  -4.671  1.00 20.00     0.004 C 
ENDROOT
BRANCH   3   6
HETATM    6  C1  UNL     1     -37.123  15.081  -3.562  1.00 20.00     0.236 C 
HETATM    7  O12 UNL     1     -37.954  14.194  -3.730  1.00 20.00    -0.306 OA
ENDBRANCH   3   6
BRANCH   5   8
HETATM    8  C9  UNL     1     -34.660  14.673  -6.048  1.00 20.00    -0.009 C 
HETATM    9  C5  UNL     1     -36.052  14.696  -6.732  1.00 20.00     0.005 C 
HETATM   10  C4  UNL     1     -36.344  16.216  -6.839  1.00 20.00     0.005 C 
HETATM   11  C8  UNL     1     -35.001  16.871  -6.459  1.00 20.00    -0.010 C 
HETATM   12  C6  UNL     1     -33.999  15.772  -6.900  1.00 20.00     0.010 C 
ENDBRANCH   5   8
TORSDOF 3
ENDMDL
MODEL 6
REMARK VINA RESULT:      -4.5      1.849      4.054
REMARK  3 active torsions:
REMARK  status: ('A' for Active; 'I' for Inactive)
REMARK    1  A    between atoms: C1_1  and  C7_7 
REMARK    2  A    between atoms: C8_8  and  C10_10 
REMARK    3  A    between atoms: C9_9  and  C11_11 
ROOT
HETATM    1  C2  UNL     1     -34.810  13.942  -5.681  1.00 20.00     0.012 C 
HETATM    2  C3  UNL     1     -35.170  13.300  -4.299  1.00 20.00     0.006 C 
HETATM    3  C7  UNL     1     -34.002  15.252  -5.370  1.00 20.00     0.052 C 
HETATM    4  C10 UNL     1     -34.164  13.995  -3.427  1.00 20.00    -0.005 C 
HETATM    5  C11 UNL     1     -34.341  15.438  -3.911  1.00 20.00     0.004 C 
ENDROOT
BRANCH   3   6
HETATM    6  C1  UNL     1     -34.478  16.389  -6.213  1.00 20.00     0.236 C 
HETATM    7  O12 UNL     1     -35.662  16.602  -6.457  1.00 20.00    -0.306 OA
ENDBRANCH   3   6
BRANCH   5   8
HETATM    8  C9  UNL     1     -33.640  16.232  -2.796  1.00 20.00    -0.009 C 
HETATM    9  C5  UNL     1     -33.822  17.716  -3.204  1.00 20.00     0.005 C 
HETATM   10  C4  UNL     1     -35.363  17.886  -3.160  1.00 20.00     0.005 C 
HETATM   11  C8  UNL     1     -35.853  16.588  -2.488  1.00 20.00    -0.010 C 
HETATM   12  C6  UNL     1     -34.625  16.227  -1.611  1.00 20.00     0.010 C 
ENDBRANCH   5   8
TORSDOF 3
ENDMDL
MODEL 7
REMARK VINA RESULT:      -4.5      1.878      3.973
REMARK  3 active torsions:
REMARK  status: ('A' for Active; 'I' for Inactive)
REMARK    1  A    between atoms: C1_1  and  C7_7 
REMARK    2  A    between atoms: C8_8  and  C10_10 
REMARK    3  A    between atoms: C9_9  and  C11_11 
ROOT
HETATM    1  C2  UNL     1     -35.006  16.665  -7.435  1.00 20.00     0.012 C 
HETATM    2  C3  UNL     1     -36.026  15.477  -7.482  1.00 20.00     0.006 C 
HETATM    3  C7  UNL     1     -33.908  16.272  -6.383  1.00 20.00     0.052 C 
HETATM    4  C10 UNL     1     -35.183  14.396  -6.869  1.00 20.00    -0.005 C 
HETATM    5  C11 UNL     1     -34.614  15.149  -5.662  1.00 20.00     0.004 C 
ENDROOT
BRANCH   3   6
HETATM    6  C1  UNL     1     -33.595  17.419  -5.480  1.00 20.00     0.236 C 
HETATM    7  O12 UNL     1     -34.453  18.121  -4.955  1.00 20.00    -0.306 OA
ENDBRANCH   3   6
BRANCH   5   8
HETATM    8  C9  UNL     1     -34.077  13.997  -4.797  1.00 20.00    -0.009 C 
HETATM    9  C5  UNL     1     -33.552  14.690  -3.513  1.00 20.00     0.005 C 
HETATM   10  C4  UNL     1     -34.843  15.313  -2.919  1.00 20.00     0.005 C 
HETATM   11  C8  UNL     1     -35.970  14.691  -3.768  1.00 20.00    -0.010 C 
HETATM   12  C6  UNL     1     -35.323  13.339  -4.174  1.00 20.00     0.010 C 
ENDBRANCH   5   8
TORSDOF 3
ENDMDL
MODEL 8
REMARK VINA RESULT:      -4.5     12.183     14.143
REMARK  3 active torsions:
REMARK  status: ('A' for Active; 'I' for Inactive)
REMARK    1  A    between atoms: C1_1  and  C7_7 
REMARK    2  A    between atoms: C8_8  and  C10_10 
REMARK    3  A    between atoms: C9_9  and  C11_11 
ROOT
HETATM    1  C2  UNL     1     -34.607   4.889   6.708  1.00 20.00     0.012 C 
HETATM    2  C3  UNL     1     -34.823   3.811   5.593  1.00 20.00     0.006 C 
HETATM    3  C7  UNL     1     -34.436   6.267   5.975  1.00 20.00     0.052 C 
HETATM    4  C10 UNL     1     -35.229   4.703   4.455  1.00 20.00    -0.005 C 
HETATM    5  C11 UNL     1     -34.155   5.790   4.569  1.00 20.00     0.004 C 
ENDROOT
BRANCH   3   6
HETATM    6  C1  UNL     1     -33.297   7.043   6.549  1.00 20.00     0.236 C 
HETATM    7  O12 UNL     1     -33.429   7.884   7.433  1.00 20.00    -0.306 OA
ENDBRANCH   3   6
BRANCH   5   8
HETATM    8  C9  UNL     1     -34.278   6.498   3.210  1.00 20.00    -0.009 C 
HETATM    9  C5  UNL     1     -33.199   7.611   3.254  1.00 20.00     0.005 C 
HETATM   10  C4  UNL     1     -31.885   6.794   3.369  1.00 20.00     0.005 C 
HETATM   11  C8  UNL     1     -32.336   5.342   3.112  1.00 20.00    -0.010 C 
HETATM   12  C6  UNL     1     -33.572   5.572   2.202  1.00 20.00     0.010 C 
ENDBRANCH   5   8
TORSDOF 3
ENDMDL
MODEL 9
REMARK VINA RESULT:      -4.4      2.137      3.222
REMARK  3 active torsions:
REMARK  status: ('A' for Active; 'I' for Inactive)
REMARK    1  A    between atoms: C1_1  and  C7_7 
REMARK    2  A    between atoms: C8_8  and  C10_10 
REMARK    3  A    between atoms: C9_9  and  C11_11 
ROOT
HETATM    1  C2  UNL     1     -36.714  17.228  -2.628  1.00 20.00     0.012 C 
HETATM    2  C3  UNL     1     -35.233  17.727  -2.532  1.00 20.00     0.006 C 
HETATM    3  C7  UNL     1     -36.652  15.672  -2.831  1.00 20.00     0.052 C 
HETATM    4  C10 UNL     1     -34.550  16.430  -2.206  1.00 20.00    -0.005 C 
HETATM    5  C11 UNL     1     -35.208  15.512  -3.242  1.00 20.00     0.004 C 
ENDROOT
BRANCH   3   6
HETATM    6  C1  UNL     1     -37.598  15.231  -3.898  1.00 20.00     0.236 C 
HETATM    7  O12 UNL     1     -38.236  14.184  -3.848  1.00 20.00    -0.306 OA
ENDBRANCH   3   6
BRANCH   5   8
HETATM    8  C9  UNL     1     -34.272  14.292  -3.220  1.00 20.00    -0.009 C 
HETATM    9  C5  UNL     1     -34.781  13.393  -4.376  1.00 20.00     0.005 C 
HETATM   10  C4  UNL     1     -34.545  14.287  -5.621  1.00 20.00     0.005 C 
HETATM   11  C8  UNL     1     -33.700  15.456  -5.074  1.00 20.00    -0.010 C 
HETATM   12  C6  UNL     1     -32.969  14.765  -3.892  1.00 20.00     0.010 C 
ENDBRANCH   5   8
TORSDOF 3
ENDMDL
