MODEL 1
REMARK VINA RESULT:      -4.7      0.000      0.000
REMARK  2 active torsions:
REMARK  status: ('A' for Active; 'I' for Inactive)
REMARK    1  A    between atoms: C4_4  and  C7_7 
REMARK    2  A    between atoms: C8_8  and  O11_11 
ROOT
HETATM    1  C1  UNL     1     -34.800  13.655  -5.068  1.00 20.00    -0.019 C 
HETATM    2  C2  UNL     1     -34.075  14.098  -4.031  1.00 20.00     0.007 C 
HETATM    3  C5  UNL     1     -33.903  15.527  -6.496  1.00 20.00     0.016 C 
HETATM    4  C6  UNL     1     -33.764  16.328  -5.197  1.00 20.00     0.042 C 
HETATM    5  C7  UNL     1     -34.951  14.405  -6.365  1.00 20.00     0.036 C 
HETATM    6  C8  UNL     1     -33.353  15.420  -4.020  1.00 20.00     0.072 C 
HETATM    7  C10 UNL     1     -33.581  16.148  -2.691  1.00 20.00     0.050 C 
ENDROOT
BRANCH   5   8
HETATM    8  C4  UNL     1     -36.350  14.931  -6.513  1.00 20.00    -0.085 C 
HETATM    9  C3  UNL     1     -37.124  15.200  -5.451  1.00 20.00     0.014 C 
HETATM   10  C9  UNL     1     -36.833  15.139  -7.918  1.00 20.00     0.043 C 
ENDBRANCH   5   8
BRANCH   6  11
HETATM   11  O11 UNL     1     -31.957  15.127  -4.125  1.00 20.00    -0.386 OA
HETATM   12  H27 UNL     1     -31.500  15.981  -4.115  1.00 20.00     0.211 HD
ENDBRANCH   6  11
TORSDOF 2
ENDMDL
MODEL 2
REMARK VINA RESULT:      -4.6      1.684      4.175
REMARK  2 active torsions:
REMARK  status: ('A' for Active; 'I' for Inactive)
REMARK    1  A    between atoms: C4_4  and  C7_7 
REMARK    2  A    between atoms: C8_8  and  O11_11 
ROOT
HETATM    1  C1  UNL     1     -33.265  16.244  -4.543  1.00 20.00    -0.019 C 
HETATM    2  C2  UNL     1     -34.026  15.977  -5.615  1.00 20.00     0.007 C 
HETATM    3  C5  UNL     1     -34.534  14.520  -3.214  1.00 20.00     0.016 C 
HETATM    4  C6  UNL     1     -35.726  14.827  -4.126  1.00 20.00     0.042 C 
HETATM    5  C7  UNL     1     -33.533  15.691  -3.168  1.00 20.00     0.036 C 
HETATM    6  C8  UNL     1     -35.266  15.123  -5.568  1.00 20.00     0.072 C 
HETATM    7  C10 UNL     1     -36.403  15.780  -6.357  1.00 20.00     0.050 C 
ENDROOT
BRANCH   5   8
HETATM    8  C4  UNL     1     -33.993  16.779  -2.240  1.00 20.00    -0.085 C 
HETATM    9  C3  UNL     1     -34.573  16.508  -1.061  1.00 20.00     0.014 C 
HETATM   10  C9  UNL     1     -33.765  18.186  -2.706  1.00 20.00     0.043 C 
ENDBRANCH   5   8
BRANCH   6  11
HETATM   11  O11 UNL     1     -34.940  13.889  -6.214  1.00 20.00    -0.386 OA
HETATM   12  H27 UNL     1     -33.973  13.854  -6.257  1.00 20.00     0.211 HD
ENDBRANCH   6  11
TORSDOF 2
ENDMDL
MODEL 3
REMARK VINA RESULT:      -4.5      1.908      4.158
REMARK  2 active torsions:
REMARK  status: ('A' for Active; 'I' for Inactive)
REMARK    1  A    between atoms: C4_4  and  C7_7 
REMARK    2  A    between atoms: C8_8  and  O11_11 
ROOT
HETATM    1  C1  UNL     1     -33.101  15.063  -3.405  1.00 20.00    -0.019 C 
HETATM    2  C2  UNL     1     -33.546  14.165  -4.296  1.00 20.00     0.007 C 
HETATM    3  C5  UNL     1     -35.470  15.509  -2.670  1.00 20.00     0.016 C 
HETATM    4  C6  UNL     1     -35.887  15.118  -4.091  1.00 20.00     0.042 C 
HETATM    5  C7  UNL     1     -34.002  15.974  -2.613  1.00 20.00     0.036 C 
HETATM    6  C8  UNL     1     -35.001  13.984  -4.645  1.00 20.00     0.072 C 
HETATM    7  C10 UNL     1     -35.181  13.869  -6.161  1.00 20.00     0.050 C 
ENDROOT
BRANCH   5   8
HETATM    8  C4  UNL     1     -33.852  17.396  -3.071  1.00 20.00    -0.085 C 
HETATM    9  C3  UNL     1     -33.610  17.707  -4.354  1.00 20.00     0.014 C 
HETATM   10  C9  UNL     1     -33.989  18.450  -2.013  1.00 20.00     0.043 C 
ENDBRANCH   5   8
BRANCH   6  11
HETATM   11  O11 UNL     1     -35.412  12.745  -4.059  1.00 20.00    -0.386 OA
HETATM   12  H27 UNL     1     -35.980  12.977  -3.309  1.00 20.00     0.211 HD
ENDBRANCH   6  11
TORSDOF 2
ENDMDL
MODEL 4
REMARK VINA RESULT:      -4.5      1.797      3.554
REMARK  2 active torsions:
REMARK  status: ('A' for Active; 'I' for Inactive)
REMARK    1  A    between atoms: C4_4  and  C7_7 
REMARK    2  A    between atoms: C8_8  and  O11_11 
ROOT
HETATM    1  C1  UNL     1     -34.146  15.510  -5.876  1.00 20.00    -0.019 C 
HETATM    2  C2  UNL     1     -35.153  14.667  -5.606  1.00 20.00     0.007 C 
HETATM    3  C5  UNL     1     -33.419  15.417  -3.466  1.00 20.00     0.016 C 
HETATM    4  C6  UNL     1     -34.889  15.141  -3.129  1.00 20.00     0.042 C 
HETATM    5  C7  UNL     1     -33.269  16.132  -4.822  1.00 20.00     0.036 C 
HETATM    6  C8  UNL     1     -35.558  14.269  -4.210  1.00 20.00     0.072 C 
HETATM    7  C10 UNL     1     -37.081  14.318  -4.056  1.00 20.00     0.050 C 
ENDROOT
BRANCH   5   8
HETATM    8  C4  UNL     1     -33.541  17.605  -4.707  1.00 20.00    -0.085 C 
HETATM    9  C3  UNL     1     -33.650  18.215  -3.518  1.00 20.00     0.014 C 
HETATM   10  C9  UNL     1     -33.685  18.354  -5.998  1.00 20.00     0.043 C 
ENDBRANCH   5   8
BRANCH   6  11
HETATM   11  O11 UNL     1     -35.142  12.911  -4.034  1.00 20.00    -0.386 OA
HETATM   12  H27 UNL     1     -35.800  12.501  -3.455  1.00 20.00     0.211 HD
ENDBRANCH   6  11
TORSDOF 2
ENDMDL
MODEL 5
REMARK VINA RESULT:      -4.5      2.467      4.218
REMARK  2 active torsions:
REMARK  status: ('A' for Active; 'I' for Inactive)
REMARK    1  A    between atoms: C4_4  and  C7_7 
REMARK    2  A    between atoms: C8_8  and  O11_11 
ROOT
HETATM    1  C1  UNL     1     -35.633  15.910  -2.928  1.00 20.00    -0.019 C 
HETATM    2  C2  UNL     1     -35.235  14.763  -3.495  1.00 20.00     0.007 C 
HETATM    3  C5  UNL     1     -33.681  17.109  -3.976  1.00 20.00     0.016 C 
HETATM    4  C6  UNL     1     -32.945  15.766  -3.921  1.00 20.00     0.042 C 
HETATM    5  C7  UNL     1     -34.821  17.178  -2.941  1.00 20.00     0.036 C 
HETATM    6  C8  UNL     1     -33.906  14.589  -4.184  1.00 20.00     0.072 C 
HETATM    7  C10 UNL     1     -33.249  13.271  -3.762  1.00 20.00     0.050 C 
ENDROOT
BRANCH   5   8
HETATM    8  C4  UNL     1     -34.305  17.492  -1.566  1.00 20.00    -0.085 C 
HETATM    9  C3  UNL     1     -34.673  16.781  -0.490  1.00 20.00     0.014 C 
HETATM   10  C9  UNL     1     -33.353  18.647  -1.465  1.00 20.00     0.043 C 
ENDBRANCH   5   8
BRANCH   6  11
HETATM   11  O11 UNL     1     -34.176  14.515  -5.587  1.00 20.00    -0.386 OA
HETATM   12  H27 UNL     1     -33.552  13.869  -5.949  1.00 20.00     0.211 HD
ENDBRANCH   6  11
TORSDOF 2
ENDMDL
MODEL 6
REMARK VINA RESULT:      -4.4      2.113      3.969
REMARK  2 active torsions:
REMARK  status: ('A' for Active; 'I' for Inactive)
REMARK    1  A    between atoms: C4_4  and  C7_7 
REMARK    2  A    between atoms: C8_8  and  O11_11 
ROOT
HETATM    1  C1  UNL     1     -35.232  13.817  -4.184  1.00 20.00    -0.019 C 
HETATM    2  C2  UNL     1     -35.173  13.798  -5.523  1.00 20.00     0.007 C 
HETATM    3  C5  UNL     1     -36.376  16.060  -4.265  1.00 20.00     0.016 C 
HETATM    4  C6  UNL     1     -35.627  16.292  -5.582  1.00 20.00     0.042 C 
HETATM    5  C7  UNL     1     -35.668  15.015  -3.382  1.00 20.00     0.036 C 
HETATM    6  C8  UNL     1     -35.498  14.985  -6.391  1.00 20.00     0.072 C 
HETATM    7  C10 UNL     1     -34.448  15.152  -7.493  1.00 20.00     0.050 C 
ENDROOT
BRANCH   5   8
HETATM    8  C4  UNL     1     -34.504  15.609  -2.641  1.00 20.00    -0.085 C 
HETATM    9  C3  UNL     1     -34.667  16.312  -1.510  1.00 20.00     0.014 C 
HETATM   10  C9  UNL     1     -33.150  15.372  -3.239  1.00 20.00     0.043 C 
ENDBRANCH   5   8
BRANCH   6  11
HETATM   11  O11 UNL     1     -36.753  14.704  -7.019  1.00 20.00    -0.386 OA
HETATM   12  H27 UNL     1     -37.417  14.721  -6.315  1.00 20.00     0.211 HD
ENDBRANCH   6  11
TORSDOF 2
ENDMDL
MODEL 7
REMARK VINA RESULT:      -4.3      2.017      2.744
REMARK  2 active torsions:
REMARK  status: ('A' for Active; 'I' for Inactive)
REMARK    1  A    between atoms: C4_4  and  C7_7 
REMARK    2  A    between atoms: C8_8  and  O11_11 
ROOT
HETATM    1  C1  UNL     1     -36.136  15.856  -3.989  1.00 20.00    -0.019 C 
HETATM    2  C2  UNL     1     -35.417  14.860  -3.450  1.00 20.00     0.007 C 
HETATM    3  C5  UNL     1     -35.897  14.798  -6.263  1.00 20.00     0.016 C 
HETATM    4  C6  UNL     1     -34.574  14.218  -5.753  1.00 20.00     0.042 C 
HETATM    5  C7  UNL     1     -36.314  16.052  -5.471  1.00 20.00     0.036 C 
HETATM    6  C8  UNL     1     -34.665  13.838  -4.261  1.00 20.00     0.072 C 
HETATM    7  C10 UNL     1     -33.262  13.620  -3.688  1.00 20.00     0.050 C 
ENDROOT
BRANCH   5   8
HETATM    8  C4  UNL     1     -35.574  17.274  -5.937  1.00 20.00    -0.085 C 
HETATM    9  C3  UNL     1     -35.048  18.156  -5.074  1.00 20.00     0.014 C 
HETATM   10  C9  UNL     1     -35.458  17.450  -7.421  1.00 20.00     0.043 C 
ENDBRANCH   5   8
BRANCH   6  11
HETATM   11  O11 UNL     1     -35.385  12.607  -4.140  1.00 20.00    -0.386 OA
HETATM   12  H27 UNL     1     -35.617  12.340  -5.041  1.00 20.00     0.211 HD
ENDBRANCH   6  11
TORSDOF 2
ENDMDL
MODEL 8
REMARK VINA RESULT:      -4.3      2.150      4.437
REMARK  2 active torsions:
REMARK  status: ('A' for Active; 'I' for Inactive)
REMARK    1  A    between atoms: C4_4  and  C7_7 
REMARK    2  A    between atoms: C8_8  and  O11_11 
ROOT
HETATM    1  C1  UNL     1     -33.285  15.555  -3.294  1.00 20.00    -0.019 C 
HETATM    2  C2  UNL     1     -33.420  15.633  -4.625  1.00 20.00     0.007 C 
HETATM    3  C5  UNL     1     -35.789  15.653  -3.033  1.00 20.00     0.016 C 
HETATM    4  C6  UNL     1     -35.802  16.455  -4.338  1.00 20.00     0.042 C 
HETATM    5  C7  UNL     1     -34.423  15.737  -2.324  1.00 20.00     0.036 C 
HETATM    6  C8  UNL     1     -34.721  15.952  -5.316  1.00 20.00     0.072 C 
HETATM    7  C10 UNL     1     -34.502  16.979  -6.431  1.00 20.00     0.050 C 
ENDROOT
BRANCH   5   8
HETATM    8  C4  UNL     1     -34.271  17.022  -1.562  1.00 20.00    -0.085 C 
HETATM    9  C3  UNL     1     -33.669  18.096  -2.095  1.00 20.00     0.014 C 
HETATM   10  C9  UNL     1     -34.830  17.036  -0.171  1.00 20.00     0.043 C 
ENDBRANCH   5   8
BRANCH   6  11
HETATM   11  O11 UNL     1     -35.172  14.737  -5.922  1.00 20.00    -0.386 OA
HETATM   12  H27 UNL     1     -34.565  14.044  -5.624  1.00 20.00     0.211 HD
ENDBRANCH   6  11
TORSDOF 2
ENDMDL
MODEL 9
REMARK VINA RESULT:      -4.2      2.064      3.881
REMARK  2 active torsions:
REMARK  status: ('A' for Active; 'I' for Inactive)
REMARK    1  A    between atoms: C4_4  and  C7_7 
REMARK    2  A    between atoms: C8_8  and  O11_11 
ROOT
HETATM    1  C1  UNL     1     -33.554  17.453  -4.681  1.00 20.00    -0.019 C 
HETATM    2  C2  UNL     1     -33.324  16.172  -5.004  1.00 20.00     0.007 C 
HETATM    3  C5  UNL     1     -33.785  16.801  -2.258  1.00 20.00     0.016 C 
HETATM    4  C6  UNL     1     -34.261  15.436  -2.766  1.00 20.00     0.042 C 
HETATM    5  C7  UNL     1     -33.990  17.906  -3.312  1.00 20.00     0.036 C 
HETATM    6  C8  UNL     1     -33.513  15.022  -4.049  1.00 20.00     0.072 C 
HETATM    7  C10 UNL     1     -34.246  13.865  -4.735  1.00 20.00     0.050 C 
ENDROOT
BRANCH   5   8
HETATM    8  C4  UNL     1     -35.412  18.388  -3.342  1.00 20.00    -0.085 C 
HETATM    9  C3  UNL     1     -36.081  18.556  -4.492  1.00 20.00     0.014 C 
HETATM   10  C9  UNL     1     -36.042  18.672  -2.010  1.00 20.00     0.043 C 
ENDBRANCH   5   8
BRANCH   6  11
HETATM   11  O11 UNL     1     -32.204  14.564  -3.695  1.00 20.00    -0.386 OA
HETATM   12  H27 UNL     1     -31.886  15.162  -3.004  1.00 20.00     0.211 HD
ENDBRANCH   6  11
TORSDOF 2
ENDMDL
