MODEL 1
REMARK VINA RESULT:      -5.5      0.000      0.000
REMARK  0 active torsions:
REMARK  status: ('A' for Active; 'I' for Inactive)
ROOT
HETATM    1  C1  UNL     1     -34.928   4.990   4.203  1.00 20.00     0.374 C 
HETATM    2  C2  UNL     1     -33.884   6.110   4.242  1.00 20.00     0.398 C 
HETATM    3  C3  UNL     1     -34.624   4.860   5.698  1.00 20.00     0.398 C 
HETATM    4  O4  UNL     1     -33.916   6.125   5.692  1.00 20.00    -0.252 OA
HETATM    5  F5  UNL     1     -36.187   5.370   3.889  1.00 20.00    -0.231 F 
HETATM    6  F6  UNL     1     -34.251   7.290   3.700  1.00 20.00    -0.172 F 
HETATM    7  F7  UNL     1     -32.661   5.804   3.755  1.00 20.00    -0.172 F 
HETATM    8  F8  UNL     1     -33.832   3.826   6.057  1.00 20.00    -0.172 F 
HETATM    9  F9  UNL     1     -35.690   4.861   6.527  1.00 20.00    -0.172 F 
ENDROOT
TORSDOF 0
ENDMDL
MODEL 2
REMARK VINA RESULT:      -5.5      1.257      2.394
REMARK  0 active torsions:
REMARK  status: ('A' for Active; 'I' for Inactive)
ROOT
HETATM    1  C1  UNL     1     -34.262   6.021   4.852  1.00 20.00     0.374 C 
HETATM    2  C2  UNL     1     -35.053   5.304   3.754  1.00 20.00     0.398 C 
HETATM    3  C3  UNL     1     -34.663   4.821   5.715  1.00 20.00     0.398 C 
HETATM    4  O4  UNL     1     -35.093   4.087   4.540  1.00 20.00    -0.252 OA
HETATM    5  F5  UNL     1     -32.937   6.165   4.624  1.00 20.00    -0.231 F 
HETATM    6  F6  UNL     1     -34.423   5.141   2.571  1.00 20.00    -0.172 F 
HETATM    7  F7  UNL     1     -36.285   5.792   3.491  1.00 20.00    -0.172 F 
HETATM    8  F8  UNL     1     -35.668   5.027   6.593  1.00 20.00    -0.172 F 
HETATM    9  F9  UNL     1     -33.664   4.202   6.380  1.00 20.00    -0.172 F 
ENDROOT
TORSDOF 0
ENDMDL
MODEL 3
REMARK VINA RESULT:      -5.3      1.396      3.105
REMARK  0 active torsions:
REMARK  status: ('A' for Active; 'I' for Inactive)
ROOT
HETATM    1  C1  UNL     1     -33.837   5.615   5.413  1.00 20.00     0.374 C 
HETATM    2  C2  UNL     1     -34.961   4.579   5.512  1.00 20.00     0.398 C 
HETATM    3  C3  UNL     1     -34.412   5.883   4.019  1.00 20.00     0.398 C 
HETATM    4  O4  UNL     1     -35.610   5.132   4.340  1.00 20.00    -0.252 OA
HETATM    5  F5  UNL     1     -33.909   6.645   6.287  1.00 20.00    -0.231 F 
HETATM    6  F6  UNL     1     -35.736   4.638   6.615  1.00 20.00    -0.172 F 
HETATM    7  F7  UNL     1     -34.598   3.288   5.342  1.00 20.00    -0.172 F 
HETATM    8  F8  UNL     1     -33.730   5.352   2.982  1.00 20.00    -0.172 F 
HETATM    9  F9  UNL     1     -34.671   7.173   3.717  1.00 20.00    -0.172 F 
ENDROOT
TORSDOF 0
ENDMDL
MODEL 4
REMARK VINA RESULT:      -5.3      1.137      2.981
REMARK  0 active torsions:
REMARK  status: ('A' for Active; 'I' for Inactive)
ROOT
HETATM    1  C1  UNL     1     -35.268   4.991   4.725  1.00 20.00     0.374 C 
HETATM    2  C2  UNL     1     -34.344   5.300   5.908  1.00 20.00     0.398 C 
HETATM    3  C3  UNL     1     -34.300   5.875   3.934  1.00 20.00     0.398 C 
HETATM    4  O4  UNL     1     -33.334   5.832   5.014  1.00 20.00    -0.252 OA
HETATM    5  F5  UNL     1     -35.324   3.694   4.347  1.00 20.00    -0.231 F 
HETATM    6  F6  UNL     1     -33.906   4.240   6.618  1.00 20.00    -0.172 F 
HETATM    7  F7  UNL     1     -34.792   6.220   6.790  1.00 20.00    -0.172 F 
HETATM    8  F8  UNL     1     -34.723   7.130   3.667  1.00 20.00    -0.172 F 
HETATM    9  F9  UNL     1     -33.821   5.356   2.783  1.00 20.00    -0.172 F 
ENDROOT
TORSDOF 0
ENDMDL
MODEL 5
REMARK VINA RESULT:      -5.3      1.429      2.449
REMARK  0 active torsions:
REMARK  status: ('A' for Active; 'I' for Inactive)
ROOT
HETATM    1  C1  UNL     1     -33.919   5.652   4.723  1.00 20.00     0.374 C 
HETATM    2  C2  UNL     1     -34.205   5.609   6.227  1.00 20.00     0.398 C 
HETATM    3  C3  UNL     1     -35.227   4.864   4.605  1.00 20.00     0.398 C 
HETATM    4  O4  UNL     1     -35.563   5.165   5.984  1.00 20.00    -0.252 OA
HETATM    5  F5  UNL     1     -33.920   6.881   4.159  1.00 20.00    -0.231 F 
HETATM    6  F6  UNL     1     -34.151   6.789   6.881  1.00 20.00    -0.172 F 
HETATM    7  F7  UNL     1     -33.489   4.716   6.945  1.00 20.00    -0.172 F 
HETATM    8  F8  UNL     1     -35.106   3.538   4.380  1.00 20.00    -0.172 F 
HETATM    9  F9  UNL     1     -36.137   5.342   3.730  1.00 20.00    -0.172 F 
ENDROOT
TORSDOF 0
ENDMDL
MODEL 6
REMARK VINA RESULT:      -5.0      1.605      2.557
REMARK  0 active torsions:
REMARK  status: ('A' for Active; 'I' for Inactive)
ROOT
HETATM    1  C1  UNL     1     -34.170   6.202   4.768  1.00 20.00     0.374 C 
HETATM    2  C2  UNL     1     -33.285   6.321   3.524  1.00 20.00     0.398 C 
HETATM    3  C3  UNL     1     -35.031   5.296   3.883  1.00 20.00     0.398 C 
HETATM    4  O4  UNL     1     -33.974   5.212   2.894  1.00 20.00    -0.252 OA
HETATM    5  F5  UNL     1     -33.600   5.607   5.841  1.00 20.00    -0.231 F 
HETATM    6  F6  UNL     1     -31.968   6.085   3.701  1.00 20.00    -0.172 F 
HETATM    7  F7  UNL     1     -33.398   7.469   2.820  1.00 20.00    -0.172 F 
HETATM    8  F8  UNL     1     -36.161   5.847   3.388  1.00 20.00    -0.172 F 
HETATM    9  F9  UNL     1     -35.360   4.092   4.399  1.00 20.00    -0.172 F 
ENDROOT
TORSDOF 0
ENDMDL
MODEL 7
REMARK VINA RESULT:      -4.9      1.405      2.897
REMARK  0 active torsions:
REMARK  status: ('A' for Active; 'I' for Inactive)
ROOT
HETATM    1  C1  UNL     1     -35.230   5.541   4.695  1.00 20.00     0.374 C 
HETATM    2  C2  UNL     1     -34.941   4.277   5.510  1.00 20.00     0.398 C 
HETATM    3  C3  UNL     1     -33.992   6.098   5.404  1.00 20.00     0.398 C 
HETATM    4  O4  UNL     1     -33.625   4.773   5.864  1.00 20.00    -0.252 OA
HETATM    5  F5  UNL     1     -35.130   5.410   3.353  1.00 20.00    -0.231 F 
HETATM    6  F6  UNL     1     -34.893   3.117   4.821  1.00 20.00    -0.172 F 
HETATM    7  F7  UNL     1     -35.725   4.072   6.592  1.00 20.00    -0.172 F 
HETATM    8  F8  UNL     1     -34.224   6.954   6.423  1.00 20.00    -0.172 F 
HETATM    9  F9  UNL     1     -33.050   6.656   4.613  1.00 20.00    -0.172 F 
ENDROOT
TORSDOF 0
ENDMDL
MODEL 8
REMARK VINA RESULT:      -4.8      1.476      2.285
REMARK  0 active torsions:
REMARK  status: ('A' for Active; 'I' for Inactive)
ROOT
HETATM    1  C1  UNL     1     -34.418   4.980   5.190  1.00 20.00     0.374 C 
HETATM    2  C2  UNL     1     -35.038   5.477   3.880  1.00 20.00     0.398 C 
HETATM    3  C3  UNL     1     -33.861   6.403   5.289  1.00 20.00     0.398 C 
HETATM    4  O4  UNL     1     -34.746   6.852   4.232  1.00 20.00    -0.252 OA
HETATM    5  F5  UNL     1     -35.294   4.622   6.156  1.00 20.00    -0.231 F 
HETATM    6  F6  UNL     1     -36.358   5.248   3.718  1.00 20.00    -0.172 F 
HETATM    7  F7  UNL     1     -34.419   5.090   2.743  1.00 20.00    -0.172 F 
HETATM    8  F8  UNL     1     -32.557   6.556   4.972  1.00 20.00    -0.172 F 
HETATM    9  F9  UNL     1     -34.072   7.048   6.456  1.00 20.00    -0.172 F 
ENDROOT
TORSDOF 0
ENDMDL
MODEL 9
REMARK VINA RESULT:      -4.8      1.213      2.865
REMARK  0 active torsions:
REMARK  status: ('A' for Active; 'I' for Inactive)
ROOT
HETATM    1  C1  UNL     1     -35.247   6.104   4.301  1.00 20.00     0.374 C 
HETATM    2  C2  UNL     1     -34.656   5.499   5.578  1.00 20.00     0.398 C 
HETATM    3  C3  UNL     1     -33.844   5.883   3.728  1.00 20.00     0.398 C 
HETATM    4  O4  UNL     1     -33.489   5.039   4.851  1.00 20.00    -0.252 OA
HETATM    5  F5  UNL     1     -36.239   5.394   3.718  1.00 20.00    -0.231 F 
HETATM    6  F6  UNL     1     -35.352   4.489   6.140  1.00 20.00    -0.172 F 
HETATM    7  F7  UNL     1     -34.343   6.370   6.562  1.00 20.00    -0.172 F 
HETATM    8  F8  UNL     1     -33.059   6.979   3.635  1.00 20.00    -0.172 F 
HETATM    9  F9  UNL     1     -33.776   5.235   2.545  1.00 20.00    -0.172 F 
ENDROOT
TORSDOF 0
ENDMDL
