MODEL 1
REMARK VINA RESULT:      -4.4      0.000      0.000
REMARK  0 active torsions:
REMARK  status: ('A' for Active; 'I' for Inactive)
ROOT
HETATM    1  C1  UNL     1     -35.101   4.246   4.701  1.00 20.00     0.029 C 
HETATM    2  C2  UNL     1     -34.845   5.360   3.688  1.00 20.00     0.044 C 
HETATM    3  C3  UNL     1     -35.163   4.813   6.118  1.00 20.00     0.167 C 
HETATM    4  C4  UNL     1     -33.740   6.638   5.575  1.00 20.00     0.207 C 
HETATM    5  C5  UNL     1     -32.364   6.129   3.415  1.00 20.00     0.209 A 
HETATM    6  C6  UNL     1     -33.682   6.184   4.150  1.00 20.00     0.103 A 
HETATM    7  O7  UNL     1     -33.954   5.512   6.434  1.00 20.00    -0.388 OA
HETATM    8  O8  UNL     1     -33.290   7.209   3.227  1.00 20.00    -0.373 OA
ENDROOT
TORSDOF 0
ENDMDL
MODEL 2
REMARK VINA RESULT:      -3.8     12.081     13.499
REMARK  0 active torsions:
REMARK  status: ('A' for Active; 'I' for Inactive)
ROOT
HETATM    1  C1  UNL     1     -34.377  16.251  -6.108  1.00 20.00     0.029 C 
HETATM    2  C2  UNL     1     -34.424  14.726  -6.185  1.00 20.00     0.044 C 
HETATM    3  C3  UNL     1     -33.246  16.707  -5.188  1.00 20.00     0.167 C 
HETATM    4  C4  UNL     1     -33.332  14.711  -3.901  1.00 20.00     0.207 C 
HETATM    5  C5  UNL     1     -35.624  13.502  -4.215  1.00 20.00     0.209 A 
HETATM    6  C6  UNL     1     -34.398  14.164  -4.797  1.00 20.00     0.103 A 
HETATM    7  O7  UNL     1     -33.400  16.142  -3.883  1.00 20.00    -0.388 OA
HETATM    8  O8  UNL     1     -34.531  12.738  -4.742  1.00 20.00    -0.373 OA
ENDROOT
TORSDOF 0
ENDMDL
MODEL 3
REMARK VINA RESULT:      -3.7     11.776     12.574
REMARK  0 active torsions:
REMARK  status: ('A' for Active; 'I' for Inactive)
ROOT
HETATM    1  C1  UNL     1     -33.860  15.839  -2.913  1.00 20.00     0.029 C 
HETATM    2  C2  UNL     1     -33.882  14.339  -3.200  1.00 20.00     0.044 C 
HETATM    3  C3  UNL     1     -35.241  16.320  -2.472  1.00 20.00     0.167 C 
HETATM    4  C4  UNL     1     -36.354  14.601  -3.678  1.00 20.00     0.207 C 
HETATM    5  C5  UNL     1     -34.804  13.618  -5.535  1.00 20.00     0.209 A 
HETATM    6  C6  UNL     1     -35.038  14.028  -4.100  1.00 20.00     0.103 A 
HETATM    7  O7  UNL     1     -36.224  16.011  -3.465  1.00 20.00    -0.388 OA
HETATM    8  O8  UNL     1     -35.104  12.657  -4.514  1.00 20.00    -0.373 OA
ENDROOT
TORSDOF 0
ENDMDL
MODEL 4
REMARK VINA RESULT:      -3.6     12.232     13.548
REMARK  0 active torsions:
REMARK  status: ('A' for Active; 'I' for Inactive)
ROOT
HETATM    1  C1  UNL     1     -34.277  13.804  -3.578  1.00 20.00     0.029 C 
HETATM    2  C2  UNL     1     -33.264  14.920  -3.826  1.00 20.00     0.044 C 
HETATM    3  C3  UNL     1     -34.722  13.181  -4.901  1.00 20.00     0.167 C 
HETATM    4  C4  UNL     1     -34.314  15.182  -6.116  1.00 20.00     0.207 C 
HETATM    5  C5  UNL     1     -34.242  17.242  -4.513  1.00 20.00     0.209 A 
HETATM    6  C6  UNL     1     -33.800  15.844  -4.876  1.00 20.00     0.103 A 
HETATM    7  O7  UNL     1     -35.273  14.178  -5.767  1.00 20.00    -0.388 OA
HETATM    8  O8  UNL     1     -32.970  16.987  -5.126  1.00 20.00    -0.373 OA
ENDROOT
TORSDOF 0
ENDMDL
MODEL 5
REMARK VINA RESULT:      -3.6     11.842     12.581
REMARK  0 active torsions:
REMARK  status: ('A' for Active; 'I' for Inactive)
ROOT
HETATM    1  C1  UNL     1     -33.455  13.657  -3.805  1.00 20.00     0.029 C 
HETATM    2  C2  UNL     1     -33.284  15.160  -3.591  1.00 20.00     0.044 C 
HETATM    3  C3  UNL     1     -34.725  13.371  -4.604  1.00 20.00     0.167 C 
HETATM    4  C4  UNL     1     -35.798  15.345  -3.829  1.00 20.00     0.207 C 
HETATM    5  C5  UNL     1     -34.666  16.220  -1.645  1.00 20.00     0.209 A 
HETATM    6  C6  UNL     1     -34.567  15.731  -3.071  1.00 20.00     0.103 A 
HETATM    7  O7  UNL     1     -35.870  13.919  -3.943  1.00 20.00    -0.388 OA
HETATM    8  O8  UNL     1     -34.496  17.125  -2.744  1.00 20.00    -0.373 OA
ENDROOT
TORSDOF 0
ENDMDL
MODEL 6
REMARK VINA RESULT:      -3.6      1.257      3.365
REMARK  0 active torsions:
REMARK  status: ('A' for Active; 'I' for Inactive)
ROOT
HETATM    1  C1  UNL     1     -32.713   6.604   4.235  1.00 20.00     0.029 C 
HETATM    2  C2  UNL     1     -33.681   6.465   5.409  1.00 20.00     0.044 C 
HETATM    3  C3  UNL     1     -33.469   6.550   2.908  1.00 20.00     0.167 C 
HETATM    4  C4  UNL     1     -35.216   5.224   3.823  1.00 20.00     0.207 C 
HETATM    5  C5  UNL     1     -34.431   4.038   6.013  1.00 20.00     0.209 A 
HETATM    6  C6  UNL     1     -34.573   5.285   5.173  1.00 20.00     0.103 A 
HETATM    7  O7  UNL     1     -34.217   5.334   2.803  1.00 20.00    -0.388 OA
HETATM    8  O8  UNL     1     -35.465   5.001   6.258  1.00 20.00    -0.373 OA
ENDROOT
TORSDOF 0
ENDMDL
MODEL 7
REMARK VINA RESULT:      -3.5      9.161     10.329
REMARK  0 active torsions:
REMARK  status: ('A' for Active; 'I' for Inactive)
ROOT
HETATM    1  C1  UNL     1     -40.717   5.895  -0.145  1.00 20.00     0.029 C 
HETATM    2  C2  UNL     1     -41.732   4.769  -0.330  1.00 20.00     0.044 C 
HETATM    3  C3  UNL     1     -41.148   7.137  -0.923  1.00 20.00     0.167 C 
HETATM    4  C4  UNL     1     -42.340   5.859  -2.533  1.00 20.00     0.207 C 
HETATM    5  C5  UNL     1     -41.530   3.376  -2.530  1.00 20.00     0.209 A 
HETATM    6  C6  UNL     1     -42.017   4.600  -1.791  1.00 20.00     0.103 A 
HETATM    7  O7  UNL     1     -41.311   6.830  -2.311  1.00 20.00    -0.388 OA
HETATM    8  O8  UNL     1     -42.890   3.504  -2.092  1.00 20.00    -0.373 OA
ENDROOT
TORSDOF 0
ENDMDL
MODEL 8
REMARK VINA RESULT:      -3.5     12.096     12.791
REMARK  0 active torsions:
REMARK  status: ('A' for Active; 'I' for Inactive)
ROOT
HETATM    1  C1  UNL     1     -33.914  14.084  -4.386  1.00 20.00     0.029 C 
HETATM    2  C2  UNL     1     -35.306  13.514  -4.118  1.00 20.00     0.044 C 
HETATM    3  C3  UNL     1     -33.557  15.140  -3.342  1.00 20.00     0.167 C 
HETATM    4  C4  UNL     1     -35.834  15.705  -2.963  1.00 20.00     0.207 C 
HETATM    5  C5  UNL     1     -37.325  14.938  -4.964  1.00 20.00     0.209 A 
HETATM    6  C6  UNL     1     -36.270  14.644  -3.924  1.00 20.00     0.103 A 
HETATM    7  O7  UNL     1     -34.534  16.185  -3.326  1.00 20.00    -0.388 OA
HETATM    8  O8  UNL     1     -37.631  14.228  -3.756  1.00 20.00    -0.373 OA
ENDROOT
TORSDOF 0
ENDMDL
MODEL 9
REMARK VINA RESULT:      -3.5     11.830     13.158
REMARK  0 active torsions:
REMARK  status: ('A' for Active; 'I' for Inactive)
ROOT
HETATM    1  C1  UNL     1     -33.259  15.498  -3.997  1.00 20.00     0.029 C 
HETATM    2  C2  UNL     1     -33.933  15.534  -5.367  1.00 20.00     0.044 C 
HETATM    3  C3  UNL     1     -32.959  14.058  -3.585  1.00 20.00     0.167 C 
HETATM    4  C4  UNL     1     -34.756  13.190  -4.876  1.00 20.00     0.207 C 
HETATM    5  C5  UNL     1     -36.500  15.058  -5.411  1.00 20.00     0.209 A 
HETATM    6  C6  UNL     1     -35.074  14.563  -5.379  1.00 20.00     0.103 A 
HETATM    7  O7  UNL     1     -34.157  13.276  -3.578  1.00 20.00    -0.388 OA
HETATM    8  O8  UNL     1     -35.840  14.578  -6.590  1.00 20.00    -0.373 OA
ENDROOT
TORSDOF 0
ENDMDL
