MODEL 1
REMARK VINA RESULT:      -5.3      0.000      0.000
REMARK  2 active torsions:
REMARK  status: ('A' for Active; 'I' for Inactive)
REMARK    1  A    between atoms: C1_1  and  C2_2 
REMARK    2  A    between atoms: C2_2  and  C3_3 
ROOT
HETATM    1  C2  UNL     1     -34.911   4.965   4.533  1.00 20.00     0.428 C 
HETATM    2  F6  UNL     1     -36.196   5.369   4.355  1.00 20.00    -0.184 F 
HETATM    3  F7  UNL     1     -34.871   3.646   4.215  1.00 20.00    -0.184 F 
ENDROOT
BRANCH   1   4
HETATM    4  C1  UNL     1     -34.479   5.191   5.949  1.00 20.00     0.379 C 
HETATM    5  O4  UNL     1     -34.482   6.270   6.521  1.00 20.00    -0.253 OA
HETATM    6  F5  UNL     1     -34.089   4.122   6.656  1.00 20.00    -0.157 F 
ENDBRANCH   1   4
BRANCH   1   7
HETATM    7  C3  UNL     1     -34.028   5.727   3.578  1.00 20.00     0.465 C 
HETATM    8  F8  UNL     1     -34.363   7.036   3.561  1.00 20.00    -0.165 F 
HETATM    9  F9  UNL     1     -34.147   5.257   2.318  1.00 20.00    -0.165 F 
HETATM   10  F10 UNL     1     -32.729   5.641   3.934  1.00 20.00    -0.165 F 
ENDBRANCH   1   7
TORSDOF 2
ENDMDL
MODEL 2
REMARK VINA RESULT:      -5.3      0.013      1.193
REMARK  2 active torsions:
REMARK  status: ('A' for Active; 'I' for Inactive)
REMARK    1  A    between atoms: C1_1  and  C2_2 
REMARK    2  A    between atoms: C2_2  and  C3_3 
ROOT
HETATM    1  C2  UNL     1     -34.908   4.972   4.532  1.00 20.00     0.428 C 
HETATM    2  F6  UNL     1     -36.194   5.373   4.352  1.00 20.00    -0.184 F 
HETATM    3  F7  UNL     1     -34.865   3.653   4.213  1.00 20.00    -0.184 F 
ENDROOT
BRANCH   1   4
HETATM    4  C1  UNL     1     -34.479   5.199   5.948  1.00 20.00     0.379 C 
HETATM    5  O4  UNL     1     -34.471   6.281   6.516  1.00 20.00    -0.253 OA
HETATM    6  F5  UNL     1     -34.104   4.128   6.661  1.00 20.00    -0.157 F 
ENDBRANCH   1   4
BRANCH   1   7
HETATM    7  C3  UNL     1     -34.026   5.737   3.578  1.00 20.00     0.465 C 
HETATM    8  F8  UNL     1     -34.158   5.257   2.321  1.00 20.00    -0.165 F 
HETATM    9  F9  UNL     1     -32.725   5.633   3.921  1.00 20.00    -0.165 F 
HETATM   10  F10 UNL     1     -34.348   7.047   3.553  1.00 20.00    -0.165 F 
ENDBRANCH   1   7
TORSDOF 2
ENDMDL
MODEL 3
REMARK VINA RESULT:      -5.3      0.021      1.198
REMARK  2 active torsions:
REMARK  status: ('A' for Active; 'I' for Inactive)
REMARK    1  A    between atoms: C1_1  and  C2_2 
REMARK    2  A    between atoms: C2_2  and  C3_3 
ROOT
HETATM    1  C2  UNL     1     -34.912   4.978   4.537  1.00 20.00     0.428 C 
HETATM    2  F6  UNL     1     -36.198   5.380   4.358  1.00 20.00    -0.184 F 
HETATM    3  F7  UNL     1     -34.872   3.656   4.228  1.00 20.00    -0.184 F 
ENDROOT
BRANCH   1   4
HETATM    4  C1  UNL     1     -34.477   5.215   5.950  1.00 20.00     0.379 C 
HETATM    5  O4  UNL     1     -34.466   6.300   6.510  1.00 20.00    -0.253 OA
HETATM    6  F5  UNL     1     -34.102   4.148   6.669  1.00 20.00    -0.157 F 
ENDBRANCH   1   4
BRANCH   1   7
HETATM    7  C3  UNL     1     -34.032   5.734   3.574  1.00 20.00     0.465 C 
HETATM    8  F8  UNL     1     -32.733   5.624   3.931  1.00 20.00    -0.165 F 
HETATM    9  F9  UNL     1     -34.342   7.047   3.551  1.00 20.00    -0.165 F 
HETATM   10  F10 UNL     1     -34.153   5.254   2.318  1.00 20.00    -0.165 F 
ENDBRANCH   1   7
TORSDOF 2
ENDMDL
MODEL 4
REMARK VINA RESULT:      -5.3      0.864      2.340
REMARK  2 active torsions:
REMARK  status: ('A' for Active; 'I' for Inactive)
REMARK    1  A    between atoms: C1_1  and  C2_2 
REMARK    2  A    between atoms: C2_2  and  C3_3 
ROOT
HETATM    1  C2  UNL     1     -33.989   6.148   4.390  1.00 20.00     0.428 C 
HETATM    2  F6  UNL     1     -32.709   5.805   4.088  1.00 20.00    -0.184 F 
HETATM    3  F7  UNL     1     -34.194   7.382   3.861  1.00 20.00    -0.184 F 
ENDROOT
BRANCH   1   4
HETATM    4  C1  UNL     1     -34.197   6.155   5.872  1.00 20.00     0.379 C 
HETATM    5  O4  UNL     1     -33.617   6.886   6.660  1.00 20.00    -0.253 OA
HETATM    6  F5  UNL     1     -35.116   5.318   6.373  1.00 20.00    -0.157 F 
ENDBRANCH   1   4
BRANCH   1   7
HETATM    7  C3  UNL     1     -34.922   5.168   3.725  1.00 20.00     0.465 C 
HETATM    8  F8  UNL     1     -34.539   4.938   2.449  1.00 20.00    -0.165 F 
HETATM    9  F9  UNL     1     -36.187   5.637   3.695  1.00 20.00    -0.165 F 
HETATM   10  F10 UNL     1     -34.931   3.982   4.370  1.00 20.00    -0.165 F 
ENDBRANCH   1   7
TORSDOF 2
ENDMDL
MODEL 5
REMARK VINA RESULT:      -5.2      1.644      3.102
REMARK  2 active torsions:
REMARK  status: ('A' for Active; 'I' for Inactive)
REMARK    1  A    between atoms: C1_1  and  C2_2 
REMARK    2  A    between atoms: C2_2  and  C3_3 
ROOT
HETATM    1  C2  UNL     1     -34.928   4.892   4.629  1.00 20.00     0.428 C 
HETATM    2  F6  UNL     1     -34.858   3.627   4.137  1.00 20.00    -0.184 F 
HETATM    3  F7  UNL     1     -36.162   5.363   4.311  1.00 20.00    -0.184 F 
ENDROOT
BRANCH   1   4
HETATM    4  C1  UNL     1     -33.854   5.749   4.036  1.00 20.00     0.379 C 
HETATM    5  O4  UNL     1     -33.537   5.763   2.856  1.00 20.00    -0.253 OA
HETATM    6  F5  UNL     1     -33.212   6.593   4.855  1.00 20.00    -0.157 F 
ENDBRANCH   1   4
BRANCH   1   7
HETATM    7  C3  UNL     1     -34.797   4.835   6.130  1.00 20.00     0.465 C 
HETATM    8  F8  UNL     1     -35.787   4.087   6.666  1.00 20.00    -0.165 F 
HETATM    9  F9  UNL     1     -34.871   6.067   6.677  1.00 20.00    -0.165 F 
HETATM   10  F10 UNL     1     -33.621   4.284   6.500  1.00 20.00    -0.165 F 
ENDBRANCH   1   7
TORSDOF 2
ENDMDL
MODEL 6
REMARK VINA RESULT:      -5.2      1.534      3.177
REMARK  2 active torsions:
REMARK  status: ('A' for Active; 'I' for Inactive)
REMARK    1  A    between atoms: C1_1  and  C2_2 
REMARK    2  A    between atoms: C2_2  and  C3_3 
ROOT
HETATM    1  C2  UNL     1     -34.886   5.032   4.553  1.00 20.00     0.428 C 
HETATM    2  F6  UNL     1     -34.676   3.779   4.071  1.00 20.00    -0.184 F 
HETATM    3  F7  UNL     1     -36.171   5.353   4.254  1.00 20.00    -0.184 F 
ENDROOT
BRANCH   1   4
HETATM    4  C1  UNL     1     -33.929   6.003   3.933  1.00 20.00     0.379 C 
HETATM    5  O4  UNL     1     -32.802   5.732   3.549  1.00 20.00    -0.253 OA
HETATM    6  F5  UNL     1     -34.354   7.261   3.752  1.00 20.00    -0.157 F 
ENDBRANCH   1   4
BRANCH   1   7
HETATM    7  C3  UNL     1     -34.723   5.007   6.052  1.00 20.00     0.465 C 
HETATM    8  F8  UNL     1     -33.674   4.231   6.403  1.00 20.00    -0.165 F 
HETATM    9  F9  UNL     1     -35.822   4.510   6.657  1.00 20.00    -0.165 F 
HETATM   10  F10 UNL     1     -34.501   6.245   6.543  1.00 20.00    -0.165 F 
ENDBRANCH   1   7
TORSDOF 2
ENDMDL
MODEL 7
REMARK VINA RESULT:      -5.1      1.965      3.028
REMARK  2 active torsions:
REMARK  status: ('A' for Active; 'I' for Inactive)
REMARK    1  A    between atoms: C1_1  and  C2_2 
REMARK    2  A    between atoms: C2_2  and  C3_3 
ROOT
HETATM    1  C2  UNL     1     -33.901   6.461   4.049  1.00 20.00     0.428 C 
HETATM    2  F6  UNL     1     -34.613   7.617   3.979  1.00 20.00    -0.184 F 
HETATM    3  F7  UNL     1     -33.631   6.250   5.363  1.00 20.00    -0.184 F 
ENDROOT
BRANCH   1   4
HETATM    4  C1  UNL     1     -32.639   6.571   3.251  1.00 20.00     0.379 C 
HETATM    5  O4  UNL     1     -32.342   7.511   2.530  1.00 20.00    -0.253 OA
HETATM    6  F5  UNL     1     -31.748   5.575   3.360  1.00 20.00    -0.157 F 
ENDBRANCH   1   4
BRANCH   1   7
HETATM    7  C3  UNL     1     -34.759   5.333   3.537  1.00 20.00     0.465 C 
HETATM    8  F8  UNL     1     -34.317   4.907   2.333  1.00 20.00    -0.165 F 
HETATM    9  F9  UNL     1     -36.044   5.721   3.388  1.00 20.00    -0.165 F 
HETATM   10  F10 UNL     1     -34.737   4.278   4.379  1.00 20.00    -0.165 F 
ENDBRANCH   1   7
TORSDOF 2
ENDMDL
MODEL 8
REMARK VINA RESULT:      -5.1      1.787      3.305
REMARK  2 active torsions:
REMARK  status: ('A' for Active; 'I' for Inactive)
REMARK    1  A    between atoms: C1_1  and  C2_2 
REMARK    2  A    between atoms: C2_2  and  C3_3 
ROOT
HETATM    1  C2  UNL     1     -34.199   5.599   4.908  1.00 20.00     0.428 C 
HETATM    2  F6  UNL     1     -34.457   6.793   5.503  1.00 20.00    -0.184 F 
HETATM    3  F7  UNL     1     -32.852   5.532   4.741  1.00 20.00    -0.184 F 
ENDROOT
BRANCH   1   4
HETATM    4  C1  UNL     1     -34.910   5.500   3.594  1.00 20.00     0.379 C 
HETATM    5  O4  UNL     1     -34.375   5.269   2.520  1.00 20.00    -0.253 OA
HETATM    6  F5  UNL     1     -36.242   5.644   3.599  1.00 20.00    -0.157 F 
ENDBRANCH   1   4
BRANCH   1   7
HETATM    7  C3  UNL     1     -34.634   4.492   5.834  1.00 20.00     0.465 C 
HETATM    8  F8  UNL     1     -35.683   4.889   6.589  1.00 20.00    -0.165 F 
HETATM    9  F9  UNL     1     -33.638   4.133   6.672  1.00 20.00    -0.165 F 
HETATM   10  F10 UNL     1     -35.015   3.396   5.145  1.00 20.00    -0.165 F 
ENDBRANCH   1   7
TORSDOF 2
ENDMDL
MODEL 9
REMARK VINA RESULT:      -5.0      1.680      3.123
REMARK  2 active torsions:
REMARK  status: ('A' for Active; 'I' for Inactive)
REMARK    1  A    between atoms: C1_1  and  C2_2 
REMARK    2  A    between atoms: C2_2  and  C3_3 
ROOT
HETATM    1  C2  UNL     1     -34.144   5.818   4.827  1.00 20.00     0.428 C 
HETATM    2  F6  UNL     1     -34.392   7.084   4.399  1.00 20.00    -0.184 F 
HETATM    3  F7  UNL     1     -32.938   5.464   4.312  1.00 20.00    -0.184 F 
ENDROOT
BRANCH   1   4
HETATM    4  C1  UNL     1     -35.221   4.886   4.368  1.00 20.00     0.379 C 
HETATM    5  O4  UNL     1     -35.261   3.688   4.602  1.00 20.00    -0.253 OA
HETATM    6  F5  UNL     1     -36.240   5.411   3.672  1.00 20.00    -0.157 F 
ENDBRANCH   1   4
BRANCH   1   7
HETATM    7  C3  UNL     1     -34.050   5.826   6.332  1.00 20.00     0.465 C 
HETATM    8  F8  UNL     1     -35.284   5.850   6.884  1.00 20.00    -0.165 F 
HETATM    9  F9  UNL     1     -33.380   6.909   6.778  1.00 20.00    -0.165 F 
HETATM   10  F10 UNL     1     -33.417   4.725   6.791  1.00 20.00    -0.165 F 
ENDBRANCH   1   7
TORSDOF 2
ENDMDL
