MODEL 1
REMARK VINA RESULT:      -3.0      0.000      0.000
REMARK  0 active torsions:
REMARK  status: ('A' for Active; 'I' for Inactive)
ROOT
HETATM    1  C1  UNL     1     -34.974   4.427   5.809  1.00 20.00     0.178 C 
HETATM    2  C2  UNL     1     -35.136   4.878   4.368  1.00 20.00     0.102 C 
HETATM    3  C3  UNL     1     -33.860   6.442   6.002  1.00 20.00     0.241 C 
HETATM    4  O4  UNL     1     -34.831   5.595   6.625  1.00 20.00    -0.381 OA
HETATM    5  S5  UNL     1     -33.906   6.184   4.217  1.00 20.00    -0.141 SA
ENDROOT
TORSDOF 0
ENDMDL
MODEL 2
REMARK VINA RESULT:      -2.8      1.009      1.896
REMARK  0 active torsions:
REMARK  status: ('A' for Active; 'I' for Inactive)
ROOT
HETATM    1  C1  UNL     1     -34.162   6.118   6.235  1.00 20.00     0.178 C 
HETATM    2  C2  UNL     1     -33.807   6.391   4.784  1.00 20.00     0.102 C 
HETATM    3  C3  UNL     1     -35.120   4.219   5.334  1.00 20.00     0.241 C 
HETATM    4  O4  UNL     1     -34.296   4.702   6.399  1.00 20.00    -0.381 OA
HETATM    5  S5  UNL     1     -34.901   5.275   3.889  1.00 20.00    -0.141 SA
ENDROOT
TORSDOF 0
ENDMDL
MODEL 3
REMARK VINA RESULT:      -2.7      1.754      1.992
REMARK  0 active torsions:
REMARK  status: ('A' for Active; 'I' for Inactive)
ROOT
HETATM    1  C1  UNL     1     -35.389   4.804   4.447  1.00 20.00     0.178 C 
HETATM    2  C2  UNL     1     -34.956   4.654   5.895  1.00 20.00     0.102 C 
HETATM    3  C3  UNL     1     -33.782   6.465   4.451  1.00 20.00     0.241 C 
HETATM    4  O4  UNL     1     -34.287   5.350   3.711  1.00 20.00    -0.381 OA
HETATM    5  S5  UNL     1     -34.071   6.190   6.210  1.00 20.00    -0.141 SA
ENDROOT
TORSDOF 0
ENDMDL
MODEL 4
REMARK VINA RESULT:      -2.7      1.876      2.678
REMARK  0 active torsions:
REMARK  status: ('A' for Active; 'I' for Inactive)
ROOT
HETATM    1  C1  UNL     1     -33.643   6.333   4.449  1.00 20.00     0.178 C 
HETATM    2  C2  UNL     1     -33.980   6.321   5.930  1.00 20.00     0.102 C 
HETATM    3  C3  UNL     1     -35.234   4.658   4.379  1.00 20.00     0.241 C 
HETATM    4  O4  UNL     1     -34.786   5.853   3.732  1.00 20.00    -0.381 OA
HETATM    5  S5  UNL     1     -34.831   4.747   6.134  1.00 20.00    -0.141 SA
ENDROOT
TORSDOF 0
ENDMDL
MODEL 5
REMARK VINA RESULT:      -2.5     12.530     12.751
REMARK  0 active torsions:
REMARK  status: ('A' for Active; 'I' for Inactive)
ROOT
HETATM    1  C1  UNL     1     -35.838  13.797  -4.406  1.00 20.00     0.178 C 
HETATM    2  C2  UNL     1     -35.771  14.967  -3.440  1.00 20.00     0.102 C 
HETATM    3  C3  UNL     1     -33.590  13.632  -3.895  1.00 20.00     0.241 C 
HETATM    4  O4  UNL     1     -34.795  12.878  -4.060  1.00 20.00    -0.381 OA
HETATM    5  S5  UNL     1     -34.003  15.294  -3.330  1.00 20.00    -0.141 SA
ENDROOT
TORSDOF 0
ENDMDL
MODEL 6
REMARK VINA RESULT:      -2.5     12.821     12.830
REMARK  0 active torsions:
REMARK  status: ('A' for Active; 'I' for Inactive)
ROOT
HETATM    1  C1  UNL     1     -34.762  13.203  -4.914  1.00 20.00     0.178 C 
HETATM    2  C2  UNL     1     -35.782  14.018  -4.137  1.00 20.00     0.102 C 
HETATM    3  C3  UNL     1     -33.264  14.422  -3.646  1.00 20.00     0.241 C 
HETATM    4  O4  UNL     1     -33.574  13.108  -4.119  1.00 20.00    -0.381 OA
HETATM    5  S5  UNL     1     -34.791  15.365  -3.468  1.00 20.00    -0.141 SA
ENDROOT
TORSDOF 0
ENDMDL
MODEL 7
REMARK VINA RESULT:      -2.4      9.294      9.906
REMARK  0 active torsions:
REMARK  status: ('A' for Active; 'I' for Inactive)
ROOT
HETATM    1  C1  UNL     1     -40.751   5.841  -0.478  1.00 20.00     0.178 C 
HETATM    2  C2  UNL     1     -41.323   6.841  -1.467  1.00 20.00     0.102 C 
HETATM    3  C3  UNL     1     -41.606   4.312  -1.985  1.00 20.00     0.241 C 
HETATM    4  O4  UNL     1     -40.461   4.632  -1.189  1.00 20.00    -0.381 OA
HETATM    5  S5  UNL     1     -42.455   5.836  -2.443  1.00 20.00    -0.141 SA
ENDROOT
TORSDOF 0
ENDMDL
MODEL 8
REMARK VINA RESULT:      -2.3     13.102     13.446
REMARK  0 active torsions:
REMARK  status: ('A' for Active; 'I' for Inactive)
ROOT
HETATM    1  C1  UNL     1     -33.656  14.695  -3.540  1.00 20.00     0.178 C 
HETATM    2  C2  UNL     1     -33.729  15.538  -4.802  1.00 20.00     0.102 C 
HETATM    3  C3  UNL     1     -34.671  13.120  -4.892  1.00 20.00     0.241 C 
HETATM    4  O4  UNL     1     -33.630  13.318  -3.930  1.00 20.00    -0.381 OA
HETATM    5  S5  UNL     1     -34.934  14.653  -5.805  1.00 20.00    -0.141 SA
ENDROOT
TORSDOF 0
ENDMDL
MODEL 9
REMARK VINA RESULT:      -2.3     12.637     12.921
REMARK  0 active torsions:
REMARK  status: ('A' for Active; 'I' for Inactive)
ROOT
HETATM    1  C1  UNL     1     -36.301  15.185  -3.574  1.00 20.00     0.178 C 
HETATM    2  C2  UNL     1     -34.980  15.388  -2.853  1.00 20.00     0.102 C 
HETATM    3  C3  UNL     1     -35.219  13.322  -4.407  1.00 20.00     0.241 C 
HETATM    4  O4  UNL     1     -36.449  13.786  -3.841  1.00 20.00    -0.381 OA
HETATM    5  S5  UNL     1     -33.858  14.315  -3.766  1.00 20.00    -0.141 SA
ENDROOT
TORSDOF 0
ENDMDL
