MODEL 1
REMARK VINA RESULT:      -4.0      0.000      0.000
REMARK  1 active torsions:
REMARK  status: ('A' for Active; 'I' for Inactive)
REMARK    1  A    between atoms: C2_2  and  C4_4 
ROOT
HETATM    1  C3  UNL     1     -32.898   5.844   3.365  1.00 20.00     0.205 A 
HETATM    2  C4  UNL     1     -34.273   5.859   3.926  1.00 20.00     0.173 A 
HETATM    3  O6  UNL     1     -33.606   7.064   3.614  1.00 20.00    -0.377 OA
ENDROOT
BRANCH   2   4
HETATM    4  C2  UNL     1     -34.436   5.415   5.350  1.00 20.00    -0.062 C 
HETATM    5  C1  UNL     1     -34.874   4.187   5.663  1.00 20.00     0.016 C 
HETATM    6  C5  UNL     1     -34.080   6.423   6.402  1.00 20.00     0.045 C 
ENDBRANCH   2   4
TORSDOF 1
ENDMDL
MODEL 2
REMARK VINA RESULT:      -4.0      0.120      1.439
REMARK  1 active torsions:
REMARK  status: ('A' for Active; 'I' for Inactive)
REMARK    1  A    between atoms: C2_2  and  C4_4 
ROOT
HETATM    1  C3  UNL     1     -32.780   5.886   3.398  1.00 20.00     0.205 A 
HETATM    2  C4  UNL     1     -34.164   5.923   3.936  1.00 20.00     0.173 A 
HETATM    3  O6  UNL     1     -33.504   7.112   3.555  1.00 20.00    -0.377 OA
ENDROOT
BRANCH   2   4
HETATM    4  C2  UNL     1     -34.345   5.572   5.383  1.00 20.00    -0.062 C 
HETATM    5  C1  UNL     1     -34.048   6.437   6.365  1.00 20.00     0.016 C 
HETATM    6  C5  UNL     1     -34.877   4.200   5.670  1.00 20.00     0.045 C 
ENDBRANCH   2   4
TORSDOF 1
ENDMDL
MODEL 3
REMARK VINA RESULT:      -3.6      1.644      2.624
REMARK  1 active torsions:
REMARK  status: ('A' for Active; 'I' for Inactive)
REMARK    1  A    between atoms: C2_2  and  C4_4 
ROOT
HETATM    1  C3  UNL     1     -34.874   3.809   5.911  1.00 20.00     0.205 A 
HETATM    2  C4  UNL     1     -35.168   5.083   5.206  1.00 20.00     0.173 A 
HETATM    3  O6  UNL     1     -35.103   3.863   4.498  1.00 20.00    -0.377 OA
ENDROOT
BRANCH   2   4
HETATM    4  C2  UNL     1     -34.056   6.087   5.115  1.00 20.00    -0.062 C 
HETATM    5  C1  UNL     1     -33.386   6.300   3.973  1.00 20.00     0.016 C 
HETATM    6  C5  UNL     1     -33.738   6.837   6.374  1.00 20.00     0.045 C 
ENDBRANCH   2   4
TORSDOF 1
ENDMDL
MODEL 4
REMARK VINA RESULT:      -3.6      1.568      2.728
REMARK  1 active torsions:
REMARK  status: ('A' for Active; 'I' for Inactive)
REMARK    1  A    between atoms: C2_2  and  C4_4 
ROOT
HETATM    1  C3  UNL     1     -34.844   3.866   5.790  1.00 20.00     0.205 A 
HETATM    2  C4  UNL     1     -35.131   5.236   5.294  1.00 20.00     0.173 A 
HETATM    3  O6  UNL     1     -35.120   4.135   4.410  1.00 20.00    -0.377 OA
ENDROOT
BRANCH   2   4
HETATM    4  C2  UNL     1     -33.999   6.220   5.312  1.00 20.00    -0.062 C 
HETATM    5  C1  UNL     1     -33.669   6.901   6.420  1.00 20.00     0.016 C 
HETATM    6  C5  UNL     1     -33.257   6.400   4.021  1.00 20.00     0.045 C 
ENDBRANCH   2   4
TORSDOF 1
ENDMDL
MODEL 5
REMARK VINA RESULT:      -3.5      1.303      1.582
REMARK  1 active torsions:
REMARK  status: ('A' for Active; 'I' for Inactive)
REMARK    1  A    between atoms: C2_2  and  C4_4 
ROOT
HETATM    1  C3  UNL     1     -32.724   7.226   2.911  1.00 20.00     0.205 A 
HETATM    2  C4  UNL     1     -32.743   6.377   4.130  1.00 20.00     0.173 A 
HETATM    3  O6  UNL     1     -32.180   5.901   2.926  1.00 20.00    -0.377 OA
ENDROOT
BRANCH   2   4
HETATM    4  C2  UNL     1     -34.081   5.888   4.601  1.00 20.00    -0.062 C 
HETATM    5  C1  UNL     1     -34.990   5.385   3.753  1.00 20.00     0.016 C 
HETATM    6  C5  UNL     1     -34.342   5.993   6.074  1.00 20.00     0.045 C 
ENDBRANCH   2   4
TORSDOF 1
ENDMDL
MODEL 6
REMARK VINA RESULT:      -3.4      1.624      2.825
REMARK  1 active torsions:
REMARK  status: ('A' for Active; 'I' for Inactive)
REMARK    1  A    between atoms: C2_2  and  C4_4 
ROOT
HETATM    1  C3  UNL     1     -34.465   4.115   6.016  1.00 20.00     0.205 A 
HETATM    2  C4  UNL     1     -34.134   5.498   5.588  1.00 20.00     0.173 A 
HETATM    3  O6  UNL     1     -35.311   5.230   6.320  1.00 20.00    -0.377 OA
ENDROOT
BRANCH   2   4
HETATM    4  C2  UNL     1     -34.190   5.792   4.118  1.00 20.00    -0.062 C 
HETATM    5  C1  UNL     1     -35.313   5.621   3.404  1.00 20.00     0.016 C 
HETATM    6  C5  UNL     1     -32.920   6.286   3.492  1.00 20.00     0.045 C 
ENDBRANCH   2   4
TORSDOF 1
ENDMDL
MODEL 7
REMARK VINA RESULT:      -3.2     11.932     12.522
REMARK  1 active torsions:
REMARK  status: ('A' for Active; 'I' for Inactive)
REMARK    1  A    between atoms: C2_2  and  C4_4 
ROOT
HETATM    1  C3  UNL     1     -34.731  13.366  -5.365  1.00 20.00     0.205 A 
HETATM    2  C4  UNL     1     -33.867  13.710  -4.207  1.00 20.00     0.173 A 
HETATM    3  O6  UNL     1     -34.948  12.812  -4.063  1.00 20.00    -0.377 OA
ENDROOT
BRANCH   2   4
HETATM    4  C2  UNL     1     -33.955  15.112  -3.681  1.00 20.00    -0.062 C 
HETATM    5  C1  UNL     1     -34.713  15.424  -2.619  1.00 20.00     0.016 C 
HETATM    6  C5  UNL     1     -33.148  16.144  -4.410  1.00 20.00     0.045 C 
ENDBRANCH   2   4
TORSDOF 1
ENDMDL
MODEL 8
REMARK VINA RESULT:      -3.1      1.876      2.777
REMARK  1 active torsions:
REMARK  status: ('A' for Active; 'I' for Inactive)
REMARK    1  A    between atoms: C2_2  and  C4_4 
ROOT
HETATM    1  C3  UNL     1     -35.558   4.644   4.645  1.00 20.00     0.205 A 
HETATM    2  C4  UNL     1     -34.223   4.817   5.271  1.00 20.00     0.173 A 
HETATM    3  O6  UNL     1     -35.344   4.454   6.048  1.00 20.00    -0.377 OA
ENDROOT
BRANCH   2   4
HETATM    4  C2  UNL     1     -33.668   6.210   5.323  1.00 20.00    -0.062 C 
HETATM    5  C1  UNL     1     -33.745   6.962   6.431  1.00 20.00     0.016 C 
HETATM    6  C5  UNL     1     -33.022   6.713   4.067  1.00 20.00     0.045 C 
ENDBRANCH   2   4
TORSDOF 1
ENDMDL
MODEL 9
REMARK VINA RESULT:      -3.0     12.258     13.442
REMARK  1 active torsions:
REMARK  status: ('A' for Active; 'I' for Inactive)
REMARK    1  A    between atoms: C2_2  and  C4_4 
ROOT
HETATM    1  C3  UNL     1     -33.894  13.515  -3.973  1.00 20.00     0.205 A 
HETATM    2  C4  UNL     1     -35.058  14.116  -4.673  1.00 20.00     0.173 A 
HETATM    3  O6  UNL     1     -34.943  12.716  -4.533  1.00 20.00    -0.377 OA
ENDROOT
BRANCH   2   4
HETATM    4  C2  UNL     1     -34.794  14.783  -5.991  1.00 20.00    -0.062 C 
HETATM    5  C1  UNL     1     -35.279  14.294  -7.142  1.00 20.00     0.016 C 
HETATM    6  C5  UNL     1     -33.958  16.027  -5.947  1.00 20.00     0.045 C 
ENDBRANCH   2   4
TORSDOF 1
ENDMDL
