MODEL 1
REMARK VINA RESULT:      -4.7      0.000      0.000
REMARK  0 active torsions:
REMARK  status: ('A' for Active; 'I' for Inactive)
ROOT
HETATM    1  C1  UNL     1     -34.640  13.538  -4.230  1.00 20.00     0.127 C 
HETATM    2  C2  UNL     1     -35.806  14.406  -3.791  1.00 20.00     0.082 C 
HETATM    3  C3  UNL     1     -33.264  13.877  -3.687  1.00 20.00     0.082 C 
HETATM    4  C4  UNL     1     -34.788  16.487  -4.825  1.00 20.00     0.005 C 
HETATM    5  C5  UNL     1     -33.287  16.174  -4.766  1.00 20.00     0.005 C 
HETATM    6  C6  UNL     1     -34.214  15.909  -2.577  1.00 20.00     0.010 C 
HETATM    7  C7  UNL     1     -35.386  15.862  -3.556  1.00 20.00    -0.007 C 
HETATM    8  C8  UNL     1     -33.088  15.384  -3.462  1.00 20.00    -0.007 C 
HETATM    9  O9  UNL     1     -34.821  12.532  -4.916  1.00 20.00    -0.298 OA
ENDROOT
TORSDOF 0
ENDMDL
MODEL 2
REMARK VINA RESULT:      -4.6      0.664      2.142
REMARK  0 active torsions:
REMARK  status: ('A' for Active; 'I' for Inactive)
ROOT
HETATM    1  C1  UNL     1     -34.519  13.607  -4.567  1.00 20.00     0.127 C 
HETATM    2  C2  UNL     1     -33.279  13.887  -3.737  1.00 20.00     0.082 C 
HETATM    3  C3  UNL     1     -34.980  14.683  -5.532  1.00 20.00     0.082 C 
HETATM    4  C4  UNL     1     -34.358  15.881  -2.598  1.00 20.00     0.005 C 
HETATM    5  C5  UNL     1     -35.363  16.351  -3.657  1.00 20.00     0.005 C 
HETATM    6  C6  UNL     1     -33.198  16.211  -4.663  1.00 20.00     0.010 C 
HETATM    7  C7  UNL     1     -33.141  15.373  -3.387  1.00 20.00    -0.007 C 
HETATM    8  C8  UNL     1     -34.679  16.094  -5.009  1.00 20.00    -0.007 C 
HETATM    9  O9  UNL     1     -35.069  12.505  -4.535  1.00 20.00    -0.298 OA
ENDROOT
TORSDOF 0
ENDMDL
MODEL 3
REMARK VINA RESULT:      -4.4      1.754      2.729
REMARK  0 active torsions:
REMARK  status: ('A' for Active; 'I' for Inactive)
ROOT
HETATM    1  C1  UNL     1     -34.083  15.831  -5.817  1.00 20.00     0.127 C 
HETATM    2  C2  UNL     1     -34.594  14.412  -5.995  1.00 20.00     0.082 C 
HETATM    3  C3  UNL     1     -33.165  16.108  -4.641  1.00 20.00     0.082 C 
HETATM    4  C4  UNL     1     -35.788  14.444  -3.758  1.00 20.00     0.005 C 
HETATM    5  C5  UNL     1     -34.946  15.447  -2.958  1.00 20.00     0.005 C 
HETATM    6  C6  UNL     1     -33.499  13.760  -3.841  1.00 20.00     0.010 C 
HETATM    7  C7  UNL     1     -34.790  13.696  -4.654  1.00 20.00    -0.007 C 
HETATM    8  C8  UNL     1     -33.499  15.229  -3.429  1.00 20.00    -0.007 C 
HETATM    9  O9  UNL     1     -34.320  16.701  -6.657  1.00 20.00    -0.298 OA
ENDROOT
TORSDOF 0
ENDMDL
MODEL 4
REMARK VINA RESULT:      -4.3      1.969      3.007
REMARK  0 active torsions:
REMARK  status: ('A' for Active; 'I' for Inactive)
ROOT
HETATM    1  C1  UNL     1     -33.505  15.992  -5.006  1.00 20.00     0.127 C 
HETATM    2  C2  UNL     1     -34.146  15.325  -6.210  1.00 20.00     0.082 C 
HETATM    3  C3  UNL     1     -33.325  15.159  -3.750  1.00 20.00     0.082 C 
HETATM    4  C4  UNL     1     -36.310  14.897  -4.956  1.00 20.00     0.005 C 
HETATM    5  C5  UNL     1     -35.826  14.800  -3.503  1.00 20.00     0.005 C 
HETATM    6  C6  UNL     1     -34.559  13.273  -4.838  1.00 20.00     0.010 C 
HETATM    7  C7  UNL     1     -35.188  14.276  -5.802  1.00 20.00    -0.007 C 
HETATM    8  C8  UNL     1     -34.447  14.126  -3.578  1.00 20.00    -0.007 C 
HETATM    9  O9  UNL     1     -33.049  17.134  -5.080  1.00 20.00    -0.298 OA
ENDROOT
TORSDOF 0
ENDMDL
MODEL 5
REMARK VINA RESULT:      -4.3     11.179     12.479
REMARK  0 active torsions:
REMARK  status: ('A' for Active; 'I' for Inactive)
ROOT
HETATM    1  C1  UNL     1     -41.871   4.663  -2.246  1.00 20.00     0.127 C 
HETATM    2  C2  UNL     1     -40.826   4.615  -1.145  1.00 20.00     0.082 C 
HETATM    3  C3  UNL     1     -42.398   6.024  -2.660  1.00 20.00     0.082 C 
HETATM    4  C4  UNL     1     -42.406   5.651   0.548  1.00 20.00     0.005 C 
HETATM    5  C5  UNL     1     -43.335   6.482  -0.346  1.00 20.00     0.005 C 
HETATM    6  C6  UNL     1     -41.070   7.085  -0.822  1.00 20.00     0.010 C 
HETATM    7  C7  UNL     1     -41.022   5.733  -0.114  1.00 20.00    -0.007 C 
HETATM    8  C8  UNL     1     -42.443   7.007  -1.483  1.00 20.00    -0.007 C 
HETATM    9  O9  UNL     1     -42.199   3.643  -2.855  1.00 20.00    -0.298 OA
ENDROOT
TORSDOF 0
ENDMDL
MODEL 6
REMARK VINA RESULT:      -4.3      1.500      2.010
REMARK  0 active torsions:
REMARK  status: ('A' for Active; 'I' for Inactive)
ROOT
HETATM    1  C1  UNL     1     -33.678  13.832  -3.986  1.00 20.00     0.127 C 
HETATM    2  C2  UNL     1     -35.127  13.460  -4.246  1.00 20.00     0.082 C 
HETATM    3  C3  UNL     1     -33.317  15.306  -3.984  1.00 20.00     0.082 C 
HETATM    4  C4  UNL     1     -35.095  14.504  -6.558  1.00 20.00     0.005 C 
HETATM    5  C5  UNL     1     -34.026  15.593  -6.404  1.00 20.00     0.005 C 
HETATM    6  C6  UNL     1     -35.656  15.868  -4.676  1.00 20.00     0.010 C 
HETATM    7  C7  UNL     1     -35.813  14.443  -5.201  1.00 20.00    -0.007 C 
HETATM    8  C8  UNL     1     -34.178  16.112  -4.965  1.00 20.00    -0.007 C 
HETATM    9  O9  UNL     1     -32.846  12.975  -3.684  1.00 20.00    -0.298 OA
ENDROOT
TORSDOF 0
ENDMDL
MODEL 7
REMARK VINA RESULT:      -4.3      1.511      2.960
REMARK  0 active torsions:
REMARK  status: ('A' for Active; 'I' for Inactive)
ROOT
HETATM    1  C1  UNL     1     -34.312  15.913  -5.638  1.00 20.00     0.127 C 
HETATM    2  C2  UNL     1     -33.152  16.113  -4.680  1.00 20.00     0.082 C 
HETATM    3  C3  UNL     1     -35.673  15.601  -5.044  1.00 20.00     0.082 C 
HETATM    4  C4  UNL     1     -33.350  13.751  -3.775  1.00 20.00     0.005 C 
HETATM    5  C5  UNL     1     -34.838  13.448  -3.991  1.00 20.00     0.005 C 
HETATM    6  C6  UNL     1     -34.642  15.493  -2.766  1.00 20.00     0.010 C 
HETATM    7  C7  UNL     1     -33.285  15.245  -3.423  1.00 20.00    -0.007 C 
HETATM    8  C8  UNL     1     -35.564  14.782  -3.752  1.00 20.00    -0.007 C 
HETATM    9  O9  UNL     1     -34.176  16.102  -6.848  1.00 20.00    -0.298 OA
ENDROOT
TORSDOF 0
ENDMDL
MODEL 8
REMARK VINA RESULT:      -4.3      1.635      2.554
REMARK  0 active torsions:
REMARK  status: ('A' for Active; 'I' for Inactive)
ROOT
HETATM    1  C1  UNL     1     -35.908  15.294  -3.301  1.00 20.00     0.127 C 
HETATM    2  C2  UNL     1     -34.617  15.680  -2.602  1.00 20.00     0.082 C 
HETATM    3  C3  UNL     1     -35.892  14.057  -4.181  1.00 20.00     0.082 C 
HETATM    4  C4  UNL     1     -33.397  16.012  -4.801  1.00 20.00     0.005 C 
HETATM    5  C5  UNL     1     -34.151  15.055  -5.735  1.00 20.00     0.005 C 
HETATM    6  C6  UNL     1     -33.427  13.837  -3.808  1.00 20.00     0.010 C 
HETATM    7  C7  UNL     1     -33.380  15.316  -3.432  1.00 20.00    -0.007 C 
HETATM    8  C8  UNL     1     -34.532  13.850  -4.860  1.00 20.00    -0.007 C 
HETATM    9  O9  UNL     1     -36.957  15.901  -3.079  1.00 20.00    -0.298 OA
ENDROOT
TORSDOF 0
ENDMDL
MODEL 9
REMARK VINA RESULT:      -4.2      1.725      2.700
REMARK  0 active torsions:
REMARK  status: ('A' for Active; 'I' for Inactive)
ROOT
HETATM    1  C1  UNL     1     -36.846  14.735  -4.010  1.00 20.00     0.127 C 
HETATM    2  C2  UNL     1     -36.435  14.712  -5.472  1.00 20.00     0.082 C 
HETATM    3  C3  UNL     1     -35.896  15.384  -3.020  1.00 20.00     0.082 C 
HETATM    4  C4  UNL     1     -34.372  13.320  -4.982  1.00 20.00     0.005 C 
HETATM    5  C5  UNL     1     -34.053  13.715  -3.534  1.00 20.00     0.005 C 
HETATM    6  C6  UNL     1     -34.221  15.703  -4.853  1.00 20.00     0.010 C 
HETATM    7  C7  UNL     1     -34.916  14.596  -5.643  1.00 20.00    -0.007 C 
HETATM    8  C8  UNL     1     -34.428  15.202  -3.427  1.00 20.00    -0.007 C 
HETATM    9  O9  UNL     1     -37.957  14.339  -3.656  1.00 20.00    -0.298 OA
ENDROOT
TORSDOF 0
ENDMDL
