MODEL 1
REMARK VINA RESULT:      -3.8      0.000      0.000
REMARK  3 active torsions:
REMARK  status: ('A' for Active; 'I' for Inactive)
REMARK    1  A    between atoms: C2_2  and  O8_8 
REMARK    2  A    between atoms: C4_4  and  C6_6 
REMARK    3  A    between atoms: C6_6  and  O8_8 
ROOT
HETATM    1  C6  UNL     1     -34.604  14.891  -3.145  1.00 20.00     0.208 C 
ENDROOT
BRANCH   1   2
HETATM    2  C4  UNL     1     -34.091  13.804  -4.066  1.00 20.00     0.169 A 
HETATM    3  C3  UNL     1     -34.740  13.539  -5.395  1.00 20.00     0.202 A 
HETATM    4  O7  UNL     1     -34.991  12.707  -4.251  1.00 20.00    -0.379 OA
ENDBRANCH   1   2
BRANCH   1   5
HETATM    5  O8  UNL     1     -33.658  15.937  -3.098  1.00 20.00    -0.361 OA
BRANCH   5   6
HETATM    6  C2  UNL     1     -33.748  16.692  -1.960  1.00 20.00     0.130 C 
HETATM    7  C1  UNL     1     -34.709  16.521  -1.049  1.00 20.00    -0.007 C 
HETATM    8  C5  UNL     1     -34.823  17.335   0.196  1.00 20.00     0.038 C 
ENDBRANCH   5   6
ENDBRANCH   1   5
TORSDOF 3
ENDMDL
MODEL 2
REMARK VINA RESULT:      -3.7     11.024     11.649
REMARK  3 active torsions:
REMARK  status: ('A' for Active; 'I' for Inactive)
REMARK    1  A    between atoms: C2_2  and  O8_8 
REMARK    2  A    between atoms: C4_4  and  C6_6 
REMARK    3  A    between atoms: C6_6  and  O8_8 
ROOT
HETATM    1  C6  UNL     1     -33.906   6.266   4.233  1.00 20.00     0.208 C 
ENDROOT
BRANCH   1   2
HETATM    2  C4  UNL     1     -33.935   5.278   5.380  1.00 20.00     0.169 A 
HETATM    3  C3  UNL     1     -35.195   4.545   5.745  1.00 20.00     0.202 A 
HETATM    4  O7  UNL     1     -34.738   5.683   6.494  1.00 20.00    -0.379 OA
ENDBRANCH   1   2
BRANCH   1   5
HETATM    5  O8  UNL     1     -32.578   6.701   4.035  1.00 20.00    -0.361 OA
BRANCH   5   6
HETATM    6  C2  UNL     1     -32.310   7.032   2.735  1.00 20.00     0.130 C 
HETATM    7  C1  UNL     1     -32.176   8.295   2.319  1.00 20.00    -0.007 C 
HETATM    8  C5  UNL     1     -31.885   8.674   0.907  1.00 20.00     0.038 C 
ENDBRANCH   5   6
ENDBRANCH   1   5
TORSDOF 3
ENDMDL
MODEL 3
REMARK VINA RESULT:      -3.7     10.482     11.011
REMARK  3 active torsions:
REMARK  status: ('A' for Active; 'I' for Inactive)
REMARK    1  A    between atoms: C2_2  and  O8_8 
REMARK    2  A    between atoms: C4_4  and  C6_6 
REMARK    3  A    between atoms: C6_6  and  O8_8 
ROOT
HETATM    1  C6  UNL     1     -32.540   6.849   2.718  1.00 20.00     0.208 C 
ENDROOT
BRANCH   1   2
HETATM    2  C4  UNL     1     -31.874   8.180   2.439  1.00 20.00     0.169 A 
HETATM    3  C3  UNL     1     -32.561   9.238   1.622  1.00 20.00     0.202 A 
HETATM    4  O7  UNL     1     -31.536   8.400   1.065  1.00 20.00    -0.379 OA
ENDBRANCH   1   2
BRANCH   1   5
HETATM    5  O8  UNL     1     -33.217   6.925   3.955  1.00 20.00    -0.361 OA
BRANCH   5   6
HETATM    6  C2  UNL     1     -33.882   5.773   4.274  1.00 20.00     0.130 C 
HETATM    7  C1  UNL     1     -34.336   5.513   5.503  1.00 20.00    -0.007 C 
HETATM    8  C5  UNL     1     -35.062   4.263   5.869  1.00 20.00     0.038 C 
ENDBRANCH   5   6
ENDBRANCH   1   5
TORSDOF 3
ENDMDL
MODEL 4
REMARK VINA RESULT:      -3.7     10.235     10.870
REMARK  3 active torsions:
REMARK  status: ('A' for Active; 'I' for Inactive)
REMARK    1  A    between atoms: C2_2  and  O8_8 
REMARK    2  A    between atoms: C4_4  and  C6_6 
REMARK    3  A    between atoms: C6_6  and  O8_8 
ROOT
HETATM    1  C6  UNL     1     -33.209   5.755   3.064  1.00 20.00     0.208 C 
ENDROOT
BRANCH   1   2
HETATM    2  C4  UNL     1     -34.231   6.034   4.145  1.00 20.00     0.169 A 
HETATM    3  C3  UNL     1     -34.714   4.944   5.060  1.00 20.00     0.202 A 
HETATM    4  O7  UNL     1     -35.498   5.397   3.945  1.00 20.00    -0.379 OA
ENDBRANCH   1   2
BRANCH   1   5
HETATM    5  O8  UNL     1     -32.042   6.503   3.332  1.00 20.00    -0.361 OA
BRANCH   5   6
HETATM    6  C2  UNL     1     -32.140   7.810   2.943  1.00 20.00     0.130 C 
HETATM    7  C1  UNL     1     -32.108   8.193   1.664  1.00 20.00    -0.007 C 
HETATM    8  C5  UNL     1     -32.214   9.613   1.222  1.00 20.00     0.038 C 
ENDBRANCH   5   6
ENDBRANCH   1   5
TORSDOF 3
ENDMDL
MODEL 5
REMARK VINA RESULT:      -3.5     11.166     11.785
REMARK  3 active torsions:
REMARK  status: ('A' for Active; 'I' for Inactive)
REMARK    1  A    between atoms: C2_2  and  O8_8 
REMARK    2  A    between atoms: C4_4  and  C6_6 
REMARK    3  A    between atoms: C6_6  and  O8_8 
ROOT
HETATM    1  C6  UNL     1     -32.928   5.711   2.960  1.00 20.00     0.208 C 
ENDROOT
BRANCH   1   2
HETATM    2  C4  UNL     1     -32.791   7.203   3.181  1.00 20.00     0.169 A 
HETATM    3  C3  UNL     1     -32.017   8.063   2.223  1.00 20.00     0.202 A 
HETATM    4  O7  UNL     1     -31.460   7.640   3.477  1.00 20.00    -0.379 OA
ENDBRANCH   1   2
BRANCH   1   5
HETATM    5  O8  UNL     1     -34.299   5.385   2.868  1.00 20.00    -0.361 OA
BRANCH   5   6
HETATM    6  C2  UNL     1     -34.928   5.365   4.083  1.00 20.00     0.130 C 
HETATM    7  C1  UNL     1     -34.523   4.599   5.099  1.00 20.00    -0.007 C 
HETATM    8  C5  UNL     1     -35.198   4.564   6.429  1.00 20.00     0.038 C 
ENDBRANCH   5   6
ENDBRANCH   1   5
TORSDOF 3
ENDMDL
MODEL 6
REMARK VINA RESULT:      -3.4     11.572     12.224
REMARK  3 active torsions:
REMARK  status: ('A' for Active; 'I' for Inactive)
REMARK    1  A    between atoms: C2_2  and  O8_8 
REMARK    2  A    between atoms: C4_4  and  C6_6 
REMARK    3  A    between atoms: C6_6  and  O8_8 
ROOT
HETATM    1  C6  UNL     1     -35.112   5.362   3.893  1.00 20.00     0.208 C 
ENDROOT
BRANCH   1   2
HETATM    2  C4  UNL     1     -34.390   4.955   5.160  1.00 20.00     0.169 A 
HETATM    3  C3  UNL     1     -35.126   4.320   6.305  1.00 20.00     0.202 A 
HETATM    4  O7  UNL     1     -34.756   5.708   6.322  1.00 20.00    -0.379 OA
ENDBRANCH   1   2
BRANCH   1   5
HETATM    5  O8  UNL     1     -34.177   5.448   2.839  1.00 20.00    -0.361 OA
BRANCH   5   6
HETATM    6  C2  UNL     1     -32.974   5.970   3.229  1.00 20.00     0.130 C 
HETATM    7  C1  UNL     1     -32.581   7.207   2.912  1.00 20.00    -0.007 C 
HETATM    8  C5  UNL     1     -31.274   7.792   3.329  1.00 20.00     0.038 C 
ENDBRANCH   5   6
ENDBRANCH   1   5
TORSDOF 3
ENDMDL
MODEL 7
REMARK VINA RESULT:      -3.1      3.605      4.600
REMARK  3 active torsions:
REMARK  status: ('A' for Active; 'I' for Inactive)
REMARK    1  A    between atoms: C2_2  and  O8_8 
REMARK    2  A    between atoms: C4_4  and  C6_6 
REMARK    3  A    between atoms: C6_6  and  O8_8 
ROOT
HETATM    1  C6  UNL     1     -36.471  14.804  -4.255  1.00 20.00     0.208 C 
ENDROOT
BRANCH   1   2
HETATM    2  C4  UNL     1     -35.225  14.048  -3.847  1.00 20.00     0.169 A 
HETATM    3  C3  UNL     1     -34.225  13.586  -4.869  1.00 20.00     0.202 A 
HETATM    4  O7  UNL     1     -35.183  12.687  -4.290  1.00 20.00    -0.379 OA
ENDBRANCH   1   2
BRANCH   1   5
HETATM    5  O8  UNL     1     -37.606  14.108  -3.785  1.00 20.00    -0.361 OA
BRANCH   5   6
HETATM    6  C2  UNL     1     -38.761  14.835  -3.883  1.00 20.00     0.130 C 
HETATM    7  C1  UNL     1     -39.804  14.444  -4.620  1.00 20.00    -0.007 C 
HETATM    8  C5  UNL     1     -41.070  15.224  -4.739  1.00 20.00     0.038 C 
ENDBRANCH   5   6
ENDBRANCH   1   5
TORSDOF 3
ENDMDL
MODEL 8
REMARK VINA RESULT:      -3.1     12.190     14.093
REMARK  3 active torsions:
REMARK  status: ('A' for Active; 'I' for Inactive)
REMARK    1  A    between atoms: C2_2  and  O8_8 
REMARK    2  A    between atoms: C4_4  and  C6_6 
REMARK    3  A    between atoms: C6_6  and  O8_8 
ROOT
HETATM    1  C6  UNL     1     -42.144   4.201  -1.368  1.00 20.00     0.208 C 
ENDROOT
BRANCH   1   2
HETATM    2  C4  UNL     1     -40.874   4.978  -1.096  1.00 20.00     0.169 A 
HETATM    3  C3  UNL     1     -40.872   6.173  -0.185  1.00 20.00     0.202 A 
HETATM    4  O7  UNL     1     -40.869   6.312  -1.614  1.00 20.00    -0.379 OA
ENDBRANCH   1   2
BRANCH   1   5
HETATM    5  O8  UNL     1     -42.411   4.229  -2.754  1.00 20.00    -0.361 OA
BRANCH   5   6
HETATM    6  C2  UNL     1     -42.560   2.983  -3.298  1.00 20.00     0.130 C 
HETATM    7  C1  UNL     1     -41.544   2.128  -3.444  1.00 20.00    -0.007 C 
HETATM    8  C5  UNL     1     -41.688   0.766  -4.035  1.00 20.00     0.038 C 
ENDBRANCH   5   6
ENDBRANCH   1   5
TORSDOF 3
ENDMDL
MODEL 9
REMARK VINA RESULT:      -3.1      1.797      2.162
REMARK  3 active torsions:
REMARK  status: ('A' for Active; 'I' for Inactive)
REMARK    1  A    between atoms: C2_2  and  O8_8 
REMARK    2  A    between atoms: C4_4  and  C6_6 
REMARK    3  A    between atoms: C6_6  and  O8_8 
ROOT
HETATM    1  C6  UNL     1     -34.210  14.247  -4.937  1.00 20.00     0.208 C 
ENDROOT
BRANCH   1   2
HETATM    2  C4  UNL     1     -34.865  15.050  -6.041  1.00 20.00     0.169 A 
HETATM    3  C3  UNL     1     -35.456  14.377  -7.247  1.00 20.00     0.202 A 
HETATM    4  O7  UNL     1     -34.171  15.016  -7.294  1.00 20.00    -0.379 OA
ENDBRANCH   1   2
BRANCH   1   5
HETATM    5  O8  UNL     1     -33.540  15.130  -4.063  1.00 20.00    -0.361 OA
BRANCH   5   6
HETATM    6  C2  UNL     1     -34.254  15.408  -2.930  1.00 20.00     0.130 C 
HETATM    7  C1  UNL     1     -33.923  16.388  -2.084  1.00 20.00    -0.007 C 
HETATM    8  C5  UNL     1     -34.690  16.704  -0.844  1.00 20.00     0.038 C 
ENDBRANCH   5   6
ENDBRANCH   1   5
TORSDOF 3
ENDMDL
