MODEL 1
REMARK VINA RESULT:      -3.6      0.000      0.000
REMARK  1 active torsions:
REMARK  status: ('A' for Active; 'I' for Inactive)
REMARK    1  A    between atoms: C1_1  and  C3_3 
ROOT
HETATM    1  C1  UNL     1     -34.336   6.218   3.991  1.00 20.00     0.181 A 
HETATM    2  C2  UNL     1     -32.886   6.195   3.601  1.00 20.00     0.247 A 
HETATM    3  O4  UNL     1     -33.301   6.525   4.933  1.00 20.00    -0.358 OA
HETATM    4 CL5  UNL     1     -32.241   7.455   2.584  1.00 20.00    -0.092 Cl
ENDROOT
BRANCH   1   5
HETATM    5  C3  UNL     1     -35.072   4.958   4.274  1.00 20.00     0.150 C 
HETATM    6 CL6  UNL     1     -35.058   4.573   6.018  1.00 20.00    -0.128 Cl
ENDBRANCH   1   5
TORSDOF 1
ENDMDL
MODEL 2
REMARK VINA RESULT:      -3.5      1.143      3.582
REMARK  1 active torsions:
REMARK  status: ('A' for Active; 'I' for Inactive)
REMARK    1  A    between atoms: C1_1  and  C3_3 
ROOT
HETATM    1  C1  UNL     1     -33.644   6.405   4.091  1.00 20.00     0.181 A 
HETATM    2  C2  UNL     1     -34.146   5.214   4.853  1.00 20.00     0.247 A 
HETATM    3  O4  UNL     1     -34.852   5.731   3.719  1.00 20.00    -0.358 OA
HETATM    4 CL5  UNL     1     -34.833   5.425   6.441  1.00 20.00    -0.092 Cl
ENDROOT
BRANCH   1   5
HETATM    5  C3  UNL     1     -32.537   6.273   3.107  1.00 20.00     0.150 C 
HETATM    6 CL6  UNL     1     -32.118   7.850   2.381  1.00 20.00    -0.128 Cl
ENDBRANCH   1   5
TORSDOF 1
ENDMDL
MODEL 3
REMARK VINA RESULT:      -3.3      2.436      2.648
REMARK  1 active torsions:
REMARK  status: ('A' for Active; 'I' for Inactive)
REMARK    1  A    between atoms: C1_1  and  C3_3 
ROOT
HETATM    1  C1  UNL     1     -34.235   5.056   5.206  1.00 20.00     0.181 A 
HETATM    2  C2  UNL     1     -35.026   5.337   3.962  1.00 20.00     0.247 A 
HETATM    3  O4  UNL     1     -35.227   4.141   4.726  1.00 20.00    -0.358 OA
HETATM    4 CL5  UNL     1     -34.260   5.221   2.401  1.00 20.00    -0.092 Cl
ENDROOT
BRANCH   1   5
HETATM    5  C3  UNL     1     -34.577   5.714   6.495  1.00 20.00     0.150 C 
HETATM    6 CL6  UNL     1     -33.585   7.175   6.765  1.00 20.00    -0.128 Cl
ENDBRANCH   1   5
TORSDOF 1
ENDMDL
MODEL 4
REMARK VINA RESULT:      -3.2      0.863      3.498
REMARK  1 active torsions:
REMARK  status: ('A' for Active; 'I' for Inactive)
REMARK    1  A    between atoms: C1_1  and  C3_3 
ROOT
HETATM    1  C1  UNL     1     -33.362   5.785   4.432  1.00 20.00     0.181 A 
HETATM    2  C2  UNL     1     -34.744   5.440   4.908  1.00 20.00     0.247 A 
HETATM    3  O4  UNL     1     -33.992   6.508   5.497  1.00 20.00    -0.358 OA
HETATM    4 CL5  UNL     1     -35.006   3.985   5.831  1.00 20.00    -0.092 Cl
ENDROOT
BRANCH   1   5
HETATM    5  C3  UNL     1     -33.156   6.575   3.190  1.00 20.00     0.150 C 
HETATM    6 CL6  UNL     1     -31.668   7.558   3.283  1.00 20.00    -0.128 Cl
ENDBRANCH   1   5
TORSDOF 1
ENDMDL
MODEL 5
REMARK VINA RESULT:      -3.1      1.925      4.046
REMARK  1 active torsions:
REMARK  status: ('A' for Active; 'I' for Inactive)
REMARK    1  A    between atoms: C1_1  and  C3_3 
ROOT
HETATM    1  C1  UNL     1     -32.690   6.859   2.601  1.00 20.00     0.181 A 
HETATM    2  C2  UNL     1     -33.314   6.388   3.883  1.00 20.00     0.247 A 
HETATM    3  O4  UNL     1     -32.073   5.850   3.409  1.00 20.00    -0.358 OA
HETATM    4 CL5  UNL     1     -34.739   5.386   3.838  1.00 20.00    -0.092 Cl
ENDROOT
BRANCH   1   5
HETATM    5  C3  UNL     1     -31.942   8.142   2.541  1.00 20.00     0.150 C 
HETATM    6 CL6  UNL     1     -32.065   8.893   0.925  1.00 20.00    -0.128 Cl
ENDBRANCH   1   5
TORSDOF 1
ENDMDL
MODEL 6
REMARK VINA RESULT:      -3.0      2.142      2.402
REMARK  1 active torsions:
REMARK  status: ('A' for Active; 'I' for Inactive)
REMARK    1  A    between atoms: C1_1  and  C3_3 
ROOT
HETATM    1  C1  UNL     1     -32.861   7.287   3.253  1.00 20.00     0.181 A 
HETATM    2  C2  UNL     1     -32.073   7.933   2.150  1.00 20.00     0.247 A 
HETATM    3  O4  UNL     1     -31.502   7.700   3.443  1.00 20.00    -0.358 OA
HETATM    4 CL5  UNL     1     -32.432   9.569   1.669  1.00 20.00    -0.092 Cl
ENDROOT
BRANCH   1   5
HETATM    5  C3  UNL     1     -33.067   5.816   3.286  1.00 20.00     0.150 C 
HETATM    6 CL6  UNL     1     -34.791   5.404   3.508  1.00 20.00    -0.128 Cl
ENDBRANCH   1   5
TORSDOF 1
ENDMDL
MODEL 7
REMARK VINA RESULT:      -2.9     11.451     11.877
REMARK  1 active torsions:
REMARK  status: ('A' for Active; 'I' for Inactive)
REMARK    1  A    between atoms: C1_1  and  C3_3 
ROOT
HETATM    1  C1  UNL     1     -35.512  14.054  -3.971  1.00 20.00     0.181 A 
HETATM    2  C2  UNL     1     -34.170  13.720  -4.554  1.00 20.00     0.247 A 
HETATM    3  O4  UNL     1     -35.174  12.717  -4.356  1.00 20.00    -0.358 OA
HETATM    4 CL5  UNL     1     -32.758  13.711  -3.532  1.00 20.00    -0.092 Cl
ENDROOT
BRANCH   1   5
HETATM    5  C3  UNL     1     -36.571  14.685  -4.802  1.00 20.00     0.150 C 
HETATM    6 CL6  UNL     1     -38.148  14.678  -3.962  1.00 20.00    -0.128 Cl
ENDBRANCH   1   5
TORSDOF 1
ENDMDL
MODEL 8
REMARK VINA RESULT:      -2.8     11.742     12.402
REMARK  1 active torsions:
REMARK  status: ('A' for Active; 'I' for Inactive)
REMARK    1  A    between atoms: C1_1  and  C3_3 
ROOT
HETATM    1  C1  UNL     1     -34.115  13.923  -4.611  1.00 20.00     0.181 A 
HETATM    2  C2  UNL     1     -35.353  13.886  -5.460  1.00 20.00     0.247 A 
HETATM    3  O4  UNL     1     -34.774  12.690  -4.924  1.00 20.00    -0.358 OA
HETATM    4 CL5  UNL     1     -35.238  14.182  -7.174  1.00 20.00    -0.092 Cl
ENDROOT
BRANCH   1   5
HETATM    5  C3  UNL     1     -34.184  14.310  -3.177  1.00 20.00     0.150 C 
HETATM    6 CL6  UNL     1     -33.534  15.954  -2.915  1.00 20.00    -0.128 Cl
ENDBRANCH   1   5
TORSDOF 1
ENDMDL
MODEL 9
REMARK VINA RESULT:      -2.8     11.712     12.137
REMARK  1 active torsions:
REMARK  status: ('A' for Active; 'I' for Inactive)
REMARK    1  A    between atoms: C1_1  and  C3_3 
ROOT
HETATM    1  C1  UNL     1     -34.337  15.767  -3.352  1.00 20.00     0.181 A 
HETATM    2  C2  UNL     1     -33.967  14.324  -3.543  1.00 20.00     0.247 A 
HETATM    3  O4  UNL     1     -33.422  15.356  -4.376  1.00 20.00    -0.358 OA
HETATM    4 CL5  UNL     1     -35.123  13.214  -4.224  1.00 20.00    -0.092 Cl
ENDROOT
BRANCH   1   5
HETATM    5  C3  UNL     1     -33.723  16.577  -2.268  1.00 20.00     0.150 C 
HETATM    6 CL6  UNL     1     -34.690  16.498  -0.768  1.00 20.00    -0.128 Cl
ENDBRANCH   1   5
TORSDOF 1
ENDMDL
