MODEL 1
REMARK VINA RESULT:      -4.3      0.000      0.000
REMARK  0 active torsions:
REMARK  status: ('A' for Active; 'I' for Inactive)
ROOT
HETATM    1  C1  UNL     1     -34.321  13.797  -4.839  1.00 20.00     0.229 C 
HETATM    2  C2  UNL     1     -33.545  14.157  -3.588  1.00 20.00     0.104 C 
HETATM    3  C3  UNL     1     -34.231  15.258  -2.786  1.00 20.00     0.009 C 
HETATM    4  C4  UNL     1     -33.884  16.666  -3.261  1.00 20.00     0.002 C 
HETATM    5  C5  UNL     1     -34.352  16.992  -4.679  1.00 20.00     0.021 C 
HETATM    6  C6  UNL     1     -33.738  16.087  -5.742  1.00 20.00     0.140 C 
HETATM    7  N7  UNL     1     -34.400  14.786  -5.808  1.00 20.00    -0.284 N 
HETATM    8  O8  UNL     1     -34.840  12.683  -4.938  1.00 20.00    -0.273 OA
HETATM    9 BR9  UNL     1     -35.454  14.447  -7.361  1.00 20.00     0.052 Br
ENDROOT
TORSDOF 0
ENDMDL
MODEL 2
REMARK VINA RESULT:      -4.1      2.412      2.722
REMARK  0 active torsions:
REMARK  status: ('A' for Active; 'I' for Inactive)
ROOT
HETATM    1  C1  UNL     1     -36.346  14.566  -4.083  1.00 20.00     0.229 C 
HETATM    2  C2  UNL     1     -35.217  13.667  -4.544  1.00 20.00     0.104 C 
HETATM    3  C3  UNL     1     -34.064  13.641  -3.547  1.00 20.00     0.009 C 
HETATM    4  C4  UNL     1     -33.070  14.785  -3.733  1.00 20.00     0.002 C 
HETATM    5  C5  UNL     1     -33.649  16.177  -3.486  1.00 20.00     0.021 C 
HETATM    6  C6  UNL     1     -34.794  16.532  -4.428  1.00 20.00     0.140 C 
HETATM    7  N7  UNL     1     -36.056  15.921  -4.018  1.00 20.00    -0.284 N 
HETATM    8  O8  UNL     1     -37.438  14.074  -3.786  1.00 20.00    -0.273 OA
HETATM    9 BR9  UNL     1     -37.392  17.101  -3.340  1.00 20.00     0.052 Br
ENDROOT
TORSDOF 0
ENDMDL
MODEL 3
REMARK VINA RESULT:      -4.0     12.780     13.743
REMARK  0 active torsions:
REMARK  status: ('A' for Active; 'I' for Inactive)
ROOT
HETATM    1  C1  UNL     1     -33.513   6.743   5.554  1.00 20.00     0.229 C 
HETATM    2  C2  UNL     1     -34.513   6.141   6.521  1.00 20.00     0.104 C 
HETATM    3  C3  UNL     1     -34.405   4.621   6.582  1.00 20.00     0.009 C 
HETATM    4  C4  UNL     1     -35.207   3.908   5.497  1.00 20.00     0.002 C 
HETATM    5  C5  UNL     1     -34.732   4.185   4.071  1.00 20.00     0.021 C 
HETATM    6  C6  UNL     1     -34.818   5.656   3.680  1.00 20.00     0.140 C 
HETATM    7  N7  UNL     1     -33.703   6.435   4.215  1.00 20.00    -0.284 N 
HETATM    8  O8  UNL     1     -32.597   7.450   5.981  1.00 20.00    -0.273 OA
HETATM    9 BR9  UNL     1     -32.421   7.064   2.951  1.00 20.00     0.052 Br
ENDROOT
TORSDOF 0
ENDMDL
MODEL 4
REMARK VINA RESULT:      -4.0      3.057      3.955
REMARK  0 active torsions:
REMARK  status: ('A' for Active; 'I' for Inactive)
ROOT
HETATM    1  C1  UNL     1     -33.711  16.776  -4.086  1.00 20.00     0.229 C 
HETATM    2  C2  UNL     1     -33.376  16.224  -5.456  1.00 20.00     0.104 C 
HETATM    3  C3  UNL     1     -34.594  15.607  -6.137  1.00 20.00     0.009 C 
HETATM    4  C4  UNL     1     -34.842  14.153  -5.744  1.00 20.00     0.002 C 
HETATM    5  C5  UNL     1     -35.185  13.943  -4.270  1.00 20.00     0.021 C 
HETATM    6  C6  UNL     1     -34.079  14.393  -3.322  1.00 20.00     0.140 C 
HETATM    7  N7  UNL     1     -34.074  15.841  -3.127  1.00 20.00    -0.284 N 
HETATM    8  O8  UNL     1     -33.658  17.992  -3.886  1.00 20.00    -0.273 OA
HETATM    9 BR9  UNL     1     -34.617  16.470  -1.410  1.00 20.00     0.052 Br
ENDROOT
TORSDOF 0
ENDMDL
MODEL 5
REMARK VINA RESULT:      -3.9      3.154      3.801
REMARK  0 active torsions:
REMARK  status: ('A' for Active; 'I' for Inactive)
ROOT
HETATM    1  C1  UNL     1     -35.691  16.023  -3.439  1.00 20.00     0.229 C 
HETATM    2  C2  UNL     1     -35.983  15.181  -4.664  1.00 20.00     0.104 C 
HETATM    3  C3  UNL     1     -35.725  13.699  -4.414  1.00 20.00     0.009 C 
HETATM    4  C4  UNL     1     -34.270  13.288  -4.625  1.00 20.00     0.002 C 
HETATM    5  C5  UNL     1     -33.281  13.932  -3.655  1.00 20.00     0.021 C 
HETATM    6  C6  UNL     1     -33.246  15.453  -3.747  1.00 20.00     0.140 C 
HETATM    7  N7  UNL     1     -34.364  16.074  -3.039  1.00 20.00    -0.284 N 
HETATM    8  O8  UNL     1     -36.614  16.602  -2.860  1.00 20.00    -0.273 OA
HETATM    9 BR9  UNL     1     -33.936  17.023  -1.441  1.00 20.00     0.052 Br
ENDROOT
TORSDOF 0
ENDMDL
MODEL 6
REMARK VINA RESULT:      -3.9      2.885      3.448
REMARK  0 active torsions:
REMARK  status: ('A' for Active; 'I' for Inactive)
ROOT
HETATM    1  C1  UNL     1     -33.955  14.468  -3.840  1.00 20.00     0.229 C 
HETATM    2  C2  UNL     1     -34.390  13.638  -5.030  1.00 20.00     0.104 C 
HETATM    3  C3  UNL     1     -34.886  14.507  -6.182  1.00 20.00     0.009 C 
HETATM    4  C4  UNL     1     -36.358  14.893  -6.065  1.00 20.00     0.002 C 
HETATM    5  C5  UNL     1     -36.691  15.774  -4.861  1.00 20.00     0.021 C 
HETATM    6  C6  UNL     1     -36.381  15.111  -3.523  1.00 20.00     0.140 C 
HETATM    7  N7  UNL     1     -34.959  15.174  -3.193  1.00 20.00    -0.284 N 
HETATM    8  O8  UNL     1     -32.767  14.490  -3.510  1.00 20.00    -0.273 OA
HETATM    9 BR9  UNL     1     -34.471  16.328  -1.755  1.00 20.00     0.052 Br
ENDROOT
TORSDOF 0
ENDMDL
MODEL 7
REMARK VINA RESULT:      -3.9      1.545      1.771
REMARK  0 active torsions:
REMARK  status: ('A' for Active; 'I' for Inactive)
ROOT
HETATM    1  C1  UNL     1     -34.711  14.575  -6.170  1.00 20.00     0.229 C 
HETATM    2  C2  UNL     1     -34.377  13.676  -4.997  1.00 20.00     0.104 C 
HETATM    3  C3  UNL     1     -35.013  14.168  -3.701  1.00 20.00     0.009 C 
HETATM    4  C4  UNL     1     -34.182  15.223  -2.975  1.00 20.00     0.002 C 
HETATM    5  C5  UNL     1     -34.010  16.535  -3.741  1.00 20.00     0.021 C 
HETATM    6  C6  UNL     1     -33.297  16.365  -5.078  1.00 20.00     0.140 C 
HETATM    7  N7  UNL     1     -34.189  15.859  -6.119  1.00 20.00    -0.284 N 
HETATM    8  O8  UNL     1     -35.417  14.148  -7.087  1.00 20.00    -0.273 OA
HETATM    9 BR9  UNL     1     -34.659  17.082  -7.505  1.00 20.00     0.052 Br
ENDROOT
TORSDOF 0
ENDMDL
MODEL 8
REMARK VINA RESULT:      -3.9      2.671      3.507
REMARK  0 active torsions:
REMARK  status: ('A' for Active; 'I' for Inactive)
ROOT
HETATM    1  C1  UNL     1     -33.627  16.721  -4.164  1.00 20.00     0.229 C 
HETATM    2  C2  UNL     1     -34.040  18.120  -3.751  1.00 20.00     0.104 C 
HETATM    3  C3  UNL     1     -33.546  18.472  -2.351  1.00 20.00     0.009 C 
HETATM    4  C4  UNL     1     -34.477  17.997  -1.238  1.00 20.00     0.002 C 
HETATM    5  C5  UNL     1     -34.619  16.479  -1.133  1.00 20.00     0.021 C 
HETATM    6  C6  UNL     1     -35.197  15.837  -2.389  1.00 20.00     0.140 C 
HETATM    7  N7  UNL     1     -34.194  15.683  -3.441  1.00 20.00    -0.284 N 
HETATM    8  O8  UNL     1     -32.824  16.568  -5.088  1.00 20.00    -0.273 OA
HETATM    9 BR9  UNL     1     -33.637  13.900  -3.829  1.00 20.00     0.052 Br
ENDROOT
TORSDOF 0
ENDMDL
MODEL 9
REMARK VINA RESULT:      -3.9     12.024     12.933
REMARK  0 active torsions:
REMARK  status: ('A' for Active; 'I' for Inactive)
ROOT
HETATM    1  C1  UNL     1     -42.981   6.034  -2.717  1.00 20.00     0.229 C 
HETATM    2  C2  UNL     1     -42.646   7.114  -1.708  1.00 20.00     0.104 C 
HETATM    3  C3  UNL     1     -41.161   7.125  -1.357  1.00 20.00     0.009 C 
HETATM    4  C4  UNL     1     -40.788   6.143  -0.250  1.00 20.00     0.002 C 
HETATM    5  C5  UNL     1     -40.999   4.672  -0.607  1.00 20.00     0.021 C 
HETATM    6  C6  UNL     1     -42.451   4.329  -0.925  1.00 20.00     0.140 C 
HETATM    7  N7  UNL     1     -42.828   4.726  -2.280  1.00 20.00    -0.284 N 
HETATM    8  O8  UNL     1     -43.356   6.349  -3.849  1.00 20.00    -0.273 OA
HETATM    9 BR9  UNL     1     -43.124   3.315  -3.528  1.00 20.00     0.052 Br
ENDROOT
TORSDOF 0
ENDMDL
