MODEL 1
REMARK VINA RESULT:      -5.4      0.000      0.000
REMARK  0 active torsions:
REMARK  status: ('A' for Active; 'I' for Inactive)
ROOT
HETATM    1  C1  UNL     1     -32.673   6.962   3.149  1.00 20.00     0.064 C 
HETATM    2  C2  UNL     1     -34.623   5.499   3.547  1.00 20.00     0.022 C 
HETATM    3  C3  UNL     1     -35.206   4.403   4.442  1.00 20.00     0.036 C 
HETATM    4  C4  UNL     1     -33.504   6.707   5.458  1.00 20.00     0.053 C 
HETATM    5  C5  UNL     1     -33.290   6.022   4.100  1.00 20.00     0.095 C 
HETATM    6  C6  UNL     1     -35.217   4.791   5.886  1.00 20.00     0.151 A 
HETATM    7  C7  UNL     1     -34.346   5.906   6.399  1.00 20.00     0.152 A 
HETATM    8  N8  UNL     1     -32.186   7.702   2.399  1.00 20.00    -0.197 NA
HETATM    9  O9  UNL     1     -33.968   4.538   6.557  1.00 20.00    -0.375 OA
ENDROOT
TORSDOF 0
ENDMDL
MODEL 2
REMARK VINA RESULT:      -4.3     12.181     12.874
REMARK  0 active torsions:
REMARK  status: ('A' for Active; 'I' for Inactive)
ROOT
HETATM    1  C1  UNL     1     -37.183  14.571  -3.923  1.00 20.00     0.064 C 
HETATM    2  C2  UNL     1     -34.931  13.559  -3.820  1.00 20.00     0.022 C 
HETATM    3  C3  UNL     1     -33.448  13.766  -4.132  1.00 20.00     0.036 C 
HETATM    4  C4  UNL     1     -35.302  15.956  -3.128  1.00 20.00     0.053 C 
HETATM    5  C5  UNL     1     -35.743  14.835  -4.082  1.00 20.00     0.095 C 
HETATM    6  C6  UNL     1     -32.904  15.012  -3.511  1.00 20.00     0.151 A 
HETATM    7  C7  UNL     1     -33.818  16.115  -3.048  1.00 20.00     0.152 A 
HETATM    8  N8  UNL     1     -38.318  14.362  -3.799  1.00 20.00    -0.197 NA
HETATM    9  O9  UNL     1     -33.135  16.196  -4.300  1.00 20.00    -0.375 OA
ENDROOT
TORSDOF 0
ENDMDL
MODEL 3
REMARK VINA RESULT:      -4.2     12.122     13.367
REMARK  0 active torsions:
REMARK  status: ('A' for Active; 'I' for Inactive)
ROOT
HETATM    1  C1  UNL     1     -33.522  17.390  -4.980  1.00 20.00     0.064 C 
HETATM    2  C2  UNL     1     -34.859  15.500  -5.842  1.00 20.00     0.022 C 
HETATM    3  C3  UNL     1     -34.949  13.977  -5.957  1.00 20.00     0.036 C 
HETATM    4  C4  UNL     1     -33.897  15.443  -3.511  1.00 20.00     0.053 C 
HETATM    5  C5  UNL     1     -33.682  15.927  -4.954  1.00 20.00     0.095 C 
HETATM    6  C6  UNL     1     -34.869  13.299  -4.627  1.00 20.00     0.151 A 
HETATM    7  C7  UNL     1     -34.313  14.010  -3.422  1.00 20.00     0.152 A 
HETATM    8  N8  UNL     1     -33.395  18.544  -5.001  1.00 20.00    -0.197 NA
HETATM    9  O9  UNL     1     -33.519  13.088  -4.170  1.00 20.00    -0.375 OA
ENDROOT
TORSDOF 0
ENDMDL
MODEL 4
REMARK VINA RESULT:      -4.2     12.128     12.514
REMARK  0 active torsions:
REMARK  status: ('A' for Active; 'I' for Inactive)
ROOT
HETATM    1  C1  UNL     1     -35.154  16.574  -1.762  1.00 20.00     0.064 C 
HETATM    2  C2  UNL     1     -33.478  15.456  -3.193  1.00 20.00     0.022 C 
HETATM    3  C3  UNL     1     -33.081  14.140  -3.865  1.00 20.00     0.036 C 
HETATM    4  C4  UNL     1     -35.946  15.118  -3.590  1.00 20.00     0.053 C 
HETATM    5  C5  UNL     1     -34.859  15.352  -2.530  1.00 20.00     0.095 C 
HETATM    6  C6  UNL     1     -34.169  13.591  -4.731  1.00 20.00     0.151 A 
HETATM    7  C7  UNL     1     -35.595  14.045  -4.571  1.00 20.00     0.152 A 
HETATM    8  N8  UNL     1     -35.386  17.536  -1.156  1.00 20.00    -0.197 NA
HETATM    9  O9  UNL     1     -35.142  12.814  -4.006  1.00 20.00    -0.375 OA
ENDROOT
TORSDOF 0
ENDMDL
MODEL 5
REMARK VINA RESULT:      -4.1      1.086      2.018
REMARK  0 active torsions:
REMARK  status: ('A' for Active; 'I' for Inactive)
ROOT
HETATM    1  C1  UNL     1     -32.646   7.369   2.912  1.00 20.00     0.064 C 
HETATM    2  C2  UNL     1     -33.198   6.614   5.199  1.00 20.00     0.022 C 
HETATM    3  C3  UNL     1     -34.298   6.055   6.103  1.00 20.00     0.036 C 
HETATM    4  C4  UNL     1     -33.934   5.283   3.186  1.00 20.00     0.053 C 
HETATM    5  C5  UNL     1     -33.660   6.691   3.737  1.00 20.00     0.095 C 
HETATM    6  C6  UNL     1     -34.908   4.805   5.556  1.00 20.00     0.151 A 
HETATM    7  C7  UNL     1     -34.761   4.439   4.103  1.00 20.00     0.152 A 
HETATM    8  N8  UNL     1     -31.848   7.905   2.262  1.00 20.00    -0.197 NA
HETATM    9  O9  UNL     1     -35.955   5.049   4.596  1.00 20.00    -0.375 OA
ENDROOT
TORSDOF 0
ENDMDL
MODEL 6
REMARK VINA RESULT:      -4.1     12.009     12.633
REMARK  0 active torsions:
REMARK  status: ('A' for Active; 'I' for Inactive)
ROOT
HETATM    1  C1  UNL     1     -34.247  16.636  -1.556  1.00 20.00     0.064 C 
HETATM    2  C2  UNL     1     -33.998  14.829  -3.223  1.00 20.00     0.022 C 
HETATM    3  C3  UNL     1     -34.701  13.668  -3.927  1.00 20.00     0.036 C 
HETATM    4  C4  UNL     1     -36.053  16.292  -3.202  1.00 20.00     0.053 C 
HETATM    5  C5  UNL     1     -34.972  15.621  -2.340  1.00 20.00     0.095 C 
HETATM    6  C6  UNL     1     -35.972  14.089  -4.592  1.00 20.00     0.151 A 
HETATM    7  C7  UNL     1     -36.665  15.369  -4.207  1.00 20.00     0.152 A 
HETATM    8  N8  UNL     1     -33.676  17.434  -0.937  1.00 20.00    -0.197 NA
HETATM    9  O9  UNL     1     -37.106  14.109  -3.703  1.00 20.00    -0.375 OA
ENDROOT
TORSDOF 0
ENDMDL
MODEL 7
REMARK VINA RESULT:      -4.0     12.797     13.643
REMARK  0 active torsions:
REMARK  status: ('A' for Active; 'I' for Inactive)
ROOT
HETATM    1  C1  UNL     1     -37.212  14.857  -3.911  1.00 20.00     0.064 C 
HETATM    2  C2  UNL     1     -35.252  15.047  -5.404  1.00 20.00     0.022 C 
HETATM    3  C3  UNL     1     -34.019  15.882  -5.754  1.00 20.00     0.036 C 
HETATM    4  C4  UNL     1     -35.026  15.433  -2.922  1.00 20.00     0.053 C 
HETATM    5  C5  UNL     1     -35.947  15.577  -4.142  1.00 20.00     0.095 C 
HETATM    6  C6  UNL     1     -33.127  16.105  -4.575  1.00 20.00     0.151 A 
HETATM    7  C7  UNL     1     -33.634  15.921  -3.170  1.00 20.00     0.152 A 
HETATM    8  N8  UNL     1     -38.208  14.291  -3.730  1.00 20.00    -0.197 NA
HETATM    9  O9  UNL     1     -33.529  17.219  -3.755  1.00 20.00    -0.375 OA
ENDROOT
TORSDOF 0
ENDMDL
MODEL 8
REMARK VINA RESULT:      -4.0     12.172     13.175
REMARK  0 active torsions:
REMARK  status: ('A' for Active; 'I' for Inactive)
ROOT
HETATM    1  C1  UNL     1     -34.783  15.985  -1.970  1.00 20.00     0.064 C 
HETATM    2  C2  UNL     1     -34.233  14.090  -3.457  1.00 20.00     0.022 C 
HETATM    3  C3  UNL     1     -34.674  13.291  -4.685  1.00 20.00     0.036 C 
HETATM    4  C4  UNL     1     -34.984  16.302  -4.408  1.00 20.00     0.053 C 
HETATM    5  C5  UNL     1     -35.127  15.318  -3.237  1.00 20.00     0.095 C 
HETATM    6  C6  UNL     1     -34.881  14.158  -5.885  1.00 20.00     0.151 A 
HETATM    7  C7  UNL     1     -35.073  15.645  -5.748  1.00 20.00     0.152 A 
HETATM    8  N8  UNL     1     -34.513  16.510  -0.971  1.00 20.00    -0.197 NA
HETATM    9  O9  UNL     1     -36.185  14.768  -5.935  1.00 20.00    -0.375 OA
ENDROOT
TORSDOF 0
ENDMDL
MODEL 9
REMARK VINA RESULT:      -3.9     12.519     13.678
REMARK  0 active torsions:
REMARK  status: ('A' for Active; 'I' for Inactive)
ROOT
HETATM    1  C1  UNL     1     -34.603  13.804  -4.259  1.00 20.00     0.064 C 
HETATM    2  C2  UNL     1     -34.420  15.529  -2.499  1.00 20.00     0.022 C 
HETATM    3  C3  UNL     1     -33.867  16.912  -2.152  1.00 20.00     0.036 C 
HETATM    4  C4  UNL     1     -34.997  16.162  -4.872  1.00 20.00     0.053 C 
HETATM    5  C5  UNL     1     -34.202  15.194  -3.982  1.00 20.00     0.095 C 
HETATM    6  C6  UNL     1     -34.309  17.963  -3.120  1.00 20.00     0.151 A 
HETATM    7  C7  UNL     1     -34.833  17.596  -4.482  1.00 20.00     0.152 A 
HETATM    8  N8  UNL     1     -34.916  12.709  -4.478  1.00 20.00    -0.197 NA
HETATM    9  O9  UNL     1     -33.487  18.038  -4.301  1.00 20.00    -0.375 OA
ENDROOT
TORSDOF 0
ENDMDL
