MODEL 1
REMARK VINA RESULT:      -5.1      0.000      0.000
REMARK  2 active torsions:
REMARK  status: ('A' for Active; 'I' for Inactive)
REMARK    1  A    between atoms: C5_5  and  C6_6 
REMARK    2  A    between atoms: C6_6  and  O7_7 
ROOT
HETATM    1  C1  UNL     1     -34.391   5.390   6.374  1.00 20.00    -0.004 A 
HETATM    2  C2  UNL     1     -35.092   4.439   5.551  1.00 20.00    -0.004 A 
HETATM    3  C3  UNL     1     -33.942   6.399   5.614  1.00 20.00    -0.016 A 
HETATM    4  C4  UNL     1     -35.080   4.854   4.277  1.00 20.00    -0.016 A 
HETATM    5  C5  UNL     1     -34.339   6.163   4.178  1.00 20.00     0.054 A 
ENDROOT
BRANCH   5   6
HETATM    6  C6  UNL     1     -33.131   6.075   3.254  1.00 20.00     0.176 C 
BRANCH   6   7
HETATM    7  O7  UNL     1     -32.122   6.940   3.744  1.00 20.00    -0.400 OA
HETATM    8  H15 UNL     1     -31.986   7.629   3.072  1.00 20.00     0.209 HD
ENDBRANCH   6   7
ENDBRANCH   5   6
TORSDOF 2
ENDMDL
MODEL 2
REMARK VINA RESULT:      -4.7      2.020      3.258
REMARK  2 active torsions:
REMARK  status: ('A' for Active; 'I' for Inactive)
REMARK    1  A    between atoms: C5_5  and  C6_6 
REMARK    2  A    between atoms: C6_6  and  O7_7 
ROOT
HETATM    1  C1  UNL     1     -33.709   5.750   2.898  1.00 20.00    -0.004 A 
HETATM    2  C2  UNL     1     -32.862   6.434   3.840  1.00 20.00    -0.004 A 
HETATM    3  C3  UNL     1     -34.841   5.369   3.506  1.00 20.00    -0.016 A 
HETATM    4  C4  UNL     1     -33.465   6.480   5.036  1.00 20.00    -0.016 A 
HETATM    5  C5  UNL     1     -34.808   5.799   4.951  1.00 20.00     0.054 A 
ENDROOT
BRANCH   5   6
HETATM    6  C6  UNL     1     -34.918   4.618   5.906  1.00 20.00     0.176 C 
BRANCH   6   7
HETATM    7  O7  UNL     1     -35.326   3.477   5.171  1.00 20.00    -0.400 OA
HETATM    8  H15 UNL     1     -34.578   3.220   4.606  1.00 20.00     0.209 HD
ENDBRANCH   6   7
ENDBRANCH   5   6
TORSDOF 2
ENDMDL
MODEL 3
REMARK VINA RESULT:      -4.5      1.502      2.401
REMARK  2 active torsions:
REMARK  status: ('A' for Active; 'I' for Inactive)
REMARK    1  A    between atoms: C5_5  and  C6_6 
REMARK    2  A    between atoms: C6_6  and  O7_7 
ROOT
HETATM    1  C1  UNL     1     -34.963   5.369   3.748  1.00 20.00    -0.004 A 
HETATM    2  C2  UNL     1     -35.348   4.401   4.741  1.00 20.00    -0.004 A 
HETATM    3  C3  UNL     1     -34.045   6.200   4.262  1.00 20.00    -0.016 A 
HETATM    4  C4  UNL     1     -34.672   4.627   5.875  1.00 20.00    -0.016 A 
HETATM    5  C5  UNL     1     -33.757   5.811   5.691  1.00 20.00     0.054 A 
ENDROOT
BRANCH   5   6
HETATM    6  C6  UNL     1     -34.065   6.938   6.667  1.00 20.00     0.176 C 
BRANCH   6   7
HETATM    7  O7  UNL     1     -32.849   7.567   7.032  1.00 20.00    -0.400 OA
HETATM    8  H15 UNL     1     -32.409   6.986   7.676  1.00 20.00     0.209 HD
ENDBRANCH   6   7
ENDBRANCH   5   6
TORSDOF 2
ENDMDL
MODEL 4
REMARK VINA RESULT:      -4.1      1.842      2.328
REMARK  2 active torsions:
REMARK  status: ('A' for Active; 'I' for Inactive)
REMARK    1  A    between atoms: C5_5  and  C6_6 
REMARK    2  A    between atoms: C6_6  and  O7_7 
ROOT
HETATM    1  C1  UNL     1     -34.809   5.228   6.587  1.00 20.00    -0.004 A 
HETATM    2  C2  UNL     1     -34.112   6.471   6.388  1.00 20.00    -0.004 A 
HETATM    3  C3  UNL     1     -34.742   4.490   5.470  1.00 20.00    -0.016 A 
HETATM    4  C4  UNL     1     -33.610   6.510   5.146  1.00 20.00    -0.016 A 
HETATM    5  C5  UNL     1     -33.960   5.237   4.419  1.00 20.00     0.054 A 
ENDROOT
BRANCH   5   6
HETATM    6  C6  UNL     1     -34.783   5.495   3.164  1.00 20.00     0.176 C 
BRANCH   6   7
HETATM    7  O7  UNL     1     -36.138   5.668   3.538  1.00 20.00    -0.400 OA
HETATM    8  H15 UNL     1     -36.562   6.194   2.840  1.00 20.00     0.209 HD
ENDBRANCH   6   7
ENDBRANCH   5   6
TORSDOF 2
ENDMDL
MODEL 5
REMARK VINA RESULT:      -4.1      0.748      1.639
REMARK  2 active torsions:
REMARK  status: ('A' for Active; 'I' for Inactive)
REMARK    1  A    between atoms: C5_5  and  C6_6 
REMARK    2  A    between atoms: C6_6  and  O7_7 
ROOT
HETATM    1  C1  UNL     1     -35.250   4.480   5.716  1.00 20.00    -0.004 A 
HETATM    2  C2  UNL     1     -34.761   5.523   6.581  1.00 20.00    -0.004 A 
HETATM    3  C3  UNL     1     -34.626   4.548   4.532  1.00 20.00    -0.016 A 
HETATM    4  C4  UNL     1     -33.832   6.242   5.936  1.00 20.00    -0.016 A 
HETATM    5  C5  UNL     1     -33.642   5.692   4.544  1.00 20.00     0.054 A 
ENDROOT
BRANCH   5   6
HETATM    6  C6  UNL     1     -33.946   6.725   3.468  1.00 20.00     0.176 C 
BRANCH   6   7
HETATM    7  O7  UNL     1     -32.728   7.116   2.859  1.00 20.00    -0.400 OA
HETATM    8  H15 UNL     1     -32.349   6.323   2.443  1.00 20.00     0.209 HD
ENDBRANCH   6   7
ENDBRANCH   5   6
TORSDOF 2
ENDMDL
MODEL 6
REMARK VINA RESULT:      -3.9      1.036      1.974
REMARK  2 active torsions:
REMARK  status: ('A' for Active; 'I' for Inactive)
REMARK    1  A    between atoms: C5_5  and  C6_6 
REMARK    2  A    between atoms: C6_6  and  O7_7 
ROOT
HETATM    1  C1  UNL     1     -35.260   5.337   3.868  1.00 20.00    -0.004 A 
HETATM    2  C2  UNL     1     -34.739   5.796   5.130  1.00 20.00    -0.004 A 
HETATM    3  C3  UNL     1     -34.298   5.396   2.937  1.00 20.00    -0.016 A 
HETATM    4  C4  UNL     1     -33.452   6.142   4.985  1.00 20.00    -0.016 A 
HETATM    5  C5  UNL     1     -33.027   5.921   3.555  1.00 20.00     0.054 A 
ENDROOT
BRANCH   5   6
HETATM    6  C6  UNL     1     -32.549   7.204   2.889  1.00 20.00     0.176 C 
BRANCH   6   7
HETATM    7  O7  UNL     1     -31.414   7.683   3.590  1.00 20.00    -0.400 OA
HETATM    8  H15 UNL     1     -30.658   7.138   3.313  1.00 20.00     0.209 HD
ENDBRANCH   6   7
ENDBRANCH   5   6
TORSDOF 2
ENDMDL
MODEL 7
REMARK VINA RESULT:      -3.8     12.030     12.491
REMARK  2 active torsions:
REMARK  status: ('A' for Active; 'I' for Inactive)
REMARK    1  A    between atoms: C5_5  and  C6_6 
REMARK    2  A    between atoms: C6_6  and  O7_7 
ROOT
HETATM    1  C1  UNL     1     -33.642  16.179  -2.630  1.00 20.00    -0.004 A 
HETATM    2  C2  UNL     1     -34.999  15.850  -2.280  1.00 20.00    -0.004 A 
HETATM    3  C3  UNL     1     -33.331  15.616  -3.805  1.00 20.00    -0.016 A 
HETATM    4  C4  UNL     1     -35.536  15.081  -3.237  1.00 20.00    -0.016 A 
HETATM    5  C5  UNL     1     -34.519  14.846  -4.326  1.00 20.00     0.054 A 
ENDROOT
BRANCH   5   6
HETATM    6  C6  UNL     1     -34.209  13.367  -4.518  1.00 20.00     0.176 C 
BRANCH   6   7
HETATM    7  O7  UNL     1     -35.349  12.613  -4.144  1.00 20.00    -0.400 OA
HETATM    8  H15 UNL     1     -35.180  12.262  -3.253  1.00 20.00     0.209 HD
ENDBRANCH   6   7
ENDBRANCH   5   6
TORSDOF 2
ENDMDL
MODEL 8
REMARK VINA RESULT:      -3.8     12.173     12.649
REMARK  2 active torsions:
REMARK  status: ('A' for Active; 'I' for Inactive)
REMARK    1  A    between atoms: C5_5  and  C6_6 
REMARK    2  A    between atoms: C6_6  and  O7_7 
ROOT
HETATM    1  C1  UNL     1     -34.794  13.226  -4.437  1.00 20.00    -0.004 A 
HETATM    2  C2  UNL     1     -35.953  14.022  -4.128  1.00 20.00    -0.004 A 
HETATM    3  C3  UNL     1     -33.698  13.817  -3.941  1.00 20.00    -0.016 A 
HETATM    4  C4  UNL     1     -35.581  15.110  -3.439  1.00 20.00    -0.016 A 
HETATM    5  C5  UNL     1     -34.086  15.096  -3.242  1.00 20.00     0.054 A 
ENDROOT
BRANCH   5   6
HETATM    6  C6  UNL     1     -33.411  16.315  -3.856  1.00 20.00     0.176 C 
BRANCH   6   7
HETATM    7  O7  UNL     1     -32.483  15.876  -4.832  1.00 20.00    -0.400 OA
HETATM    8  H15 UNL     1     -31.816  16.577  -4.928  1.00 20.00     0.209 HD
ENDBRANCH   6   7
ENDBRANCH   5   6
TORSDOF 2
ENDMDL
MODEL 9
REMARK VINA RESULT:      -3.7     11.946     12.704
REMARK  2 active torsions:
REMARK  status: ('A' for Active; 'I' for Inactive)
REMARK    1  A    between atoms: C5_5  and  C6_6 
REMARK    2  A    between atoms: C6_6  and  O7_7 
ROOT
HETATM    1  C1  UNL     1     -34.924  16.404  -3.128  1.00 20.00    -0.004 A 
HETATM    2  C2  UNL     1     -33.631  16.607  -3.728  1.00 20.00    -0.004 A 
HETATM    3  C3  UNL     1     -35.150  15.092  -2.979  1.00 20.00    -0.016 A 
HETATM    4  C4  UNL     1     -33.051  15.420  -3.955  1.00 20.00    -0.016 A 
HETATM    5  C5  UNL     1     -33.966  14.313  -3.495  1.00 20.00     0.054 A 
ENDROOT
BRANCH   5   6
HETATM    6  C6  UNL     1     -34.346  13.370  -4.628  1.00 20.00     0.176 C 
BRANCH   6   7
HETATM    7  O7  UNL     1     -35.400  12.532  -4.187  1.00 20.00    -0.400 OA
HETATM    8  H15 UNL     1     -35.135  11.616  -4.378  1.00 20.00     0.209 HD
ENDBRANCH   6   7
ENDBRANCH   5   6
TORSDOF 2
ENDMDL
