MODEL 1
REMARK VINA RESULT:      -3.9      0.000      0.000
REMARK  2 active torsions:
REMARK  status: ('A' for Active; 'I' for Inactive)
REMARK    1  A    between atoms: C2_2  and  C6_6 
REMARK    2  A    between atoms: C6_6  and  O7_7 
ROOT
HETATM    1  C4  UNL     1     -33.578  13.880  -3.817  1.00 20.00     0.050 C 
HETATM    2  C5  UNL     1     -34.759  15.816  -4.910  1.00 20.00     0.050 C 
HETATM    3  C6  UNL     1     -33.569  15.394  -4.043  1.00 20.00     0.068 C 
ENDROOT
BRANCH   3   4
HETATM    4  C2  UNL     1     -33.626  16.111  -2.711  1.00 20.00     0.005 C 
HETATM    5  C1  UNL     1     -34.655  16.111  -1.848  1.00 20.00    -0.032 C 
HETATM    6  C3  UNL     1     -34.645  16.843  -0.547  1.00 20.00     0.036 C 
ENDBRANCH   3   4
BRANCH   3   7
HETATM    7  O7  UNL     1     -32.372  15.728  -4.746  1.00 20.00    -0.387 OA
HETATM    8  H19 UNL     1     -32.389  16.688  -4.873  1.00 20.00     0.211 HD
ENDBRANCH   3   7
TORSDOF 2
ENDMDL
MODEL 2
REMARK VINA RESULT:      -3.9     12.296     13.138
REMARK  2 active torsions:
REMARK  status: ('A' for Active; 'I' for Inactive)
REMARK    1  A    between atoms: C2_2  and  C6_6 
REMARK    2  A    between atoms: C6_6  and  O7_7 
ROOT
HETATM    1  C4  UNL     1     -34.306   3.621   5.368  1.00 20.00     0.050 C 
HETATM    2  C5  UNL     1     -34.516   5.974   6.234  1.00 20.00     0.050 C 
HETATM    3  C6  UNL     1     -34.644   5.069   5.007  1.00 20.00     0.068 C 
ENDROOT
BRANCH   3   4
HETATM    4  C2  UNL     1     -33.716   5.554   3.913  1.00 20.00     0.005 C 
HETATM    5  C1  UNL     1     -32.952   6.657   3.947  1.00 20.00    -0.032 C 
HETATM    6  C3  UNL     1     -32.056   7.079   2.828  1.00 20.00     0.036 C 
ENDBRANCH   3   4
BRANCH   3   7
HETATM    7  O7  UNL     1     -36.003   5.109   4.570  1.00 20.00    -0.387 OA
HETATM    8  H19 UNL     1     -36.515   4.612   5.226  1.00 20.00     0.211 HD
ENDBRANCH   3   7
TORSDOF 2
ENDMDL
MODEL 3
REMARK VINA RESULT:      -3.9     12.212     13.026
REMARK  2 active torsions:
REMARK  status: ('A' for Active; 'I' for Inactive)
REMARK    1  A    between atoms: C2_2  and  C6_6 
REMARK    2  A    between atoms: C6_6  and  O7_7 
ROOT
HETATM    1  C4  UNL     1     -34.869   5.381   6.214  1.00 20.00     0.050 C 
HETATM    2  C5  UNL     1     -35.971   5.583   3.961  1.00 20.00     0.050 C 
HETATM    3  C6  UNL     1     -34.801   4.977   4.739  1.00 20.00     0.068 C 
ENDROOT
BRANCH   3   4
HETATM    4  C2  UNL     1     -33.491   5.442   4.140  1.00 20.00     0.005 C 
HETATM    5  C1  UNL     1     -33.265   6.618   3.532  1.00 20.00    -0.032 C 
HETATM    6  C3  UNL     1     -31.943   7.014   2.961  1.00 20.00     0.036 C 
ENDBRANCH   3   4
BRANCH   3   7
HETATM    7  O7  UNL     1     -34.913   3.555   4.666  1.00 20.00    -0.387 OA
HETATM    8  H19 UNL     1     -34.086   3.198   5.023  1.00 20.00     0.211 HD
ENDBRANCH   3   7
TORSDOF 2
ENDMDL
MODEL 4
REMARK VINA RESULT:      -3.9      2.125      2.319
REMARK  2 active torsions:
REMARK  status: ('A' for Active; 'I' for Inactive)
REMARK    1  A    between atoms: C2_2  and  C6_6 
REMARK    2  A    between atoms: C6_6  and  O7_7 
ROOT
HETATM    1  C4  UNL     1     -36.717  14.415  -4.184  1.00 20.00     0.050 C 
HETATM    2  C5  UNL     1     -34.618  14.456  -5.571  1.00 20.00     0.050 C 
HETATM    3  C6  UNL     1     -35.219  14.103  -4.208  1.00 20.00     0.068 C 
ENDROOT
BRANCH   3   4
HETATM    4  C2  UNL     1     -34.515  14.886  -3.120  1.00 20.00     0.005 C 
HETATM    5  C1  UNL     1     -35.044  15.871  -2.377  1.00 20.00    -0.032 C 
HETATM    6  C3  UNL     1     -34.291  16.605  -1.316  1.00 20.00     0.036 C 
ENDBRANCH   3   4
BRANCH   3   7
HETATM    7  O7  UNL     1     -35.057  12.699  -4.006  1.00 20.00    -0.387 OA
HETATM    8  H19 UNL     1     -35.869  12.282  -4.330  1.00 20.00     0.211 HD
ENDBRANCH   3   7
TORSDOF 2
ENDMDL
MODEL 5
REMARK VINA RESULT:      -3.8      1.941      2.399
REMARK  2 active torsions:
REMARK  status: ('A' for Active; 'I' for Inactive)
REMARK    1  A    between atoms: C2_2  and  C6_6 
REMARK    2  A    between atoms: C6_6  and  O7_7 
ROOT
HETATM    1  C4  UNL     1     -34.616  14.448  -5.566  1.00 20.00     0.050 C 
HETATM    2  C5  UNL     1     -33.086  13.566  -3.775  1.00 20.00     0.050 C 
HETATM    3  C6  UNL     1     -34.534  13.894  -4.142  1.00 20.00     0.068 C 
ENDROOT
BRANCH   3   4
HETATM    4  C2  UNL     1     -35.093  14.908  -3.166  1.00 20.00     0.005 C 
HETATM    5  C1  UNL     1     -34.384  15.751  -2.399  1.00 20.00    -0.032 C 
HETATM    6  C3  UNL     1     -35.002  16.729  -1.454  1.00 20.00     0.036 C 
ENDBRANCH   3   4
BRANCH   3   7
HETATM    7  O7  UNL     1     -35.286  12.681  -4.097  1.00 20.00    -0.387 OA
HETATM    8  H19 UNL     1     -36.189  12.929  -3.845  1.00 20.00     0.211 HD
ENDBRANCH   3   7
TORSDOF 2
ENDMDL
MODEL 6
REMARK VINA RESULT:      -3.7     12.370     12.940
REMARK  2 active torsions:
REMARK  status: ('A' for Active; 'I' for Inactive)
REMARK    1  A    between atoms: C2_2  and  C6_6 
REMARK    2  A    between atoms: C6_6  and  O7_7 
ROOT
HETATM    1  C4  UNL     1     -33.946   5.037   2.801  1.00 20.00     0.050 C 
HETATM    2  C5  UNL     1     -34.964   4.007   4.859  1.00 20.00     0.050 C 
HETATM    3  C6  UNL     1     -34.788   5.296   4.052  1.00 20.00     0.068 C 
ENDROOT
BRANCH   3   4
HETATM    4  C2  UNL     1     -34.121   6.350   4.909  1.00 20.00     0.005 C 
HETATM    5  C1  UNL     1     -34.048   6.359   6.250  1.00 20.00    -0.032 C 
HETATM    6  C3  UNL     1     -33.372   7.435   7.035  1.00 20.00     0.036 C 
ENDBRANCH   3   4
BRANCH   3   7
HETATM    7  O7  UNL     1     -36.081   5.732   3.631  1.00 20.00    -0.387 OA
HETATM    8  H19 UNL     1     -36.008   5.925   2.684  1.00 20.00     0.211 HD
ENDBRANCH   3   7
TORSDOF 2
ENDMDL
MODEL 7
REMARK VINA RESULT:      -3.6      2.750      4.181
REMARK  2 active torsions:
REMARK  status: ('A' for Active; 'I' for Inactive)
REMARK    1  A    between atoms: C2_2  and  C6_6 
REMARK    2  A    between atoms: C6_6  and  O7_7 
ROOT
HETATM    1  C4  UNL     1     -33.369  13.727  -3.733  1.00 20.00     0.050 C 
HETATM    2  C5  UNL     1     -35.629  14.830  -3.630  1.00 20.00     0.050 C 
HETATM    3  C6  UNL     1     -34.788  13.745  -4.307  1.00 20.00     0.068 C 
ENDROOT
BRANCH   3   4
HETATM    4  C2  UNL     1     -34.734  13.995  -5.799  1.00 20.00     0.005 C 
HETATM    5  C1  UNL     1     -35.143  15.103  -6.438  1.00 20.00    -0.032 C 
HETATM    6  C3  UNL     1     -35.060  15.284  -7.918  1.00 20.00     0.036 C 
ENDBRANCH   3   4
BRANCH   3   7
HETATM    7  O7  UNL     1     -35.392  12.481  -4.028  1.00 20.00    -0.387 OA
HETATM    8  H19 UNL     1     -35.657  12.506  -3.096  1.00 20.00     0.211 HD
ENDBRANCH   3   7
TORSDOF 2
ENDMDL
MODEL 8
REMARK VINA RESULT:      -3.5     12.248     13.303
REMARK  2 active torsions:
REMARK  status: ('A' for Active; 'I' for Inactive)
REMARK    1  A    between atoms: C2_2  and  C6_6 
REMARK    2  A    between atoms: C6_6  and  O7_7 
ROOT
HETATM    1  C4  UNL     1     -42.861   7.071  -0.842  1.00 20.00     0.050 C 
HETATM    2  C5  UNL     1     -40.714   5.931  -0.193  1.00 20.00     0.050 C 
HETATM    3  C6  UNL     1     -41.595   6.382  -1.359  1.00 20.00     0.068 C 
ENDROOT
BRANCH   3   4
HETATM    4  C2  UNL     1     -41.974   5.187  -2.208  1.00 20.00     0.005 C 
HETATM    5  C1  UNL     1     -41.487   3.941  -2.094  1.00 20.00    -0.032 C 
HETATM    6  C3  UNL     1     -41.905   2.805  -2.968  1.00 20.00     0.036 C 
ENDBRANCH   3   4
BRANCH   3   7
HETATM    7  O7  UNL     1     -40.857   7.334  -2.126  1.00 20.00    -0.387 OA
HETATM    8  H19 UNL     1     -40.278   7.796  -1.503  1.00 20.00     0.211 HD
ENDBRANCH   3   7
TORSDOF 2
ENDMDL
MODEL 9
REMARK VINA RESULT:      -3.5      1.328      3.555
REMARK  2 active torsions:
REMARK  status: ('A' for Active; 'I' for Inactive)
REMARK    1  A    between atoms: C2_2  and  C6_6 
REMARK    2  A    between atoms: C6_6  and  O7_7 
ROOT
HETATM    1  C4  UNL     1     -33.692  16.054  -2.670  1.00 20.00     0.050 C 
HETATM    2  C5  UNL     1     -34.177  13.780  -3.632  1.00 20.00     0.050 C 
HETATM    3  C6  UNL     1     -33.381  15.076  -3.805  1.00 20.00     0.068 C 
ENDROOT
BRANCH   3   4
HETATM    4  C2  UNL     1     -33.721  15.713  -5.136  1.00 20.00     0.005 C 
HETATM    5  C1  UNL     1     -34.399  15.141  -6.144  1.00 20.00    -0.032 C 
HETATM    6  C3  UNL     1     -34.701  15.828  -7.435  1.00 20.00     0.036 C 
ENDBRANCH   3   4
BRANCH   3   7
HETATM    7  O7  UNL     1     -31.992  14.752  -3.740  1.00 20.00    -0.387 OA
HETATM    8  H19 UNL     1     -31.941  13.788  -3.655  1.00 20.00     0.211 HD
ENDBRANCH   3   7
TORSDOF 2
ENDMDL
