MODEL 1
REMARK VINA RESULT:      -3.4      0.000      0.000
REMARK  1 active torsions:
REMARK  status: ('A' for Active; 'I' for Inactive)
REMARK    1  A    between atoms: N5_5  and  N6_6 
ROOT
HETATM    1  C1  UNL     1     -33.185   6.379   4.133  1.00 20.00     0.101 C 
HETATM    2  C2  UNL     1     -32.408   6.777   2.918  1.00 20.00     0.058 C 
HETATM    3  N5  UNL     1     -34.267   5.679   4.020  1.00 20.00    -0.217 NA
ENDROOT
BRANCH   3   4
HETATM    4  N6  UNL     1     -34.844   5.415   5.221  1.00 20.00    -0.217 NA
HETATM    5  C3  UNL     1     -34.239   6.149   6.335  1.00 20.00     0.138 C 
HETATM    6  C4  UNL     1     -34.918   3.992   5.576  1.00 20.00     0.138 C 
ENDBRANCH   3   4
TORSDOF 1
ENDMDL
MODEL 2
REMARK VINA RESULT:      -3.3      0.872      1.543
REMARK  1 active torsions:
REMARK  status: ('A' for Active; 'I' for Inactive)
REMARK    1  A    between atoms: N5_5  and  N6_6 
ROOT
HETATM    1  C1  UNL     1     -32.640   6.544   3.581  1.00 20.00     0.101 C 
HETATM    2  C2  UNL     1     -32.180   7.550   2.574  1.00 20.00     0.058 C 
HETATM    3  N5  UNL     1     -33.861   6.551   4.006  1.00 20.00    -0.217 NA
ENDROOT
BRANCH   3   4
HETATM    4  N6  UNL     1     -34.101   5.574   4.918  1.00 20.00    -0.217 NA
HETATM    5  C3  UNL     1     -35.241   4.721   4.574  1.00 20.00     0.138 C 
HETATM    6  C4  UNL     1     -34.260   6.040   6.302  1.00 20.00     0.138 C 
ENDBRANCH   3   4
TORSDOF 1
ENDMDL
MODEL 3
REMARK VINA RESULT:      -3.1      1.213      3.383
REMARK  1 active torsions:
REMARK  status: ('A' for Active; 'I' for Inactive)
REMARK    1  A    between atoms: N5_5  and  N6_6 
ROOT
HETATM    1  C1  UNL     1     -34.652   5.083   5.027  1.00 20.00     0.101 C 
HETATM    2  C2  UNL     1     -35.070   4.541   6.357  1.00 20.00     0.058 C 
HETATM    3  N5  UNL     1     -33.876   6.115   4.953  1.00 20.00    -0.217 NA
ENDROOT
BRANCH   3   4
HETATM    4  N6  UNL     1     -33.605   6.472   3.670  1.00 20.00    -0.217 NA
HETATM    5  C3  UNL     1     -34.054   5.487   2.682  1.00 20.00     0.138 C 
HETATM    6  C4  UNL     1     -32.201   6.806   3.401  1.00 20.00     0.138 C 
ENDBRANCH   3   4
TORSDOF 1
ENDMDL
MODEL 4
REMARK VINA RESULT:      -2.8      1.821      2.431
REMARK  1 active torsions:
REMARK  status: ('A' for Active; 'I' for Inactive)
REMARK    1  A    between atoms: N5_5  and  N6_6 
ROOT
HETATM    1  C1  UNL     1     -34.038   6.375   6.337  1.00 20.00     0.101 C 
HETATM    2  C2  UNL     1     -33.395   7.528   7.042  1.00 20.00     0.058 C 
HETATM    3  N5  UNL     1     -33.819   6.170   5.079  1.00 20.00    -0.217 NA
ENDROOT
BRANCH   3   4
HETATM    4  N6  UNL     1     -34.486   5.086   4.604  1.00 20.00    -0.217 NA
HETATM    5  C3  UNL     1     -35.623   5.431   3.746  1.00 20.00     0.138 C 
HETATM    6  C4  UNL     1     -34.937   4.134   5.627  1.00 20.00     0.138 C 
ENDBRANCH   3   4
TORSDOF 1
ENDMDL
MODEL 5
REMARK VINA RESULT:      -2.8      9.980     10.241
REMARK  1 active torsions:
REMARK  status: ('A' for Active; 'I' for Inactive)
REMARK    1  A    between atoms: N5_5  and  N6_6 
ROOT
HETATM    1  C1  UNL     1     -42.229   6.499  -2.611  1.00 20.00     0.101 C 
HETATM    2  C2  UNL     1     -42.675   7.614  -3.504  1.00 20.00     0.058 C 
HETATM    3  N5  UNL     1     -41.117   6.587  -1.956  1.00 20.00    -0.217 NA
ENDROOT
BRANCH   3   4
HETATM    4  N6  UNL     1     -40.868   5.486  -1.202  1.00 20.00    -0.217 NA
HETATM    5  C3  UNL     1     -41.325   4.238  -1.820  1.00 20.00     0.138 C 
HETATM    6  C4  UNL     1     -41.376   5.546   0.175  1.00 20.00     0.138 C 
ENDBRANCH   3   4
TORSDOF 1
ENDMDL
MODEL 6
REMARK VINA RESULT:      -2.7     12.340     13.063
REMARK  1 active torsions:
REMARK  status: ('A' for Active; 'I' for Inactive)
REMARK    1  A    between atoms: N5_5  and  N6_6 
ROOT
HETATM    1  C1  UNL     1     -34.011  16.227  -2.379  1.00 20.00     0.101 C 
HETATM    2  C2  UNL     1     -34.606  16.556  -1.046  1.00 20.00     0.058 C 
HETATM    3  N5  UNL     1     -34.326  15.129  -2.985  1.00 20.00    -0.217 NA
ENDROOT
BRANCH   3   4
HETATM    4  N6  UNL     1     -33.689  14.990  -4.177  1.00 20.00    -0.217 NA
HETATM    5  C3  UNL     1     -33.227  16.260  -4.743  1.00 20.00     0.138 C 
HETATM    6  C4  UNL     1     -34.443  14.261  -5.205  1.00 20.00     0.138 C 
ENDBRANCH   3   4
TORSDOF 1
ENDMDL
MODEL 7
REMARK VINA RESULT:      -2.7     12.160     12.764
REMARK  1 active torsions:
REMARK  status: ('A' for Active; 'I' for Inactive)
REMARK    1  A    between atoms: N5_5  and  N6_6 
ROOT
HETATM    1  C1  UNL     1     -34.694  15.521  -2.799  1.00 20.00     0.101 C 
HETATM    2  C2  UNL     1     -34.529  16.315  -1.542  1.00 20.00     0.058 C 
HETATM    3  N5  UNL     1     -33.666  15.009  -3.393  1.00 20.00    -0.217 NA
ENDROOT
BRANCH   3   4
HETATM    4  N6  UNL     1     -34.000  14.327  -4.519  1.00 20.00    -0.217 NA
HETATM    5  C3  UNL     1     -34.355  15.196  -5.645  1.00 20.00     0.138 C 
HETATM    6  C4  UNL     1     -35.055  13.320  -4.348  1.00 20.00     0.138 C 
ENDBRANCH   3   4
TORSDOF 1
ENDMDL
MODEL 8
REMARK VINA RESULT:      -2.7     12.098     12.472
REMARK  1 active torsions:
REMARK  status: ('A' for Active; 'I' for Inactive)
REMARK    1  A    between atoms: N5_5  and  N6_6 
ROOT
HETATM    1  C1  UNL     1     -35.147  15.981  -2.303  1.00 20.00     0.101 C 
HETATM    2  C2  UNL     1     -34.538  16.585  -1.077  1.00 20.00     0.058 C 
HETATM    3  N5  UNL     1     -34.525  15.057  -2.958  1.00 20.00    -0.217 NA
ENDROOT
BRANCH   3   4
HETATM    4  N6  UNL     1     -35.220  14.629  -4.044  1.00 20.00    -0.217 NA
HETATM    5  C3  UNL     1     -36.673  14.699  -3.872  1.00 20.00     0.138 C 
HETATM    6  C4  UNL     1     -34.864  13.287  -4.522  1.00 20.00     0.138 C 
ENDBRANCH   3   4
TORSDOF 1
ENDMDL
MODEL 9
REMARK VINA RESULT:      -2.6      9.763     10.202
REMARK  1 active torsions:
REMARK  status: ('A' for Active; 'I' for Inactive)
REMARK    1  A    between atoms: N5_5  and  N6_6 
ROOT
HETATM    1  C1  UNL     1     -41.515   4.293  -1.930  1.00 20.00     0.101 C 
HETATM    2  C2  UNL     1     -42.117   3.143  -2.674  1.00 20.00     0.058 C 
HETATM    3  N5  UNL     1     -41.779   5.510  -2.278  1.00 20.00    -0.217 NA
ENDROOT
BRANCH   3   4
HETATM    4  N6  UNL     1     -41.144   6.424  -1.499  1.00 20.00    -0.217 NA
HETATM    5  C3  UNL     1     -40.684   5.881  -0.218  1.00 20.00     0.138 C 
HETATM    6  C4  UNL     1     -41.899   7.658  -1.247  1.00 20.00     0.138 C 
ENDBRANCH   3   4
TORSDOF 1
ENDMDL
