MODEL 1
REMARK VINA RESULT:      -3.7      0.000      0.000
REMARK  1 active torsions:
REMARK  status: ('A' for Active; 'I' for Inactive)
REMARK    1  A    between atoms: C1_1  and  C3_3 
ROOT
HETATM    1  C1  UNL     1     -34.461   5.376   3.556  1.00 20.00     0.181 A 
HETATM    2  C2  UNL     1     -35.184   4.521   4.559  1.00 20.00     0.247 A 
HETATM    3  O4  UNL     1     -35.865   5.527   3.800  1.00 20.00    -0.358 OA
HETATM    4 CL5  UNL     1     -34.983   4.741   6.273  1.00 20.00    -0.092 Cl
ENDROOT
BRANCH   1   5
HETATM    5  C3  UNL     1     -33.645   6.564   3.923  1.00 20.00     0.150 C 
HETATM    6 CL6  UNL     1     -32.113   6.607   3.006  1.00 20.00    -0.128 Cl
ENDBRANCH   1   5
TORSDOF 1
ENDMDL
MODEL 2
REMARK VINA RESULT:      -3.5      1.981      2.775
REMARK  1 active torsions:
REMARK  status: ('A' for Active; 'I' for Inactive)
REMARK    1  A    between atoms: C1_1  and  C3_3 
ROOT
HETATM    1  C1  UNL     1     -35.235   4.826   5.668  1.00 20.00     0.181 A 
HETATM    2  C2  UNL     1     -35.335   4.916   4.171  1.00 20.00     0.247 A 
HETATM    3  O4  UNL     1     -35.112   3.666   4.835  1.00 20.00    -0.358 OA
HETATM    4 CL5  UNL     1     -34.063   5.601   3.202  1.00 20.00    -0.092 Cl
ENDROOT
BRANCH   1   5
HETATM    5  C3  UNL     1     -34.004   5.163   6.432  1.00 20.00     0.150 C 
HETATM    6 CL6  UNL     1     -33.815   6.930   6.610  1.00 20.00    -0.128 Cl
ENDBRANCH   1   5
TORSDOF 1
ENDMDL
MODEL 3
REMARK VINA RESULT:      -3.4      1.452      1.453
REMARK  1 active torsions:
REMARK  status: ('A' for Active; 'I' for Inactive)
REMARK    1  A    between atoms: C1_1  and  C3_3 
ROOT
HETATM    1  C1  UNL     1     -34.204   4.949   4.509  1.00 20.00     0.181 A 
HETATM    2  C2  UNL     1     -34.344   5.233   5.978  1.00 20.00     0.247 A 
HETATM    3  O4  UNL     1     -35.489   5.063   5.133  1.00 20.00    -0.358 OA
HETATM    4 CL5  UNL     1     -34.010   6.803   6.649  1.00 20.00    -0.092 Cl
ENDROOT
BRANCH   1   5
HETATM    5  C3  UNL     1     -33.924   5.997   3.491  1.00 20.00     0.150 C 
HETATM    6 CL6  UNL     1     -32.167   6.200   3.236  1.00 20.00    -0.128 Cl
ENDBRANCH   1   5
TORSDOF 1
ENDMDL
MODEL 4
REMARK VINA RESULT:      -3.3      1.604      1.709
REMARK  1 active torsions:
REMARK  status: ('A' for Active; 'I' for Inactive)
REMARK    1  A    between atoms: C1_1  and  C3_3 
ROOT
HETATM    1  C1  UNL     1     -33.207   5.970   3.659  1.00 20.00     0.181 A 
HETATM    2  C2  UNL     1     -34.133   5.792   4.829  1.00 20.00     0.247 A 
HETATM    3  O4  UNL     1     -34.511   6.565   3.683  1.00 20.00    -0.358 OA
HETATM    4 CL5  UNL     1     -33.867   6.599   6.347  1.00 20.00    -0.092 Cl
ENDROOT
BRANCH   1   5
HETATM    5  C3  UNL     1     -32.088   6.951   3.637  1.00 20.00     0.150 C 
HETATM    6 CL6  UNL     1     -32.120   7.937   2.148  1.00 20.00    -0.128 Cl
ENDBRANCH   1   5
TORSDOF 1
ENDMDL
MODEL 5
REMARK VINA RESULT:      -3.2      1.611      1.620
REMARK  1 active torsions:
REMARK  status: ('A' for Active; 'I' for Inactive)
REMARK    1  A    between atoms: C1_1  and  C3_3 
ROOT
HETATM    1  C1  UNL     1     -34.190   6.383   4.492  1.00 20.00     0.181 A 
HETATM    2  C2  UNL     1     -34.938   5.483   5.435  1.00 20.00     0.247 A 
HETATM    3  O4  UNL     1     -33.845   6.296   5.880  1.00 20.00    -0.358 OA
HETATM    4 CL5  UNL     1     -34.752   3.754   5.404  1.00 20.00    -0.092 Cl
ENDROOT
BRANCH   1   5
HETATM    5  C3  UNL     1     -33.127   5.903   3.568  1.00 20.00     0.150 C 
HETATM    6 CL6  UNL     1     -32.100   7.252   3.005  1.00 20.00    -0.128 Cl
ENDBRANCH   1   5
TORSDOF 1
ENDMDL
MODEL 6
REMARK VINA RESULT:      -3.2      1.361      2.911
REMARK  1 active torsions:
REMARK  status: ('A' for Active; 'I' for Inactive)
REMARK    1  A    between atoms: C1_1  and  C3_3 
ROOT
HETATM    1  C1  UNL     1     -34.774   5.795   4.049  1.00 20.00     0.181 A 
HETATM    2  C2  UNL     1     -33.757   6.251   3.040  1.00 20.00     0.247 A 
HETATM    3  O4  UNL     1     -34.370   4.958   2.957  1.00 20.00    -0.358 OA
HETATM    4 CL5  UNL     1     -32.064   6.365   3.425  1.00 20.00    -0.092 Cl
ENDROOT
BRANCH   1   5
HETATM    5  C3  UNL     1     -34.420   5.262   5.391  1.00 20.00     0.150 C 
HETATM    6 CL6  UNL     1     -34.016   6.580   6.527  1.00 20.00    -0.128 Cl
ENDBRANCH   1   5
TORSDOF 1
ENDMDL
MODEL 7
REMARK VINA RESULT:      -3.1     11.644     12.556
REMARK  1 active torsions:
REMARK  status: ('A' for Active; 'I' for Inactive)
REMARK    1  A    between atoms: C1_1  and  C3_3 
ROOT
HETATM    1  C1  UNL     1     -34.390  13.431  -5.146  1.00 20.00     0.181 A 
HETATM    2  C2  UNL     1     -34.207  13.707  -3.680  1.00 20.00     0.247 A 
HETATM    3  O4  UNL     1     -35.146  12.732  -4.149  1.00 20.00    -0.358 OA
HETATM    4 CL5  UNL     1     -34.797  15.165  -2.935  1.00 20.00    -0.092 Cl
ENDROOT
BRANCH   1   5
HETATM    5  C3  UNL     1     -35.210  14.284  -6.047  1.00 20.00     0.150 C 
HETATM    6 CL6  UNL     1     -34.182  15.385  -7.008  1.00 20.00    -0.128 Cl
ENDBRANCH   1   5
TORSDOF 1
ENDMDL
MODEL 8
REMARK VINA RESULT:      -3.1     11.711     12.329
REMARK  1 active torsions:
REMARK  status: ('A' for Active; 'I' for Inactive)
REMARK    1  A    between atoms: C1_1  and  C3_3 
ROOT
HETATM    1  C1  UNL     1     -34.464  14.006  -3.442  1.00 20.00     0.181 A 
HETATM    2  C2  UNL     1     -34.719  13.425  -4.805  1.00 20.00     0.247 A 
HETATM    3  O4  UNL     1     -33.531  13.115  -4.066  1.00 20.00    -0.358 OA
HETATM    4 CL5  UNL     1     -34.593  14.380  -6.253  1.00 20.00    -0.092 Cl
ENDROOT
BRANCH   1   5
HETATM    5  C3  UNL     1     -33.941  15.380  -3.219  1.00 20.00     0.150 C 
HETATM    6 CL6  UNL     1     -34.565  16.071  -1.694  1.00 20.00    -0.128 Cl
ENDBRANCH   1   5
TORSDOF 1
ENDMDL
MODEL 9
REMARK VINA RESULT:      -3.0      2.099      2.845
REMARK  1 active torsions:
REMARK  status: ('A' for Active; 'I' for Inactive)
REMARK    1  A    between atoms: C1_1  and  C3_3 
ROOT
HETATM    1  C1  UNL     1     -34.439   5.948   3.850  1.00 20.00     0.181 A 
HETATM    2  C2  UNL     1     -33.572   6.748   4.782  1.00 20.00     0.247 A 
HETATM    3  O4  UNL     1     -33.110   5.529   4.186  1.00 20.00    -0.358 OA
HETATM    4 CL5  UNL     1     -33.862   6.797   6.497  1.00 20.00    -0.092 Cl
ENDROOT
BRANCH   1   5
HETATM    5  C3  UNL     1     -35.507   5.023   4.312  1.00 20.00     0.150 C 
HETATM    6 CL6  UNL     1     -34.846   3.750   5.377  1.00 20.00    -0.128 Cl
ENDBRANCH   1   5
TORSDOF 1
ENDMDL
