MODEL 1
REMARK VINA RESULT:      -2.9      0.000      0.000
REMARK  1 active torsions:
REMARK  status: ('A' for Active; 'I' for Inactive)
REMARK    1  A    between atoms: C1_1  and  S5_5 
ROOT
HETATM    1  C1  UNL     1     -34.417   5.397   5.248  1.00 20.00     0.041 C 
HETATM    2  C2  UNL     1     -34.968   4.072   5.707  1.00 20.00     0.069 C 
HETATM    3  S4  UNL     1     -33.926   6.563   6.346  1.00 20.00    -0.078 SA
ENDROOT
BRANCH   1   4
HETATM    4  S5  UNL     1     -34.341   5.651   3.509  1.00 20.00    -0.128 SA
HETATM    5  C3  UNL     1     -32.662   6.302   3.361  1.00 20.00     0.096 C 
ENDBRANCH   1   4
TORSDOF 1
ENDMDL
MODEL 2
REMARK VINA RESULT:      -2.9      1.653      2.754
REMARK  1 active torsions:
REMARK  status: ('A' for Active; 'I' for Inactive)
REMARK    1  A    between atoms: C1_1  and  S5_5 
ROOT
HETATM    1  C1  UNL     1     -33.778   6.179   4.648  1.00 20.00     0.041 C 
HETATM    2  C2  UNL     1     -33.714   6.702   6.060  1.00 20.00     0.069 C 
HETATM    3  S4  UNL     1     -32.664   6.654   3.492  1.00 20.00    -0.078 SA
ENDROOT
BRANCH   1   4
HETATM    4  S5  UNL     1     -35.094   5.068   4.287  1.00 20.00    -0.128 SA
HETATM    5  C3  UNL     1     -35.062   4.051   5.780  1.00 20.00     0.096 C 
ENDBRANCH   1   4
TORSDOF 1
ENDMDL
MODEL 3
REMARK VINA RESULT:      -2.9      1.514      2.906
REMARK  1 active torsions:
REMARK  status: ('A' for Active; 'I' for Inactive)
REMARK    1  A    between atoms: C1_1  and  S5_5 
ROOT
HETATM    1  C1  UNL     1     -33.763   6.089   4.153  1.00 20.00     0.041 C 
HETATM    2  C2  UNL     1     -34.846   5.409   3.356  1.00 20.00     0.069 C 
HETATM    3  S4  UNL     1     -32.394   6.706   3.411  1.00 20.00    -0.078 SA
ENDROOT
BRANCH   1   4
HETATM    4  S5  UNL     1     -34.012   6.177   5.892  1.00 20.00    -0.128 SA
HETATM    5  C3  UNL     1     -34.951   4.655   6.150  1.00 20.00     0.096 C 
ENDBRANCH   1   4
TORSDOF 1
ENDMDL
MODEL 4
REMARK VINA RESULT:      -2.8      1.466      1.793
REMARK  1 active torsions:
REMARK  status: ('A' for Active; 'I' for Inactive)
REMARK    1  A    between atoms: C1_1  and  S5_5 
ROOT
HETATM    1  C1  UNL     1     -34.296   5.684   5.337  1.00 20.00     0.041 C 
HETATM    2  C2  UNL     1     -33.856   6.700   6.359  1.00 20.00     0.069 C 
HETATM    3  S4  UNL     1     -34.867   4.178   5.798  1.00 20.00    -0.078 SA
ENDROOT
BRANCH   1   4
HETATM    4  S5  UNL     1     -34.155   6.162   3.650  1.00 20.00    -0.128 SA
HETATM    5  C3  UNL     1     -32.405   6.605   3.596  1.00 20.00     0.096 C 
ENDBRANCH   1   4
TORSDOF 1
ENDMDL
MODEL 5
REMARK VINA RESULT:      -2.6      0.771      2.621
REMARK  1 active torsions:
REMARK  status: ('A' for Active; 'I' for Inactive)
REMARK    1  A    between atoms: C1_1  and  S5_5 
ROOT
HETATM    1  C1  UNL     1     -33.778   6.222   4.686  1.00 20.00     0.041 C 
HETATM    2  C2  UNL     1     -32.765   6.612   3.640  1.00 20.00     0.069 C 
HETATM    3  S4  UNL     1     -33.676   6.800   6.254  1.00 20.00    -0.078 SA
ENDROOT
BRANCH   1   4
HETATM    4  S5  UNL     1     -35.047   5.118   4.170  1.00 20.00    -0.128 SA
HETATM    5  C3  UNL     1     -35.055   3.976   5.570  1.00 20.00     0.096 C 
ENDBRANCH   1   4
TORSDOF 1
ENDMDL
MODEL 6
REMARK VINA RESULT:      -2.5      0.870      3.301
REMARK  1 active torsions:
REMARK  status: ('A' for Active; 'I' for Inactive)
REMARK    1  A    between atoms: C1_1  and  S5_5 
ROOT
HETATM    1  C1  UNL     1     -33.620   6.207   4.233  1.00 20.00     0.041 C 
HETATM    2  C2  UNL     1     -32.375   6.798   3.626  1.00 20.00     0.069 C 
HETATM    3  S4  UNL     1     -34.759   5.420   3.290  1.00 20.00    -0.078 SA
ENDROOT
BRANCH   1   4
HETATM    4  S5  UNL     1     -33.814   6.410   5.970  1.00 20.00    -0.128 SA
HETATM    5  C3  UNL     1     -34.865   4.987   6.336  1.00 20.00     0.096 C 
ENDBRANCH   1   4
TORSDOF 1
ENDMDL
MODEL 7
REMARK VINA RESULT:      -2.3     12.413     12.629
REMARK  1 active torsions:
REMARK  status: ('A' for Active; 'I' for Inactive)
REMARK    1  A    between atoms: C1_1  and  S5_5 
ROOT
HETATM    1  C1  UNL     1     -34.977  15.269  -3.038  1.00 20.00     0.041 C 
HETATM    2  C2  UNL     1     -34.596  16.132  -1.864  1.00 20.00     0.069 C 
HETATM    3  S4  UNL     1     -36.562  15.175  -3.572  1.00 20.00    -0.078 SA
ENDROOT
BRANCH   1   4
HETATM    4  S5  UNL     1     -33.674  14.359  -3.793  1.00 20.00    -0.128 SA
HETATM    5  C3  UNL     1     -34.637  13.236  -4.830  1.00 20.00     0.096 C 
ENDBRANCH   1   4
TORSDOF 1
ENDMDL
MODEL 8
REMARK VINA RESULT:      -2.3     12.750     13.158
REMARK  1 active torsions:
REMARK  status: ('A' for Active; 'I' for Inactive)
REMARK    1  A    between atoms: C1_1  and  S5_5 
ROOT
HETATM    1  C1  UNL     1     -34.726  15.605  -2.836  1.00 20.00     0.041 C 
HETATM    2  C2  UNL     1     -34.613  16.301  -1.505  1.00 20.00     0.069 C 
HETATM    3  S4  UNL     1     -36.217  15.184  -3.474  1.00 20.00    -0.078 SA
ENDROOT
BRANCH   1   4
HETATM    4  S5  UNL     1     -33.214  15.246  -3.661  1.00 20.00    -0.128 SA
HETATM    5  C3  UNL     1     -33.265  16.495  -4.965  1.00 20.00     0.096 C 
ENDBRANCH   1   4
TORSDOF 1
ENDMDL
MODEL 9
REMARK VINA RESULT:      -2.3     12.586     13.265
REMARK  1 active torsions:
REMARK  status: ('A' for Active; 'I' for Inactive)
REMARK    1  A    between atoms: C1_1  and  S5_5 
ROOT
HETATM    1  C1  UNL     1     -33.687  15.590  -3.718  1.00 20.00     0.041 C 
HETATM    2  C2  UNL     1     -34.001  16.187  -2.371  1.00 20.00     0.069 C 
HETATM    3  S4  UNL     1     -33.377  16.559  -5.049  1.00 20.00    -0.078 SA
ENDROOT
BRANCH   1   4
HETATM    4  S5  UNL     1     -33.685  13.833  -3.812  1.00 20.00    -0.128 SA
HETATM    5  C3  UNL     1     -34.829  13.593  -5.190  1.00 20.00     0.096 C 
ENDBRANCH   1   4
TORSDOF 1
ENDMDL
