MODEL 1
REMARK VINA RESULT:      -4.4      0.000      0.000
REMARK  0 active torsions:
REMARK  status: ('A' for Active; 'I' for Inactive)
ROOT
HETATM    1  C1  UNL     1     -34.351   5.733   6.388  1.00 20.00    -0.025 A 
HETATM    2  C2  UNL     1     -35.038   4.639   6.019  1.00 20.00     0.003 A 
HETATM    3  C3  UNL     1     -33.858   6.462   5.160  1.00 20.00     0.061 A 
HETATM    4  C4  UNL     1     -35.130   4.478   4.560  1.00 20.00     0.173 A 
HETATM    5  C5  UNL     1     -34.281   5.599   3.994  1.00 20.00     0.158 A 
HETATM    6  O6  UNL     1     -35.676   5.502   3.712  1.00 20.00    -0.371 OA
ENDROOT
TORSDOF 0
ENDMDL
MODEL 2
REMARK VINA RESULT:      -4.3      1.058      1.879
REMARK  0 active torsions:
REMARK  status: ('A' for Active; 'I' for Inactive)
ROOT
HETATM    1  C1  UNL     1     -34.777   4.949   6.193  1.00 20.00    -0.025 A 
HETATM    2  C2  UNL     1     -34.143   6.124   6.038  1.00 20.00     0.003 A 
HETATM    3  C3  UNL     1     -35.150   4.390   4.840  1.00 20.00     0.061 A 
HETATM    4  C4  UNL     1     -33.978   6.511   4.628  1.00 20.00     0.173 A 
HETATM    5  C5  UNL     1     -34.718   5.443   3.846  1.00 20.00     0.158 A 
HETATM    6  O6  UNL     1     -33.319   5.660   3.675  1.00 20.00    -0.371 OA
ENDROOT
TORSDOF 0
ENDMDL
MODEL 3
REMARK VINA RESULT:      -4.3      1.171      1.985
REMARK  0 active torsions:
REMARK  status: ('A' for Active; 'I' for Inactive)
ROOT
HETATM    1  C1  UNL     1     -33.758   6.434   4.748  1.00 20.00    -0.025 A 
HETATM    2  C2  UNL     1     -34.437   5.627   3.916  1.00 20.00     0.003 A 
HETATM    3  C3  UNL     1     -34.083   6.081   6.180  1.00 20.00     0.061 A 
HETATM    4  C4  UNL     1     -35.267   4.638   4.621  1.00 20.00     0.173 A 
HETATM    5  C5  UNL     1     -35.124   4.990   6.089  1.00 20.00     0.158 A 
HETATM    6  O6  UNL     1     -34.714   3.722   5.581  1.00 20.00    -0.371 OA
ENDROOT
TORSDOF 0
ENDMDL
MODEL 4
REMARK VINA RESULT:      -4.1      0.788      1.263
REMARK  0 active torsions:
REMARK  status: ('A' for Active; 'I' for Inactive)
ROOT
HETATM    1  C1  UNL     1     -34.966   4.966   6.242  1.00 20.00    -0.025 A 
HETATM    2  C2  UNL     1     -35.068   4.496   4.987  1.00 20.00     0.003 A 
HETATM    3  C3  UNL     1     -34.066   6.179   6.259  1.00 20.00     0.061 A 
HETATM    4  C4  UNL     1     -34.311   5.291   4.009  1.00 20.00     0.173 A 
HETATM    5  C5  UNL     1     -33.575   6.326   4.838  1.00 20.00     0.158 A 
HETATM    6  O6  UNL     1     -34.524   6.703   3.843  1.00 20.00    -0.371 OA
ENDROOT
TORSDOF 0
ENDMDL
MODEL 5
REMARK VINA RESULT:      -4.0      1.417      2.589
REMARK  0 active torsions:
REMARK  status: ('A' for Active; 'I' for Inactive)
ROOT
HETATM    1  C1  UNL     1     -35.338   4.932   4.303  1.00 20.00    -0.025 A 
HETATM    2  C2  UNL     1     -34.476   5.931   4.049  1.00 20.00     0.003 A 
HETATM    3  C3  UNL     1     -35.175   4.469   5.731  1.00 20.00     0.061 A 
HETATM    4  C4  UNL     1     -33.654   6.295   5.213  1.00 20.00     0.173 A 
HETATM    5  C5  UNL     1     -34.028   5.285   6.281  1.00 20.00     0.158 A 
HETATM    6  O6  UNL     1     -34.238   6.683   6.469  1.00 20.00    -0.371 OA
ENDROOT
TORSDOF 0
ENDMDL
MODEL 6
REMARK VINA RESULT:      -3.4     12.494     12.569
REMARK  0 active torsions:
REMARK  status: ('A' for Active; 'I' for Inactive)
ROOT
HETATM    1  C1  UNL     1     -34.203  15.210  -2.965  1.00 20.00    -0.025 A 
HETATM    2  C2  UNL     1     -33.400  14.456  -3.734  1.00 20.00     0.003 A 
HETATM    3  C3  UNL     1     -35.646  14.957  -3.334  1.00 20.00     0.061 A 
HETATM    4  C4  UNL     1     -34.138  13.604  -4.679  1.00 20.00     0.173 A 
HETATM    5  C5  UNL     1     -35.592  13.996  -4.498  1.00 20.00     0.158 A 
HETATM    6  O6  UNL     1     -35.138  12.668  -4.242  1.00 20.00    -0.371 OA
ENDROOT
TORSDOF 0
ENDMDL
MODEL 7
REMARK VINA RESULT:      -3.3      8.402      9.123
REMARK  0 active torsions:
REMARK  status: ('A' for Active; 'I' for Inactive)
ROOT
HETATM    1  C1  UNL     1     -41.139   7.146  -0.989  1.00 20.00    -0.025 A 
HETATM    2  C2  UNL     1     -41.692   6.537  -2.051  1.00 20.00     0.003 A 
HETATM    3  C3  UNL     1     -40.763   6.116   0.050  1.00 20.00     0.061 A 
HETATM    4  C4  UNL     1     -41.754   5.074  -1.912  1.00 20.00     0.173 A 
HETATM    5  C5  UNL     1     -41.247   4.798  -0.509  1.00 20.00     0.158 A 
HETATM    6  O6  UNL     1     -40.581   4.281  -1.659  1.00 20.00    -0.371 OA
ENDROOT
TORSDOF 0
ENDMDL
MODEL 8
REMARK VINA RESULT:      -3.1      8.688      9.459
REMARK  0 active torsions:
REMARK  status: ('A' for Active; 'I' for Inactive)
ROOT
HETATM    1  C1  UNL     1     -40.725   4.658  -0.805  1.00 20.00    -0.025 A 
HETATM    2  C2  UNL     1     -40.672   5.924  -0.359  1.00 20.00     0.003 A 
HETATM    3  C3  UNL     1     -41.669   4.572  -1.981  1.00 20.00     0.061 A 
HETATM    4  C4  UNL     1     -41.511   6.847  -1.138  1.00 20.00     0.173 A 
HETATM    5  C5  UNL     1     -42.241   5.963  -2.130  1.00 20.00     0.158 A 
HETATM    6  O6  UNL     1     -41.362   7.000  -2.560  1.00 20.00    -0.371 OA
ENDROOT
TORSDOF 0
ENDMDL
MODEL 9
REMARK VINA RESULT:      -3.1     12.330     13.260
REMARK  0 active torsions:
REMARK  status: ('A' for Active; 'I' for Inactive)
ROOT
HETATM    1  C1  UNL     1     -34.112  15.518  -5.510  1.00 20.00    -0.025 A 
HETATM    2  C2  UNL     1     -34.630  14.324  -5.843  1.00 20.00     0.003 A 
HETATM    3  C3  UNL     1     -33.735  15.520  -4.047  1.00 20.00     0.061 A 
HETATM    4  C4  UNL     1     -34.662  13.374  -4.720  1.00 20.00     0.173 A 
HETATM    5  C5  UNL     1     -34.177  14.173  -3.525  1.00 20.00     0.158 A 
HETATM    6  O6  UNL     1     -33.477  13.019  -3.986  1.00 20.00    -0.371 OA
ENDROOT
TORSDOF 0
ENDMDL
