MODEL 1
REMARK VINA RESULT:      -4.6      0.000      0.000
REMARK  1 active torsions:
REMARK  status: ('A' for Active; 'I' for Inactive)
REMARK    1  A    between atoms: C1_1  and  C6_6 
ROOT
HETATM    1  C2  UNL     1     -34.245  13.559  -4.744  1.00 20.00     0.002 C 
HETATM    2  C3  UNL     1     -33.478  14.144  -3.561  1.00 20.00     0.012 C 
HETATM    3  C4  UNL     1     -35.750  13.547  -4.489  1.00 20.00     0.009 C 
HETATM    4  C5  UNL     1     -35.513  15.582  -2.993  1.00 20.00     0.021 C 
HETATM    5  C6  UNL     1     -33.987  15.518  -3.130  1.00 20.00     0.055 C 
HETATM    6  C7  UNL     1     -36.322  14.938  -4.145  1.00 20.00    -0.047 C 
HETATM    7  C9  UNL     1     -36.335  15.843  -5.393  1.00 20.00     0.015 C 
HETATM    8  C10 UNL     1     -37.785  14.772  -3.684  1.00 20.00     0.015 C 
ENDROOT
BRANCH   5   9
HETATM    9  C1  UNL     1     -33.469  16.607  -4.022  1.00 20.00     0.127 C 
HETATM   10  C8  UNL     1     -33.871  18.014  -3.676  1.00 20.00     0.091 C 
HETATM   11  O11 UNL     1     -32.748  16.360  -4.989  1.00 20.00    -0.298 OA
ENDBRANCH   5   9
TORSDOF 1
ENDMDL
MODEL 2
REMARK VINA RESULT:      -4.5      1.854      3.349
REMARK  1 active torsions:
REMARK  status: ('A' for Active; 'I' for Inactive)
REMARK    1  A    between atoms: C1_1  and  C6_6 
ROOT
HETATM    1  C2  UNL     1     -36.949  15.128  -5.266  1.00 20.00     0.002 C 
HETATM    2  C3  UNL     1     -36.673  14.845  -3.792  1.00 20.00     0.012 C 
HETATM    3  C4  UNL     1     -36.322  16.445  -5.714  1.00 20.00     0.009 C 
HETATM    4  C5  UNL     1     -34.492  16.164  -3.979  1.00 20.00     0.021 C 
HETATM    5  C6  UNL     1     -35.191  14.914  -3.430  1.00 20.00     0.055 C 
HETATM    6  C7  UNL     1     -34.802  16.517  -5.454  1.00 20.00    -0.047 C 
HETATM    7  C9  UNL     1     -34.042  15.590  -6.423  1.00 20.00     0.015 C 
HETATM    8  C10 UNL     1     -34.321  17.958  -5.726  1.00 20.00     0.015 C 
ENDROOT
BRANCH   5   9
HETATM    9  C1  UNL     1     -34.465  13.661  -3.820  1.00 20.00     0.127 C 
HETATM   10  C8  UNL     1     -32.980  13.638  -3.583  1.00 20.00     0.091 C 
HETATM   11  O11 UNL     1     -35.056  12.698  -4.309  1.00 20.00    -0.298 OA
ENDBRANCH   5   9
TORSDOF 1
ENDMDL
MODEL 3
REMARK VINA RESULT:      -4.4      1.718      3.695
REMARK  1 active torsions:
REMARK  status: ('A' for Active; 'I' for Inactive)
REMARK    1  A    between atoms: C1_1  and  C6_6 
ROOT
HETATM    1  C2  UNL     1     -34.987  16.988  -5.279  1.00 20.00     0.002 C 
HETATM    2  C3  UNL     1     -36.248  16.129  -5.268  1.00 20.00     0.012 C 
HETATM    3  C4  UNL     1     -34.559  17.379  -3.868  1.00 20.00     0.009 C 
HETATM    4  C5  UNL     1     -35.585  15.241  -2.965  1.00 20.00     0.021 C 
HETATM    5  C6  UNL     1     -36.140  14.909  -4.355  1.00 20.00     0.055 C 
HETATM    6  C7  UNL     1     -34.343  16.167  -2.938  1.00 20.00    -0.047 C 
HETATM    7  C9  UNL     1     -33.066  15.401  -3.333  1.00 20.00     0.015 C 
HETATM    8  C10 UNL     1     -34.144  16.678  -1.495  1.00 20.00     0.015 C 
ENDROOT
BRANCH   5   9
HETATM    9  C1  UNL     1     -35.371  13.796  -5.003  1.00 20.00     0.127 C 
HETATM   10  C8  UNL     1     -35.012  13.975  -6.453  1.00 20.00     0.091 C 
HETATM   11  O11 UNL     1     -35.047  12.787  -4.378  1.00 20.00    -0.298 OA
ENDBRANCH   5   9
TORSDOF 1
ENDMDL
MODEL 4
REMARK VINA RESULT:      -4.4      1.684      2.672
REMARK  1 active torsions:
REMARK  status: ('A' for Active; 'I' for Inactive)
REMARK    1  A    between atoms: C1_1  and  C6_6 
ROOT
HETATM    1  C2  UNL     1     -34.521  16.723  -5.814  1.00 20.00     0.002 C 
HETATM    2  C3  UNL     1     -33.391  17.124  -4.870  1.00 20.00     0.012 C 
HETATM    3  C4  UNL     1     -34.621  15.208  -5.962  1.00 20.00     0.009 C 
HETATM    4  C5  UNL     1     -33.698  14.918  -3.616  1.00 20.00     0.021 C 
HETATM    5  C6  UNL     1     -33.463  16.430  -3.511  1.00 20.00     0.055 C 
HETATM    6  C7  UNL     1     -34.794  14.473  -4.615  1.00 20.00    -0.047 C 
HETATM    7  C9  UNL     1     -36.204  14.714  -4.043  1.00 20.00     0.015 C 
HETATM    8  C10 UNL     1     -34.650  12.955  -4.857  1.00 20.00     0.015 C 
ENDROOT
BRANCH   5   9
HETATM    9  C1  UNL     1     -34.468  17.081  -2.607  1.00 20.00     0.127 C 
HETATM   10  C8  UNL     1     -34.644  16.474  -1.243  1.00 20.00     0.091 C 
HETATM   11  O11 UNL     1     -35.114  18.066  -2.965  1.00 20.00    -0.298 OA
ENDBRANCH   5   9
TORSDOF 1
ENDMDL
MODEL 5
REMARK VINA RESULT:      -4.4      1.825      3.155
REMARK  1 active torsions:
REMARK  status: ('A' for Active; 'I' for Inactive)
REMARK    1  A    between atoms: C1_1  and  C6_6 
ROOT
HETATM    1  C2  UNL     1     -34.782  16.760  -4.547  1.00 20.00     0.002 C 
HETATM    2  C3  UNL     1     -33.907  15.925  -5.477  1.00 20.00     0.012 C 
HETATM    3  C4  UNL     1     -36.205  16.893  -5.080  1.00 20.00     0.009 C 
HETATM    4  C5  UNL     1     -35.985  14.642  -6.229  1.00 20.00     0.021 C 
HETATM    5  C6  UNL     1     -34.511  14.564  -5.815  1.00 20.00     0.055 C 
HETATM    6  C7  UNL     1     -36.888  15.535  -5.343  1.00 20.00    -0.047 C 
HETATM    7  C9  UNL     1     -37.235  14.836  -4.014  1.00 20.00     0.015 C 
HETATM    8  C10 UNL     1     -38.216  15.784  -6.090  1.00 20.00     0.015 C 
ENDROOT
BRANCH   5   9
HETATM    9  C1  UNL     1     -34.302  13.573  -4.708  1.00 20.00     0.127 C 
HETATM   10  C8  UNL     1     -33.237  13.901  -3.698  1.00 20.00     0.091 C 
HETATM   11  O11 UNL     1     -34.971  12.543  -4.630  1.00 20.00    -0.298 OA
ENDBRANCH   5   9
TORSDOF 1
ENDMDL
MODEL 6
REMARK VINA RESULT:      -4.3      1.355      1.761
REMARK  1 active torsions:
REMARK  status: ('A' for Active; 'I' for Inactive)
REMARK    1  A    between atoms: C1_1  and  C6_6 
ROOT
HETATM    1  C2  UNL     1     -34.665  14.386  -6.183  1.00 20.00     0.002 C 
HETATM    2  C3  UNL     1     -34.418  13.569  -4.918  1.00 20.00     0.012 C 
HETATM    3  C4  UNL     1     -36.132  14.782  -6.320  1.00 20.00     0.009 C 
HETATM    4  C5  UNL     1     -36.369  14.776  -3.793  1.00 20.00     0.021 C 
HETATM    5  C6  UNL     1     -34.938  14.243  -3.651  1.00 20.00     0.055 C 
HETATM    6  C7  UNL     1     -36.672  15.554  -5.097  1.00 20.00    -0.047 C 
HETATM    7  C9  UNL     1     -36.081  16.977  -5.050  1.00 20.00     0.015 C 
HETATM    8  C10 UNL     1     -38.203  15.698  -5.239  1.00 20.00     0.015 C 
ENDROOT
BRANCH   5   9
HETATM    9  C1  UNL     1     -34.001  15.308  -3.162  1.00 20.00     0.127 C 
HETATM   10  C8  UNL     1     -34.448  16.110  -1.971  1.00 20.00     0.091 C 
HETATM   11  O11 UNL     1     -32.918  15.513  -3.709  1.00 20.00    -0.298 OA
ENDBRANCH   5   9
TORSDOF 1
ENDMDL
MODEL 7
REMARK VINA RESULT:      -4.3      1.993      2.954
REMARK  1 active torsions:
REMARK  status: ('A' for Active; 'I' for Inactive)
REMARK    1  A    between atoms: C1_1  and  C6_6 
ROOT
HETATM    1  C2  UNL     1     -33.333  16.583  -5.147  1.00 20.00     0.002 C 
HETATM    2  C3  UNL     1     -33.095  15.491  -4.109  1.00 20.00     0.012 C 
HETATM    3  C4  UNL     1     -33.849  16.007  -6.463  1.00 20.00     0.009 C 
HETATM    4  C5  UNL     1     -34.938  14.096  -5.198  1.00 20.00     0.021 C 
HETATM    5  C6  UNL     1     -34.308  14.589  -3.890  1.00 20.00     0.055 C 
HETATM    6  C7  UNL     1     -35.134  15.167  -6.299  1.00 20.00    -0.047 C 
HETATM    7  C9  UNL     1     -36.339  16.075  -5.988  1.00 20.00     0.015 C 
HETATM    8  C10 UNL     1     -35.430  14.451  -7.634  1.00 20.00     0.015 C 
ENDROOT
BRANCH   5   9
HETATM    9  C1  UNL     1     -35.326  15.234  -2.998  1.00 20.00     0.127 C 
HETATM   10  C8  UNL     1     -34.805  16.159  -1.933  1.00 20.00     0.091 C 
HETATM   11  O11 UNL     1     -36.531  15.018  -3.132  1.00 20.00    -0.298 OA
ENDBRANCH   5   9
TORSDOF 1
ENDMDL
MODEL 8
REMARK VINA RESULT:      -4.3      1.699      3.734
REMARK  1 active torsions:
REMARK  status: ('A' for Active; 'I' for Inactive)
REMARK    1  A    between atoms: C1_1  and  C6_6 
ROOT
HETATM    1  C2  UNL     1     -35.932  15.889  -3.108  1.00 20.00     0.002 C 
HETATM    2  C3  UNL     1     -36.632  14.705  -3.770  1.00 20.00     0.012 C 
HETATM    3  C4  UNL     1     -34.482  15.566  -2.762  1.00 20.00     0.009 C 
HETATM    4  C5  UNL     1     -34.381  13.938  -4.706  1.00 20.00     0.021 C 
HETATM    5  C6  UNL     1     -35.875  14.152  -4.975  1.00 20.00     0.055 C 
HETATM    6  C7  UNL     1     -33.654  15.095  -3.976  1.00 20.00    -0.047 C 
HETATM    7  C9  UNL     1     -33.377  16.272  -4.932  1.00 20.00     0.015 C 
HETATM    8  C10 UNL     1     -32.289  14.579  -3.475  1.00 20.00     0.015 C 
ENDROOT
BRANCH   5   9
HETATM    9  C1  UNL     1     -36.099  14.986  -6.202  1.00 20.00     0.127 C 
HETATM   10  C8  UNL     1     -35.397  14.546  -7.457  1.00 20.00     0.091 C 
HETATM   11  O11 UNL     1     -36.823  15.981  -6.182  1.00 20.00    -0.298 OA
ENDBRANCH   5   9
TORSDOF 1
ENDMDL
MODEL 9
REMARK VINA RESULT:      -4.2      1.666      3.032
REMARK  1 active torsions:
REMARK  status: ('A' for Active; 'I' for Inactive)
REMARK    1  A    between atoms: C1_1  and  C6_6 
ROOT
HETATM    1  C2  UNL     1     -34.629  16.023  -1.904  1.00 20.00     0.002 C 
HETATM    2  C3  UNL     1     -33.485  15.861  -2.901  1.00 20.00     0.012 C 
HETATM    3  C4  UNL     1     -35.749  16.892  -2.467  1.00 20.00     0.009 C 
HETATM    4  C5  UNL     1     -35.156  16.137  -4.815  1.00 20.00     0.021 C 
HETATM    5  C6  UNL     1     -33.942  15.371  -4.273  1.00 20.00     0.055 C 
HETATM    6  C7  UNL     1     -36.308  16.375  -3.809  1.00 20.00    -0.047 C 
HETATM    7  C9  UNL     1     -37.136  15.094  -3.593  1.00 20.00     0.015 C 
HETATM    8  C10 UNL     1     -37.258  17.442  -4.394  1.00 20.00     0.015 C 
ENDROOT
BRANCH   5   9
HETATM    9  C1  UNL     1     -34.178  13.890  -4.284  1.00 20.00     0.127 C 
HETATM   10  C8  UNL     1     -34.786  13.309  -5.531  1.00 20.00     0.091 C 
HETATM   11  O11 UNL     1     -33.886  13.183  -3.319  1.00 20.00    -0.298 OA
ENDBRANCH   5   9
TORSDOF 1
ENDMDL
