MODEL 1
REMARK VINA RESULT:      -4.3      0.000      0.000
REMARK  0 active torsions:
REMARK  status: ('A' for Active; 'I' for Inactive)
ROOT
HETATM    1  C1  UNL     1     -34.088   5.268   6.411  1.00 20.00     0.029 C 
HETATM    2  C2  UNL     1     -33.797   6.515   5.579  1.00 20.00     0.044 C 
HETATM    3  C3  UNL     1     -35.278   4.505   5.835  1.00 20.00     0.167 C 
HETATM    4  C4  UNL     1     -34.874   5.304   3.633  1.00 20.00     0.207 C 
HETATM    5  C5  UNL     1     -32.417   6.150   3.393  1.00 20.00     0.209 A 
HETATM    6  C6  UNL     1     -33.734   6.134   4.132  1.00 20.00     0.103 A 
HETATM    7  O7  UNL     1     -35.037   4.152   4.470  1.00 20.00    -0.388 OA
HETATM    8  O8  UNL     1     -33.371   7.212   3.260  1.00 20.00    -0.373 OA
ENDROOT
TORSDOF 0
ENDMDL
MODEL 2
REMARK VINA RESULT:      -3.8      1.217      3.352
REMARK  0 active torsions:
REMARK  status: ('A' for Active; 'I' for Inactive)
ROOT
HETATM    1  C1  UNL     1     -34.064   5.516   2.777  1.00 20.00     0.029 C 
HETATM    2  C2  UNL     1     -35.157   5.277   3.817  1.00 20.00     0.044 C 
HETATM    3  C3  UNL     1     -33.237   6.746   3.143  1.00 20.00     0.167 C 
HETATM    4  C4  UNL     1     -33.666   6.489   5.466  1.00 20.00     0.207 C 
HETATM    5  C5  UNL     1     -34.425   4.051   6.003  1.00 20.00     0.209 A 
HETATM    6  C6  UNL     1     -34.548   5.315   5.184  1.00 20.00     0.103 A 
HETATM    7  O7  UNL     1     -32.666   6.601   4.446  1.00 20.00    -0.388 OA
HETATM    8  O8  UNL     1     -35.467   5.007   6.241  1.00 20.00    -0.373 OA
ENDROOT
TORSDOF 0
ENDMDL
MODEL 3
REMARK VINA RESULT:      -3.8     11.971     13.396
REMARK  0 active torsions:
REMARK  status: ('A' for Active; 'I' for Inactive)
ROOT
HETATM    1  C1  UNL     1     -33.272  15.993  -3.678  1.00 20.00     0.029 C 
HETATM    2  C2  UNL     1     -33.348  14.470  -3.766  1.00 20.00     0.044 C 
HETATM    3  C3  UNL     1     -33.216  16.608  -5.074  1.00 20.00     0.167 C 
HETATM    4  C4  UNL     1     -34.392  14.788  -6.050  1.00 20.00     0.207 C 
HETATM    5  C5  UNL     1     -35.708  13.455  -4.233  1.00 20.00     0.209 A 
HETATM    6  C6  UNL     1     -34.430  14.089  -4.729  1.00 20.00     0.103 A 
HETATM    7  O7  UNL     1     -34.350  16.206  -5.848  1.00 20.00    -0.388 OA
HETATM    8  O8  UNL     1     -34.658  12.676  -4.821  1.00 20.00    -0.373 OA
ENDROOT
TORSDOF 0
ENDMDL
MODEL 4
REMARK VINA RESULT:      -3.7     11.853     12.619
REMARK  0 active torsions:
REMARK  status: ('A' for Active; 'I' for Inactive)
ROOT
HETATM    1  C1  UNL     1     -35.182  16.217  -3.224  1.00 20.00     0.029 C 
HETATM    2  C2  UNL     1     -35.684  14.786  -3.401  1.00 20.00     0.044 C 
HETATM    3  C3  UNL     1     -33.757  16.221  -2.677  1.00 20.00     0.167 C 
HETATM    4  C4  UNL     1     -33.257  14.107  -3.641  1.00 20.00     0.207 C 
HETATM    5  C5  UNL     1     -34.921  13.554  -5.573  1.00 20.00     0.209 A 
HETATM    6  C6  UNL     1     -34.657  13.997  -4.153  1.00 20.00     0.103 A 
HETATM    7  O7  UNL     1     -32.884  15.487  -3.541  1.00 20.00    -0.388 OA
HETATM    8  O8  UNL     1     -35.063  12.657  -4.463  1.00 20.00    -0.373 OA
ENDROOT
TORSDOF 0
ENDMDL
MODEL 5
REMARK VINA RESULT:      -3.7     12.065     12.630
REMARK  0 active torsions:
REMARK  status: ('A' for Active; 'I' for Inactive)
ROOT
HETATM    1  C1  UNL     1     -33.991  15.627  -3.295  1.00 20.00     0.029 C 
HETATM    2  C2  UNL     1     -35.437  15.336  -2.900  1.00 20.00     0.044 C 
HETATM    3  C3  UNL     1     -33.272  14.337  -3.686  1.00 20.00     0.167 C 
HETATM    4  C4  UNL     1     -35.288  13.287  -4.382  1.00 20.00     0.207 C 
HETATM    5  C5  UNL     1     -37.138  15.063  -4.863  1.00 20.00     0.209 A 
HETATM    6  C6  UNL     1     -36.072  14.489  -3.960  1.00 20.00     0.103 A 
HETATM    7  O7  UNL     1     -33.961  13.681  -4.754  1.00 20.00    -0.388 OA
HETATM    8  O8  UNL     1     -37.466  14.230  -3.743  1.00 20.00    -0.373 OA
ENDROOT
TORSDOF 0
ENDMDL
MODEL 6
REMARK VINA RESULT:      -3.7     11.942     13.177
REMARK  0 active torsions:
REMARK  status: ('A' for Active; 'I' for Inactive)
ROOT
HETATM    1  C1  UNL     1     -35.130  16.665  -4.193  1.00 20.00     0.029 C 
HETATM    2  C2  UNL     1     -35.276  15.317  -3.491  1.00 20.00     0.044 C 
HETATM    3  C3  UNL     1     -33.707  17.196  -4.043  1.00 20.00     0.167 C 
HETATM    4  C4  UNL     1     -32.788  15.013  -3.849  1.00 20.00     0.207 C 
HETATM    5  C5  UNL     1     -34.431  13.228  -4.811  1.00 20.00     0.209 A 
HETATM    6  C6  UNL     1     -34.158  14.418  -3.921  1.00 20.00     0.103 A 
HETATM    7  O7  UNL     1     -32.761  16.256  -4.561  1.00 20.00    -0.388 OA
HETATM    8  O8  UNL     1     -34.245  13.086  -3.397  1.00 20.00    -0.373 OA
ENDROOT
TORSDOF 0
ENDMDL
MODEL 7
REMARK VINA RESULT:      -3.6     11.908     12.607
REMARK  0 active torsions:
REMARK  status: ('A' for Active; 'I' for Inactive)
ROOT
HETATM    1  C1  UNL     1     -35.934  14.125  -4.193  1.00 20.00     0.029 C 
HETATM    2  C2  UNL     1     -35.472  15.579  -4.120  1.00 20.00     0.044 C 
HETATM    3  C3  UNL     1     -34.777  13.214  -4.593  1.00 20.00     0.167 C 
HETATM    4  C4  UNL     1     -33.150  14.677  -3.663  1.00 20.00     0.207 C 
HETATM    5  C5  UNL     1     -34.243  16.292  -1.929  1.00 20.00     0.209 A 
HETATM    6  C6  UNL     1     -34.222  15.654  -3.298  1.00 20.00     0.103 A 
HETATM    7  O7  UNL     1     -33.689  13.349  -3.674  1.00 20.00    -0.388 OA
HETATM    8  O8  UNL     1     -33.746  16.989  -3.080  1.00 20.00    -0.373 OA
ENDROOT
TORSDOF 0
ENDMDL
MODEL 8
REMARK VINA RESULT:      -3.5     12.208     13.548
REMARK  0 active torsions:
REMARK  status: ('A' for Active; 'I' for Inactive)
ROOT
HETATM    1  C1  UNL     1     -35.035  15.823  -6.383  1.00 20.00     0.029 C 
HETATM    2  C2  UNL     1     -34.864  14.327  -6.130  1.00 20.00     0.044 C 
HETATM    3  C3  UNL     1     -36.394  16.299  -5.875  1.00 20.00     0.167 C 
HETATM    4  C4  UNL     1     -36.502  14.599  -4.218  1.00 20.00     0.207 C 
HETATM    5  C5  UNL     1     -34.127  13.639  -3.720  1.00 20.00     0.209 A 
HETATM    6  C6  UNL     1     -35.207  14.029  -4.702  1.00 20.00     0.103 A 
HETATM    7  O7  UNL     1     -36.542  16.006  -4.483  1.00 20.00    -0.388 OA
HETATM    8  O8  UNL     1     -34.990  12.664  -4.322  1.00 20.00    -0.373 OA
ENDROOT
TORSDOF 0
ENDMDL
MODEL 9
REMARK VINA RESULT:      -3.5      8.992     10.242
REMARK  0 active torsions:
REMARK  status: ('A' for Active; 'I' for Inactive)
ROOT
HETATM    1  C1  UNL     1     -40.832   5.929  -0.124  1.00 20.00     0.029 C 
HETATM    2  C2  UNL     1     -40.711   4.709  -1.035  1.00 20.00     0.044 C 
HETATM    3  C3  UNL     1     -41.191   7.170  -0.938  1.00 20.00     0.167 C 
HETATM    4  C4  UNL     1     -42.296   5.896  -2.612  1.00 20.00     0.207 C 
HETATM    5  C5  UNL     1     -42.949   3.539  -1.702  1.00 20.00     0.209 A 
HETATM    6  C6  UNL     1     -41.924   4.630  -1.910  1.00 20.00     0.103 A 
HETATM    7  O7  UNL     1     -42.407   6.963  -1.662  1.00 20.00    -0.388 OA
HETATM    8  O8  UNL     1     -41.967   3.465  -2.744  1.00 20.00    -0.373 OA
ENDROOT
TORSDOF 0
ENDMDL
