MODEL 1
REMARK VINA RESULT:      -3.9      0.000      0.000
REMARK  0 active torsions:
REMARK  status: ('A' for Active; 'I' for Inactive)
ROOT
HETATM    1  C1  UNL     1     -34.068   6.260   6.015  1.00 20.00     0.223 C 
HETATM    2  C2  UNL     1     -34.559   5.345   5.224  1.00 20.00    -0.033 C 
HETATM    3  C3  UNL     1     -34.745   5.574   3.753  1.00 20.00     0.047 C 
HETATM    4  C4  UNL     1     -34.975   3.992   5.725  1.00 20.00     0.047 C 
HETATM    5  O5  UNL     1     -33.626   7.084   6.728  1.00 20.00    -0.284 OA
ENDROOT
TORSDOF 0
ENDMDL
MODEL 2
REMARK VINA RESULT:      -3.9      0.046      1.606
REMARK  0 active torsions:
REMARK  status: ('A' for Active; 'I' for Inactive)
ROOT
HETATM    1  C1  UNL     1     -34.082   6.234   5.999  1.00 20.00     0.223 C 
HETATM    2  C2  UNL     1     -34.587   5.320   5.217  1.00 20.00    -0.033 C 
HETATM    3  C3  UNL     1     -34.979   3.961   5.722  1.00 20.00     0.047 C 
HETATM    4  C4  UNL     1     -34.817   5.556   3.752  1.00 20.00     0.047 C 
HETATM    5  O5  UNL     1     -33.627   7.059   6.704  1.00 20.00    -0.284 OA
ENDROOT
TORSDOF 0
ENDMDL
MODEL 3
REMARK VINA RESULT:      -3.9      1.810      2.360
REMARK  0 active torsions:
REMARK  status: ('A' for Active; 'I' for Inactive)
ROOT
HETATM    1  C1  UNL     1     -33.953   5.709   4.154  1.00 20.00     0.223 C 
HETATM    2  C2  UNL     1     -34.293   5.509   5.398  1.00 20.00    -0.033 C 
HETATM    3  C3  UNL     1     -34.053   6.534   6.468  1.00 20.00     0.047 C 
HETATM    4  C4  UNL     1     -34.952   4.239   5.855  1.00 20.00     0.047 C 
HETATM    5  O5  UNL     1     -33.646   5.889   3.032  1.00 20.00    -0.284 OA
ENDROOT
TORSDOF 0
ENDMDL
MODEL 4
REMARK VINA RESULT:      -3.9      1.908      2.416
REMARK  0 active torsions:
REMARK  status: ('A' for Active; 'I' for Inactive)
ROOT
HETATM    1  C1  UNL     1     -33.466   6.142   3.957  1.00 20.00     0.223 C 
HETATM    2  C2  UNL     1     -34.172   5.763   4.987  1.00 20.00    -0.033 C 
HETATM    3  C3  UNL     1     -35.167   4.642   4.907  1.00 20.00     0.047 C 
HETATM    4  C4  UNL     1     -34.042   6.418   6.332  1.00 20.00     0.047 C 
HETATM    5  O5  UNL     1     -32.830   6.484   3.028  1.00 20.00    -0.284 OA
ENDROOT
TORSDOF 0
ENDMDL
MODEL 5
REMARK VINA RESULT:      -3.8      2.056      2.890
REMARK  0 active torsions:
REMARK  status: ('A' for Active; 'I' for Inactive)
ROOT
HETATM    1  C1  UNL     1     -34.749   4.627   5.119  1.00 20.00     0.223 C 
HETATM    2  C2  UNL     1     -34.167   5.795   5.135  1.00 20.00    -0.033 C 
HETATM    3  C3  UNL     1     -33.985   6.582   6.401  1.00 20.00     0.047 C 
HETATM    4  C4  UNL     1     -33.635   6.443   3.889  1.00 20.00     0.047 C 
HETATM    5  O5  UNL     1     -35.273   3.574   5.105  1.00 20.00    -0.284 OA
ENDROOT
TORSDOF 0
ENDMDL
MODEL 6
REMARK VINA RESULT:      -3.8      2.056      2.535
REMARK  0 active torsions:
REMARK  status: ('A' for Active; 'I' for Inactive)
ROOT
HETATM    1  C1  UNL     1     -34.749   4.629   5.118  1.00 20.00     0.223 C 
HETATM    2  C2  UNL     1     -34.166   5.797   5.136  1.00 20.00    -0.033 C 
HETATM    3  C3  UNL     1     -33.634   6.445   3.892  1.00 20.00     0.047 C 
HETATM    4  C4  UNL     1     -33.985   6.582   6.403  1.00 20.00     0.047 C 
HETATM    5  O5  UNL     1     -35.273   3.576   5.102  1.00 20.00    -0.284 OA
ENDROOT
TORSDOF 0
ENDMDL
MODEL 7
REMARK VINA RESULT:      -3.5      1.307      1.641
REMARK  0 active torsions:
REMARK  status: ('A' for Active; 'I' for Inactive)
ROOT
HETATM    1  C1  UNL     1     -33.915   6.409   5.552  1.00 20.00     0.223 C 
HETATM    2  C2  UNL     1     -33.878   6.049   4.298  1.00 20.00    -0.033 C 
HETATM    3  C3  UNL     1     -32.681   6.302   3.427  1.00 20.00     0.047 C 
HETATM    4  C4  UNL     1     -35.028   5.354   3.629  1.00 20.00     0.047 C 
HETATM    5  O5  UNL     1     -33.949   6.733   6.682  1.00 20.00    -0.284 OA
ENDROOT
TORSDOF 0
ENDMDL
MODEL 8
REMARK VINA RESULT:      -3.1     12.399     12.837
REMARK  0 active torsions:
REMARK  status: ('A' for Active; 'I' for Inactive)
ROOT
HETATM    1  C1  UNL     1     -34.636  13.624  -3.891  1.00 20.00     0.223 C 
HETATM    2  C2  UNL     1     -34.112  14.708  -3.388  1.00 20.00    -0.033 C 
HETATM    3  C3  UNL     1     -32.689  15.105  -3.651  1.00 20.00     0.047 C 
HETATM    4  C4  UNL     1     -34.892  15.642  -2.509  1.00 20.00     0.047 C 
HETATM    5  O5  UNL     1     -35.110  12.646  -4.344  1.00 20.00    -0.284 OA
ENDROOT
TORSDOF 0
ENDMDL
MODEL 9
REMARK VINA RESULT:      -2.9     13.219     14.289
REMARK  0 active torsions:
REMARK  status: ('A' for Active; 'I' for Inactive)
ROOT
HETATM    1  C1  UNL     1     -34.860  13.537  -5.179  1.00 20.00     0.223 C 
HETATM    2  C2  UNL     1     -34.719  14.512  -6.036  1.00 20.00    -0.033 C 
HETATM    3  C3  UNL     1     -35.274  14.440  -7.429  1.00 20.00     0.047 C 
HETATM    4  C4  UNL     1     -33.993  15.781  -5.694  1.00 20.00     0.047 C 
HETATM    5  O5  UNL     1     -34.986  12.659  -4.407  1.00 20.00    -0.284 OA
ENDROOT
TORSDOF 0
ENDMDL
