MODEL 1
REMARK VINA RESULT:      -5.1      0.000      0.000
REMARK  2 active torsions:
REMARK  status: ('A' for Active; 'I' for Inactive)
REMARK    1  A    between atoms: C3_3  and  C5_5 
REMARK    2  A    between atoms: C4_4  and  C10_10 
ROOT
HETATM    1  C1  UNL     1     -35.471  18.881  -1.372  1.00 20.00    -0.026 C 
HETATM    2  C2  UNL     1     -35.688  17.751  -0.687  1.00 20.00    -0.025 C 
HETATM    3  C6  UNL     1     -33.452  18.266  -0.429  1.00 20.00     0.017 C 
HETATM    4  C7  UNL     1     -33.710  17.840  -2.758  1.00 20.00     0.017 C 
HETATM    5  C8  UNL     1     -33.997  18.929  -1.699  1.00 20.00     0.009 C 
HETATM    6  C9  UNL     1     -34.359  17.037  -0.565  1.00 20.00     0.016 C 
HETATM    7  C10 UNL     1     -33.923  16.522  -1.958  1.00 20.00     0.017 C 
ENDROOT
BRANCH   7   8
HETATM    8  C4  UNL     1     -34.869  15.560  -2.597  1.00 20.00    -0.015 C 
HETATM    9  C3  UNL     1     -34.482  14.584  -3.428  1.00 20.00     0.081 C 
BRANCH   9  10
HETATM   10  C5  UNL     1     -35.487  13.614  -4.065  1.00 20.00     0.198 C 
HETATM   11  O11 UNL     1     -34.950  12.638  -4.667  1.00 20.00    -0.645 OA
HETATM   12  O12 UNL     1     -36.714  13.885  -3.927  1.00 20.00    -0.645 OA
ENDBRANCH   9  10
ENDBRANCH   7   8
TORSDOF 2
ENDMDL
MODEL 2
REMARK VINA RESULT:      -5.0      1.057      2.083
REMARK  2 active torsions:
REMARK  status: ('A' for Active; 'I' for Inactive)
REMARK    1  A    between atoms: C3_3  and  C5_5 
REMARK    2  A    between atoms: C4_4  and  C10_10 
ROOT
HETATM    1  C1  UNL     1     -33.238  18.642  -1.342  1.00 20.00    -0.026 C 
HETATM    2  C2  UNL     1     -33.610  18.386  -2.603  1.00 20.00    -0.025 C 
HETATM    3  C6  UNL     1     -35.537  18.865  -1.426  1.00 20.00     0.017 C 
HETATM    4  C7  UNL     1     -34.699  16.871  -0.429  1.00 20.00     0.017 C 
HETATM    5  C8  UNL     1     -34.441  18.395  -0.463  1.00 20.00     0.009 C 
HETATM    6  C9  UNL     1     -35.061  17.957  -2.566  1.00 20.00     0.016 C 
HETATM    7  C10 UNL     1     -35.170  16.572  -1.883  1.00 20.00     0.017 C 
ENDROOT
BRANCH   7   8
HETATM    8  C4  UNL     1     -34.415  15.476  -2.560  1.00 20.00    -0.015 C 
HETATM    9  C3  UNL     1     -34.995  14.546  -3.329  1.00 20.00     0.081 C 
BRANCH   9  10
HETATM   10  C5  UNL     1     -34.183  13.434  -4.009  1.00 20.00     0.198 C 
HETATM   11  O11 UNL     1     -34.858  12.719  -4.808  1.00 20.00    -0.645 OA
HETATM   12  O12 UNL     1     -32.959  13.350  -3.707  1.00 20.00    -0.645 OA
ENDBRANCH   9  10
ENDBRANCH   7   8
TORSDOF 2
ENDMDL
MODEL 3
REMARK VINA RESULT:      -4.9      2.779      5.002
REMARK  2 active torsions:
REMARK  status: ('A' for Active; 'I' for Inactive)
REMARK    1  A    between atoms: C3_3  and  C5_5 
REMARK    2  A    between atoms: C4_4  and  C10_10 
ROOT
HETATM    1  C1  UNL     1     -36.466  14.333  -4.190  1.00 20.00    -0.026 C 
HETATM    2  C2  UNL     1     -36.157  15.565  -4.618  1.00 20.00    -0.025 C 
HETATM    3  C6  UNL     1     -34.802  14.099  -5.776  1.00 20.00     0.017 C 
HETATM    4  C7  UNL     1     -34.141  13.863  -3.501  1.00 20.00     0.017 C 
HETATM    5  C8  UNL     1     -35.273  13.451  -4.469  1.00 20.00     0.009 C 
HETATM    6  C9  UNL     1     -34.751  15.508  -5.174  1.00 20.00     0.016 C 
HETATM    7  C10 UNL     1     -33.750  15.279  -4.016  1.00 20.00     0.017 C 
ENDROOT
BRANCH   7   8
HETATM    8  C4  UNL     1     -33.752  16.339  -2.963  1.00 20.00    -0.015 C 
HETATM    9  C3  UNL     1     -34.250  16.158  -1.734  1.00 20.00     0.081 C 
BRANCH   9  10
HETATM   10  C5  UNL     1     -34.233  17.274  -0.679  1.00 20.00     0.198 C 
HETATM   11  O11 UNL     1     -35.011  17.070   0.299  1.00 20.00    -0.645 OA
HETATM   12  O12 UNL     1     -33.464  18.254  -0.893  1.00 20.00    -0.645 OA
ENDBRANCH   9  10
ENDBRANCH   7   8
TORSDOF 2
ENDMDL
MODEL 4
REMARK VINA RESULT:      -4.8     12.794     14.309
REMARK  2 active torsions:
REMARK  status: ('A' for Active; 'I' for Inactive)
REMARK    1  A    between atoms: C3_3  and  C5_5 
REMARK    2  A    between atoms: C4_4  and  C10_10 
ROOT
HETATM    1  C1  UNL     1     -42.775   5.408   0.476  1.00 20.00    -0.026 C 
HETATM    2  C2  UNL     1     -41.929   4.383   0.307  1.00 20.00    -0.025 C 
HETATM    3  C6  UNL     1     -40.802   6.290  -0.341  1.00 20.00     0.017 C 
HETATM    4  C7  UNL     1     -42.600   6.094  -1.890  1.00 20.00     0.017 C 
HETATM    5  C8  UNL     1     -42.314   6.522  -0.433  1.00 20.00     0.009 C 
HETATM    6  C9  UNL     1     -40.907   4.809  -0.725  1.00 20.00     0.016 C 
HETATM    7  C10 UNL     1     -41.592   4.928  -2.107  1.00 20.00     0.017 C 
ENDROOT
BRANCH   7   8
HETATM    8  C4  UNL     1     -42.212   3.666  -2.613  1.00 20.00    -0.015 C 
HETATM    9  C3  UNL     1     -41.513   2.678  -3.187  1.00 20.00     0.081 C 
BRANCH   9  10
HETATM   10  C5  UNL     1     -42.189   1.395  -3.693  1.00 20.00     0.198 C 
HETATM   11  O11 UNL     1     -42.029   1.185  -4.932  1.00 20.00    -0.645 OA
HETATM   12  O12 UNL     1     -42.817   0.703  -2.844  1.00 20.00    -0.645 OA
ENDBRANCH   9  10
ENDBRANCH   7   8
TORSDOF 2
ENDMDL
MODEL 5
REMARK VINA RESULT:      -4.8      3.160      5.087
REMARK  2 active torsions:
REMARK  status: ('A' for Active; 'I' for Inactive)
REMARK    1  A    between atoms: C3_3  and  C5_5 
REMARK    2  A    between atoms: C4_4  and  C10_10 
ROOT
HETATM    1  C1  UNL     1     -34.483  16.029  -5.505  1.00 20.00    -0.026 C 
HETATM    2  C2  UNL     1     -33.327  15.934  -4.835  1.00 20.00    -0.025 C 
HETATM    3  C6  UNL     1     -34.336  13.861  -4.719  1.00 20.00     0.017 C 
HETATM    4  C7  UNL     1     -35.811  15.318  -3.547  1.00 20.00     0.017 C 
HETATM    5  C8  UNL     1     -35.391  14.941  -4.986  1.00 20.00     0.009 C 
HETATM    6  C9  UNL     1     -33.467  14.786  -3.858  1.00 20.00     0.016 C 
HETATM    7  C10 UNL     1     -34.480  15.172  -2.754  1.00 20.00     0.017 C 
ENDROOT
BRANCH   7   8
HETATM    8  C4  UNL     1     -34.108  16.375  -1.951  1.00 20.00    -0.015 C 
HETATM    9  C3  UNL     1     -34.625  16.648  -0.746  1.00 20.00     0.081 C 
BRANCH   9  10
HETATM   10  C5  UNL     1     -34.214  17.897   0.049  1.00 20.00     0.198 C 
HETATM   11  O11 UNL     1     -35.105  18.315   0.845  1.00 20.00    -0.645 OA
HETATM   12  O12 UNL     1     -33.061  18.364  -0.171  1.00 20.00    -0.645 OA
ENDBRANCH   9  10
ENDBRANCH   7   8
TORSDOF 2
ENDMDL
MODEL 6
REMARK VINA RESULT:      -4.7     12.487     14.123
REMARK  2 active torsions:
REMARK  status: ('A' for Active; 'I' for Inactive)
REMARK    1  A    between atoms: C3_3  and  C5_5 
REMARK    2  A    between atoms: C4_4  and  C10_10 
ROOT
HETATM    1  C1  UNL     1     -41.547   6.997  -2.149  1.00 20.00    -0.026 C 
HETATM    2  C2  UNL     1     -42.580   6.318  -2.666  1.00 20.00    -0.025 C 
HETATM    3  C6  UNL     1     -42.820   6.248  -0.371  1.00 20.00     0.017 C 
HETATM    4  C7  UNL     1     -40.799   5.065  -0.804  1.00 20.00     0.017 C 
HETATM    5  C8  UNL     1     -41.354   6.507  -0.734  1.00 20.00     0.009 C 
HETATM    6  C9  UNL     1     -43.069   5.363  -1.599  1.00 20.00     0.016 C 
HETATM    7  C10 UNL     1     -42.007   4.262  -1.368  1.00 20.00     0.017 C 
ENDROOT
BRANCH   7   8
HETATM    8  C4  UNL     1     -41.687   3.434  -2.569  1.00 20.00    -0.015 C 
HETATM    9  C3  UNL     1     -42.573   2.629  -3.169  1.00 20.00     0.081 C 
BRANCH   9  10
HETATM   10  C5  UNL     1     -42.204   1.794  -4.404  1.00 20.00     0.198 C 
HETATM   11  O11 UNL     1     -41.363   0.876  -4.172  1.00 20.00    -0.645 OA
HETATM   12  O12 UNL     1     -42.764   2.103  -5.494  1.00 20.00    -0.645 OA
ENDBRANCH   9  10
ENDBRANCH   7   8
TORSDOF 2
ENDMDL
MODEL 7
REMARK VINA RESULT:      -4.5     10.728     12.077
REMARK  2 active torsions:
REMARK  status: ('A' for Active; 'I' for Inactive)
REMARK    1  A    between atoms: C3_3  and  C5_5 
REMARK    2  A    between atoms: C4_4  and  C10_10 
ROOT
HETATM    1  C1  UNL     1     -35.828   5.472   4.249  1.00 20.00    -0.026 C 
HETATM    2  C2  UNL     1     -35.018   5.309   3.194  1.00 20.00    -0.025 C 
HETATM    3  C6  UNL     1     -34.052   4.172   4.955  1.00 20.00     0.017 C 
HETATM    4  C7  UNL     1     -34.028   6.457   5.625  1.00 20.00     0.017 C 
HETATM    5  C8  UNL     1     -34.993   5.257   5.489  1.00 20.00     0.009 C 
HETATM    6  C9  UNL     1     -33.638   4.997   3.730  1.00 20.00     0.016 C 
HETATM    7  C10 UNL     1     -33.060   6.254   4.423  1.00 20.00     0.017 C 
ENDROOT
BRANCH   7   8
HETATM    8  C4  UNL     1     -32.916   7.449   3.540  1.00 20.00    -0.015 C 
HETATM    9  C3  UNL     1     -32.151   7.469   2.441  1.00 20.00     0.081 C 
BRANCH   9  10
HETATM   10  C5  UNL     1     -32.031   8.720   1.558  1.00 20.00     0.198 C 
HETATM   11  O11 UNL     1     -31.295   8.562   0.540  1.00 20.00    -0.645 OA
HETATM   12  O12 UNL     1     -32.662   9.749   1.931  1.00 20.00    -0.645 OA
ENDBRANCH   9  10
ENDBRANCH   7   8
TORSDOF 2
ENDMDL
MODEL 8
REMARK VINA RESULT:      -4.5      2.455      3.623
REMARK  2 active torsions:
REMARK  status: ('A' for Active; 'I' for Inactive)
REMARK    1  A    between atoms: C3_3  and  C5_5 
REMARK    2  A    between atoms: C4_4  and  C10_10 
ROOT
HETATM    1  C1  UNL     1     -33.875  16.717  -3.272  1.00 20.00    -0.026 C 
HETATM    2  C2  UNL     1     -34.336  15.709  -2.519  1.00 20.00    -0.025 C 
HETATM    3  C6  UNL     1     -32.560  14.873  -3.734  1.00 20.00     0.017 C 
HETATM    4  C7  UNL     1     -34.193  15.450  -5.368  1.00 20.00     0.017 C 
HETATM    5  C8  UNL     1     -33.143  16.102  -4.440  1.00 20.00     0.009 C 
HETATM    6  C9  UNL     1     -33.921  14.419  -3.191  1.00 20.00     0.016 C 
HETATM    7  C10 UNL     1     -34.706  14.253  -4.515  1.00 20.00     0.017 C 
ENDROOT
BRANCH   7   8
HETATM    8  C4  UNL     1     -36.191  14.199  -4.362  1.00 20.00    -0.015 C 
HETATM    9  C3  UNL     1     -37.026  15.071  -4.941  1.00 20.00     0.081 C 
BRANCH   9  10
HETATM   10  C5  UNL     1     -38.548  14.980  -4.760  1.00 20.00     0.198 C 
HETATM   11  O11 UNL     1     -38.907  14.279  -3.767  1.00 20.00    -0.645 OA
HETATM   12  O12 UNL     1     -39.264  15.596  -5.599  1.00 20.00    -0.645 OA
ENDBRANCH   9  10
ENDBRANCH   7   8
TORSDOF 2
ENDMDL
MODEL 9
REMARK VINA RESULT:      -4.3      2.803      4.339
REMARK  2 active torsions:
REMARK  status: ('A' for Active; 'I' for Inactive)
REMARK    1  A    between atoms: C3_3  and  C5_5 
REMARK    2  A    between atoms: C4_4  and  C10_10 
ROOT
HETATM    1  C1  UNL     1     -33.510  13.739  -3.887  1.00 20.00    -0.026 C 
HETATM    2  C2  UNL     1     -34.403  13.909  -4.872  1.00 20.00    -0.025 C 
HETATM    3  C6  UNL     1     -33.244  15.895  -4.676  1.00 20.00     0.017 C 
HETATM    4  C7  UNL     1     -34.390  15.657  -2.602  1.00 20.00     0.017 C 
HETATM    5  C8  UNL     1     -33.159  15.110  -3.362  1.00 20.00     0.009 C 
HETATM    6  C9  UNL     1     -34.658  15.395  -4.997  1.00 20.00     0.016 C 
HETATM    7  C10 UNL     1     -35.420  15.893  -3.745  1.00 20.00     0.017 C 
ENDROOT
BRANCH   7   8
HETATM    8  C4  UNL     1     -36.748  15.249  -3.519  1.00 20.00    -0.015 C 
HETATM    9  C3  UNL     1     -37.907  15.783  -3.923  1.00 20.00     0.081 C 
BRANCH   9  10
HETATM   10  C5  UNL     1     -39.253  15.088  -3.671  1.00 20.00     0.198 C 
HETATM   11  O11 UNL     1     -39.971  15.658  -2.799  1.00 20.00    -0.645 OA
HETATM   12  O12 UNL     1     -39.495  14.045  -4.343  1.00 20.00    -0.645 OA
ENDBRANCH   9  10
ENDBRANCH   7   8
TORSDOF 2
ENDMDL
