MODEL 1
REMARK VINA RESULT:      -4.8      0.000      0.000
REMARK  1 active torsions:
REMARK  status: ('A' for Active; 'I' for Inactive)
REMARK    1  A    between atoms: C2_2  and  C3_3 
ROOT
HETATM    1  C1  UNL     1     -33.498   6.460   5.355  1.00 20.00    -0.012 C 
HETATM    2  C2  UNL     1     -33.587   6.208   4.041  1.00 20.00    -0.001 C 
HETATM    3  C4  UNL     1     -34.416   5.776   6.325  1.00 20.00     0.054 C 
HETATM    4  C5  UNL     1     -34.606   5.273   3.468  1.00 20.00     0.209 C 
HETATM    5  C6  UNL     1     -35.126   4.589   5.680  1.00 20.00     0.171 C 
HETATM    6  O8  UNL     1     -35.648   4.971   4.406  1.00 20.00    -0.386 OA
ENDROOT
BRANCH   2   7
HETATM    7  C3  UNL     1     -32.663   6.894   3.138  1.00 20.00     0.267 C 
HETATM    8  O7  UNL     1     -31.636   7.437   3.529  1.00 20.00    -0.302 OA
ENDBRANCH   2   7
TORSDOF 1
ENDMDL
MODEL 2
REMARK VINA RESULT:      -4.1      1.114      1.799
REMARK  1 active torsions:
REMARK  status: ('A' for Active; 'I' for Inactive)
REMARK    1  A    between atoms: C2_2  and  C3_3 
ROOT
HETATM    1  C1  UNL     1     -34.391   5.081   3.827  1.00 20.00    -0.012 C 
HETATM    2  C2  UNL     1     -33.682   6.143   4.235  1.00 20.00    -0.001 C 
HETATM    3  C4  UNL     1     -35.151   4.246   4.815  1.00 20.00     0.054 C 
HETATM    4  C5  UNL     1     -33.578   6.535   5.677  1.00 20.00     0.209 C 
HETATM    5  C6  UNL     1     -35.281   4.956   6.160  1.00 20.00     0.171 C 
HETATM    6  O8  UNL     1     -34.015   5.487   6.554  1.00 20.00    -0.386 OA
ENDROOT
BRANCH   2   7
HETATM    7  C3  UNL     1     -32.966   6.929   3.231  1.00 20.00     0.267 C 
HETATM    8  O7  UNL     1     -31.815   7.318   3.392  1.00 20.00    -0.302 OA
ENDBRANCH   2   7
TORSDOF 1
ENDMDL
MODEL 3
REMARK VINA RESULT:      -4.0     11.596     12.284
REMARK  1 active torsions:
REMARK  status: ('A' for Active; 'I' for Inactive)
REMARK    1  A    between atoms: C2_2  and  C3_3 
ROOT
HETATM    1  C1  UNL     1     -35.238  15.697  -3.058  1.00 20.00    -0.012 C 
HETATM    2  C2  UNL     1     -35.959  14.770  -3.704  1.00 20.00    -0.001 C 
HETATM    3  C4  UNL     1     -33.765  15.505  -2.846  1.00 20.00     0.054 C 
HETATM    4  C5  UNL     1     -35.360  13.497  -4.216  1.00 20.00     0.209 C 
HETATM    5  C6  UNL     1     -33.215  14.387  -3.728  1.00 20.00     0.171 C 
HETATM    6  O8  UNL     1     -34.067  13.243  -3.649  1.00 20.00    -0.386 OA
ENDROOT
BRANCH   2   7
HETATM    7  C3  UNL     1     -37.389  15.009  -3.893  1.00 20.00     0.267 C 
HETATM    8  O7  UNL     1     -38.233  14.134  -3.737  1.00 20.00    -0.302 OA
ENDBRANCH   2   7
TORSDOF 1
ENDMDL
MODEL 4
REMARK VINA RESULT:      -3.9     11.833     13.126
REMARK  1 active torsions:
REMARK  status: ('A' for Active; 'I' for Inactive)
REMARK    1  A    between atoms: C2_2  and  C3_3 
ROOT
HETATM    1  C1  UNL     1     -34.237  14.992  -3.164  1.00 20.00    -0.012 C 
HETATM    2  C2  UNL     1     -34.224  14.836  -4.495  1.00 20.00    -0.001 C 
HETATM    3  C4  UNL     1     -33.816  16.293  -2.546  1.00 20.00     0.054 C 
HETATM    4  C5  UNL     1     -33.766  15.914  -5.428  1.00 20.00     0.209 C 
HETATM    5  C6  UNL     1     -33.748  17.408  -3.586  1.00 20.00     0.171 C 
HETATM    6  O8  UNL     1     -33.048  16.950  -4.744  1.00 20.00    -0.386 OA
ENDROOT
BRANCH   2   7
HETATM    7  C3  UNL     1     -34.652  13.551  -5.049  1.00 20.00     0.267 C 
HETATM    8  O7  UNL     1     -35.043  12.625  -4.347  1.00 20.00    -0.302 OA
ENDBRANCH   2   7
TORSDOF 1
ENDMDL
MODEL 5
REMARK VINA RESULT:      -3.7      1.886      2.715
REMARK  1 active torsions:
REMARK  status: ('A' for Active; 'I' for Inactive)
REMARK    1  A    between atoms: C2_2  and  C3_3 
ROOT
HETATM    1  C1  UNL     1     -33.765   6.439   4.480  1.00 20.00    -0.012 C 
HETATM    2  C2  UNL     1     -33.918   6.289   5.804  1.00 20.00    -0.001 C 
HETATM    3  C4  UNL     1     -34.439   5.501   3.524  1.00 20.00     0.054 C 
HETATM    4  C5  UNL     1     -34.728   5.180   6.400  1.00 20.00     0.209 C 
HETATM    5  C6  UNL     1     -35.519   4.676   4.220  1.00 20.00     0.171 C 
HETATM    6  O8  UNL     1     -35.011   4.146   5.446  1.00 20.00    -0.386 OA
ENDROOT
BRANCH   2   7
HETATM    7  C3  UNL     1     -33.246   7.236   6.693  1.00 20.00     0.267 C 
HETATM    8  O7  UNL     1     -33.856   7.949   7.483  1.00 20.00    -0.302 OA
ENDBRANCH   2   7
TORSDOF 1
ENDMDL
MODEL 6
REMARK VINA RESULT:      -3.6     11.740     12.085
REMARK  1 active torsions:
REMARK  status: ('A' for Active; 'I' for Inactive)
REMARK    1  A    between atoms: C2_2  and  C3_3 
ROOT
HETATM    1  C1  UNL     1     -33.787  14.728  -3.254  1.00 20.00    -0.012 C 
HETATM    2  C2  UNL     1     -34.899  15.399  -2.920  1.00 20.00    -0.001 C 
HETATM    3  C4  UNL     1     -33.851  13.580  -4.217  1.00 20.00     0.054 C 
HETATM    4  C5  UNL     1     -36.250  15.033  -3.451  1.00 20.00     0.209 C 
HETATM    5  C6  UNL     1     -35.180  13.554  -4.967  1.00 20.00     0.171 C 
HETATM    6  O8  UNL     1     -36.260  13.729  -4.048  1.00 20.00    -0.386 OA
ENDROOT
BRANCH   2   7
HETATM    7  C3  UNL     1     -34.781  16.517  -1.984  1.00 20.00     0.267 C 
HETATM    8  O7  UNL     1     -34.690  16.358  -0.772  1.00 20.00    -0.302 OA
ENDBRANCH   2   7
TORSDOF 1
ENDMDL
MODEL 7
REMARK VINA RESULT:      -3.6      9.369     10.558
REMARK  1 active torsions:
REMARK  status: ('A' for Active; 'I' for Inactive)
REMARK    1  A    between atoms: C2_2  and  C3_3 
ROOT
HETATM    1  C1  UNL     1     -41.338   7.093  -1.379  1.00 20.00    -0.012 C 
HETATM    2  C2  UNL     1     -42.038   6.620  -2.419  1.00 20.00    -0.001 C 
HETATM    3  C4  UNL     1     -40.782   6.157  -0.346  1.00 20.00     0.054 C 
HETATM    4  C5  UNL     1     -42.332   5.162  -2.596  1.00 20.00     0.209 C 
HETATM    5  C6  UNL     1     -40.813   4.710  -0.831  1.00 20.00     0.171 C 
HETATM    6  O8  UNL     1     -42.091   4.414  -1.396  1.00 20.00    -0.386 OA
ENDROOT
BRANCH   2   7
HETATM    7  C3  UNL     1     -42.551   7.573  -3.403  1.00 20.00     0.267 C 
HETATM    8  O7  UNL     1     -43.362   7.260  -4.267  1.00 20.00    -0.302 OA
ENDBRANCH   2   7
TORSDOF 1
ENDMDL
MODEL 8
REMARK VINA RESULT:      -3.6     12.125     13.839
REMARK  1 active torsions:
REMARK  status: ('A' for Active; 'I' for Inactive)
REMARK    1  A    between atoms: C2_2  and  C3_3 
ROOT
HETATM    1  C1  UNL     1     -33.569  15.840  -4.365  1.00 20.00    -0.012 C 
HETATM    2  C2  UNL     1     -34.170  14.753  -4.869  1.00 20.00    -0.001 C 
HETATM    3  C4  UNL     1     -33.388  17.070  -5.205  1.00 20.00     0.054 C 
HETATM    4  C5  UNL     1     -34.659  14.687  -6.283  1.00 20.00     0.209 C 
HETATM    5  C6  UNL     1     -34.251  17.017  -6.463  1.00 20.00     0.171 C 
HETATM    6  O8  UNL     1     -34.117  15.741  -7.091  1.00 20.00    -0.386 OA
ENDROOT
BRANCH   2   7
HETATM    7  C3  UNL     1     -34.330  13.583  -4.006  1.00 20.00     0.267 C 
HETATM    8  O7  UNL     1     -35.040  12.630  -4.307  1.00 20.00    -0.302 OA
ENDBRANCH   2   7
TORSDOF 1
ENDMDL
MODEL 9
REMARK VINA RESULT:      -3.6      9.047     10.362
REMARK  1 active torsions:
REMARK  status: ('A' for Active; 'I' for Inactive)
REMARK    1  A    between atoms: C2_2  and  C3_3 
ROOT
HETATM    1  C1  UNL     1     -40.958   4.699  -0.972  1.00 20.00    -0.012 C 
HETATM    2  C2  UNL     1     -41.771   4.612  -2.035  1.00 20.00    -0.001 C 
HETATM    3  C4  UNL     1     -40.626   6.034  -0.375  1.00 20.00     0.054 C 
HETATM    4  C5  UNL     1     -42.358   5.818  -2.700  1.00 20.00     0.209 C 
HETATM    5  C6  UNL     1     -41.568   7.123  -0.883  1.00 20.00     0.171 C 
HETATM    6  O8  UNL     1     -41.699   7.028  -2.303  1.00 20.00    -0.386 OA
ENDROOT
BRANCH   2   7
HETATM    7  C3  UNL     1     -42.071   3.286  -2.574  1.00 20.00     0.267 C 
HETATM    8  O7  UNL     1     -41.247   2.619  -3.189  1.00 20.00    -0.302 OA
ENDBRANCH   2   7
TORSDOF 1
ENDMDL
