MODEL 1
REMARK VINA RESULT:      -4.5      0.000      0.000
REMARK  3 active torsions:
REMARK  status: ('A' for Active; 'I' for Inactive)
REMARK    1  A    between atoms: C2_2  and  C6_6 
REMARK    2  A    between atoms: C6_6  and  C7_7 
REMARK    3  A    between atoms: C6_6  and  O8_8 
ROOT
HETATM    1  C6  UNL     1     -33.637   6.051   5.212  1.00 20.00     0.144 C 
ENDROOT
BRANCH   1   2
HETATM    2  C2  UNL     1     -33.393   6.951   4.032  1.00 20.00     0.000 C 
HETATM    3  C1  UNL     1     -32.238   6.988   3.350  1.00 20.00    -0.033 C 
HETATM    4  C3  UNL     1     -31.994   7.877   2.177  1.00 20.00     0.036 C 
ENDBRANCH   1   2
BRANCH   1   5
HETATM    5  C7  UNL     1     -34.986   5.294   5.182  1.00 20.00     0.010 C 
HETATM    6  C4  UNL     1     -34.888   3.858   5.706  1.00 20.00     0.012 C 
HETATM    7  C5  UNL     1     -35.614   5.306   3.786  1.00 20.00     0.012 C 
ENDBRANCH   1   5
BRANCH   1   8
HETATM    8  O8  UNL     1     -33.576   6.863   6.387  1.00 20.00    -0.391 OA
HETATM    9  H22 UNL     1     -33.010   7.617   6.167  1.00 20.00     0.210 HD
ENDBRANCH   1   8
TORSDOF 3
ENDMDL
MODEL 2
REMARK VINA RESULT:      -4.4      1.621      1.972
REMARK  3 active torsions:
REMARK  status: ('A' for Active; 'I' for Inactive)
REMARK    1  A    between atoms: C2_2  and  C6_6 
REMARK    2  A    between atoms: C6_6  and  C7_7 
REMARK    3  A    between atoms: C6_6  and  O8_8 
ROOT
HETATM    1  C6  UNL     1     -34.630   5.854   4.088  1.00 20.00     0.144 C 
ENDROOT
BRANCH   1   2
HETATM    2  C2  UNL     1     -33.802   6.986   3.545  1.00 20.00     0.000 C 
HETATM    3  C1  UNL     1     -32.613   6.819   2.947  1.00 20.00    -0.033 C 
HETATM    4  C3  UNL     1     -31.792   7.941   2.403  1.00 20.00     0.036 C 
ENDBRANCH   1   2
BRANCH   1   5
HETATM    5  C7  UNL     1     -34.194   5.342   5.481  1.00 20.00     0.010 C 
HETATM    6  C4  UNL     1     -35.118   4.259   6.047  1.00 20.00     0.012 C 
HETATM    7  C5  UNL     1     -34.043   6.486   6.486  1.00 20.00     0.012 C 
ENDBRANCH   1   5
BRANCH   1   8
HETATM    8  O8  UNL     1     -34.556   4.782   3.145  1.00 20.00    -0.391 OA
HETATM    9  H22 UNL     1     -35.407   4.322   3.188  1.00 20.00     0.210 HD
ENDBRANCH   1   8
TORSDOF 3
ENDMDL
MODEL 3
REMARK VINA RESULT:      -4.0     11.838     12.686
REMARK  3 active torsions:
REMARK  status: ('A' for Active; 'I' for Inactive)
REMARK    1  A    between atoms: C2_2  and  C6_6 
REMARK    2  A    between atoms: C6_6  and  C7_7 
REMARK    3  A    between atoms: C6_6  and  O8_8 
ROOT
HETATM    1  C6  UNL     1     -33.222  15.611  -4.204  1.00 20.00     0.144 C 
ENDROOT
BRANCH   1   2
HETATM    2  C2  UNL     1     -33.610  16.422  -2.999  1.00 20.00     0.000 C 
HETATM    3  C1  UNL     1     -34.386  15.957  -2.008  1.00 20.00    -0.033 C 
HETATM    4  C3  UNL     1     -34.769  16.758  -0.808  1.00 20.00     0.036 C 
ENDBRANCH   1   2
BRANCH   1   5
HETATM    5  C7  UNL     1     -34.393  14.874  -4.895  1.00 20.00     0.010 C 
HETATM    6  C4  UNL     1     -34.404  13.365  -4.626  1.00 20.00     0.012 C 
HETATM    7  C5  UNL     1     -34.427  15.142  -6.401  1.00 20.00     0.012 C 
ENDBRANCH   1   5
BRANCH   1   8
HETATM    8  O8  UNL     1     -32.246  14.657  -3.780  1.00 20.00    -0.391 OA
HETATM    9  H22 UNL     1     -32.372  14.545  -2.826  1.00 20.00     0.210 HD
ENDBRANCH   1   8
TORSDOF 3
ENDMDL
MODEL 4
REMARK VINA RESULT:      -4.0      1.941      3.186
REMARK  3 active torsions:
REMARK  status: ('A' for Active; 'I' for Inactive)
REMARK    1  A    between atoms: C2_2  and  C6_6 
REMARK    2  A    between atoms: C6_6  and  C7_7 
REMARK    3  A    between atoms: C6_6  and  O8_8 
ROOT
HETATM    1  C6  UNL     1     -34.442   4.602   5.164  1.00 20.00     0.144 C 
ENDROOT
BRANCH   1   2
HETATM    2  C2  UNL     1     -34.519   5.687   6.204  1.00 20.00     0.000 C 
HETATM    3  C1  UNL     1     -33.602   6.656   6.336  1.00 20.00    -0.033 C 
HETATM    4  C3  UNL     1     -33.678   7.736   7.364  1.00 20.00     0.036 C 
ENDBRANCH   1   2
BRANCH   1   5
HETATM    5  C7  UNL     1     -34.622   5.086   3.707  1.00 20.00     0.010 C 
HETATM    6  C4  UNL     1     -33.432   5.898   3.184  1.00 20.00     0.012 C 
HETATM    7  C5  UNL     1     -35.921   5.877   3.526  1.00 20.00     0.012 C 
ENDBRANCH   1   5
BRANCH   1   8
HETATM    8  O8  UNL     1     -35.456   3.643   5.473  1.00 20.00    -0.391 OA
HETATM    9  H22 UNL     1     -36.236   3.895   4.957  1.00 20.00     0.210 HD
ENDBRANCH   1   8
TORSDOF 3
ENDMDL
MODEL 5
REMARK VINA RESULT:      -4.0      1.475      1.962
REMARK  3 active torsions:
REMARK  status: ('A' for Active; 'I' for Inactive)
REMARK    1  A    between atoms: C2_2  and  C6_6 
REMARK    2  A    between atoms: C6_6  and  C7_7 
REMARK    3  A    between atoms: C6_6  and  O8_8 
ROOT
HETATM    1  C6  UNL     1     -32.547   6.576   3.749  1.00 20.00     0.144 C 
ENDROOT
BRANCH   1   2
HETATM    2  C2  UNL     1     -32.452   7.130   2.354  1.00 20.00     0.000 C 
HETATM    3  C1  UNL     1     -32.113   8.398   2.079  1.00 20.00    -0.033 C 
HETATM    4  C3  UNL     1     -32.014   8.949   0.695  1.00 20.00     0.036 C 
ENDBRANCH   1   2
BRANCH   1   5
HETATM    5  C7  UNL     1     -33.989   6.416   4.287  1.00 20.00     0.010 C 
HETATM    6  C4  UNL     1     -34.049   6.163   5.797  1.00 20.00     0.012 C 
HETATM    7  C5  UNL     1     -34.759   5.327   3.537  1.00 20.00     0.012 C 
ENDBRANCH   1   5
BRANCH   1   8
HETATM    8  O8  UNL     1     -31.817   7.455   4.607  1.00 20.00    -0.391 OA
HETATM    9  H22 UNL     1     -32.101   7.253   5.511  1.00 20.00     0.210 HD
ENDBRANCH   1   8
TORSDOF 3
ENDMDL
MODEL 6
REMARK VINA RESULT:      -4.0     11.821     12.766
REMARK  3 active torsions:
REMARK  status: ('A' for Active; 'I' for Inactive)
REMARK    1  A    between atoms: C2_2  and  C6_6 
REMARK    2  A    between atoms: C6_6  and  C7_7 
REMARK    3  A    between atoms: C6_6  and  O8_8 
ROOT
HETATM    1  C6  UNL     1     -34.713  13.902  -4.507  1.00 20.00     0.144 C 
ENDROOT
BRANCH   1   2
HETATM    2  C2  UNL     1     -35.096  14.749  -3.324  1.00 20.00     0.000 C 
HETATM    3  C1  UNL     1     -34.246  15.572  -2.692  1.00 20.00    -0.033 C 
HETATM    4  C3  UNL     1     -34.624  16.416  -1.521  1.00 20.00     0.036 C 
ENDBRANCH   1   2
BRANCH   1   5
HETATM    5  C7  UNL     1     -35.324  14.355  -5.854  1.00 20.00     0.010 C 
HETATM    6  C4  UNL     1     -34.344  15.141  -6.732  1.00 20.00     0.012 C 
HETATM    7  C5  UNL     1     -36.613  15.156  -5.654  1.00 20.00     0.012 C 
ENDBRANCH   1   5
BRANCH   1   8
HETATM    8  O8  UNL     1     -35.128  12.564  -4.225  1.00 20.00    -0.391 OA
HETATM    9  H22 UNL     1     -35.316  12.151  -5.081  1.00 20.00     0.210 HD
ENDBRANCH   1   8
TORSDOF 3
ENDMDL
MODEL 7
REMARK VINA RESULT:      -3.9     11.553     12.791
REMARK  3 active torsions:
REMARK  status: ('A' for Active; 'I' for Inactive)
REMARK    1  A    between atoms: C2_2  and  C6_6 
REMARK    2  A    between atoms: C6_6  and  C7_7 
REMARK    3  A    between atoms: C6_6  and  O8_8 
ROOT
HETATM    1  C6  UNL     1     -35.178  13.938  -4.267  1.00 20.00     0.144 C 
ENDROOT
BRANCH   1   2
HETATM    2  C2  UNL     1     -34.752  14.236  -5.678  1.00 20.00     0.000 C 
HETATM    3  C1  UNL     1     -35.448  15.018  -6.516  1.00 20.00    -0.033 C 
HETATM    4  C3  UNL     1     -35.025  15.320  -7.915  1.00 20.00     0.036 C 
ENDBRANCH   1   2
BRANCH   1   5
HETATM    5  C7  UNL     1     -34.286  14.568  -3.172  1.00 20.00     0.010 C 
HETATM    6  C4  UNL     1     -34.925  15.786  -2.494  1.00 20.00     0.012 C 
HETATM    7  C5  UNL     1     -32.898  14.929  -3.707  1.00 20.00     0.012 C 
ENDBRANCH   1   5
BRANCH   1   8
HETATM    8  O8  UNL     1     -35.181  12.517  -4.114  1.00 20.00    -0.391 OA
HETATM    9  H22 UNL     1     -36.072  12.219  -4.350  1.00 20.00     0.210 HD
ENDBRANCH   1   8
TORSDOF 3
ENDMDL
MODEL 8
REMARK VINA RESULT:      -3.8     11.559     12.196
REMARK  3 active torsions:
REMARK  status: ('A' for Active; 'I' for Inactive)
REMARK    1  A    between atoms: C2_2  and  C6_6 
REMARK    2  A    between atoms: C6_6  and  C7_7 
REMARK    3  A    between atoms: C6_6  and  O8_8 
ROOT
HETATM    1  C6  UNL     1     -35.009  15.402  -2.392  1.00 20.00     0.144 C 
ENDROOT
BRANCH   1   2
HETATM    2  C2  UNL     1     -34.317  16.558  -1.724  1.00 20.00     0.000 C 
HETATM    3  C1  UNL     1     -34.559  16.942  -0.462  1.00 20.00    -0.033 C 
HETATM    4  C3  UNL     1     -33.871  18.086   0.205  1.00 20.00     0.036 C 
ENDBRANCH   1   2
BRANCH   1   5
HETATM    5  C7  UNL     1     -34.322  14.891  -3.680  1.00 20.00     0.010 C 
HETATM    6  C4  UNL     1     -34.708  13.454  -4.046  1.00 20.00     0.012 C 
HETATM    7  C5  UNL     1     -32.799  15.027  -3.605  1.00 20.00     0.012 C 
ENDBRANCH   1   5
BRANCH   1   8
HETATM    8  O8  UNL     1     -36.339  15.823  -2.701  1.00 20.00    -0.391 OA
HETATM    9  H22 UNL     1     -36.414  15.806  -3.666  1.00 20.00     0.210 HD
ENDBRANCH   1   8
TORSDOF 3
ENDMDL
MODEL 9
REMARK VINA RESULT:      -3.7      9.486     10.926
REMARK  3 active torsions:
REMARK  status: ('A' for Active; 'I' for Inactive)
REMARK    1  A    between atoms: C2_2  and  C6_6 
REMARK    2  A    between atoms: C6_6  and  C7_7 
REMARK    3  A    between atoms: C6_6  and  O8_8 
ROOT
HETATM    1  C6  UNL     1     -41.484   4.464  -1.479  1.00 20.00     0.144 C 
ENDROOT
BRANCH   1   2
HETATM    2  C2  UNL     1     -42.103   3.485  -2.439  1.00 20.00     0.000 C 
HETATM    3  C1  UNL     1     -41.397   2.604  -3.162  1.00 20.00    -0.033 C 
HETATM    4  C3  UNL     1     -42.008   1.628  -4.112  1.00 20.00     0.036 C 
ENDBRANCH   1   2
BRANCH   1   5
HETATM    5  C7  UNL     1     -41.516   5.939  -1.946  1.00 20.00     0.010 C 
HETATM    6  C4  UNL     1     -41.357   6.943  -0.799  1.00 20.00     0.012 C 
HETATM    7  C5  UNL     1     -42.779   6.254  -2.752  1.00 20.00     0.012 C 
ENDBRANCH   1   5
BRANCH   1   8
HETATM    8  O8  UNL     1     -40.128   4.061  -1.276  1.00 20.00    -0.391 OA
HETATM    9  H22 UNL     1     -40.152   3.344  -0.626  1.00 20.00     0.210 HD
ENDBRANCH   1   8
TORSDOF 3
ENDMDL
