MODEL 1
REMARK VINA RESULT:      -4.3      0.000      0.000
REMARK  0 active torsions:
REMARK  status: ('A' for Active; 'I' for Inactive)
ROOT
HETATM    1  C1  UNL     1     -33.795   6.654   5.542  1.00 20.00     0.066 C 
HETATM    2  C2  UNL     1     -34.880   5.403   3.636  1.00 20.00     0.066 C 
HETATM    3  C3  UNL     1     -34.157   5.465   6.427  1.00 20.00     0.170 C 
HETATM    4  C4  UNL     1     -35.176   4.290   4.637  1.00 20.00     0.170 C 
HETATM    5  C5  UNL     1     -32.366   6.094   3.424  1.00 20.00     0.207 A 
HETATM    6  C6  UNL     1     -33.702   6.194   4.120  1.00 20.00     0.086 A 
HETATM    7  O7  UNL     1     -35.352   4.833   5.950  1.00 20.00    -0.391 OA
HETATM    8  O8  UNL     1     -33.253   7.201   3.203  1.00 20.00    -0.375 OA
ENDROOT
TORSDOF 0
ENDMDL
MODEL 2
REMARK VINA RESULT:      -4.0     11.978     13.315
REMARK  0 active torsions:
REMARK  status: ('A' for Active; 'I' for Inactive)
ROOT
HETATM    1  C1  UNL     1     -33.307  14.338  -3.796  1.00 20.00     0.066 C 
HETATM    2  C2  UNL     1     -34.317  14.726  -6.078  1.00 20.00     0.066 C 
HETATM    3  C3  UNL     1     -33.072  15.845  -3.729  1.00 20.00     0.170 C 
HETATM    4  C4  UNL     1     -34.021  16.209  -5.872  1.00 20.00     0.170 C 
HETATM    5  C5  UNL     1     -35.779  13.597  -4.225  1.00 20.00     0.207 A 
HETATM    6  C6  UNL     1     -34.437  14.062  -4.740  1.00 20.00     0.086 A 
HETATM    7  O7  UNL     1     -32.865  16.377  -5.043  1.00 20.00    -0.391 OA
HETATM    8  O8  UNL     1     -34.830  12.684  -4.799  1.00 20.00    -0.375 OA
ENDROOT
TORSDOF 0
ENDMDL
MODEL 3
REMARK VINA RESULT:      -3.8     11.835     12.448
REMARK  0 active torsions:
REMARK  status: ('A' for Active; 'I' for Inactive)
ROOT
HETATM    1  C1  UNL     1     -33.527  13.956  -3.769  1.00 20.00     0.066 C 
HETATM    2  C2  UNL     1     -35.645  15.167  -3.120  1.00 20.00     0.066 C 
HETATM    3  C3  UNL     1     -34.368  13.189  -4.785  1.00 20.00     0.170 C 
HETATM    4  C4  UNL     1     -36.358  14.327  -4.176  1.00 20.00     0.170 C 
HETATM    5  C5  UNL     1     -33.603  16.563  -3.973  1.00 20.00     0.207 A 
HETATM    6  C6  UNL     1     -34.192  15.265  -3.473  1.00 20.00     0.086 A 
HETATM    7  O7  UNL     1     -35.716  13.055  -4.319  1.00 20.00    -0.391 OA
HETATM    8  O8  UNL     1     -33.435  16.129  -2.615  1.00 20.00    -0.375 OA
ENDROOT
TORSDOF 0
ENDMDL
MODEL 4
REMARK VINA RESULT:      -3.8     11.704     12.525
REMARK  0 active torsions:
REMARK  status: ('A' for Active; 'I' for Inactive)
ROOT
HETATM    1  C1  UNL     1     -35.540  14.867  -3.415  1.00 20.00     0.066 C 
HETATM    2  C2  UNL     1     -33.221  13.899  -3.667  1.00 20.00     0.066 C 
HETATM    3  C3  UNL     1     -34.876  16.238  -3.341  1.00 20.00     0.170 C 
HETATM    4  C4  UNL     1     -32.698  15.330  -3.578  1.00 20.00     0.170 C 
HETATM    5  C5  UNL     1     -34.985  13.455  -5.547  1.00 20.00     0.207 A 
HETATM    6  C6  UNL     1     -34.638  13.927  -4.155  1.00 20.00     0.086 A 
HETATM    7  O7  UNL     1     -33.567  16.131  -2.768  1.00 20.00    -0.391 OA
HETATM    8  O8  UNL     1     -35.204  12.631  -4.391  1.00 20.00    -0.375 OA
ENDROOT
TORSDOF 0
ENDMDL
MODEL 5
REMARK VINA RESULT:      -3.7     12.029     13.278
REMARK  0 active torsions:
REMARK  status: ('A' for Active; 'I' for Inactive)
ROOT
HETATM    1  C1  UNL     1     -34.269  14.913  -6.082  1.00 20.00     0.066 C 
HETATM    2  C2  UNL     1     -33.212  14.655  -3.803  1.00 20.00     0.066 C 
HETATM    3  C3  UNL     1     -35.213  13.781  -5.688  1.00 20.00     0.170 C 
HETATM    4  C4  UNL     1     -34.220  13.538  -3.547  1.00 20.00     0.170 C 
HETATM    5  C5  UNL     1     -34.234  16.970  -4.466  1.00 20.00     0.207 A 
HETATM    6  C6  UNL     1     -33.766  15.584  -4.840  1.00 20.00     0.086 A 
HETATM    7  O7  UNL     1     -34.566  12.886  -4.775  1.00 20.00    -0.391 OA
HETATM    8  O8  UNL     1     -32.958  16.743  -5.084  1.00 20.00    -0.375 OA
ENDROOT
TORSDOF 0
ENDMDL
MODEL 6
REMARK VINA RESULT:      -3.6      0.931      3.356
REMARK  0 active torsions:
REMARK  status: ('A' for Active; 'I' for Inactive)
ROOT
HETATM    1  C1  UNL     1     -35.275   5.266   3.857  1.00 20.00     0.066 C 
HETATM    2  C2  UNL     1     -33.636   6.465   5.358  1.00 20.00     0.066 C 
HETATM    3  C3  UNL     1     -34.245   5.418   2.741  1.00 20.00     0.170 C 
HETATM    4  C4  UNL     1     -32.706   6.544   4.151  1.00 20.00     0.170 C 
HETATM    5  C5  UNL     1     -34.429   4.062   6.020  1.00 20.00     0.207 A 
HETATM    6  C6  UNL     1     -34.571   5.308   5.179  1.00 20.00     0.086 A 
HETATM    7  O7  UNL     1     -33.466   6.604   2.938  1.00 20.00    -0.391 OA
HETATM    8  O8  UNL     1     -35.421   5.059   6.306  1.00 20.00    -0.375 OA
ENDROOT
TORSDOF 0
ENDMDL
MODEL 7
REMARK VINA RESULT:      -3.6     11.975     12.586
REMARK  0 active torsions:
REMARK  status: ('A' for Active; 'I' for Inactive)
ROOT
HETATM    1  C1  UNL     1     -34.172  15.383  -2.923  1.00 20.00     0.066 C 
HETATM    2  C2  UNL     1     -35.757  13.839  -4.140  1.00 20.00     0.066 C 
HETATM    3  C3  UNL     1     -33.039  14.670  -3.655  1.00 20.00     0.170 C 
HETATM    4  C4  UNL     1     -34.527  13.220  -4.798  1.00 20.00     0.170 C 
HETATM    5  C5  UNL     1     -36.026  16.423  -4.448  1.00 20.00     0.207 A 
HETATM    6  C6  UNL     1     -35.433  15.240  -3.719  1.00 20.00     0.086 A 
HETATM    7  O7  UNL     1     -33.395  13.309  -3.924  1.00 20.00    -0.391 OA
HETATM    8  O8  UNL     1     -36.549  15.969  -3.190  1.00 20.00    -0.375 OA
ENDROOT
TORSDOF 0
ENDMDL
MODEL 8
REMARK VINA RESULT:      -3.5     12.260     13.470
REMARK  0 active torsions:
REMARK  status: ('A' for Active; 'I' for Inactive)
ROOT
HETATM    1  C1  UNL     1     -34.917  14.398  -6.085  1.00 20.00     0.066 C 
HETATM    2  C2  UNL     1     -36.597  14.515  -4.204  1.00 20.00     0.066 C 
HETATM    3  C3  UNL     1     -35.127  15.899  -6.263  1.00 20.00     0.170 C 
HETATM    4  C4  UNL     1     -36.705  16.009  -4.496  1.00 20.00     0.170 C 
HETATM    5  C5  UNL     1     -34.188  13.633  -3.692  1.00 20.00     0.207 A 
HETATM    6  C6  UNL     1     -35.265  14.020  -4.678  1.00 20.00     0.086 A 
HETATM    7  O7  UNL     1     -36.459  16.266  -5.883  1.00 20.00    -0.391 OA
HETATM    8  O8  UNL     1     -34.997  12.649  -4.354  1.00 20.00    -0.375 OA
ENDROOT
TORSDOF 0
ENDMDL
MODEL 9
REMARK VINA RESULT:      -3.4      9.617     10.671
REMARK  0 active torsions:
REMARK  status: ('A' for Active; 'I' for Inactive)
ROOT
HETATM    1  C1  UNL     1     -41.778   6.700  -2.302  1.00 20.00     0.066 C 
HETATM    2  C2  UNL     1     -41.792   4.177  -2.198  1.00 20.00     0.066 C 
HETATM    3  C3  UNL     1     -43.166   6.605  -2.927  1.00 20.00     0.170 C 
HETATM    4  C4  UNL     1     -43.179   4.235  -2.830  1.00 20.00     0.170 C 
HETATM    5  C5  UNL     1     -41.502   5.530   0.022  1.00 20.00     0.207 A 
HETATM    6  C6  UNL     1     -41.524   5.469  -1.487  1.00 20.00     0.086 A 
HETATM    7  O7  UNL     1     -43.297   5.388  -3.672  1.00 20.00    -0.391 OA
HETATM    8  O8  UNL     1     -40.294   5.493  -0.752  1.00 20.00    -0.375 OA
ENDROOT
TORSDOF 0
ENDMDL
