MODEL 1
REMARK VINA RESULT:      -4.9      0.000      0.000
REMARK  2 active torsions:
REMARK  status: ('A' for Active; 'I' for Inactive)
REMARK    1  A    between atoms: C2_2  and  C5_5 
REMARK    2  A    between atoms: C3_3  and  C5_5 
ROOT
HETATM    1  C5  UNL     1     -34.966   5.344   3.882  1.00 20.00     0.123 C 
ENDROOT
BRANCH   1   2
HETATM    2  C2  UNL     1     -33.974   6.461   3.786  1.00 20.00    -0.022 C 
HETATM    3  C1  UNL     1     -32.785   6.351   3.175  1.00 20.00    -0.034 C 
HETATM    4  C4  UNL     1     -31.792   7.461   3.082  1.00 20.00     0.036 C 
ENDBRANCH   1   2
BRANCH   1   5
HETATM    5  C3  UNL     1     -34.903   4.677   5.247  1.00 20.00     0.222 C 
HETATM    6  O6  UNL     1     -35.107   3.479   5.425  1.00 20.00    -0.280 OA
HETATM    7 CL7  UNL     1     -34.480   5.820   6.494  1.00 20.00    -0.043 Cl
ENDBRANCH   1   5
TORSDOF 2
ENDMDL
MODEL 2
REMARK VINA RESULT:      -4.3      3.215      4.305
REMARK  2 active torsions:
REMARK  status: ('A' for Active; 'I' for Inactive)
REMARK    1  A    between atoms: C2_2  and  C5_5 
REMARK    2  A    between atoms: C3_3  and  C5_5 
ROOT
HETATM    1  C5  UNL     1     -33.124   6.346   2.973  1.00 20.00     0.123 C 
ENDROOT
BRANCH   1   2
HETATM    2  C2  UNL     1     -33.582   5.977   4.350  1.00 20.00    -0.022 C 
HETATM    3  C1  UNL     1     -34.612   5.154   4.598  1.00 20.00    -0.034 C 
HETATM    4  C4  UNL     1     -35.072   4.789   5.970  1.00 20.00     0.036 C 
ENDBRANCH   1   2
BRANCH   1   5
HETATM    5  C3  UNL     1     -32.058   7.430   3.027  1.00 20.00     0.222 C 
HETATM    6  O6  UNL     1     -31.296   7.581   3.977  1.00 20.00    -0.280 OA
HETATM    7 CL7  UNL     1     -32.052   8.387   1.570  1.00 20.00    -0.043 Cl
ENDBRANCH   1   5
TORSDOF 2
ENDMDL
MODEL 3
REMARK VINA RESULT:      -4.2      1.505      1.927
REMARK  2 active torsions:
REMARK  status: ('A' for Active; 'I' for Inactive)
REMARK    1  A    between atoms: C2_2  and  C5_5 
REMARK    2  A    between atoms: C3_3  and  C5_5 
ROOT
HETATM    1  C5  UNL     1     -33.030   6.394   4.306  1.00 20.00     0.123 C 
ENDROOT
BRANCH   1   2
HETATM    2  C2  UNL     1     -32.708   6.812   2.905  1.00 20.00    -0.022 C 
HETATM    3  C1  UNL     1     -32.150   7.990   2.588  1.00 20.00    -0.034 C 
HETATM    4  C4  UNL     1     -31.833   8.410   1.191  1.00 20.00     0.036 C 
ENDBRANCH   1   2
BRANCH   1   5
HETATM    5  C3  UNL     1     -34.326   5.600   4.352  1.00 20.00     0.222 C 
HETATM    6  O6  UNL     1     -34.992   5.334   3.356  1.00 20.00    -0.280 OA
HETATM    7 CL7  UNL     1     -34.709   5.105   5.979  1.00 20.00    -0.043 Cl
ENDBRANCH   1   5
TORSDOF 2
ENDMDL
MODEL 4
REMARK VINA RESULT:      -4.0      3.125      4.208
REMARK  2 active torsions:
REMARK  status: ('A' for Active; 'I' for Inactive)
REMARK    1  A    between atoms: C2_2  and  C5_5 
REMARK    2  A    between atoms: C3_3  and  C5_5 
ROOT
HETATM    1  C5  UNL     1     -33.074   6.335   2.909  1.00 20.00     0.123 C 
ENDROOT
BRANCH   1   2
HETATM    2  C2  UNL     1     -33.506   6.197   4.336  1.00 20.00    -0.022 C 
HETATM    3  C1  UNL     1     -34.405   5.296   4.759  1.00 20.00    -0.034 C 
HETATM    4  C4  UNL     1     -34.841   5.161   6.180  1.00 20.00     0.036 C 
ENDBRANCH   1   2
BRANCH   1   5
HETATM    5  C3  UNL     1     -32.138   7.521   2.736  1.00 20.00     0.222 C 
HETATM    6  O6  UNL     1     -32.102   8.211   1.721  1.00 20.00    -0.280 OA
HETATM    7 CL7  UNL     1     -31.167   7.776   4.161  1.00 20.00    -0.043 Cl
ENDBRANCH   1   5
TORSDOF 2
ENDMDL
MODEL 5
REMARK VINA RESULT:      -4.0      2.628      3.046
REMARK  2 active torsions:
REMARK  status: ('A' for Active; 'I' for Inactive)
REMARK    1  A    between atoms: C2_2  and  C5_5 
REMARK    2  A    between atoms: C3_3  and  C5_5 
ROOT
HETATM    1  C5  UNL     1     -34.915   4.494   5.167  1.00 20.00     0.123 C 
ENDROOT
BRANCH   1   2
HETATM    2  C2  UNL     1     -34.555   5.444   6.267  1.00 20.00    -0.022 C 
HETATM    3  C1  UNL     1     -33.823   6.553   6.083  1.00 20.00    -0.034 C 
HETATM    4  C4  UNL     1     -33.459   7.499   7.179  1.00 20.00     0.036 C 
ENDBRANCH   1   2
BRANCH   1   5
HETATM    5  C3  UNL     1     -35.216   5.244   3.878  1.00 20.00     0.222 C 
HETATM    6  O6  UNL     1     -36.316   5.721   3.614  1.00 20.00    -0.280 OA
HETATM    7 CL7  UNL     1     -33.803   5.353   2.863  1.00 20.00    -0.043 Cl
ENDBRANCH   1   5
TORSDOF 2
ENDMDL
MODEL 6
REMARK VINA RESULT:      -3.9     11.645     12.124
REMARK  2 active torsions:
REMARK  status: ('A' for Active; 'I' for Inactive)
REMARK    1  A    between atoms: C2_2  and  C5_5 
REMARK    2  A    between atoms: C3_3  and  C5_5 
ROOT
HETATM    1  C5  UNL     1     -35.350  14.780  -3.384  1.00 20.00     0.123 C 
ENDROOT
BRANCH   1   2
HETATM    2  C2  UNL     1     -34.464  15.809  -2.754  1.00 20.00    -0.022 C 
HETATM    3  C1  UNL     1     -34.696  16.358  -1.552  1.00 20.00    -0.034 C 
HETATM    4  C4  UNL     1     -33.816  17.387  -0.924  1.00 20.00     0.036 C 
ENDBRANCH   1   2
BRANCH   1   5
HETATM    5  C3  UNL     1     -34.537  13.594  -3.881  1.00 20.00     0.222 C 
HETATM    6  O6  UNL     1     -35.033  12.627  -4.453  1.00 20.00    -0.280 OA
HETATM    7 CL7  UNL     1     -32.837  13.810  -3.560  1.00 20.00    -0.043 Cl
ENDBRANCH   1   5
TORSDOF 2
ENDMDL
MODEL 7
REMARK VINA RESULT:      -3.8      3.803      4.895
REMARK  2 active torsions:
REMARK  status: ('A' for Active; 'I' for Inactive)
REMARK    1  A    between atoms: C2_2  and  C5_5 
REMARK    2  A    between atoms: C3_3  and  C5_5 
ROOT
HETATM    1  C5  UNL     1     -31.850   7.646   2.956  1.00 20.00     0.123 C 
ENDROOT
BRANCH   1   2
HETATM    2  C2  UNL     1     -32.891   6.570   2.943  1.00 20.00    -0.022 C 
HETATM    3  C1  UNL     1     -33.806   6.406   3.910  1.00 20.00    -0.034 C 
HETATM    4  C4  UNL     1     -34.841   5.331   3.901  1.00 20.00     0.036 C 
ENDBRANCH   1   2
BRANCH   1   5
HETATM    5  C3  UNL     1     -31.970   8.534   1.727  1.00 20.00     0.222 C 
HETATM    6  O6  UNL     1     -31.532   8.223   0.623  1.00 20.00    -0.280 OA
HETATM    7 CL7  UNL     1     -32.825  10.009   2.090  1.00 20.00    -0.043 Cl
ENDBRANCH   1   5
TORSDOF 2
ENDMDL
MODEL 8
REMARK VINA RESULT:      -3.8     11.843     12.307
REMARK  2 active torsions:
REMARK  status: ('A' for Active; 'I' for Inactive)
REMARK    1  A    between atoms: C2_2  and  C5_5 
REMARK    2  A    between atoms: C3_3  and  C5_5 
ROOT
HETATM    1  C5  UNL     1     -33.675  15.457  -4.013  1.00 20.00     0.123 C 
ENDROOT
BRANCH   1   2
HETATM    2  C2  UNL     1     -33.640  16.096  -2.659  1.00 20.00    -0.022 C 
HETATM    3  C1  UNL     1     -34.699  16.165  -1.840  1.00 20.00    -0.034 C 
HETATM    4  C4  UNL     1     -34.667  16.805  -0.492  1.00 20.00     0.036 C 
ENDBRANCH   1   2
BRANCH   1   5
HETATM    5  C3  UNL     1     -33.899  13.957  -3.900  1.00 20.00     0.222 C 
HETATM    6  O6  UNL     1     -33.014  13.163  -3.592  1.00 20.00    -0.280 OA
HETATM    7 CL7  UNL     1     -35.557  13.535  -4.236  1.00 20.00    -0.043 Cl
ENDBRANCH   1   5
TORSDOF 2
ENDMDL
MODEL 9
REMARK VINA RESULT:      -3.8     12.409     12.625
REMARK  2 active torsions:
REMARK  status: ('A' for Active; 'I' for Inactive)
REMARK    1  A    between atoms: C2_2  and  C5_5 
REMARK    2  A    between atoms: C3_3  and  C5_5 
ROOT
HETATM    1  C5  UNL     1     -33.720  14.670  -4.134  1.00 20.00     0.123 C 
ENDROOT
BRANCH   1   2
HETATM    2  C2  UNL     1     -34.396  15.151  -2.888  1.00 20.00    -0.022 C 
HETATM    3  C1  UNL     1     -34.001  16.229  -2.195  1.00 20.00    -0.034 C 
HETATM    4  C4  UNL     1     -34.671  16.708  -0.950  1.00 20.00     0.036 C 
ENDBRANCH   1   2
BRANCH   1   5
HETATM    5  C3  UNL     1     -34.605  13.690  -4.889  1.00 20.00     0.222 C 
HETATM    6  O6  UNL     1     -35.004  12.632  -4.410  1.00 20.00    -0.280 OA
HETATM    7 CL7  UNL     1     -34.990  14.279  -6.484  1.00 20.00    -0.043 Cl
ENDBRANCH   1   5
TORSDOF 2
ENDMDL
