MODEL 1
REMARK VINA RESULT:      -4.4      0.000      0.000
REMARK  3 active torsions:
REMARK  status: ('A' for Active; 'I' for Inactive)
REMARK    1  A    between atoms: C1_1  and  C2_2 
REMARK    2  A    between atoms: C1_1  and  C3_3 
REMARK    3  A    between atoms: C2_2  and  S8_8 
ROOT
HETATM    1  C1  UNL     1     -34.240   5.826   5.353  1.00 20.00     0.241 C 
HETATM    2  O4  UNL     1     -33.932   6.610   6.249  1.00 20.00    -0.287 OA
ENDROOT
BRANCH   1   3
HETATM    3  C2  UNL     1     -34.165   6.158   3.878  1.00 20.00     0.158 C 
BRANCH   3   4
HETATM    4  S8  UNL     1     -32.470   6.484   3.343  1.00 20.00    -0.174 SA
HETATM    5  H11 UNL     1     -32.012   5.238   3.530  1.00 20.00     0.102 HD
ENDBRANCH   3   4
ENDBRANCH   1   3
BRANCH   1   6
HETATM    6  C3  UNL     1     -34.728   4.444   5.686  1.00 20.00     0.451 C 
HETATM    7  F5  UNL     1     -35.257   3.822   4.603  1.00 20.00    -0.163 F 
HETATM    8  F6  UNL     1     -33.724   3.654   6.146  1.00 20.00    -0.163 F 
HETATM    9  F7  UNL     1     -35.689   4.455   6.643  1.00 20.00    -0.163 F 
ENDBRANCH   1   6
TORSDOF 3
ENDMDL
MODEL 2
REMARK VINA RESULT:      -4.4      0.009      1.335
REMARK  3 active torsions:
REMARK  status: ('A' for Active; 'I' for Inactive)
REMARK    1  A    between atoms: C1_1  and  C2_2 
REMARK    2  A    between atoms: C1_1  and  C3_3 
REMARK    3  A    between atoms: C2_2  and  S8_8 
ROOT
HETATM    1  C1  UNL     1     -34.235   5.828   5.355  1.00 20.00     0.241 C 
HETATM    2  O4  UNL     1     -33.929   6.609   6.254  1.00 20.00    -0.287 OA
ENDROOT
BRANCH   1   3
HETATM    3  C2  UNL     1     -34.160   6.166   3.881  1.00 20.00     0.158 C 
BRANCH   3   4
HETATM    4  S8  UNL     1     -32.465   6.486   3.345  1.00 20.00    -0.174 SA
HETATM    5  H11 UNL     1     -32.751   7.532   2.557  1.00 20.00     0.102 HD
ENDBRANCH   3   4
ENDBRANCH   1   3
BRANCH   1   6
HETATM    6  C3  UNL     1     -34.719   4.443   5.682  1.00 20.00     0.451 C 
HETATM    7  F5  UNL     1     -33.715   3.654   6.142  1.00 20.00    -0.163 F 
HETATM    8  F6  UNL     1     -35.680   4.459   6.640  1.00 20.00    -0.163 F 
HETATM    9  F7  UNL     1     -35.249   3.816   4.603  1.00 20.00    -0.163 F 
ENDBRANCH   1   6
TORSDOF 3
ENDMDL
MODEL 3
REMARK VINA RESULT:      -4.4      0.009      1.335
REMARK  3 active torsions:
REMARK  status: ('A' for Active; 'I' for Inactive)
REMARK    1  A    between atoms: C1_1  and  C2_2 
REMARK    2  A    between atoms: C1_1  and  C3_3 
REMARK    3  A    between atoms: C2_2  and  S8_8 
ROOT
HETATM    1  C1  UNL     1     -34.234   5.825   5.355  1.00 20.00     0.241 C 
HETATM    2  O4  UNL     1     -33.929   6.606   6.254  1.00 20.00    -0.287 OA
ENDROOT
BRANCH   1   3
HETATM    3  C2  UNL     1     -34.161   6.162   3.881  1.00 20.00     0.158 C 
BRANCH   3   4
HETATM    4  S8  UNL     1     -32.465   6.484   3.345  1.00 20.00    -0.174 SA
HETATM    5  H11 UNL     1     -32.055   7.061   4.483  1.00 20.00     0.102 HD
ENDBRANCH   3   4
ENDBRANCH   1   3
BRANCH   1   6
HETATM    6  C3  UNL     1     -34.717   4.439   5.684  1.00 20.00     0.451 C 
HETATM    7  F5  UNL     1     -35.679   4.454   6.641  1.00 20.00    -0.163 F 
HETATM    8  F6  UNL     1     -35.247   3.820   4.599  1.00 20.00    -0.163 F 
HETATM    9  F7  UNL     1     -33.718   3.643   6.142  1.00 20.00    -0.163 F 
ENDBRANCH   1   6
TORSDOF 3
ENDMDL
MODEL 4
REMARK VINA RESULT:      -4.1      1.771      1.976
REMARK  3 active torsions:
REMARK  status: ('A' for Active; 'I' for Inactive)
REMARK    1  A    between atoms: C1_1  and  C2_2 
REMARK    2  A    between atoms: C1_1  and  C3_3 
REMARK    3  A    between atoms: C2_2  and  S8_8 
ROOT
HETATM    1  C1  UNL     1     -34.843   4.816   4.831  1.00 20.00     0.241 C 
HETATM    2  O4  UNL     1     -35.140   3.657   4.549  1.00 20.00    -0.287 OA
ENDROOT
BRANCH   1   3
HETATM    3  C2  UNL     1     -34.645   5.911   3.805  1.00 20.00     0.158 C 
BRANCH   3   4
HETATM    4  S8  UNL     1     -32.898   6.169   3.418  1.00 20.00    -0.174 SA
HETATM    5  H11 UNL     1     -32.664   4.934   2.953  1.00 20.00     0.102 HD
ENDBRANCH   3   4
ENDBRANCH   1   3
BRANCH   1   6
HETATM    6  C3  UNL     1     -34.652   5.225   6.266  1.00 20.00     0.451 C 
HETATM    7  F5  UNL     1     -35.776   5.030   6.999  1.00 20.00    -0.163 F 
HETATM    8  F6  UNL     1     -33.661   4.515   6.863  1.00 20.00    -0.163 F 
HETATM    9  F7  UNL     1     -34.324   6.535   6.387  1.00 20.00    -0.163 F 
ENDBRANCH   1   6
TORSDOF 3
ENDMDL
MODEL 5
REMARK VINA RESULT:      -3.9      1.706      2.347
REMARK  3 active torsions:
REMARK  status: ('A' for Active; 'I' for Inactive)
REMARK    1  A    between atoms: C1_1  and  C2_2 
REMARK    2  A    between atoms: C1_1  and  C3_3 
REMARK    3  A    between atoms: C2_2  and  S8_8 
ROOT
HETATM    1  C1  UNL     1     -33.600   6.091   4.196  1.00 20.00     0.241 C 
HETATM    2  O4  UNL     1     -33.766   6.588   5.308  1.00 20.00    -0.287 OA
ENDROOT
BRANCH   1   3
HETATM    3  C2  UNL     1     -32.323   6.221   3.394  1.00 20.00     0.158 C 
BRANCH   3   4
HETATM    4  S8  UNL     1     -32.212   7.815   2.551  1.00 20.00    -0.174 SA
HETATM    5  H11 UNL     1     -33.511   7.908   2.235  1.00 20.00     0.102 HD
ENDBRANCH   3   4
ENDBRANCH   1   3
BRANCH   1   6
HETATM    6  C3  UNL     1     -34.700   5.297   3.546  1.00 20.00     0.451 C 
HETATM    7  F5  UNL     1     -35.858   6.001   3.481  1.00 20.00    -0.163 F 
HETATM    8  F6  UNL     1     -34.381   4.942   2.276  1.00 20.00    -0.163 F 
HETATM    9  F7  UNL     1     -34.973   4.151   4.219  1.00 20.00    -0.163 F 
ENDBRANCH   1   6
TORSDOF 3
ENDMDL
MODEL 6
REMARK VINA RESULT:      -3.9      3.470      3.955
REMARK  3 active torsions:
REMARK  status: ('A' for Active; 'I' for Inactive)
REMARK    1  A    between atoms: C1_1  and  C2_2 
REMARK    2  A    between atoms: C1_1  and  C3_3 
REMARK    3  A    between atoms: C2_2  and  S8_8 
ROOT
HETATM    1  C1  UNL     1     -33.863   5.954   3.827  1.00 20.00     0.241 C 
HETATM    2  O4  UNL     1     -34.651   5.426   3.045  1.00 20.00    -0.287 OA
ENDROOT
BRANCH   1   3
HETATM    3  C2  UNL     1     -34.101   6.067   5.317  1.00 20.00     0.158 C 
BRANCH   3   4
HETATM    4  S8  UNL     1     -34.871   4.580   5.995  1.00 20.00    -0.174 SA
HETATM    5  H11 UNL     1     -33.769   4.096   6.585  1.00 20.00     0.102 HD
ENDBRANCH   3   4
ENDBRANCH   1   3
BRANCH   1   6
HETATM    6  C3  UNL     1     -32.572   6.540   3.325  1.00 20.00     0.451 C 
HETATM    7  F5  UNL     1     -31.919   7.226   4.297  1.00 20.00    -0.163 F 
HETATM    8  F6  UNL     1     -31.724   5.580   2.879  1.00 20.00    -0.163 F 
HETATM    9  F7  UNL     1     -32.765   7.403   2.297  1.00 20.00    -0.163 F 
ENDBRANCH   1   6
TORSDOF 3
ENDMDL
MODEL 7
REMARK VINA RESULT:      -3.9      1.913      2.177
REMARK  3 active torsions:
REMARK  status: ('A' for Active; 'I' for Inactive)
REMARK    1  A    between atoms: C1_1  and  C2_2 
REMARK    2  A    between atoms: C1_1  and  C3_3 
REMARK    3  A    between atoms: C2_2  and  S8_8 
ROOT
HETATM    1  C1  UNL     1     -34.110   5.538   3.566  1.00 20.00     0.241 C 
HETATM    2  O4  UNL     1     -34.102   5.179   2.390  1.00 20.00    -0.287 OA
ENDROOT
BRANCH   1   3
HETATM    3  C2  UNL     1     -33.099   6.493   4.163  1.00 20.00     0.158 C 
BRANCH   3   4
HETATM    4  S8  UNL     1     -32.138   7.345   2.891  1.00 20.00    -0.174 SA
HETATM    5  H11 UNL     1     -31.189   7.817   3.712  1.00 20.00     0.102 HD
ENDBRANCH   3   4
ENDBRANCH   1   3
BRANCH   1   6
HETATM    6  C3  UNL     1     -35.163   5.029   4.510  1.00 20.00     0.451 C 
HETATM    7  F5  UNL     1     -35.106   3.681   4.649  1.00 20.00    -0.163 F 
HETATM    8  F6  UNL     1     -35.026   5.562   5.751  1.00 20.00    -0.163 F 
HETATM    9  F7  UNL     1     -36.418   5.329   4.090  1.00 20.00    -0.163 F 
ENDBRANCH   1   6
TORSDOF 3
ENDMDL
MODEL 8
REMARK VINA RESULT:      -3.8      3.088      3.605
REMARK  3 active torsions:
REMARK  status: ('A' for Active; 'I' for Inactive)
REMARK    1  A    between atoms: C1_1  and  C2_2 
REMARK    2  A    between atoms: C1_1  and  C3_3 
REMARK    3  A    between atoms: C2_2  and  S8_8 
ROOT
HETATM    1  C1  UNL     1     -33.775   6.151   4.479  1.00 20.00     0.241 C 
HETATM    2  O4  UNL     1     -33.429   6.793   5.469  1.00 20.00    -0.287 OA
ENDROOT
BRANCH   1   3
HETATM    3  C2  UNL     1     -34.982   5.238   4.444  1.00 20.00     0.158 C 
BRANCH   3   4
HETATM    4  S8  UNL     1     -35.014   4.103   5.850  1.00 20.00    -0.174 SA
HETATM    5  H11 UNL     1     -35.974   3.299   5.372  1.00 20.00     0.102 HD
ENDBRANCH   3   4
ENDBRANCH   1   3
BRANCH   1   6
HETATM    6  C3  UNL     1     -32.988   6.241   3.201  1.00 20.00     0.451 C 
HETATM    7  F5  UNL     1     -31.730   5.756   3.349  1.00 20.00    -0.163 F 
HETATM    8  F6  UNL     1     -33.570   5.533   2.201  1.00 20.00    -0.163 F 
HETATM    9  F7  UNL     1     -32.868   7.518   2.761  1.00 20.00    -0.163 F 
ENDBRANCH   1   6
TORSDOF 3
ENDMDL
MODEL 9
REMARK VINA RESULT:      -3.7     13.016     13.572
REMARK  3 active torsions:
REMARK  status: ('A' for Active; 'I' for Inactive)
REMARK    1  A    between atoms: C1_1  and  C2_2 
REMARK    2  A    between atoms: C1_1  and  C3_3 
REMARK    3  A    between atoms: C2_2  and  S8_8 
ROOT
HETATM    1  C1  UNL     1     -34.434  13.657  -4.921  1.00 20.00     0.241 C 
HETATM    2  O4  UNL     1     -34.896  12.528  -4.770  1.00 20.00    -0.287 OA
ENDROOT
BRANCH   1   3
HETATM    3  C2  UNL     1     -34.702  14.524  -6.133  1.00 20.00     0.158 C 
BRANCH   3   4
HETATM    4  S8  UNL     1     -36.005  15.737  -5.823  1.00 20.00    -0.174 SA
HETATM    5  H11 UNL     1     -35.225  16.644  -5.219  1.00 20.00     0.102 HD
ENDBRANCH   3   4
ENDBRANCH   1   3
BRANCH   1   6
HETATM    6  C3  UNL     1     -33.543  14.261  -3.871  1.00 20.00     0.451 C 
HETATM    7  F5  UNL     1     -34.241  14.625  -2.766  1.00 20.00    -0.163 F 
HETATM    8  F6  UNL     1     -32.584  13.392  -3.465  1.00 20.00    -0.163 F 
HETATM    9  F7  UNL     1     -32.904  15.371  -4.317  1.00 20.00    -0.163 F 
ENDBRANCH   1   6
TORSDOF 3
ENDMDL
