MODEL 1
REMARK VINA RESULT:      -5.4      0.000      0.000
REMARK  2 active torsions:
REMARK  status: ('A' for Active; 'I' for Inactive)
REMARK    1  A    between atoms: C8_8  and  C9_9 
REMARK    2  A    between atoms: C8_8  and  O10_10 
ROOT
HETATM    1  C1  UNL     1     -32.176   8.764   1.796  1.00 20.00     0.012 C 
HETATM    2  C2  UNL     1     -32.179   7.737   2.418  1.00 20.00    -0.115 C 
HETATM    3  C9  UNL     1     -32.169   6.481   3.171  1.00 20.00     0.130 C 
ENDROOT
BRANCH   3   4
HETATM    4  C8  UNL     1     -33.457   6.321   3.982  1.00 20.00     0.068 C 
HETATM    5  C6  UNL     1     -33.151   6.377   5.488  1.00 20.00     0.038 C 
HETATM    6  C4  UNL     1     -34.396   6.129   6.342  1.00 20.00     0.003 C 
HETATM    7  C3  UNL     1     -35.086   4.823   5.964  1.00 20.00     0.000 C 
HETATM    8  C5  UNL     1     -35.414   4.769   4.475  1.00 20.00     0.003 C 
HETATM    9  C7  UNL     1     -34.171   5.010   3.617  1.00 20.00     0.038 C 
BRANCH   4  10
HETATM   10  O10 UNL     1     -34.312   7.424   3.665  1.00 20.00    -0.389 OA
HETATM   11  H24 UNL     1     -34.636   7.766   4.510  1.00 20.00     0.210 HD
ENDBRANCH   4  10
ENDBRANCH   3   4
TORSDOF 2
ENDMDL
MODEL 2
REMARK VINA RESULT:      -4.9     11.252     12.460
REMARK  2 active torsions:
REMARK  status: ('A' for Active; 'I' for Inactive)
REMARK    1  A    between atoms: C8_8  and  C9_9 
REMARK    2  A    between atoms: C8_8  and  O10_10 
ROOT
HETATM    1  C1  UNL     1     -34.657  16.637  -0.815  1.00 20.00     0.012 C 
HETATM    2  C2  UNL     1     -34.228  16.873  -1.912  1.00 20.00    -0.115 C 
HETATM    3  C9  UNL     1     -33.703  17.174  -3.246  1.00 20.00     0.130 C 
ENDROOT
BRANCH   3   4
HETATM    4  C8  UNL     1     -33.697  15.922  -4.125  1.00 20.00     0.068 C 
HETATM    5  C6  UNL     1     -34.995  15.839  -4.946  1.00 20.00     0.038 C 
HETATM    6  C4  UNL     1     -35.076  14.555  -5.774  1.00 20.00     0.003 C 
HETATM    7  C3  UNL     1     -34.888  13.314  -4.906  1.00 20.00     0.000 C 
HETATM    8  C5  UNL     1     -33.591  13.379  -4.105  1.00 20.00     0.003 C 
HETATM    9  C7  UNL     1     -33.508  14.658  -3.272  1.00 20.00     0.038 C 
BRANCH   4  10
HETATM   10  O10 UNL     1     -32.604  16.037  -5.040  1.00 20.00    -0.389 OA
HETATM   11  H24 UNL     1     -31.809  16.148  -4.499  1.00 20.00     0.210 HD
ENDBRANCH   4  10
ENDBRANCH   3   4
TORSDOF 2
ENDMDL
MODEL 3
REMARK VINA RESULT:      -4.7     11.107     12.241
REMARK  2 active torsions:
REMARK  status: ('A' for Active; 'I' for Inactive)
REMARK    1  A    between atoms: C8_8  and  C9_9 
REMARK    2  A    between atoms: C8_8  and  O10_10 
ROOT
HETATM    1  C1  UNL     1     -34.814  17.021  -0.103  1.00 20.00     0.012 C 
HETATM    2  C2  UNL     1     -34.327  16.753  -1.168  1.00 20.00    -0.115 C 
HETATM    3  C9  UNL     1     -33.723  16.434  -2.463  1.00 20.00     0.130 C 
ENDROOT
BRANCH   3   4
HETATM    4  C8  UNL     1     -34.677  15.600  -3.320  1.00 20.00     0.068 C 
HETATM    5  C6  UNL     1     -34.168  14.153  -3.434  1.00 20.00     0.038 C 
HETATM    6  C4  UNL     1     -35.041  13.303  -4.358  1.00 20.00     0.003 C 
HETATM    7  C3  UNL     1     -35.198  13.946  -5.733  1.00 20.00     0.000 C 
HETATM    8  C5  UNL     1     -35.725  15.374  -5.629  1.00 20.00     0.003 C 
HETATM    9  C7  UNL     1     -34.851  16.230  -4.711  1.00 20.00     0.038 C 
BRANCH   4  10
HETATM   10  O10 UNL     1     -35.945  15.570  -2.658  1.00 20.00    -0.389 OA
HETATM   11  H24 UNL     1     -35.767  15.759  -1.725  1.00 20.00     0.210 HD
ENDBRANCH   4  10
ENDBRANCH   3   4
TORSDOF 2
ENDMDL
MODEL 4
REMARK VINA RESULT:      -4.6     11.622     13.523
REMARK  2 active torsions:
REMARK  status: ('A' for Active; 'I' for Inactive)
REMARK    1  A    between atoms: C8_8  and  C9_9 
REMARK    2  A    between atoms: C8_8  and  O10_10 
ROOT
HETATM    1  C1  UNL     1     -34.335  16.748  -1.219  1.00 20.00     0.012 C 
HETATM    2  C2  UNL     1     -34.340  15.941  -2.109  1.00 20.00    -0.115 C 
HETATM    3  C9  UNL     1     -34.350  14.947  -3.185  1.00 20.00     0.130 C 
ENDROOT
BRANCH   3   4
HETATM    4  C8  UNL     1     -33.958  15.584  -4.519  1.00 20.00     0.068 C 
HETATM    5  C6  UNL     1     -34.496  17.021  -4.606  1.00 20.00     0.038 C 
HETATM    6  C4  UNL     1     -34.207  17.668  -5.962  1.00 20.00     0.003 C 
HETATM    7  C3  UNL     1     -34.724  16.812  -7.115  1.00 20.00     0.000 C 
HETATM    8  C5  UNL     1     -34.175  15.390  -7.049  1.00 20.00     0.003 C 
HETATM    9  C7  UNL     1     -34.467  14.737  -5.697  1.00 20.00     0.038 C 
BRANCH   4  10
HETATM   10  O10 UNL     1     -32.529  15.644  -4.571  1.00 20.00    -0.389 OA
HETATM   11  H24 UNL     1     -32.266  16.338  -3.949  1.00 20.00     0.210 HD
ENDBRANCH   4  10
ENDBRANCH   3   4
TORSDOF 2
ENDMDL
MODEL 5
REMARK VINA RESULT:      -4.6     11.124     13.314
REMARK  2 active torsions:
REMARK  status: ('A' for Active; 'I' for Inactive)
REMARK    1  A    between atoms: C8_8  and  C9_9 
REMARK    2  A    between atoms: C8_8  and  O10_10 
ROOT
HETATM    1  C1  UNL     1     -33.620  19.033  -6.522  1.00 20.00     0.012 C 
HETATM    2  C2  UNL     1     -33.725  18.395  -5.510  1.00 20.00    -0.115 C 
HETATM    3  C9  UNL     1     -33.853  17.628  -4.269  1.00 20.00     0.130 C 
ENDROOT
BRANCH   3   4
HETATM    4  C8  UNL     1     -33.745  16.126  -4.542  1.00 20.00     0.068 C 
HETATM    5  C6  UNL     1     -34.721  15.713  -5.655  1.00 20.00     0.038 C 
HETATM    6  C4  UNL     1     -34.716  14.203  -5.901  1.00 20.00     0.003 C 
HETATM    7  C3  UNL     1     -34.980  13.424  -4.616  1.00 20.00     0.000 C 
HETATM    8  C5  UNL     1     -34.000  13.812  -3.512  1.00 20.00     0.003 C 
HETATM    9  C7  UNL     1     -34.006  15.320  -3.259  1.00 20.00     0.038 C 
BRANCH   4  10
HETATM   10  O10 UNL     1     -32.416  15.860  -4.999  1.00 20.00    -0.389 OA
HETATM   11  H24 UNL     1     -31.851  15.882  -4.213  1.00 20.00     0.210 HD
ENDBRANCH   4  10
ENDBRANCH   3   4
TORSDOF 2
ENDMDL
MODEL 6
REMARK VINA RESULT:      -4.5     11.029     12.461
REMARK  2 active torsions:
REMARK  status: ('A' for Active; 'I' for Inactive)
REMARK    1  A    between atoms: C8_8  and  C9_9 
REMARK    2  A    between atoms: C8_8  and  O10_10 
ROOT
HETATM    1  C1  UNL     1     -33.667  17.057  -2.598  1.00 20.00     0.012 C 
HETATM    2  C2  UNL     1     -33.758  15.884  -2.840  1.00 20.00    -0.115 C 
HETATM    3  C9  UNL     1     -33.857  14.452  -3.127  1.00 20.00     0.130 C 
ENDROOT
BRANCH   3   4
HETATM    4  C8  UNL     1     -34.938  14.178  -4.174  1.00 20.00     0.068 C 
HETATM    5  C6  UNL     1     -34.435  14.559  -5.576  1.00 20.00     0.038 C 
HETATM    6  C4  UNL     1     -35.514  14.389  -6.646  1.00 20.00     0.003 C 
HETATM    7  C3  UNL     1     -36.786  15.152  -6.288  1.00 20.00     0.000 C 
HETATM    8  C5  UNL     1     -37.305  14.763  -4.907  1.00 20.00     0.003 C 
HETATM    9  C7  UNL     1     -36.231  14.937  -3.833  1.00 20.00     0.038 C 
BRANCH   4  10
HETATM   10  O10 UNL     1     -35.206  12.773  -4.168  1.00 20.00    -0.389 OA
HETATM   11  H24 UNL     1     -35.553  12.560  -5.046  1.00 20.00     0.210 HD
ENDBRANCH   4  10
ENDBRANCH   3   4
TORSDOF 2
ENDMDL
MODEL 7
REMARK VINA RESULT:      -4.4      9.546     10.839
REMARK  2 active torsions:
REMARK  status: ('A' for Active; 'I' for Inactive)
REMARK    1  A    between atoms: C8_8  and  C9_9 
REMARK    2  A    between atoms: C8_8  and  O10_10 
ROOT
HETATM    1  C1  UNL     1     -41.174   1.813  -4.137  1.00 20.00     0.012 C 
HETATM    2  C2  UNL     1     -41.877   2.314  -3.302  1.00 20.00    -0.115 C 
HETATM    3  C9  UNL     1     -42.746   2.915  -2.288  1.00 20.00     0.130 C 
ENDROOT
BRANCH   3   4
HETATM    4  C8  UNL     1     -42.083   4.143  -1.660  1.00 20.00     0.068 C 
HETATM    5  C6  UNL     1     -42.672   4.415  -0.266  1.00 20.00     0.038 C 
HETATM    6  C4  UNL     1     -42.105   5.688   0.365  1.00 20.00     0.003 C 
HETATM    7  C3  UNL     1     -42.274   6.894  -0.554  1.00 20.00     0.000 C 
HETATM    8  C5  UNL     1     -41.671   6.640  -1.933  1.00 20.00     0.003 C 
HETATM    9  C7  UNL     1     -42.240   5.371  -2.570  1.00 20.00     0.038 C 
BRANCH   4  10
HETATM   10  O10 UNL     1     -40.691   3.853  -1.501  1.00 20.00    -0.389 OA
HETATM   11  H24 UNL     1     -40.580   2.921  -1.735  1.00 20.00     0.210 HD
ENDBRANCH   4  10
ENDBRANCH   3   4
TORSDOF 2
ENDMDL
MODEL 8
REMARK VINA RESULT:      -4.4      1.137      2.015
REMARK  2 active torsions:
REMARK  status: ('A' for Active; 'I' for Inactive)
REMARK    1  A    between atoms: C8_8  and  C9_9 
REMARK    2  A    between atoms: C8_8  and  O10_10 
ROOT
HETATM    1  C1  UNL     1     -31.757   8.003   1.942  1.00 20.00     0.012 C 
HETATM    2  C2  UNL     1     -32.753   7.829   2.590  1.00 20.00    -0.115 C 
HETATM    3  C9  UNL     1     -33.972   7.631   3.377  1.00 20.00     0.130 C 
ENDROOT
BRANCH   3   4
HETATM    4  C8  UNL     1     -33.913   6.313   4.152  1.00 20.00     0.068 C 
HETATM    5  C6  UNL     1     -35.058   5.385   3.716  1.00 20.00     0.038 C 
HETATM    6  C4  UNL     1     -35.096   4.089   4.529  1.00 20.00     0.003 C 
HETATM    7  C3  UNL     1     -35.148   4.367   6.028  1.00 20.00     0.000 C 
HETATM    8  C5  UNL     1     -34.000   5.269   6.472  1.00 20.00     0.003 C 
HETATM    9  C7  UNL     1     -33.962   6.568   5.666  1.00 20.00     0.038 C 
BRANCH   4  10
HETATM   10  O10 UNL     1     -32.677   5.670   3.826  1.00 20.00    -0.389 OA
HETATM   11  H24 UNL     1     -31.975   6.265   4.127  1.00 20.00     0.210 HD
ENDBRANCH   4  10
ENDBRANCH   3   4
TORSDOF 2
ENDMDL
MODEL 9
REMARK VINA RESULT:      -4.4     11.534     12.844
REMARK  2 active torsions:
REMARK  status: ('A' for Active; 'I' for Inactive)
REMARK    1  A    between atoms: C8_8  and  C9_9 
REMARK    2  A    between atoms: C8_8  and  O10_10 
ROOT
HETATM    1  C1  UNL     1     -35.501  14.404  -7.193  1.00 20.00     0.012 C 
HETATM    2  C2  UNL     1     -34.966  14.116  -6.157  1.00 20.00    -0.115 C 
HETATM    3  C9  UNL     1     -34.318  13.752  -4.895  1.00 20.00     0.130 C 
ENDROOT
BRANCH   3   4
HETATM    4  C8  UNL     1     -33.759  14.990  -4.191  1.00 20.00     0.068 C 
HETATM    5  C6  UNL     1     -34.484  15.219  -2.855  1.00 20.00     0.038 C 
HETATM    6  C4  UNL     1     -34.023  16.500  -2.157  1.00 20.00     0.003 C 
HETATM    7  C3  UNL     1     -34.148  17.715  -3.071  1.00 20.00     0.000 C 
HETATM    8  C5  UNL     1     -33.411  17.504  -4.391  1.00 20.00     0.003 C 
HETATM    9  C7  UNL     1     -33.874  16.228  -5.095  1.00 20.00     0.038 C 
BRANCH   4  10
HETATM   10  O10 UNL     1     -32.379  14.745  -3.908  1.00 20.00    -0.389 OA
HETATM   11  H24 UNL     1     -32.109  14.016  -4.485  1.00 20.00     0.210 HD
ENDBRANCH   4  10
ENDBRANCH   3   4
TORSDOF 2
ENDMDL
