MODEL 1
REMARK VINA RESULT:      -3.3      0.000      0.000
REMARK  1 active torsions:
REMARK  status: ('A' for Active; 'I' for Inactive)
REMARK    1  A    between atoms: C2_2  and  C4_4 
ROOT
HETATM    1  C3  UNL     1     -33.063   6.345   3.489  1.00 20.00     0.204 A 
HETATM    2  C4  UNL     1     -34.354   6.140   4.204  1.00 20.00     0.167 A 
HETATM    3  O5  UNL     1     -34.057   5.430   3.014  1.00 20.00    -0.377 OA
ENDROOT
BRANCH   2   4
HETATM    4  C2  UNL     1     -34.302   5.470   5.536  1.00 20.00    -0.003 C 
HETATM    5  C1  UNL     1     -35.028   4.396   5.862  1.00 20.00     0.009 C 
ENDBRANCH   2   4
TORSDOF 1
ENDMDL
MODEL 2
REMARK VINA RESULT:      -3.2      1.582      2.415
REMARK  1 active torsions:
REMARK  status: ('A' for Active; 'I' for Inactive)
REMARK    1  A    between atoms: C2_2  and  C4_4 
ROOT
HETATM    1  C3  UNL     1     -35.026   3.939   5.089  1.00 20.00     0.204 A 
HETATM    2  C4  UNL     1     -34.382   5.282   5.102  1.00 20.00     0.167 A 
HETATM    3  O5  UNL     1     -35.599   5.063   4.411  1.00 20.00    -0.377 OA
ENDROOT
BRANCH   2   4
HETATM    4  C2  UNL     1     -34.352   6.017   6.399  1.00 20.00    -0.003 C 
HETATM    5  C1  UNL     1     -33.566   7.070   6.645  1.00 20.00     0.009 C 
ENDBRANCH   2   4
TORSDOF 1
ENDMDL
MODEL 3
REMARK VINA RESULT:      -3.1      1.360      1.527
REMARK  1 active torsions:
REMARK  status: ('A' for Active; 'I' for Inactive)
REMARK    1  A    between atoms: C2_2  and  C4_4 
ROOT
HETATM    1  C3  UNL     1     -32.169   6.094   3.183  1.00 20.00     0.204 A 
HETATM    2  C4  UNL     1     -33.397   6.399   3.968  1.00 20.00     0.167 A 
HETATM    3  O5  UNL     1     -32.929   7.289   2.970  1.00 20.00    -0.377 OA
ENDROOT
BRANCH   2   4
HETATM    4  C2  UNL     1     -34.592   5.537   3.736  1.00 20.00    -0.003 C 
HETATM    5  C1  UNL     1     -35.224   4.858   4.699  1.00 20.00     0.009 C 
ENDBRANCH   2   4
TORSDOF 1
ENDMDL
MODEL 4
REMARK VINA RESULT:      -3.1      1.600      2.860
REMARK  1 active torsions:
REMARK  status: ('A' for Active; 'I' for Inactive)
REMARK    1  A    between atoms: C2_2  and  C4_4 
ROOT
HETATM    1  C3  UNL     1     -34.871   4.045   5.662  1.00 20.00     0.204 A 
HETATM    2  C4  UNL     1     -35.233   5.184   4.773  1.00 20.00     0.167 A 
HETATM    3  O5  UNL     1     -34.818   5.404   6.109  1.00 20.00    -0.377 OA
ENDROOT
BRANCH   2   4
HETATM    4  C2  UNL     1     -34.325   5.474   3.625  1.00 20.00    -0.003 C 
HETATM    5  C1  UNL     1     -33.395   6.434   3.631  1.00 20.00     0.009 C 
ENDBRANCH   2   4
TORSDOF 1
ENDMDL
MODEL 5
REMARK VINA RESULT:      -3.1      1.459      2.885
REMARK  1 active torsions:
REMARK  status: ('A' for Active; 'I' for Inactive)
REMARK    1  A    between atoms: C2_2  and  C4_4 
ROOT
HETATM    1  C3  UNL     1     -35.130   4.913   4.464  1.00 20.00     0.204 A 
HETATM    2  C4  UNL     1     -34.361   6.150   4.153  1.00 20.00     0.167 A 
HETATM    3  O5  UNL     1     -34.356   5.595   5.457  1.00 20.00    -0.377 OA
ENDROOT
BRANCH   2   4
HETATM    4  C2  UNL     1     -33.179   6.016   3.253  1.00 20.00    -0.003 C 
HETATM    5  C1  UNL     1     -32.176   6.897   3.198  1.00 20.00     0.009 C 
ENDBRANCH   2   4
TORSDOF 1
ENDMDL
MODEL 6
REMARK VINA RESULT:      -3.0      1.997      2.313
REMARK  1 active torsions:
REMARK  status: ('A' for Active; 'I' for Inactive)
REMARK    1  A    between atoms: C2_2  and  C4_4 
ROOT
HETATM    1  C3  UNL     1     -32.249   7.653   2.516  1.00 20.00     0.204 A 
HETATM    2  C4  UNL     1     -32.574   6.422   3.290  1.00 20.00     0.167 A 
HETATM    3  O5  UNL     1     -31.586   7.331   3.745  1.00 20.00    -0.377 OA
ENDROOT
BRANCH   2   4
HETATM    4  C2  UNL     1     -33.916   6.354   3.938  1.00 20.00    -0.003 C 
HETATM    5  C1  UNL     1     -34.804   5.379   3.719  1.00 20.00     0.009 C 
ENDBRANCH   2   4
TORSDOF 1
ENDMDL
MODEL 7
REMARK VINA RESULT:      -3.0      1.897      2.853
REMARK  1 active torsions:
REMARK  status: ('A' for Active; 'I' for Inactive)
REMARK    1  A    between atoms: C2_2  and  C4_4 
ROOT
HETATM    1  C3  UNL     1     -34.475   5.758   6.403  1.00 20.00     0.204 A 
HETATM    2  C4  UNL     1     -34.425   4.861   5.215  1.00 20.00     0.167 A 
HETATM    3  O5  UNL     1     -35.305   4.596   6.294  1.00 20.00    -0.377 OA
ENDROOT
BRANCH   2   4
HETATM    4  C2  UNL     1     -34.932   5.406   3.922  1.00 20.00    -0.003 C 
HETATM    5  C1  UNL     1     -34.207   5.468   2.801  1.00 20.00     0.009 C 
ENDBRANCH   2   4
TORSDOF 1
ENDMDL
MODEL 8
REMARK VINA RESULT:      -2.9     11.933     12.116
REMARK  1 active torsions:
REMARK  status: ('A' for Active; 'I' for Inactive)
REMARK    1  A    between atoms: C2_2  and  C4_4 
ROOT
HETATM    1  C3  UNL     1     -34.843  13.634  -5.354  1.00 20.00     0.204 A 
HETATM    2  C4  UNL     1     -35.270  14.060  -3.992  1.00 20.00     0.167 A 
HETATM    3  O5  UNL     1     -35.013  12.698  -4.284  1.00 20.00    -0.377 OA
ENDROOT
BRANCH   2   4
HETATM    4  C2  UNL     1     -34.308  14.874  -3.195  1.00 20.00    -0.003 C 
HETATM    5  C1  UNL     1     -34.671  15.806  -2.307  1.00 20.00     0.009 C 
ENDBRANCH   2   4
TORSDOF 1
ENDMDL
MODEL 9
REMARK VINA RESULT:      -2.8      1.536      3.524
REMARK  1 active torsions:
REMARK  status: ('A' for Active; 'I' for Inactive)
REMARK    1  A    between atoms: C2_2  and  C4_4 
ROOT
HETATM    1  C3  UNL     1     -33.593   6.088   4.220  1.00 20.00     0.204 A 
HETATM    2  C4  UNL     1     -32.424   6.248   3.311  1.00 20.00     0.167 A 
HETATM    3  O5  UNL     1     -33.669   5.778   2.824  1.00 20.00    -0.377 OA
ENDROOT
BRANCH   2   4
HETATM    4  C2  UNL     1     -31.959   7.637   3.029  1.00 20.00    -0.003 C 
HETATM    5  C1  UNL     1     -32.023   8.217   1.826  1.00 20.00     0.009 C 
ENDBRANCH   2   4
TORSDOF 1
ENDMDL
