MODEL 1
REMARK VINA RESULT:      -4.2      0.000      0.000
REMARK  3 active torsions:
REMARK  status: ('A' for Active; 'I' for Inactive)
REMARK    1  A    between atoms: C1_1  and  C2_2 
REMARK    2  A    between atoms: C3_3  and  C8_8 
REMARK    3  A    between atoms: C8_8  and  C9_9 
ROOT
HETATM    1  C1  UNL     1     -34.210  14.425  -3.236  1.00 20.00     0.043 C 
HETATM    2  C3  UNL     1     -33.834  15.718  -3.249  1.00 20.00    -0.080 C 
HETATM    3  C4  UNL     1     -33.894  16.621  -2.048  1.00 20.00     0.043 C 
ENDROOT
BRANCH   2   4
HETATM    4  C8  UNL     1     -33.234  16.309  -4.515  1.00 20.00     0.042 C 
BRANCH   4   5
HETATM    5  C9  UNL     1     -34.208  17.008  -5.508  1.00 20.00    -0.048 C 
HETATM    6  C5  UNL     1     -34.307  16.226  -6.830  1.00 20.00     0.015 C 
HETATM    7  C6  UNL     1     -35.616  17.173  -4.915  1.00 20.00     0.015 C 
HETATM    8  C7  UNL     1     -33.647  18.412  -5.814  1.00 20.00     0.015 C 
ENDBRANCH   4   5
ENDBRANCH   2   4
BRANCH   1   9
HETATM    9  C2  UNL     1     -34.152  13.535  -4.415  1.00 20.00     0.259 C 
HETATM   10  O10 UNL     1     -34.951  12.619  -4.571  1.00 20.00    -0.302 OA
ENDBRANCH   1   9
TORSDOF 3
ENDMDL
MODEL 2
REMARK VINA RESULT:      -4.2      0.127      1.365
REMARK  3 active torsions:
REMARK  status: ('A' for Active; 'I' for Inactive)
REMARK    1  A    between atoms: C1_1  and  C2_2 
REMARK    2  A    between atoms: C3_3  and  C8_8 
REMARK    3  A    between atoms: C8_8  and  C9_9 
ROOT
HETATM    1  C1  UNL     1     -34.192  14.352  -3.213  1.00 20.00     0.043 C 
HETATM    2  C3  UNL     1     -33.809  15.642  -3.270  1.00 20.00    -0.080 C 
HETATM    3  C4  UNL     1     -33.868  16.587  -2.102  1.00 20.00     0.043 C 
ENDROOT
BRANCH   2   4
HETATM    4  C8  UNL     1     -33.201  16.185  -4.553  1.00 20.00     0.042 C 
BRANCH   4   5
HETATM    5  C9  UNL     1     -34.157  16.904  -5.550  1.00 20.00    -0.048 C 
HETATM    6  C5  UNL     1     -35.584  16.994  -4.981  1.00 20.00     0.015 C 
HETATM    7  C6  UNL     1     -33.666  18.318  -5.901  1.00 20.00     0.015 C 
HETATM    8  C7  UNL     1     -34.200  16.074  -6.848  1.00 20.00     0.015 C 
ENDBRANCH   4   5
ENDBRANCH   2   4
BRANCH   1   9
HETATM    9  C2  UNL     1     -34.134  13.422  -4.359  1.00 20.00     0.259 C 
HETATM   10  O10 UNL     1     -35.023  12.605  -4.572  1.00 20.00    -0.302 OA
ENDBRANCH   1   9
TORSDOF 3
ENDMDL
MODEL 3
REMARK VINA RESULT:      -4.1      1.277      2.869
REMARK  3 active torsions:
REMARK  status: ('A' for Active; 'I' for Inactive)
REMARK    1  A    between atoms: C1_1  and  C2_2 
REMARK    2  A    between atoms: C3_3  and  C8_8 
REMARK    3  A    between atoms: C8_8  and  C9_9 
ROOT
HETATM    1  C1  UNL     1     -34.690  14.857  -4.993  1.00 20.00     0.043 C 
HETATM    2  C3  UNL     1     -33.932  15.855  -4.502  1.00 20.00    -0.080 C 
HETATM    3  C4  UNL     1     -33.366  16.968  -5.340  1.00 20.00     0.043 C 
ENDROOT
BRANCH   2   4
HETATM    4  C8  UNL     1     -33.680  15.937  -3.005  1.00 20.00     0.042 C 
BRANCH   4   5
HETATM    5  C9  UNL     1     -34.481  17.003  -2.202  1.00 20.00    -0.048 C 
HETATM    6  C5  UNL     1     -35.870  17.236  -2.822  1.00 20.00     0.015 C 
HETATM    7  C6  UNL     1     -34.649  16.606  -0.726  1.00 20.00     0.015 C 
HETATM    8  C7  UNL     1     -33.694  18.328  -2.256  1.00 20.00     0.015 C 
ENDBRANCH   4   5
ENDBRANCH   2   4
BRANCH   1   9
HETATM    9  C2  UNL     1     -35.247  13.762  -4.171  1.00 20.00     0.259 C 
HETATM   10  O10 UNL     1     -34.979  12.587  -4.395  1.00 20.00    -0.302 OA
ENDBRANCH   1   9
TORSDOF 3
ENDMDL
MODEL 4
REMARK VINA RESULT:      -4.0      1.136      2.754
REMARK  3 active torsions:
REMARK  status: ('A' for Active; 'I' for Inactive)
REMARK    1  A    between atoms: C1_1  and  C2_2 
REMARK    2  A    between atoms: C3_3  and  C8_8 
REMARK    3  A    between atoms: C8_8  and  C9_9 
ROOT
HETATM    1  C1  UNL     1     -34.551  14.421  -5.814  1.00 20.00     0.043 C 
HETATM    2  C3  UNL     1     -34.111  15.693  -5.864  1.00 20.00    -0.080 C 
HETATM    3  C4  UNL     1     -34.390  16.632  -7.005  1.00 20.00     0.043 C 
ENDROOT
BRANCH   2   4
HETATM    4  C8  UNL     1     -33.353  16.270  -4.680  1.00 20.00     0.042 C 
BRANCH   4   5
HETATM    5  C9  UNL     1     -34.174  17.066  -3.624  1.00 20.00    -0.048 C 
HETATM    6  C5  UNL     1     -33.809  18.561  -3.648  1.00 20.00     0.015 C 
HETATM    7  C6  UNL     1     -35.689  16.915  -3.840  1.00 20.00     0.015 C 
HETATM    8  C7  UNL     1     -33.829  16.503  -2.230  1.00 20.00     0.015 C 
ENDBRANCH   4   5
ENDBRANCH   2   4
BRANCH   1   9
HETATM    9  C2  UNL     1     -34.278  13.497  -4.693  1.00 20.00     0.259 C 
HETATM   10  O10 UNL     1     -35.066  12.611  -4.382  1.00 20.00    -0.302 OA
ENDBRANCH   1   9
TORSDOF 3
ENDMDL
MODEL 5
REMARK VINA RESULT:      -3.9      1.127      2.634
REMARK  3 active torsions:
REMARK  status: ('A' for Active; 'I' for Inactive)
REMARK    1  A    between atoms: C1_1  and  C2_2 
REMARK    2  A    between atoms: C3_3  and  C8_8 
REMARK    3  A    between atoms: C8_8  and  C9_9 
ROOT
HETATM    1  C1  UNL     1     -34.541  14.490  -5.801  1.00 20.00     0.043 C 
HETATM    2  C3  UNL     1     -34.099  15.760  -5.870  1.00 20.00    -0.080 C 
HETATM    3  C4  UNL     1     -34.384  16.685  -7.021  1.00 20.00     0.043 C 
ENDROOT
BRANCH   2   4
HETATM    4  C8  UNL     1     -33.332  16.351  -4.698  1.00 20.00     0.042 C 
BRANCH   4   5
HETATM    5  C9  UNL     1     -34.158  17.076  -3.595  1.00 20.00    -0.048 C 
HETATM    6  C5  UNL     1     -35.668  16.972  -3.875  1.00 20.00     0.015 C 
HETATM    7  C6  UNL     1     -33.866  16.514  -2.194  1.00 20.00     0.015 C 
HETATM    8  C7  UNL     1     -33.761  18.566  -3.608  1.00 20.00     0.015 C 
ENDBRANCH   4   5
ENDBRANCH   2   4
BRANCH   1   9
HETATM    9  C2  UNL     1     -34.263  13.579  -4.670  1.00 20.00     0.259 C 
HETATM   10  O10 UNL     1     -34.992  12.628  -4.414  1.00 20.00    -0.302 OA
ENDBRANCH   1   9
TORSDOF 3
ENDMDL
MODEL 6
REMARK VINA RESULT:      -3.9      1.687      2.429
REMARK  3 active torsions:
REMARK  status: ('A' for Active; 'I' for Inactive)
REMARK    1  A    between atoms: C1_1  and  C2_2 
REMARK    2  A    between atoms: C3_3  and  C8_8 
REMARK    3  A    between atoms: C8_8  and  C9_9 
ROOT
HETATM    1  C1  UNL     1     -34.092  14.227  -3.262  1.00 20.00     0.043 C 
HETATM    2  C3  UNL     1     -34.658  15.437  -3.092  1.00 20.00    -0.080 C 
HETATM    3  C4  UNL     1     -34.654  16.189  -1.790  1.00 20.00     0.043 C 
ENDROOT
BRANCH   2   4
HETATM    4  C8  UNL     1     -35.277  16.149  -4.285  1.00 20.00     0.042 C 
BRANCH   4   5
HETATM    5  C9  UNL     1     -36.828  16.125  -4.407  1.00 20.00    -0.048 C 
HETATM    6  C5  UNL     1     -37.422  14.900  -3.689  1.00 20.00     0.015 C 
HETATM    7  C6  UNL     1     -37.470  17.401  -3.837  1.00 20.00     0.015 C 
HETATM    8  C7  UNL     1     -37.186  16.034  -5.904  1.00 20.00     0.015 C 
ENDBRANCH   4   5
ENDBRANCH   2   4
BRANCH   1   9
HETATM    9  C2  UNL     1     -34.096  13.487  -4.541  1.00 20.00     0.259 C 
HETATM   10  O10 UNL     1     -34.894  12.583  -4.761  1.00 20.00    -0.302 OA
ENDBRANCH   1   9
TORSDOF 3
ENDMDL
MODEL 7
REMARK VINA RESULT:      -3.9      2.041      3.765
REMARK  3 active torsions:
REMARK  status: ('A' for Active; 'I' for Inactive)
REMARK    1  A    between atoms: C1_1  and  C2_2 
REMARK    2  A    between atoms: C3_3  and  C8_8 
REMARK    3  A    between atoms: C8_8  and  C9_9 
ROOT
HETATM    1  C1  UNL     1     -36.939  14.861  -5.783  1.00 20.00     0.043 C 
HETATM    2  C3  UNL     1     -35.642  15.223  -5.813  1.00 20.00    -0.080 C 
HETATM    3  C4  UNL     1     -34.726  14.965  -6.976  1.00 20.00     0.043 C 
ENDROOT
BRANCH   2   4
HETATM    4  C8  UNL     1     -35.059  16.012  -4.650  1.00 20.00     0.042 C 
BRANCH   4   5
HETATM    5  C9  UNL     1     -34.235  15.222  -3.592  1.00 20.00    -0.048 C 
HETATM    6  C5  UNL     1     -34.554  13.717  -3.651  1.00 20.00     0.015 C 
HETATM    7  C6  UNL     1     -32.722  15.423  -3.774  1.00 20.00     0.015 C 
HETATM    8  C7  UNL     1     -34.625  15.748  -2.197  1.00 20.00     0.015 C 
ENDBRANCH   4   5
ENDBRANCH   2   4
BRANCH   1   9
HETATM    9  C2  UNL     1     -37.841  15.114  -4.640  1.00 20.00     0.259 C 
HETATM   10  O10 UNL     1     -38.069  14.254  -3.797  1.00 20.00    -0.302 OA
ENDBRANCH   1   9
TORSDOF 3
ENDMDL
MODEL 8
REMARK VINA RESULT:      -3.9      2.092      3.331
REMARK  3 active torsions:
REMARK  status: ('A' for Active; 'I' for Inactive)
REMARK    1  A    between atoms: C1_1  and  C2_2 
REMARK    2  A    between atoms: C3_3  and  C8_8 
REMARK    3  A    between atoms: C8_8  and  C9_9 
ROOT
HETATM    1  C1  UNL     1     -35.689  14.353  -4.319  1.00 20.00     0.043 C 
HETATM    2  C3  UNL     1     -34.681  14.584  -3.457  1.00 20.00    -0.080 C 
HETATM    3  C4  UNL     1     -33.281  14.067  -3.644  1.00 20.00     0.043 C 
ENDROOT
BRANCH   2   4
HETATM    4  C8  UNL     1     -34.917  15.484  -2.254  1.00 20.00     0.042 C 
BRANCH   4   5
HETATM    5  C9  UNL     1     -34.502  16.979  -2.387  1.00 20.00    -0.048 C 
HETATM    6  C5  UNL     1     -33.599  17.409  -1.216  1.00 20.00     0.015 C 
HETATM    7  C6  UNL     1     -33.774  17.259  -3.712  1.00 20.00     0.015 C 
HETATM    8  C7  UNL     1     -35.785  17.833  -2.353  1.00 20.00     0.015 C 
ENDBRANCH   4   5
ENDBRANCH   2   4
BRANCH   1   9
HETATM    9  C2  UNL     1     -37.065  14.860  -4.137  1.00 20.00     0.259 C 
HETATM   10  O10 UNL     1     -37.964  14.147  -3.707  1.00 20.00    -0.302 OA
ENDBRANCH   1   9
TORSDOF 3
ENDMDL
MODEL 9
REMARK VINA RESULT:      -3.8      2.146      3.241
REMARK  3 active torsions:
REMARK  status: ('A' for Active; 'I' for Inactive)
REMARK    1  A    between atoms: C1_1  and  C2_2 
REMARK    2  A    between atoms: C3_3  and  C8_8 
REMARK    3  A    between atoms: C8_8  and  C9_9 
ROOT
HETATM    1  C1  UNL     1     -34.151  17.259  -2.709  1.00 20.00     0.043 C 
HETATM    2  C3  UNL     1     -33.786  16.951  -3.968  1.00 20.00    -0.080 C 
HETATM    3  C4  UNL     1     -33.503  17.973  -5.034  1.00 20.00     0.043 C 
ENDROOT
BRANCH   2   4
HETATM    4  C8  UNL     1     -33.559  15.496  -4.345  1.00 20.00     0.042 C 
BRANCH   4   5
HETATM    5  C9  UNL     1     -34.696  14.773  -5.126  1.00 20.00    -0.048 C 
HETATM    6  C5  UNL     1     -34.761  13.281  -4.755  1.00 20.00     0.015 C 
HETATM    7  C6  UNL     1     -36.068  15.416  -4.869  1.00 20.00     0.015 C 
HETATM    8  C7  UNL     1     -34.386  14.888  -6.632  1.00 20.00     0.015 C 
ENDBRANCH   4   5
ENDBRANCH   2   4
BRANCH   1   9
HETATM    9  C2  UNL     1     -34.429  16.256  -1.660  1.00 20.00     0.259 C 
HETATM   10  O10 UNL     1     -34.632  16.580  -0.495  1.00 20.00    -0.302 OA
ENDBRANCH   1   9
TORSDOF 3
ENDMDL
