MODEL 1
REMARK VINA RESULT:      -5.1      0.000      0.000
REMARK  5 active torsions:
REMARK  status: ('A' for Active; 'I' for Inactive)
REMARK    1  A    between atoms: C1_1  and  C4_4 
REMARK    2  A    between atoms: C2_2  and  C7_7 
REMARK    3  A    between atoms: C7_7  and  C9_9 
REMARK    4  A    between atoms: C8_8  and  C9_9 
REMARK    5  A    between atoms: C9_9  and  O10_10 
ROOT
HETATM    1  C7  UNL     1     -34.998   5.141   3.688  1.00 20.00     0.126 C 
ENDROOT
BRANCH   1   2
HETATM    2  C2  UNL     1     -33.897   6.064   3.374  1.00 20.00    -0.099 C 
HETATM    3  C1  UNL     1     -32.997   6.818   3.116  1.00 20.00    -0.072 C 
BRANCH   3   4
HETATM    4  C4  UNL     1     -31.926   7.711   2.816  1.00 20.00    -0.018 C 
HETATM    5  C3  UNL     1     -30.958   7.903   3.723  1.00 20.00     0.028 C 
HETATM    6  C5  UNL     1     -31.917   8.414   1.490  1.00 20.00     0.057 C 
ENDBRANCH   3   4
ENDBRANCH   1   2
BRANCH   1   7
HETATM    7  C9  UNL     1     -35.184   4.916   5.194  1.00 20.00     0.129 C 
BRANCH   7   8
HETATM    8  C8  UNL     1     -33.949   5.295   6.021  1.00 20.00     0.028 C 
HETATM    9  C6  UNL     1     -34.072   6.685   6.631  1.00 20.00     0.007 C 
ENDBRANCH   7   8
BRANCH   7  10
HETATM   10  O10 UNL     1     -35.520   3.553   5.443  1.00 20.00    -0.395 OA
HETATM   11  H24 UNL     1     -36.475   3.473   5.290  1.00 20.00     0.210 HD
ENDBRANCH   7  10
ENDBRANCH   1   7
TORSDOF 5
ENDMDL
MODEL 2
REMARK VINA RESULT:      -4.9      1.359      2.137
REMARK  5 active torsions:
REMARK  status: ('A' for Active; 'I' for Inactive)
REMARK    1  A    between atoms: C1_1  and  C4_4 
REMARK    2  A    between atoms: C2_2  and  C7_7 
REMARK    3  A    between atoms: C7_7  and  C9_9 
REMARK    4  A    between atoms: C8_8  and  C9_9 
REMARK    5  A    between atoms: C9_9  and  O10_10 
ROOT
HETATM    1  C7  UNL     1     -33.043   5.850   3.974  1.00 20.00     0.126 C 
ENDROOT
BRANCH   1   2
HETATM    2  C2  UNL     1     -32.687   6.923   3.033  1.00 20.00    -0.099 C 
HETATM    3  C1  UNL     1     -32.397   7.800   2.264  1.00 20.00    -0.072 C 
BRANCH   3   4
HETATM    4  C4  UNL     1     -32.056   8.839   1.347  1.00 20.00    -0.018 C 
HETATM    5  C3  UNL     1     -31.306   8.546   0.274  1.00 20.00     0.028 C 
HETATM    6  C5  UNL     1     -32.547  10.231   1.613  1.00 20.00     0.057 C 
ENDBRANCH   3   4
ENDBRANCH   1   2
BRANCH   1   7
HETATM    7  C9  UNL     1     -34.423   6.044   4.614  1.00 20.00     0.129 C 
BRANCH   7   8
HETATM    8  C8  UNL     1     -34.526   5.459   6.027  1.00 20.00     0.028 C 
HETATM    9  C6  UNL     1     -34.921   3.988   6.011  1.00 20.00     0.007 C 
ENDBRANCH   7   8
BRANCH   7  10
HETATM   10  O10 UNL     1     -35.427   5.460   3.785  1.00 20.00    -0.395 OA
HETATM   11  H24 UNL     1     -36.086   5.075   4.383  1.00 20.00     0.210 HD
ENDBRANCH   7  10
ENDBRANCH   1   7
TORSDOF 5
ENDMDL
MODEL 3
REMARK VINA RESULT:      -4.9      1.090      1.605
REMARK  5 active torsions:
REMARK  status: ('A' for Active; 'I' for Inactive)
REMARK    1  A    between atoms: C1_1  and  C4_4 
REMARK    2  A    between atoms: C2_2  and  C7_7 
REMARK    3  A    between atoms: C7_7  and  C9_9 
REMARK    4  A    between atoms: C8_8  and  C9_9 
REMARK    5  A    between atoms: C9_9  and  O10_10 
ROOT
HETATM    1  C7  UNL     1     -33.295   5.464   3.997  1.00 20.00     0.126 C 
ENDROOT
BRANCH   1   2
HETATM    2  C2  UNL     1     -32.911   6.618   3.169  1.00 20.00    -0.099 C 
HETATM    3  C1  UNL     1     -32.599   7.562   2.493  1.00 20.00    -0.072 C 
BRANCH   3   4
HETATM    4  C4  UNL     1     -32.231   8.680   1.686  1.00 20.00    -0.018 C 
HETATM    5  C3  UNL     1     -31.452   8.486   0.612  1.00 20.00     0.028 C 
HETATM    6  C5  UNL     1     -32.728  10.044   2.067  1.00 20.00     0.057 C 
ENDBRANCH   3   4
ENDBRANCH   1   2
BRANCH   1   7
HETATM    7  C9  UNL     1     -34.606   5.682   4.761  1.00 20.00     0.129 C 
BRANCH   7   8
HETATM    8  C8  UNL     1     -34.415   5.783   6.279  1.00 20.00     0.028 C 
HETATM    9  C6  UNL     1     -33.700   7.066   6.683  1.00 20.00     0.007 C 
ENDBRANCH   7   8
BRANCH   7  10
HETATM   10  O10 UNL     1     -35.519   4.625   4.468  1.00 20.00    -0.395 OA
HETATM   11  H24 UNL     1     -35.016   3.956   3.978  1.00 20.00     0.210 HD
ENDBRANCH   7  10
ENDBRANCH   1   7
TORSDOF 5
ENDMDL
MODEL 4
REMARK VINA RESULT:      -4.8     11.257     12.373
REMARK  5 active torsions:
REMARK  status: ('A' for Active; 'I' for Inactive)
REMARK    1  A    between atoms: C1_1  and  C4_4 
REMARK    2  A    between atoms: C2_2  and  C7_7 
REMARK    3  A    between atoms: C7_7  and  C9_9 
REMARK    4  A    between atoms: C8_8  and  C9_9 
REMARK    5  A    between atoms: C9_9  and  O10_10 
ROOT
HETATM    1  C7  UNL     1     -33.477  13.952  -3.876  1.00 20.00     0.126 C 
ENDROOT
BRANCH   1   2
HETATM    2  C2  UNL     1     -34.058  15.006  -3.029  1.00 20.00    -0.099 C 
HETATM    3  C1  UNL     1     -34.532  15.865  -2.336  1.00 20.00    -0.072 C 
BRANCH   3   4
HETATM    4  C4  UNL     1     -35.100  16.887  -1.518  1.00 20.00    -0.018 C 
HETATM    5  C3  UNL     1     -34.689  17.014  -0.248  1.00 20.00     0.028 C 
HETATM    6  C5  UNL     1     -36.144  17.790  -2.105  1.00 20.00     0.057 C 
ENDBRANCH   3   4
ENDBRANCH   1   2
BRANCH   1   7
HETATM    7  C9  UNL     1     -34.491  13.336  -4.849  1.00 20.00     0.129 C 
BRANCH   7   8
HETATM    8  C8  UNL     1     -35.263  14.381  -5.664  1.00 20.00     0.028 C 
HETATM    9  C6  UNL     1     -34.466  14.876  -6.864  1.00 20.00     0.007 C 
ENDBRANCH   7   8
BRANCH   7  10
HETATM   10  O10 UNL     1     -35.414  12.517  -4.133  1.00 20.00    -0.395 OA
HETATM   11  H24 UNL     1     -36.292  12.903  -4.277  1.00 20.00     0.210 HD
ENDBRANCH   7  10
ENDBRANCH   1   7
TORSDOF 5
ENDMDL
MODEL 5
REMARK VINA RESULT:      -4.6      2.329      5.204
REMARK  5 active torsions:
REMARK  status: ('A' for Active; 'I' for Inactive)
REMARK    1  A    between atoms: C1_1  and  C4_4 
REMARK    2  A    between atoms: C2_2  and  C7_7 
REMARK    3  A    between atoms: C7_7  and  C9_9 
REMARK    4  A    between atoms: C8_8  and  C9_9 
REMARK    5  A    between atoms: C9_9  and  O10_10 
ROOT
HETATM    1  C7  UNL     1     -32.566   6.600   2.290  1.00 20.00     0.126 C 
ENDROOT
BRANCH   1   2
HETATM    2  C2  UNL     1     -33.247   6.129   3.506  1.00 20.00    -0.099 C 
HETATM    3  C1  UNL     1     -33.804   5.742   4.498  1.00 20.00    -0.072 C 
BRANCH   3   4
HETATM    4  C4  UNL     1     -34.468   5.289   5.677  1.00 20.00    -0.018 C 
HETATM    5  C3  UNL     1     -34.479   6.072   6.766  1.00 20.00     0.028 C 
HETATM    6  C5  UNL     1     -35.134   3.945   5.663  1.00 20.00     0.057 C 
ENDBRANCH   3   4
ENDBRANCH   1   2
BRANCH   1   7
HETATM    7  C9  UNL     1     -32.111   8.062   2.384  1.00 20.00     0.129 C 
BRANCH   7   8
HETATM    8  C8  UNL     1     -31.551   8.610   1.066  1.00 20.00     0.028 C 
HETATM    9  C6  UNL     1     -32.595   9.395   0.282  1.00 20.00     0.007 C 
ENDBRANCH   7   8
BRANCH   7  10
HETATM   10  O10 UNL     1     -31.128   8.198   3.409  1.00 20.00    -0.395 OA
HETATM   11  H24 UNL     1     -31.557   7.934   4.238  1.00 20.00     0.210 HD
ENDBRANCH   7  10
ENDBRANCH   1   7
TORSDOF 5
ENDMDL
MODEL 6
REMARK VINA RESULT:      -4.6      2.305      5.233
REMARK  5 active torsions:
REMARK  status: ('A' for Active; 'I' for Inactive)
REMARK    1  A    between atoms: C1_1  and  C4_4 
REMARK    2  A    between atoms: C2_2  and  C7_7 
REMARK    3  A    between atoms: C7_7  and  C9_9 
REMARK    4  A    between atoms: C8_8  and  C9_9 
REMARK    5  A    between atoms: C9_9  and  O10_10 
ROOT
HETATM    1  C7  UNL     1     -32.574   6.573   2.243  1.00 20.00     0.126 C 
ENDROOT
BRANCH   1   2
HETATM    2  C2  UNL     1     -33.267   6.062   3.436  1.00 20.00    -0.099 C 
HETATM    3  C1  UNL     1     -33.834   5.645   4.409  1.00 20.00    -0.072 C 
BRANCH   3   4
HETATM    4  C4  UNL     1     -34.506   5.154   5.569  1.00 20.00    -0.018 C 
HETATM    5  C3  UNL     1     -35.106   3.956   5.521  1.00 20.00     0.028 C 
HETATM    6  C5  UNL     1     -34.523   5.998   6.809  1.00 20.00     0.057 C 
ENDBRANCH   3   4
ENDBRANCH   1   2
BRANCH   1   7
HETATM    7  C9  UNL     1     -32.133   8.035   2.384  1.00 20.00     0.129 C 
BRANCH   7   8
HETATM    8  C8  UNL     1     -31.547   8.621   1.094  1.00 20.00     0.028 C 
HETATM    9  C6  UNL     1     -32.614   9.280   0.228  1.00 20.00     0.007 C 
ENDBRANCH   7   8
BRANCH   7  10
HETATM   10  O10 UNL     1     -31.175   8.153   3.434  1.00 20.00    -0.395 OA
HETATM   11  H24 UNL     1     -31.236   9.064   3.761  1.00 20.00     0.210 HD
ENDBRANCH   7  10
ENDBRANCH   1   7
TORSDOF 5
ENDMDL
MODEL 7
REMARK VINA RESULT:      -4.5     11.498     12.355
REMARK  5 active torsions:
REMARK  status: ('A' for Active; 'I' for Inactive)
REMARK    1  A    between atoms: C1_1  and  C4_4 
REMARK    2  A    between atoms: C2_2  and  C7_7 
REMARK    3  A    between atoms: C7_7  and  C9_9 
REMARK    4  A    between atoms: C8_8  and  C9_9 
REMARK    5  A    between atoms: C9_9  and  O10_10 
ROOT
HETATM    1  C7  UNL     1     -35.828  14.828  -3.595  1.00 20.00     0.126 C 
ENDROOT
BRANCH   1   2
HETATM    2  C2  UNL     1     -35.292  15.694  -2.532  1.00 20.00    -0.099 C 
HETATM    3  C1  UNL     1     -34.856  16.400  -1.663  1.00 20.00    -0.072 C 
BRANCH   3   4
HETATM    4  C4  UNL     1     -34.341  17.244  -0.634  1.00 20.00    -0.018 C 
HETATM    5  C3  UNL     1     -33.208  17.927  -0.853  1.00 20.00     0.028 C 
HETATM    6  C5  UNL     1     -35.084  17.339   0.665  1.00 20.00     0.057 C 
ENDBRANCH   3   4
ENDBRANCH   1   2
BRANCH   1   7
HETATM    7  C9  UNL     1     -34.756  13.947  -4.249  1.00 20.00     0.129 C 
BRANCH   7   8
HETATM    8  C8  UNL     1     -34.509  14.286  -5.724  1.00 20.00     0.028 C 
HETATM    9  C6  UNL     1     -34.641  15.778  -5.999  1.00 20.00     0.007 C 
ENDBRANCH   7   8
BRANCH   7  10
HETATM   10  O10 UNL     1     -35.123  12.573  -4.135  1.00 20.00    -0.395 OA
HETATM   11  H24 UNL     1     -34.728  12.119  -4.895  1.00 20.00     0.210 HD
ENDBRANCH   7  10
ENDBRANCH   1   7
TORSDOF 5
ENDMDL
MODEL 8
REMARK VINA RESULT:      -4.4     12.047     12.895
REMARK  5 active torsions:
REMARK  status: ('A' for Active; 'I' for Inactive)
REMARK    1  A    between atoms: C1_1  and  C4_4 
REMARK    2  A    between atoms: C2_2  and  C7_7 
REMARK    3  A    between atoms: C7_7  and  C9_9 
REMARK    4  A    between atoms: C8_8  and  C9_9 
REMARK    5  A    between atoms: C9_9  and  O10_10 
ROOT
HETATM    1  C7  UNL     1     -34.270  15.096  -3.400  1.00 20.00     0.126 C 
ENDROOT
BRANCH   1   2
HETATM    2  C2  UNL     1     -34.248  15.990  -2.232  1.00 20.00    -0.099 C 
HETATM    3  C1  UNL     1     -34.229  16.720  -1.278  1.00 20.00    -0.072 C 
BRANCH   3   4
HETATM    4  C4  UNL     1     -34.213  17.584  -0.142  1.00 20.00    -0.018 C 
HETATM    5  C3  UNL     1     -35.205  17.506   0.756  1.00 20.00     0.028 C 
HETATM    6  C5  UNL     1     -33.082  18.559   0.011  1.00 20.00     0.057 C 
ENDBRANCH   3   4
ENDBRANCH   1   2
BRANCH   1   7
HETATM    7  C9  UNL     1     -33.891  15.804  -4.707  1.00 20.00     0.129 C 
BRANCH   7   8
HETATM    8  C8  UNL     1     -34.415  15.091  -5.959  1.00 20.00     0.028 C 
HETATM    9  C6  UNL     1     -35.123  13.785  -5.621  1.00 20.00     0.007 C 
ENDBRANCH   7   8
BRANCH   7  10
HETATM   10  O10 UNL     1     -32.473  15.932  -4.794  1.00 20.00    -0.395 OA
HETATM   11  H24 UNL     1     -32.119  15.660  -3.934  1.00 20.00     0.210 HD
ENDBRANCH   7  10
ENDBRANCH   1   7
TORSDOF 5
ENDMDL
MODEL 9
REMARK VINA RESULT:      -4.2      9.365     11.155
REMARK  5 active torsions:
REMARK  status: ('A' for Active; 'I' for Inactive)
REMARK    1  A    between atoms: C1_1  and  C4_4 
REMARK    2  A    between atoms: C2_2  and  C7_7 
REMARK    3  A    between atoms: C7_7  and  C9_9 
REMARK    4  A    between atoms: C8_8  and  C9_9 
REMARK    5  A    between atoms: C9_9  and  O10_10 
ROOT
HETATM    1  C7  UNL     1     -40.659   5.520  -0.610  1.00 20.00     0.126 C 
ENDROOT
BRANCH   1   2
HETATM    2  C2  UNL     1     -41.163   4.452  -1.486  1.00 20.00    -0.099 C 
HETATM    3  C1  UNL     1     -41.573   3.578  -2.202  1.00 20.00    -0.072 C 
BRANCH   3   4
HETATM    4  C4  UNL     1     -42.060   2.544  -3.057  1.00 20.00    -0.018 C 
HETATM    5  C3  UNL     1     -43.362   2.225  -3.025  1.00 20.00     0.028 C 
HETATM    6  C5  UNL     1     -41.096   1.842  -3.967  1.00 20.00     0.057 C 
ENDBRANCH   3   4
ENDBRANCH   1   2
BRANCH   1   7
HETATM    7  C9  UNL     1     -41.284   6.889  -0.910  1.00 20.00     0.129 C 
BRANCH   7   8
HETATM    8  C8  UNL     1     -42.811   6.901  -0.781  1.00 20.00     0.028 C 
HETATM    9  C6  UNL     1     -43.363   8.314  -0.637  1.00 20.00     0.007 C 
ENDBRANCH   7   8
BRANCH   7  10
HETATM   10  O10 UNL     1     -40.916   7.312  -2.222  1.00 20.00    -0.395 OA
HETATM   11  H24 UNL     1     -40.513   6.543  -2.655  1.00 20.00     0.210 HD
ENDBRANCH   7  10
ENDBRANCH   1   7
TORSDOF 5
ENDMDL
