MODEL 1
REMARK VINA RESULT:      -3.7      0.000      0.000
REMARK  4 active torsions:
REMARK  status: ('A' for Active; 'I' for Inactive)
REMARK    1  A    between atoms: C5_5  and  C7_7 
REMARK    2  A    between atoms: C5_5  and  C8_8 
REMARK    3  A    between atoms: C6_6  and  C7_7 
REMARK    4  A    between atoms: C6_6  and  S9_9 
ROOT
HETATM    1  C5  UNL     1     -34.953  15.576  -3.023  1.00 20.00     0.013 C 
ENDROOT
BRANCH   1   2
HETATM    2  C7  UNL     1     -34.083  16.507  -2.139  1.00 20.00    -0.009 C 
HETATM    3  C1  UNL     1     -34.608  16.676  -0.713  1.00 20.00     0.011 C 
BRANCH   2   4
HETATM    4  C6  UNL     1     -33.863  17.880  -2.817  1.00 20.00     0.075 C 
BRANCH   4   5
HETATM    5  S9  UNL     1     -33.344  19.232  -1.713  1.00 20.00    -0.182 SA
HETATM    6  H27 UNL     1     -32.031  19.101  -1.943  1.00 20.00     0.101 HD
ENDBRANCH   4   5
ENDBRANCH   2   4
ENDBRANCH   1   2
BRANCH   1   7
HETATM    7  C8  UNL     1     -34.259  14.646  -4.063  1.00 20.00    -0.051 C 
HETATM    8  C2  UNL     1     -34.175  15.291  -5.454  1.00 20.00     0.014 C 
HETATM    9  C3  UNL     1     -32.854  14.217  -3.606  1.00 20.00     0.014 C 
HETATM   10  C4  UNL     1     -35.113  13.361  -4.179  1.00 20.00     0.014 C 
ENDBRANCH   1   7
TORSDOF 4
ENDMDL
MODEL 2
REMARK VINA RESULT:      -3.7      0.191      1.426
REMARK  4 active torsions:
REMARK  status: ('A' for Active; 'I' for Inactive)
REMARK    1  A    between atoms: C5_5  and  C7_7 
REMARK    2  A    between atoms: C5_5  and  C8_8 
REMARK    3  A    between atoms: C6_6  and  C7_7 
REMARK    4  A    between atoms: C6_6  and  S9_9 
ROOT
HETATM    1  C5  UNL     1     -34.916  15.610  -2.962  1.00 20.00     0.013 C 
ENDROOT
BRANCH   1   2
HETATM    2  C7  UNL     1     -34.116  16.570  -2.044  1.00 20.00    -0.009 C 
HETATM    3  C1  UNL     1     -34.643  16.641  -0.611  1.00 20.00     0.011 C 
BRANCH   2   4
HETATM    4  C6  UNL     1     -34.010  17.983  -2.668  1.00 20.00     0.075 C 
BRANCH   4   5
HETATM    5  S9  UNL     1     -33.272  19.262  -1.603  1.00 20.00    -0.182 SA
HETATM    6  H27 UNL     1     -34.227  20.178  -1.808  1.00 20.00     0.101 HD
ENDBRANCH   4   5
ENDBRANCH   2   4
ENDBRANCH   1   2
BRANCH   1   7
HETATM    7  C8  UNL     1     -34.148  14.706  -3.972  1.00 20.00    -0.051 C 
HETATM    8  C2  UNL     1     -32.691  14.469  -3.548  1.00 20.00     0.014 C 
HETATM    9  C3  UNL     1     -34.850  13.354  -4.187  1.00 20.00     0.014 C 
HETATM   10  C4  UNL     1     -34.139  15.437  -5.336  1.00 20.00     0.014 C 
ENDBRANCH   1   7
TORSDOF 4
ENDMDL
MODEL 3
REMARK VINA RESULT:      -3.7      0.178      1.491
REMARK  4 active torsions:
REMARK  status: ('A' for Active; 'I' for Inactive)
REMARK    1  A    between atoms: C5_5  and  C7_7 
REMARK    2  A    between atoms: C5_5  and  C8_8 
REMARK    3  A    between atoms: C6_6  and  C7_7 
REMARK    4  A    between atoms: C6_6  and  S9_9 
ROOT
HETATM    1  C5  UNL     1     -34.962  15.598  -3.055  1.00 20.00     0.013 C 
ENDROOT
BRANCH   1   2
HETATM    2  C7  UNL     1     -34.141  16.555  -2.152  1.00 20.00    -0.009 C 
HETATM    3  C1  UNL     1     -34.645  16.633  -0.711  1.00 20.00     0.011 C 
BRANCH   2   4
HETATM    4  C6  UNL     1     -34.034  17.965  -2.781  1.00 20.00     0.075 C 
BRANCH   4   5
HETATM    5  S9  UNL     1     -33.320  19.255  -1.713  1.00 20.00    -0.182 SA
HETATM    6  H27 UNL     1     -34.485  19.844  -1.411  1.00 20.00     0.101 HD
ENDBRANCH   4   5
ENDBRANCH   2   4
ENDBRANCH   1   2
BRANCH   1   7
HETATM    7  C8  UNL     1     -34.219  14.709  -4.097  1.00 20.00    -0.051 C 
HETATM    8  C2  UNL     1     -34.824  13.302  -4.196  1.00 20.00     0.014 C 
HETATM    9  C3  UNL     1     -34.189  15.358  -5.492  1.00 20.00     0.014 C 
HETATM   10  C4  UNL     1     -32.752  14.571  -3.628  1.00 20.00     0.014 C 
ENDBRANCH   1   7
TORSDOF 4
ENDMDL
MODEL 4
REMARK VINA RESULT:      -3.4      1.759      1.923
REMARK  4 active torsions:
REMARK  status: ('A' for Active; 'I' for Inactive)
REMARK    1  A    between atoms: C5_5  and  C7_7 
REMARK    2  A    between atoms: C5_5  and  C8_8 
REMARK    3  A    between atoms: C6_6  and  C7_7 
REMARK    4  A    between atoms: C6_6  and  S9_9 
ROOT
HETATM    1  C5  UNL     1     -35.017  15.238  -2.883  1.00 20.00     0.013 C 
ENDROOT
BRANCH   1   2
HETATM    2  C7  UNL     1     -34.963  16.655  -2.257  1.00 20.00    -0.009 C 
HETATM    3  C1  UNL     1     -34.592  16.664  -0.774  1.00 20.00     0.011 C 
BRANCH   2   4
HETATM    4  C6  UNL     1     -36.280  17.429  -2.505  1.00 20.00     0.075 C 
BRANCH   4   5
HETATM    5  S9  UNL     1     -36.477  18.140  -4.169  1.00 20.00    -0.182 SA
HETATM    6  H27 UNL     1     -37.788  17.883  -4.274  1.00 20.00     0.101 HD
ENDBRANCH   4   5
ENDBRANCH   2   4
ENDBRANCH   1   2
BRANCH   1   7
HETATM    7  C8  UNL     1     -34.104  14.908  -4.103  1.00 20.00    -0.051 C 
HETATM    8  C2  UNL     1     -34.917  14.551  -5.356  1.00 20.00     0.014 C 
HETATM    9  C3  UNL     1     -33.135  16.058  -4.425  1.00 20.00     0.014 C 
HETATM   10  C4  UNL     1     -33.244  13.681  -3.721  1.00 20.00     0.014 C 
ENDBRANCH   1   7
TORSDOF 4
ENDMDL
MODEL 5
REMARK VINA RESULT:      -3.4      2.462      4.559
REMARK  4 active torsions:
REMARK  status: ('A' for Active; 'I' for Inactive)
REMARK    1  A    between atoms: C5_5  and  C7_7 
REMARK    2  A    between atoms: C5_5  and  C8_8 
REMARK    3  A    between atoms: C6_6  and  C7_7 
REMARK    4  A    between atoms: C6_6  and  S9_9 
ROOT
HETATM    1  C5  UNL     1     -34.618  16.301  -1.138  1.00 20.00     0.013 C 
ENDROOT
BRANCH   1   2
HETATM    2  C7  UNL     1     -34.786  16.258  -2.679  1.00 20.00    -0.009 C 
HETATM    3  C1  UNL     1     -36.056  15.545  -3.144  1.00 20.00     0.011 C 
BRANCH   2   4
HETATM    4  C6  UNL     1     -33.532  15.663  -3.364  1.00 20.00     0.075 C 
BRANCH   4   5
HETATM    5  S9  UNL     1     -33.660  13.919  -3.870  1.00 20.00    -0.182 SA
HETATM    6  H27 UNL     1     -32.341  13.703  -3.954  1.00 20.00     0.101 HD
ENDBRANCH   4   5
ENDBRANCH   2   4
ENDBRANCH   1   2
BRANCH   1   7
HETATM    7  C8  UNL     1     -34.562  17.680  -0.416  1.00 20.00    -0.051 C 
HETATM    8  C2  UNL     1     -35.138  17.615   1.006  1.00 20.00     0.014 C 
HETATM    9  C3  UNL     1     -33.134  18.250  -0.370  1.00 20.00     0.014 C 
HETATM   10  C4  UNL     1     -35.421  18.670  -1.238  1.00 20.00     0.014 C 
ENDBRANCH   1   7
TORSDOF 4
ENDMDL
MODEL 6
REMARK VINA RESULT:      -3.4      2.505      4.225
REMARK  4 active torsions:
REMARK  status: ('A' for Active; 'I' for Inactive)
REMARK    1  A    between atoms: C5_5  and  C7_7 
REMARK    2  A    between atoms: C5_5  and  C8_8 
REMARK    3  A    between atoms: C6_6  and  C7_7 
REMARK    4  A    between atoms: C6_6  and  S9_9 
ROOT
HETATM    1  C5  UNL     1     -34.108  15.478  -2.963  1.00 20.00     0.013 C 
ENDROOT
BRANCH   1   2
HETATM    2  C7  UNL     1     -34.850  14.879  -4.185  1.00 20.00    -0.009 C 
HETATM    3  C1  UNL     1     -34.975  13.356  -4.150  1.00 20.00     0.011 C 
BRANCH   2   4
HETATM    4  C6  UNL     1     -34.217  15.354  -5.515  1.00 20.00     0.075 C 
BRANCH   4   5
HETATM    5  S9  UNL     1     -35.020  14.749  -7.033  1.00 20.00    -0.182 SA
HETATM    6  H27 UNL     1     -36.180  15.391  -6.839  1.00 20.00     0.101 HD
ENDBRANCH   4   5
ENDBRANCH   2   4
ENDBRANCH   1   2
BRANCH   1   7
HETATM    7  C8  UNL     1     -34.686  16.747  -2.267  1.00 20.00    -0.051 C 
HETATM    8  C2  UNL     1     -36.128  17.042  -2.704  1.00 20.00     0.014 C 
HETATM    9  C3  UNL     1     -34.621  16.643  -0.734  1.00 20.00     0.014 C 
HETATM   10  C4  UNL     1     -33.802  17.947  -2.681  1.00 20.00     0.014 C 
ENDBRANCH   1   7
TORSDOF 4
ENDMDL
MODEL 7
REMARK VINA RESULT:      -3.3      1.774      3.901
REMARK  4 active torsions:
REMARK  status: ('A' for Active; 'I' for Inactive)
REMARK    1  A    between atoms: C5_5  and  C7_7 
REMARK    2  A    between atoms: C5_5  and  C8_8 
REMARK    3  A    between atoms: C6_6  and  C7_7 
REMARK    4  A    between atoms: C6_6  and  S9_9 
ROOT
HETATM    1  C5  UNL     1     -33.734  16.215  -2.248  1.00 20.00     0.013 C 
ENDROOT
BRANCH   1   2
HETATM    2  C7  UNL     1     -34.228  15.678  -3.616  1.00 20.00    -0.009 C 
HETATM    3  C1  UNL     1     -34.426  14.163  -3.653  1.00 20.00     0.011 C 
BRANCH   2   4
HETATM    4  C6  UNL     1     -33.307  16.147  -4.768  1.00 20.00     0.075 C 
BRANCH   4   5
HETATM    5  S9  UNL     1     -33.730  17.753  -5.513  1.00 20.00    -0.182 SA
HETATM    6  H27 UNL     1     -35.055  17.631  -5.359  1.00 20.00     0.101 HD
ENDBRANCH   4   5
ENDBRANCH   2   4
ENDBRANCH   1   2
BRANCH   1   7
HETATM    7  C8  UNL     1     -34.495  17.394  -1.572  1.00 20.00    -0.051 C 
HETATM    8  C2  UNL     1     -34.776  17.128  -0.085  1.00 20.00     0.014 C 
HETATM    9  C3  UNL     1     -33.745  18.728  -1.725  1.00 20.00     0.014 C 
HETATM   10  C4  UNL     1     -35.852  17.548  -2.297  1.00 20.00     0.014 C 
ENDBRANCH   1   7
TORSDOF 4
ENDMDL
MODEL 8
REMARK VINA RESULT:      -3.3      2.673      4.233
REMARK  4 active torsions:
REMARK  status: ('A' for Active; 'I' for Inactive)
REMARK    1  A    between atoms: C5_5  and  C7_7 
REMARK    2  A    between atoms: C5_5  and  C8_8 
REMARK    3  A    between atoms: C6_6  and  C7_7 
REMARK    4  A    between atoms: C6_6  and  S9_9 
ROOT
HETATM    1  C5  UNL     1     -34.698  15.739  -5.046  1.00 20.00     0.013 C 
ENDROOT
BRANCH   1   2
HETATM    2  C7  UNL     1     -35.438  14.911  -6.128  1.00 20.00    -0.009 C 
HETATM    3  C1  UNL     1     -34.709  14.849  -7.469  1.00 20.00     0.011 C 
BRANCH   2   4
HETATM    4  C6  UNL     1     -36.895  15.401  -6.309  1.00 20.00     0.075 C 
BRANCH   4   5
HETATM    5  S9  UNL     1     -37.970  15.242  -4.848  1.00 20.00    -0.182 SA
HETATM    6  H27 UNL     1     -37.336  16.163  -4.110  1.00 20.00     0.101 HD
ENDBRANCH   4   5
ENDBRANCH   2   4
ENDBRANCH   1   2
BRANCH   1   7
HETATM    7  C8  UNL     1     -34.178  15.024  -3.762  1.00 20.00    -0.051 C 
HETATM    8  C2  UNL     1     -32.645  15.029  -3.676  1.00 20.00     0.014 C 
HETATM    9  C3  UNL     1     -34.770  15.637  -2.482  1.00 20.00     0.014 C 
HETATM   10  C4  UNL     1     -34.652  13.553  -3.825  1.00 20.00     0.014 C 
ENDBRANCH   1   7
TORSDOF 4
ENDMDL
MODEL 9
REMARK VINA RESULT:      -3.3      2.920      3.988
REMARK  4 active torsions:
REMARK  status: ('A' for Active; 'I' for Inactive)
REMARK    1  A    between atoms: C5_5  and  C7_7 
REMARK    2  A    between atoms: C5_5  and  C8_8 
REMARK    3  A    between atoms: C6_6  and  C7_7 
REMARK    4  A    between atoms: C6_6  and  S9_9 
ROOT
HETATM    1  C5  UNL     1     -34.891  16.050  -4.792  1.00 20.00     0.013 C 
ENDROOT
BRANCH   1   2
HETATM    2  C7  UNL     1     -33.962  16.610  -5.900  1.00 20.00    -0.009 C 
HETATM    3  C1  UNL     1     -33.642  18.097  -5.748  1.00 20.00     0.011 C 
BRANCH   2   4
HETATM    4  C6  UNL     1     -34.523  16.303  -7.309  1.00 20.00     0.075 C 
BRANCH   4   5
HETATM    5  S9  UNL     1     -35.289  14.665  -7.515  1.00 20.00    -0.182 SA
HETATM    6  H27 UNL     1     -36.289  15.079  -8.305  1.00 20.00     0.101 HD
ENDBRANCH   4   5
ENDBRANCH   2   4
ENDBRANCH   1   2
BRANCH   1   7
HETATM    7  C8  UNL     1     -34.292  15.124  -3.691  1.00 20.00    -0.051 C 
HETATM    8  C2  UNL     1     -34.803  13.680  -3.807  1.00 20.00     0.014 C 
HETATM    9  C3  UNL     1     -32.753  15.130  -3.707  1.00 20.00     0.014 C 
HETATM   10  C4  UNL     1     -34.736  15.684  -2.320  1.00 20.00     0.014 C 
ENDBRANCH   1   7
TORSDOF 4
ENDMDL
