MODEL 1
REMARK VINA RESULT:      -4.7      0.000      0.000
REMARK  3 active torsions:
REMARK  status: ('A' for Active; 'I' for Inactive)
REMARK    1  A    between atoms: C3_3  and  C9_9 
REMARK    2  A    between atoms: C8_8  and  C10_10 
REMARK    3  A    between atoms: C9_9  and  C10_10 
ROOT
HETATM    1  C1  UNL     1     -34.482   4.692   5.552  1.00 20.00    -0.026 C 
HETATM    2  C2  UNL     1     -34.099   5.976   5.621  1.00 20.00    -0.025 C 
HETATM    3  C4  UNL     1     -35.785   5.864   4.046  1.00 20.00     0.017 C 
HETATM    4  C5  UNL     1     -34.010   4.559   3.134  1.00 20.00     0.013 C 
HETATM    5  C6  UNL     1     -35.126   4.490   4.201  1.00 20.00     0.009 C 
HETATM    6  C7  UNL     1     -34.479   6.626   4.311  1.00 20.00     0.012 C 
HETATM    7  C8  UNL     1     -33.595   6.064   3.167  1.00 20.00    -0.006 C 
ENDROOT
BRANCH   7   8
HETATM    8  C10 UNL     1     -32.100   6.279   3.341  1.00 20.00     0.012 C 
BRANCH   8   9
HETATM    9  C9  UNL     1     -31.727   7.749   3.191  1.00 20.00     0.070 C 
BRANCH   9  10
HETATM   10  C3  UNL     1     -32.074   8.298   1.828  1.00 20.00     0.231 C 
HETATM   11  O11 UNL     1     -32.435   9.450   1.610  1.00 20.00    -0.307 OA
ENDBRANCH   9  10
ENDBRANCH   8   9
ENDBRANCH   7   8
TORSDOF 3
ENDMDL
MODEL 2
REMARK VINA RESULT:      -4.5     11.078     12.052
REMARK  3 active torsions:
REMARK  status: ('A' for Active; 'I' for Inactive)
REMARK    1  A    between atoms: C3_3  and  C9_9 
REMARK    2  A    between atoms: C8_8  and  C10_10 
REMARK    3  A    between atoms: C9_9  and  C10_10 
ROOT
HETATM    1  C1  UNL     1     -34.163  15.495  -5.439  1.00 20.00    -0.026 C 
HETATM    2  C2  UNL     1     -33.324  15.958  -4.500  1.00 20.00    -0.025 C 
HETATM    3  C4  UNL     1     -33.627  13.708  -4.075  1.00 20.00     0.017 C 
HETATM    4  C5  UNL     1     -35.779  14.684  -3.760  1.00 20.00     0.013 C 
HETATM    5  C6  UNL     1     -34.811  14.249  -4.883  1.00 20.00     0.009 C 
HETATM    6  C7  UNL     1     -33.420  15.025  -3.315  1.00 20.00     0.012 C 
HETATM    7  C8  UNL     1     -34.809  15.174  -2.639  1.00 20.00    -0.006 C 
ENDROOT
BRANCH   7   8
HETATM    8  C10 UNL     1     -35.130  16.568  -2.123  1.00 20.00     0.012 C 
BRANCH   8   9
HETATM    9  C9  UNL     1     -34.548  16.795  -0.733  1.00 20.00     0.070 C 
BRANCH   9  10
HETATM   10  C3  UNL     1     -33.542  17.920  -0.702  1.00 20.00     0.231 C 
HETATM   11  O11 UNL     1     -33.234  18.608  -1.669  1.00 20.00    -0.307 OA
ENDBRANCH   9  10
ENDBRANCH   8   9
ENDBRANCH   7   8
TORSDOF 3
ENDMDL
MODEL 3
REMARK VINA RESULT:      -4.4     10.739     11.922
REMARK  3 active torsions:
REMARK  status: ('A' for Active; 'I' for Inactive)
REMARK    1  A    between atoms: C3_3  and  C9_9 
REMARK    2  A    between atoms: C8_8  and  C10_10 
REMARK    3  A    between atoms: C9_9  and  C10_10 
ROOT
HETATM    1  C1  UNL     1     -36.445  14.343  -4.253  1.00 20.00    -0.026 C 
HETATM    2  C2  UNL     1     -36.158  15.552  -4.761  1.00 20.00    -0.025 C 
HETATM    3  C4  UNL     1     -34.655  14.063  -5.687  1.00 20.00     0.017 C 
HETATM    4  C5  UNL     1     -34.166  14.051  -3.353  1.00 20.00     0.013 C 
HETATM    5  C6  UNL     1     -35.195  13.503  -4.367  1.00 20.00     0.009 C 
HETATM    6  C7  UNL     1     -34.713  15.518  -5.204  1.00 20.00     0.012 C 
HETATM    7  C8  UNL     1     -33.783  15.435  -3.965  1.00 20.00    -0.006 C 
ENDROOT
BRANCH   7   8
HETATM    8  C10 UNL     1     -33.911  16.590  -2.983  1.00 20.00     0.012 C 
BRANCH   8   9
HETATM    9  C9  UNL     1     -34.525  16.134  -1.665  1.00 20.00     0.070 C 
BRANCH   9  10
HETATM   10  C3  UNL     1     -34.383  17.165  -0.572  1.00 20.00     0.231 C 
HETATM   11  O11 UNL     1     -34.999  17.149   0.488  1.00 20.00    -0.307 OA
ENDBRANCH   9  10
ENDBRANCH   8   9
ENDBRANCH   7   8
TORSDOF 3
ENDMDL
MODEL 4
REMARK VINA RESULT:      -4.4     11.317     12.395
REMARK  3 active torsions:
REMARK  status: ('A' for Active; 'I' for Inactive)
REMARK    1  A    between atoms: C3_3  and  C9_9 
REMARK    2  A    between atoms: C8_8  and  C10_10 
REMARK    3  A    between atoms: C9_9  and  C10_10 
ROOT
HETATM    1  C1  UNL     1     -35.187  18.679  -2.138  1.00 20.00    -0.026 C 
HETATM    2  C2  UNL     1     -35.794  17.741  -1.396  1.00 20.00    -0.025 C 
HETATM    3  C4  UNL     1     -33.536  17.604  -0.930  1.00 20.00     0.017 C 
HETATM    4  C5  UNL     1     -33.720  17.027  -3.237  1.00 20.00     0.013 C 
HETATM    5  C6  UNL     1     -33.746  18.256  -2.301  1.00 20.00     0.009 C 
HETATM    6  C7  UNL     1     -34.759  16.688  -1.072  1.00 20.00     0.012 C 
HETATM    7  C8  UNL     1     -34.375  15.913  -2.360  1.00 20.00    -0.006 C 
ENDROOT
BRANCH   7   8
HETATM    8  C10 UNL     1     -35.526  15.196  -3.049  1.00 20.00     0.012 C 
BRANCH   8   9
HETATM    9  C9  UNL     1     -35.240  14.980  -4.530  1.00 20.00     0.070 C 
BRANCH   9  10
HETATM   10  C3  UNL     1     -34.552  13.664  -4.803  1.00 20.00     0.231 C 
HETATM   11  O11 UNL     1     -34.983  12.568  -4.464  1.00 20.00    -0.307 OA
ENDBRANCH   9  10
ENDBRANCH   8   9
ENDBRANCH   7   8
TORSDOF 3
ENDMDL
MODEL 5
REMARK VINA RESULT:      -4.3     11.040     12.526
REMARK  3 active torsions:
REMARK  status: ('A' for Active; 'I' for Inactive)
REMARK    1  A    between atoms: C3_3  and  C9_9 
REMARK    2  A    between atoms: C8_8  and  C10_10 
REMARK    3  A    between atoms: C9_9  and  C10_10 
ROOT
HETATM    1  C1  UNL     1     -33.716  16.048  -2.679  1.00 20.00    -0.026 C 
HETATM    2  C2  UNL     1     -34.898  15.414  -2.641  1.00 20.00    -0.025 C 
HETATM    3  C4  UNL     1     -33.424  14.019  -3.744  1.00 20.00     0.017 C 
HETATM    4  C5  UNL     1     -33.605  15.943  -5.141  1.00 20.00     0.013 C 
HETATM    5  C6  UNL     1     -32.934  15.468  -3.833  1.00 20.00     0.009 C 
HETATM    6  C7  UNL     1     -34.906  14.417  -3.777  1.00 20.00     0.012 C 
HETATM    7  C8  UNL     1     -34.959  15.166  -5.135  1.00 20.00    -0.006 C 
ENDROOT
BRANCH   7   8
HETATM    8  C10 UNL     1     -36.173  16.060  -5.332  1.00 20.00     0.012 C 
BRANCH   8   9
HETATM    9  C9  UNL     1     -37.407  15.249  -5.709  1.00 20.00     0.070 C 
BRANCH   9  10
HETATM   10  C3  UNL     1     -38.390  15.126  -4.570  1.00 20.00     0.231 C 
HETATM   11  O11 UNL     1     -38.405  14.210  -3.756  1.00 20.00    -0.307 OA
ENDBRANCH   9  10
ENDBRANCH   8   9
ENDBRANCH   7   8
TORSDOF 3
ENDMDL
MODEL 6
REMARK VINA RESULT:      -4.3      9.395     10.888
REMARK  3 active torsions:
REMARK  status: ('A' for Active; 'I' for Inactive)
REMARK    1  A    between atoms: C3_3  and  C9_9 
REMARK    2  A    between atoms: C8_8  and  C10_10 
REMARK    3  A    between atoms: C9_9  and  C10_10 
ROOT
HETATM    1  C1  UNL     1     -42.961   6.134   0.035  1.00 20.00    -0.026 C 
HETATM    2  C2  UNL     1     -42.506   4.923   0.389  1.00 20.00    -0.025 C 
HETATM    3  C4  UNL     1     -40.681   6.135  -0.344  1.00 20.00     0.017 C 
HETATM    4  C5  UNL     1     -42.083   5.923  -2.261  1.00 20.00     0.013 C 
HETATM    5  C6  UNL     1     -41.967   6.717  -0.941  1.00 20.00     0.009 C 
HETATM    6  C7  UNL     1     -41.212   4.695  -0.360  1.00 20.00     0.012 C 
HETATM    7  C8  UNL     1     -41.503   4.525  -1.875  1.00 20.00    -0.006 C 
ENDROOT
BRANCH   7   8
HETATM    8  C10 UNL     1     -42.422   3.367  -2.230  1.00 20.00     0.012 C 
BRANCH   8   9
HETATM    9  C9  UNL     1     -41.829   2.507  -3.340  1.00 20.00     0.070 C 
BRANCH   9  10
HETATM   10  C3  UNL     1     -42.854   2.107  -4.374  1.00 20.00     0.231 C 
HETATM   11  O11 UNL     1     -42.658   2.097  -5.584  1.00 20.00    -0.307 OA
ENDBRANCH   9  10
ENDBRANCH   8   9
ENDBRANCH   7   8
TORSDOF 3
ENDMDL
MODEL 7
REMARK VINA RESULT:      -4.3      9.046     10.377
REMARK  3 active torsions:
REMARK  status: ('A' for Active; 'I' for Inactive)
REMARK    1  A    between atoms: C3_3  and  C9_9 
REMARK    2  A    between atoms: C8_8  and  C10_10 
REMARK    3  A    between atoms: C9_9  and  C10_10 
ROOT
HETATM    1  C1  UNL     1     -42.431   5.492   0.380  1.00 20.00    -0.026 C 
HETATM    2  C2  UNL     1     -43.040   5.191  -0.778  1.00 20.00    -0.025 C 
HETATM    3  C4  UNL     1     -40.789   4.765  -1.075  1.00 20.00     0.017 C 
HETATM    4  C5  UNL     1     -40.921   7.117  -0.701  1.00 20.00     0.013 C 
HETATM    5  C6  UNL     1     -40.982   5.774   0.062  1.00 20.00     0.009 C 
HETATM    6  C7  UNL     1     -41.996   5.283  -1.868  1.00 20.00     0.012 C 
HETATM    7  C8  UNL     1     -41.577   6.763  -2.073  1.00 20.00    -0.006 C 
ENDROOT
BRANCH   7   8
HETATM    8  C10 UNL     1     -42.704   7.704  -2.468  1.00 20.00     0.012 C 
BRANCH   8   9
HETATM    9  C9  UNL     1     -43.013   7.608  -3.957  1.00 20.00     0.070 C 
BRANCH   9  10
HETATM   10  C3  UNL     1     -42.556   8.825  -4.724  1.00 20.00     0.231 C 
HETATM   11  O11 UNL     1     -41.480   8.921  -5.304  1.00 20.00    -0.307 OA
ENDBRANCH   9  10
ENDBRANCH   8   9
ENDBRANCH   7   8
TORSDOF 3
ENDMDL
MODEL 8
REMARK VINA RESULT:      -4.3     11.037     12.256
REMARK  3 active torsions:
REMARK  status: ('A' for Active; 'I' for Inactive)
REMARK    1  A    between atoms: C3_3  and  C9_9 
REMARK    2  A    between atoms: C8_8  and  C10_10 
REMARK    3  A    between atoms: C9_9  and  C10_10 
ROOT
HETATM    1  C1  UNL     1     -33.492  17.792  -1.031  1.00 20.00    -0.026 C 
HETATM    2  C2  UNL     1     -33.565  18.354  -2.247  1.00 20.00    -0.025 C 
HETATM    3  C4  UNL     1     -35.736  18.046  -1.521  1.00 20.00     0.017 C 
HETATM    4  C5  UNL     1     -34.841  15.845  -1.719  1.00 20.00     0.013 C 
HETATM    5  C6  UNL     1     -34.800  17.078  -0.789  1.00 20.00     0.009 C 
HETATM    6  C7  UNL     1     -34.920  18.004  -2.819  1.00 20.00     0.012 C 
HETATM    7  C8  UNL     1     -34.983  16.486  -3.135  1.00 20.00    -0.006 C 
ENDROOT
BRANCH   7   8
HETATM    8  C10 UNL     1     -33.948  15.991  -4.133  1.00 20.00     0.012 C 
BRANCH   8   9
HETATM    9  C9  UNL     1     -33.434  14.605  -3.761  1.00 20.00     0.070 C 
BRANCH   9  10
HETATM   10  C3  UNL     1     -34.083  13.509  -4.571  1.00 20.00     0.231 C 
HETATM   11  O11 UNL     1     -35.033  12.831  -4.194  1.00 20.00    -0.307 OA
ENDBRANCH   9  10
ENDBRANCH   8   9
ENDBRANCH   7   8
TORSDOF 3
ENDMDL
MODEL 9
REMARK VINA RESULT:      -4.2     11.410     12.530
REMARK  3 active torsions:
REMARK  status: ('A' for Active; 'I' for Inactive)
REMARK    1  A    between atoms: C3_3  and  C9_9 
REMARK    2  A    between atoms: C8_8  and  C10_10 
REMARK    3  A    between atoms: C9_9  and  C10_10 
ROOT
HETATM    1  C1  UNL     1     -33.827  17.147  -3.658  1.00 20.00    -0.026 C 
HETATM    2  C2  UNL     1     -35.158  17.267  -3.786  1.00 20.00    -0.025 C 
HETATM    3  C4  UNL     1     -34.770  16.228  -1.759  1.00 20.00     0.017 C 
HETATM    4  C5  UNL     1     -33.956  14.697  -3.396  1.00 20.00     0.013 C 
HETATM    5  C6  UNL     1     -33.571  16.017  -2.690  1.00 20.00     0.009 C 
HETATM    6  C7  UNL     1     -35.787  16.209  -2.908  1.00 20.00     0.012 C 
HETATM    7  C8  UNL     1     -35.510  14.801  -3.499  1.00 20.00    -0.006 C 
ENDROOT
BRANCH   7   8
HETATM    8  C10 UNL     1     -36.043  14.574  -4.905  1.00 20.00     0.012 C 
BRANCH   8   9
HETATM    9  C9  UNL     1     -34.974  13.983  -5.816  1.00 20.00     0.070 C 
BRANCH   9  10
HETATM   10  C3  UNL     1     -34.687  14.854  -7.015  1.00 20.00     0.231 C 
HETATM   11  O11 UNL     1     -34.084  15.921  -6.974  1.00 20.00    -0.307 OA
ENDBRANCH   9  10
ENDBRANCH   8   9
ENDBRANCH   7   8
TORSDOF 3
ENDMDL
