MODEL 1
REMARK VINA RESULT:      -4.7      0.000      0.000
REMARK  4 active torsions:
REMARK  status: ('A' for Active; 'I' for Inactive)
REMARK    1  A    between atoms: C1_1  and  C6_6 
REMARK    2  A    between atoms: C2_2  and  C8_8 
REMARK    3  A    between atoms: C8_8  and  C10_10 
REMARK    4  A    between atoms: C9_9  and  C10_10 
ROOT
HETATM    1  C1  UNL     1     -33.878  15.872  -2.653  1.00 20.00    -0.074 C 
HETATM    2  C2  UNL     1     -34.295  16.381  -1.650  1.00 20.00    -0.104 C 
ENDROOT
BRANCH   1   3
HETATM    3  C6  UNL     1     -33.369  15.247  -3.882  1.00 20.00     0.200 C 
HETATM    4  C4  UNL     1     -33.381  13.729  -3.801  1.00 20.00     0.047 C 
HETATM    5  C3  UNL     1     -34.721  13.373  -4.400  1.00 20.00     0.030 C 
HETATM    6  C5  UNL     1     -34.868  14.425  -5.476  1.00 20.00     0.169 C 
HETATM    7  O11 UNL     1     -34.221  15.607  -4.983  1.00 20.00    -0.374 OA
ENDBRANCH   1   3
BRANCH   2   8
HETATM    8  C8  UNL     1     -34.806  17.007  -0.422  1.00 20.00     0.094 C 
BRANCH   8   9
HETATM    9  C10 UNL     1     -34.291  18.438  -0.278  1.00 20.00     0.012 C 
BRANCH   9  10
HETATM   10  C9  UNL     1     -33.288  18.556   0.871  1.00 20.00    -0.004 C 
HETATM   11  C7  UNL     1     -31.909  18.952   0.368  1.00 20.00     0.005 C 
ENDBRANCH   9  10
ENDBRANCH   8   9
ENDBRANCH   2   8
TORSDOF 4
ENDMDL
MODEL 2
REMARK VINA RESULT:      -4.7      0.853      1.272
REMARK  4 active torsions:
REMARK  status: ('A' for Active; 'I' for Inactive)
REMARK    1  A    between atoms: C1_1  and  C6_6 
REMARK    2  A    between atoms: C2_2  and  C8_8 
REMARK    3  A    between atoms: C8_8  and  C10_10 
REMARK    4  A    between atoms: C9_9  and  C10_10 
ROOT
HETATM    1  C1  UNL     1     -33.965  15.828  -2.676  1.00 20.00    -0.074 C 
HETATM    2  C2  UNL     1     -34.353  16.335  -1.660  1.00 20.00    -0.104 C 
ENDROOT
BRANCH   1   3
HETATM    3  C6  UNL     1     -33.490  15.207  -3.920  1.00 20.00     0.200 C 
HETATM    4  C4  UNL     1     -33.482  13.689  -3.837  1.00 20.00     0.047 C 
HETATM    5  C3  UNL     1     -34.836  13.317  -4.392  1.00 20.00     0.030 C 
HETATM    6  C5  UNL     1     -35.030  14.366  -5.463  1.00 20.00     0.169 C 
HETATM    7  O11 UNL     1     -34.381  15.556  -4.993  1.00 20.00    -0.374 OA
ENDBRANCH   1   3
BRANCH   2   8
HETATM    8  C8  UNL     1     -34.826  16.955  -0.414  1.00 20.00     0.094 C 
BRANCH   8   9
HETATM    9  C10 UNL     1     -33.869  18.050   0.054  1.00 20.00     0.012 C 
BRANCH   9  10
HETATM   10  C9  UNL     1     -34.100  18.401   1.524  1.00 20.00    -0.004 C 
HETATM   11  C7  UNL     1     -35.288  17.644   2.097  1.00 20.00     0.005 C 
ENDBRANCH   9  10
ENDBRANCH   8   9
ENDBRANCH   2   8
TORSDOF 4
ENDMDL
MODEL 3
REMARK VINA RESULT:      -4.5     10.041     11.169
REMARK  4 active torsions:
REMARK  status: ('A' for Active; 'I' for Inactive)
REMARK    1  A    between atoms: C1_1  and  C6_6 
REMARK    2  A    between atoms: C2_2  and  C8_8 
REMARK    3  A    between atoms: C8_8  and  C10_10 
REMARK    4  A    between atoms: C9_9  and  C10_10 
ROOT
HETATM    1  C1  UNL     1     -32.708   6.961   2.723  1.00 20.00    -0.074 C 
HETATM    2  C2  UNL     1     -33.452   6.061   3.001  1.00 20.00    -0.104 C 
ENDROOT
BRANCH   1   3
HETATM    3  C6  UNL     1     -31.798   8.063   2.381  1.00 20.00     0.200 C 
HETATM    4  C4  UNL     1     -31.538   8.148   0.885  1.00 20.00     0.047 C 
HETATM    5  C3  UNL     1     -32.591   9.124   0.418  1.00 20.00     0.030 C 
HETATM    6  C5  UNL     1     -32.663  10.082   1.585  1.00 20.00     0.169 C 
HETATM    7  O11 UNL     1     -32.400   9.311   2.765  1.00 20.00    -0.374 OA
ENDBRANCH   1   3
BRANCH   2   8
HETATM    8  C8  UNL     1     -34.364   4.961   3.342  1.00 20.00     0.094 C 
BRANCH   8   9
HETATM    9  C10 UNL     1     -35.268   5.338   4.515  1.00 20.00     0.012 C 
BRANCH   9  10
HETATM   10  C9  UNL     1     -34.567   5.104   5.854  1.00 20.00    -0.004 C 
HETATM   11  C7  UNL     1     -34.092   6.411   6.470  1.00 20.00     0.005 C 
ENDBRANCH   9  10
ENDBRANCH   8   9
ENDBRANCH   2   8
TORSDOF 4
ENDMDL
MODEL 4
REMARK VINA RESULT:      -4.4     10.979     12.109
REMARK  4 active torsions:
REMARK  status: ('A' for Active; 'I' for Inactive)
REMARK    1  A    between atoms: C1_1  and  C6_6 
REMARK    2  A    between atoms: C2_2  and  C8_8 
REMARK    3  A    between atoms: C8_8  and  C10_10 
REMARK    4  A    between atoms: C9_9  and  C10_10 
ROOT
HETATM    1  C1  UNL     1     -33.772   6.518   3.976  1.00 20.00    -0.074 C 
HETATM    2  C2  UNL     1     -32.883   6.832   3.235  1.00 20.00    -0.104 C 
ENDROOT
BRANCH   1   3
HETATM    3  C6  UNL     1     -34.863   6.135   4.883  1.00 20.00     0.200 C 
HETATM    4  C4  UNL     1     -35.486   4.801   4.501  1.00 20.00     0.047 C 
HETATM    5  C3  UNL     1     -34.700   3.816   5.332  1.00 20.00     0.030 C 
HETATM    6  C5  UNL     1     -34.462   4.602   6.601  1.00 20.00     0.169 C 
HETATM    7  O11 UNL     1     -34.338   5.977   6.213  1.00 20.00    -0.374 OA
ENDBRANCH   1   3
BRANCH   2   8
HETATM    8  C8  UNL     1     -31.794   7.215   2.324  1.00 20.00     0.094 C 
BRANCH   8   9
HETATM    9  C10 UNL     1     -31.542   8.721   2.371  1.00 20.00     0.012 C 
BRANCH   9  10
HETATM   10  C9  UNL     1     -32.576   9.485   1.543  1.00 20.00    -0.004 C 
HETATM   11  C7  UNL     1     -32.525   9.083   0.078  1.00 20.00     0.005 C 
ENDBRANCH   9  10
ENDBRANCH   8   9
ENDBRANCH   2   8
TORSDOF 4
ENDMDL
MODEL 5
REMARK VINA RESULT:      -4.3      1.385      1.820
REMARK  4 active torsions:
REMARK  status: ('A' for Active; 'I' for Inactive)
REMARK    1  A    between atoms: C1_1  and  C6_6 
REMARK    2  A    between atoms: C2_2  and  C8_8 
REMARK    3  A    between atoms: C8_8  and  C10_10 
REMARK    4  A    between atoms: C9_9  and  C10_10 
ROOT
HETATM    1  C1  UNL     1     -35.182  15.433  -2.852  1.00 20.00    -0.074 C 
HETATM    2  C2  UNL     1     -34.631  16.157  -2.070  1.00 20.00    -0.104 C 
ENDROOT
BRANCH   1   3
HETATM    3  C6  UNL     1     -35.858  14.546  -3.809  1.00 20.00     0.200 C 
HETATM    4  C4  UNL     1     -35.894  15.135  -5.210  1.00 20.00     0.047 C 
HETATM    5  C3  UNL     1     -34.650  14.560  -5.845  1.00 20.00     0.030 C 
HETATM    6  C5  UNL     1     -34.594  13.182  -5.224  1.00 20.00     0.169 C 
HETATM    7  O11 UNL     1     -35.132  13.308  -3.900  1.00 20.00    -0.374 OA
ENDBRANCH   1   3
BRANCH   2   8
HETATM    8  C8  UNL     1     -33.955  17.047  -1.115  1.00 20.00     0.094 C 
BRANCH   8   9
HETATM    9  C10 UNL     1     -34.831  17.307   0.110  1.00 20.00     0.012 C 
BRANCH   9  10
HETATM   10  C9  UNL     1     -34.134  18.235   1.105  1.00 20.00    -0.004 C 
HETATM   11  C7  UNL     1     -32.820  18.763   0.550  1.00 20.00     0.005 C 
ENDBRANCH   9  10
ENDBRANCH   8   9
ENDBRANCH   2   8
TORSDOF 4
ENDMDL
MODEL 6
REMARK VINA RESULT:      -4.3      1.099      1.633
REMARK  4 active torsions:
REMARK  status: ('A' for Active; 'I' for Inactive)
REMARK    1  A    between atoms: C1_1  and  C6_6 
REMARK    2  A    between atoms: C2_2  and  C8_8 
REMARK    3  A    between atoms: C8_8  and  C10_10 
REMARK    4  A    between atoms: C9_9  and  C10_10 
ROOT
HETATM    1  C1  UNL     1     -34.562  15.168  -2.915  1.00 20.00    -0.074 C 
HETATM    2  C2  UNL     1     -34.224  16.062  -2.191  1.00 20.00    -0.104 C 
ENDROOT
BRANCH   1   3
HETATM    3  C6  UNL     1     -34.975  14.071  -3.802  1.00 20.00     0.200 C 
HETATM    4  C4  UNL     1     -36.404  14.238  -4.293  1.00 20.00     0.047 C 
HETATM    5  C3  UNL     1     -36.223  14.973  -5.600  1.00 20.00     0.030 C 
HETATM    6  C5  UNL     1     -34.937  14.371  -6.119  1.00 20.00     0.169 C 
HETATM    7  O11 UNL     1     -34.136  14.065  -4.969  1.00 20.00    -0.374 OA
ENDBRANCH   1   3
BRANCH   2   8
HETATM    8  C8  UNL     1     -33.814  17.159  -1.302  1.00 20.00     0.094 C 
BRANCH   8   9
HETATM    9  C10 UNL     1     -34.696  17.218  -0.056  1.00 20.00     0.012 C 
BRANCH   9  10
HETATM   10  C9  UNL     1     -34.176  18.249   0.946  1.00 20.00    -0.004 C 
HETATM   11  C7  UNL     1     -32.799  18.761   0.555  1.00 20.00     0.005 C 
ENDBRANCH   9  10
ENDBRANCH   8   9
ENDBRANCH   2   8
TORSDOF 4
ENDMDL
MODEL 7
REMARK VINA RESULT:      -4.2      1.583      5.646
REMARK  4 active torsions:
REMARK  status: ('A' for Active; 'I' for Inactive)
REMARK    1  A    between atoms: C1_1  and  C6_6 
REMARK    2  A    between atoms: C2_2  and  C8_8 
REMARK    3  A    between atoms: C8_8  and  C10_10 
REMARK    4  A    between atoms: C9_9  and  C10_10 
ROOT
HETATM    1  C1  UNL     1     -34.808  15.803  -2.495  1.00 20.00    -0.074 C 
HETATM    2  C2  UNL     1     -34.452  14.844  -3.121  1.00 20.00    -0.104 C 
ENDROOT
BRANCH   1   3
HETATM    3  C6  UNL     1     -35.245  16.979  -1.728  1.00 20.00     0.200 C 
HETATM    4  C4  UNL     1     -34.601  17.037  -0.352  1.00 20.00     0.047 C 
HETATM    5  C3  UNL     1     -33.374  17.885  -0.593  1.00 20.00     0.030 C 
HETATM    6  C5  UNL     1     -33.878  18.871  -1.623  1.00 20.00     0.169 C 
HETATM    7  O11 UNL     1     -34.841  18.172  -2.422  1.00 20.00    -0.374 OA
ENDBRANCH   1   3
BRANCH   2   8
HETATM    8  C8  UNL     1     -34.019  13.667  -3.888  1.00 20.00     0.094 C 
BRANCH   8   9
HETATM    9  C10 UNL     1     -34.722  13.602  -5.243  1.00 20.00     0.012 C 
BRANCH   9  10
HETATM   10  C9  UNL     1     -34.491  14.879  -6.052  1.00 20.00    -0.004 C 
HETATM   11  C7  UNL     1     -34.870  14.689  -7.512  1.00 20.00     0.005 C 
ENDBRANCH   9  10
ENDBRANCH   8   9
ENDBRANCH   2   8
TORSDOF 4
ENDMDL
MODEL 8
REMARK VINA RESULT:      -4.0     12.988     16.110
REMARK  4 active torsions:
REMARK  status: ('A' for Active; 'I' for Inactive)
REMARK    1  A    between atoms: C1_1  and  C6_6 
REMARK    2  A    between atoms: C2_2  and  C8_8 
REMARK    3  A    between atoms: C8_8  and  C10_10 
REMARK    4  A    between atoms: C9_9  and  C10_10 
ROOT
HETATM    1  C1  UNL     1     -41.953   3.701  -2.353  1.00 20.00    -0.074 C 
HETATM    2  C2  UNL     1     -41.547   2.810  -3.046  1.00 20.00    -0.104 C 
ENDROOT
BRANCH   1   3
HETATM    3  C6  UNL     1     -42.452   4.791  -1.503  1.00 20.00     0.200 C 
HETATM    4  C4  UNL     1     -41.767   4.818  -0.145  1.00 20.00     0.047 C 
HETATM    5  C3  UNL     1     -40.618   5.772  -0.370  1.00 20.00     0.030 C 
HETATM    6  C5  UNL     1     -41.231   6.775  -1.322  1.00 20.00     0.169 C 
HETATM    7  O11 UNL     1     -42.165   6.051  -2.134  1.00 20.00    -0.374 OA
ENDBRANCH   1   3
BRANCH   2   8
HETATM    8  C8  UNL     1     -41.047   1.718  -3.894  1.00 20.00     0.094 C 
BRANCH   8   9
HETATM    9  C10 UNL     1     -42.184   0.796  -4.332  1.00 20.00     0.012 C 
BRANCH   9  10
HETATM   10  C9  UNL     1     -42.096  -0.565  -3.641  1.00 20.00    -0.004 C 
HETATM   11  C7  UNL     1     -40.942  -1.392  -4.185  1.00 20.00     0.005 C 
ENDBRANCH   9  10
ENDBRANCH   8   9
ENDBRANCH   2   8
TORSDOF 4
ENDMDL
MODEL 9
REMARK VINA RESULT:      -3.8      2.594      6.310
REMARK  4 active torsions:
REMARK  status: ('A' for Active; 'I' for Inactive)
REMARK    1  A    between atoms: C1_1  and  C6_6 
REMARK    2  A    between atoms: C2_2  and  C8_8 
REMARK    3  A    between atoms: C8_8  and  C10_10 
REMARK    4  A    between atoms: C9_9  and  C10_10 
ROOT
HETATM    1  C1  UNL     1     -34.301  17.874  -0.123  1.00 20.00    -0.074 C 
HETATM    2  C2  UNL     1     -34.429  16.999  -0.934  1.00 20.00    -0.104 C 
ENDROOT
BRANCH   1   3
HETATM    3  C6  UNL     1     -34.146  18.945   0.871  1.00 20.00     0.200 C 
HETATM    4  C4  UNL     1     -35.241  18.911   1.926  1.00 20.00     0.047 C 
HETATM    5  C3  UNL     1     -34.626  18.068   3.017  1.00 20.00     0.030 C 
HETATM    6  C5  UNL     1     -33.173  18.478   2.943  1.00 20.00     0.169 C 
HETATM    7  O11 UNL     1     -32.900  18.769   1.566  1.00 20.00    -0.374 OA
ENDBRANCH   1   3
BRANCH   2   8
HETATM    8  C8  UNL     1     -34.584  15.925  -1.925  1.00 20.00     0.094 C 
BRANCH   8   9
HETATM    9  C10 UNL     1     -33.490  15.996  -2.990  1.00 20.00     0.012 C 
BRANCH   9  10
HETATM   10  C9  UNL     1     -33.762  15.019  -4.134  1.00 20.00    -0.004 C 
HETATM   11  C7  UNL     1     -34.363  13.719  -3.626  1.00 20.00     0.005 C 
ENDBRANCH   9  10
ENDBRANCH   8   9
ENDBRANCH   2   8
TORSDOF 4
ENDMDL
