MODEL 1
REMARK VINA RESULT:      -3.6      0.000      0.000
REMARK  2 active torsions:
REMARK  status: ('A' for Active; 'I' for Inactive)
REMARK    1  A    between atoms: C4_4  and  C5_5 
REMARK    2  A    between atoms: C4_4  and  N6_6 
ROOT
HETATM    1  C1  UNL     1     -33.559  16.552  -4.791  1.00 20.00     0.016 C 
HETATM    2  C2  UNL     1     -32.387  14.741  -3.527  1.00 20.00     0.016 C 
HETATM    3  C3  UNL     1     -33.792  16.403  -2.296  1.00 20.00     0.016 C 
HETATM    4  C5  UNL     1     -33.668  15.591  -3.596  1.00 20.00    -0.036 C 
ENDROOT
BRANCH   4   5
HETATM    5  C4  UNL     1     -34.875  14.645  -3.765  1.00 20.00     0.154 C 
BRANCH   5   6
HETATM    6  N6  UNL     1     -34.453  13.240  -3.735  1.00 20.00    -0.063 NA
HETATM    7  O7  UNL     1     -34.923  12.578  -4.675  1.00 20.00    -0.101 OA
ENDBRANCH   5   6
ENDBRANCH   4   5
TORSDOF 2
ENDMDL
MODEL 2
REMARK VINA RESULT:      -3.5     12.021     12.604
REMARK  2 active torsions:
REMARK  status: ('A' for Active; 'I' for Inactive)
REMARK    1  A    between atoms: C4_4  and  C5_5 
REMARK    2  A    between atoms: C4_4  and  N6_6 
ROOT
HETATM    1  C1  UNL     1     -34.698   3.855   5.308  1.00 20.00     0.016 C 
HETATM    2  C2  UNL     1     -35.710   5.709   3.970  1.00 20.00     0.016 C 
HETATM    3  C3  UNL     1     -34.390   6.241   6.026  1.00 20.00     0.016 C 
HETATM    4  C5  UNL     1     -34.492   5.297   4.816  1.00 20.00    -0.036 C 
ENDROOT
BRANCH   4   5
HETATM    5  C4  UNL     1     -33.228   5.398   3.936  1.00 20.00     0.154 C 
BRANCH   5   6
HETATM    6  N6  UNL     1     -33.049   6.761   3.425  1.00 20.00    -0.063 NA
HETATM    7  O7  UNL     1     -31.873   7.152   3.503  1.00 20.00    -0.101 OA
ENDBRANCH   5   6
ENDBRANCH   4   5
TORSDOF 2
ENDMDL
MODEL 3
REMARK VINA RESULT:      -3.5     12.001     12.561
REMARK  2 active torsions:
REMARK  status: ('A' for Active; 'I' for Inactive)
REMARK    1  A    between atoms: C4_4  and  C5_5 
REMARK    2  A    between atoms: C4_4  and  N6_6 
ROOT
HETATM    1  C1  UNL     1     -35.714   5.726   3.975  1.00 20.00     0.016 C 
HETATM    2  C2  UNL     1     -34.351   6.313   5.988  1.00 20.00     0.016 C 
HETATM    3  C3  UNL     1     -34.684   3.913   5.373  1.00 20.00     0.016 C 
HETATM    4  C5  UNL     1     -34.485   5.331   4.811  1.00 20.00    -0.036 C 
ENDROOT
BRANCH   4   5
HETATM    5  C4  UNL     1     -33.200   5.406   3.961  1.00 20.00     0.154 C 
BRANCH   5   6
HETATM    6  N6  UNL     1     -33.029   6.742   3.380  1.00 20.00    -0.063 NA
HETATM    7  O7  UNL     1     -31.868   7.168   3.490  1.00 20.00    -0.101 OA
ENDBRANCH   5   6
ENDBRANCH   4   5
TORSDOF 2
ENDMDL
MODEL 4
REMARK VINA RESULT:      -3.5      0.982      1.765
REMARK  2 active torsions:
REMARK  status: ('A' for Active; 'I' for Inactive)
REMARK    1  A    between atoms: C4_4  and  C5_5 
REMARK    2  A    between atoms: C4_4  and  N6_6 
ROOT
HETATM    1  C1  UNL     1     -34.844  15.859  -3.358  1.00 20.00     0.016 C 
HETATM    2  C2  UNL     1     -33.289  16.524  -5.200  1.00 20.00     0.016 C 
HETATM    3  C3  UNL     1     -32.618  14.724  -3.599  1.00 20.00     0.016 C 
HETATM    4  C5  UNL     1     -33.803  15.339  -4.363  1.00 20.00    -0.036 C 
ENDROOT
BRANCH   4   5
HETATM    5  C4  UNL     1     -34.434  14.303  -5.316  1.00 20.00     0.154 C 
BRANCH   5   6
HETATM    6  N6  UNL     1     -34.332  12.948  -4.764  1.00 20.00    -0.063 NA
HETATM    7  O7  UNL     1     -35.401  12.548  -4.274  1.00 20.00    -0.101 OA
ENDBRANCH   5   6
ENDBRANCH   4   5
TORSDOF 2
ENDMDL
MODEL 5
REMARK VINA RESULT:      -3.4      2.026      2.076
REMARK  2 active torsions:
REMARK  status: ('A' for Active; 'I' for Inactive)
REMARK    1  A    between atoms: C4_4  and  C5_5 
REMARK    2  A    between atoms: C4_4  and  N6_6 
ROOT
HETATM    1  C1  UNL     1     -34.215  15.644  -5.157  1.00 20.00     0.016 C 
HETATM    2  C2  UNL     1     -33.420  13.705  -3.793  1.00 20.00     0.016 C 
HETATM    3  C3  UNL     1     -34.600  15.606  -2.677  1.00 20.00     0.016 C 
HETATM    4  C5  UNL     1     -34.541  14.747  -3.952  1.00 20.00    -0.036 C 
ENDROOT
BRANCH   4   5
HETATM    5  C4  UNL     1     -35.875  14.003  -4.170  1.00 20.00     0.154 C 
BRANCH   5   6
HETATM    6  N6  UNL     1     -36.975  14.676  -3.472  1.00 20.00    -0.063 NA
HETATM    7  O7  UNL     1     -38.086  14.193  -3.749  1.00 20.00    -0.101 OA
ENDBRANCH   5   6
ENDBRANCH   4   5
TORSDOF 2
ENDMDL
MODEL 6
REMARK VINA RESULT:      -3.4      2.030      2.622
REMARK  2 active torsions:
REMARK  status: ('A' for Active; 'I' for Inactive)
REMARK    1  A    between atoms: C4_4  and  C5_5 
REMARK    2  A    between atoms: C4_4  and  N6_6 
ROOT
HETATM    1  C1  UNL     1     -34.621  15.582  -2.662  1.00 20.00     0.016 C 
HETATM    2  C2  UNL     1     -34.235  15.587  -5.133  1.00 20.00     0.016 C 
HETATM    3  C3  UNL     1     -33.390  13.683  -3.749  1.00 20.00     0.016 C 
HETATM    4  C5  UNL     1     -34.537  14.695  -3.915  1.00 20.00    -0.036 C 
ENDROOT
BRANCH   4   5
HETATM    5  C4  UNL     1     -35.875  13.967  -4.160  1.00 20.00     0.154 C 
BRANCH   5   6
HETATM    6  N6  UNL     1     -36.983  14.663  -3.498  1.00 20.00    -0.063 NA
HETATM    7  O7  UNL     1     -38.090  14.170  -3.769  1.00 20.00    -0.101 OA
ENDBRANCH   5   6
ENDBRANCH   4   5
TORSDOF 2
ENDMDL
MODEL 7
REMARK VINA RESULT:      -3.2      2.019      3.106
REMARK  2 active torsions:
REMARK  status: ('A' for Active; 'I' for Inactive)
REMARK    1  A    between atoms: C4_4  and  C5_5 
REMARK    2  A    between atoms: C4_4  and  N6_6 
ROOT
HETATM    1  C1  UNL     1     -34.629  16.077  -5.168  1.00 20.00     0.016 C 
HETATM    2  C2  UNL     1     -37.043  15.551  -5.553  1.00 20.00     0.016 C 
HETATM    3  C3  UNL     1     -35.283  14.289  -6.803  1.00 20.00     0.016 C 
HETATM    4  C5  UNL     1     -35.630  14.947  -5.457  1.00 20.00    -0.036 C 
ENDROOT
BRANCH   4   5
HETATM    5  C4  UNL     1     -35.620  13.903  -4.321  1.00 20.00     0.154 C 
BRANCH   5   6
HETATM    6  N6  UNL     1     -34.643  12.842  -4.588  1.00 20.00    -0.063 NA
HETATM    7  O7  UNL     1     -33.579  13.003  -3.968  1.00 20.00    -0.101 OA
ENDBRANCH   5   6
ENDBRANCH   4   5
TORSDOF 2
ENDMDL
MODEL 8
REMARK VINA RESULT:      -3.2     12.392     12.864
REMARK  2 active torsions:
REMARK  status: ('A' for Active; 'I' for Inactive)
REMARK    1  A    between atoms: C4_4  and  C5_5 
REMARK    2  A    between atoms: C4_4  and  N6_6 
ROOT
HETATM    1  C1  UNL     1     -34.888   4.134   4.959  1.00 20.00     0.016 C 
HETATM    2  C2  UNL     1     -33.915   4.963   2.810  1.00 20.00     0.016 C 
HETATM    3  C3  UNL     1     -36.055   5.937   3.660  1.00 20.00     0.016 C 
HETATM    4  C5  UNL     1     -34.685   5.377   4.077  1.00 20.00    -0.036 C 
ENDROOT
BRANCH   4   5
HETATM    5  C4  UNL     1     -33.862   6.447   4.823  1.00 20.00     0.154 C 
BRANCH   5   6
HETATM    6  N6  UNL     1     -34.089   6.374   6.270  1.00 20.00    -0.063 NA
HETATM    7  O7  UNL     1     -33.405   7.193   6.905  1.00 20.00    -0.101 OA
ENDBRANCH   5   6
ENDBRANCH   4   5
TORSDOF 2
ENDMDL
MODEL 9
REMARK VINA RESULT:      -3.1      2.656      3.172
REMARK  2 active torsions:
REMARK  status: ('A' for Active; 'I' for Inactive)
REMARK    1  A    between atoms: C4_4  and  C5_5 
REMARK    2  A    between atoms: C4_4  and  N6_6 
ROOT
HETATM    1  C1  UNL     1     -34.874  15.340  -2.739  1.00 20.00     0.016 C 
HETATM    2  C2  UNL     1     -32.789  14.216  -3.541  1.00 20.00     0.016 C 
HETATM    3  C3  UNL     1     -35.021  13.364  -4.281  1.00 20.00     0.016 C 
HETATM    4  C5  UNL     1     -34.219  14.630  -3.935  1.00 20.00    -0.036 C 
ENDROOT
BRANCH   4   5
HETATM    5  C4  UNL     1     -34.137  15.574  -5.153  1.00 20.00     0.154 C 
BRANCH   5   6
HETATM    6  N6  UNL     1     -33.031  16.526  -5.009  1.00 20.00    -0.063 NA
HETATM    7  O7  UNL     1     -33.407  17.709  -5.061  1.00 20.00    -0.101 OA
ENDBRANCH   5   6
ENDBRANCH   4   5
TORSDOF 2
ENDMDL
