MODEL 1
REMARK VINA RESULT:      -4.0      0.000      0.000
REMARK  1 active torsions:
REMARK  status: ('A' for Active; 'I' for Inactive)
REMARK    1  A    between atoms: C3_3  and  C8_8 
ROOT
HETATM    1  C1  UNL     1     -35.942  14.291  -3.910  1.00 20.00     0.048 A 
HETATM    2  C2  UNL     1     -35.301  13.161  -4.449  1.00 20.00     0.141 A 
HETATM    3  C3  UNL     1     -34.915  15.094  -3.476  1.00 20.00     0.039 A 
HETATM    4  C7  UNL     1     -32.415  14.855  -3.506  1.00 20.00     0.179 C 
HETATM    5  N9  UNL     1     -33.970  13.233  -4.365  1.00 20.00    -0.185 NA
HETATM    6  N10 UNL     1     -33.766  14.421  -3.768  1.00 20.00    -0.278 N 
ENDROOT
BRANCH   3   7
HETATM    7  C8  UNL     1     -34.929  16.471  -2.791  1.00 20.00    -0.007 C 
HETATM    8  C4  UNL     1     -36.367  17.034  -2.787  1.00 20.00     0.021 C 
HETATM    9  C5  UNL     1     -34.007  17.442  -3.560  1.00 20.00     0.021 C 
HETATM   10  C6  UNL     1     -34.444  16.446  -1.325  1.00 20.00     0.021 C 
ENDBRANCH   3   7
TORSDOF 1
ENDMDL
MODEL 2
REMARK VINA RESULT:      -4.0     11.321     12.629
REMARK  1 active torsions:
REMARK  status: ('A' for Active; 'I' for Inactive)
REMARK    1  A    between atoms: C3_3  and  C8_8 
ROOT
HETATM    1  C1  UNL     1     -42.016   7.419  -2.292  1.00 20.00     0.048 A 
HETATM    2  C2  UNL     1     -42.784   7.588  -3.459  1.00 20.00     0.141 A 
HETATM    3  C3  UNL     1     -42.127   6.081  -2.000  1.00 20.00     0.039 A 
HETATM    4  C7  UNL     1     -43.335   4.174  -3.102  1.00 20.00     0.179 C 
HETATM    5  N9  UNL     1     -43.342   6.450  -3.880  1.00 20.00    -0.185 NA
HETATM    6  N10 UNL     1     -42.924   5.552  -2.972  1.00 20.00    -0.278 N 
ENDROOT
BRANCH   3   7
HETATM    7  C8  UNL     1     -41.532   5.244  -0.856  1.00 20.00    -0.007 C 
HETATM    8  C4  UNL     1     -40.645   6.140   0.036  1.00 20.00     0.021 C 
HETATM    9  C5  UNL     1     -40.673   4.101  -1.440  1.00 20.00     0.021 C 
HETATM   10  C6  UNL     1     -42.592   4.594   0.061  1.00 20.00     0.021 C 
ENDBRANCH   3   7
TORSDOF 1
ENDMDL
MODEL 3
REMARK VINA RESULT:      -3.9      2.416      3.398
REMARK  1 active torsions:
REMARK  status: ('A' for Active; 'I' for Inactive)
REMARK    1  A    between atoms: C3_3  and  C8_8 
ROOT
HETATM    1  C1  UNL     1     -34.808  14.741  -6.541  1.00 20.00     0.048 A 
HETATM    2  C2  UNL     1     -34.793  15.759  -7.512  1.00 20.00     0.141 A 
HETATM    3  C3  UNL     1     -34.330  15.345  -5.404  1.00 20.00     0.039 A 
HETATM    4  C7  UNL     1     -33.547  17.676  -4.892  1.00 20.00     0.179 C 
HETATM    5  N9  UNL     1     -34.341  16.921  -7.034  1.00 20.00    -0.185 NA
HETATM    6  N10 UNL     1     -34.068  16.637  -5.749  1.00 20.00    -0.278 N 
ENDROOT
BRANCH   3   7
HETATM    7  C8  UNL     1     -34.095  14.790  -3.988  1.00 20.00    -0.007 C 
HETATM    8  C4  UNL     1     -32.584  14.804  -3.669  1.00 20.00     0.021 C 
HETATM    9  C5  UNL     1     -34.617  13.340  -3.905  1.00 20.00     0.021 C 
HETATM   10  C6  UNL     1     -34.803  15.595  -2.876  1.00 20.00     0.021 C 
ENDBRANCH   3   7
TORSDOF 1
ENDMDL
MODEL 4
REMARK VINA RESULT:      -3.8      2.457      3.351
REMARK  1 active torsions:
REMARK  status: ('A' for Active; 'I' for Inactive)
REMARK    1  A    between atoms: C3_3  and  C8_8 
ROOT
HETATM    1  C1  UNL     1     -34.904  14.743  -6.638  1.00 20.00     0.048 A 
HETATM    2  C2  UNL     1     -34.872  15.771  -7.599  1.00 20.00     0.141 A 
HETATM    3  C3  UNL     1     -34.382  15.316  -5.504  1.00 20.00     0.039 A 
HETATM    4  C7  UNL     1     -33.504  17.612  -4.985  1.00 20.00     0.179 C 
HETATM    5  N9  UNL     1     -34.368  16.911  -7.118  1.00 20.00    -0.185 NA
HETATM    6  N10 UNL     1     -34.079  16.602  -5.842  1.00 20.00    -0.278 N 
ENDROOT
BRANCH   3   7
HETATM    7  C8  UNL     1     -34.138  14.738  -4.100  1.00 20.00    -0.007 C 
HETATM    8  C4  UNL     1     -34.533  13.245  -4.078  1.00 20.00     0.021 C 
HETATM    9  C5  UNL     1     -34.994  15.504  -3.068  1.00 20.00     0.021 C 
HETATM   10  C6  UNL     1     -32.668  14.829  -3.632  1.00 20.00     0.021 C 
ENDBRANCH   3   7
TORSDOF 1
ENDMDL
MODEL 5
REMARK VINA RESULT:      -3.8      1.051      2.383
REMARK  1 active torsions:
REMARK  status: ('A' for Active; 'I' for Inactive)
REMARK    1  A    between atoms: C3_3  and  C8_8 
ROOT
HETATM    1  C1  UNL     1     -33.542  14.425  -3.814  1.00 20.00     0.048 A 
HETATM    2  C2  UNL     1     -34.029  13.236  -4.388  1.00 20.00     0.141 A 
HETATM    3  C3  UNL     1     -34.671  15.137  -3.490  1.00 20.00     0.039 A 
HETATM    4  C7  UNL     1     -37.127  14.677  -3.744  1.00 20.00     0.179 C 
HETATM    5  N9  UNL     1     -35.363  13.192  -4.429  1.00 20.00    -0.185 NA
HETATM    6  N10 UNL     1     -35.725  14.362  -3.875  1.00 20.00    -0.278 N 
ENDROOT
BRANCH   3   7
HETATM    7  C8  UNL     1     -34.841  16.518  -2.834  1.00 20.00    -0.007 C 
HETATM    8  C4  UNL     1     -33.726  17.467  -3.324  1.00 20.00     0.021 C 
HETATM    9  C5  UNL     1     -34.750  16.378  -1.299  1.00 20.00     0.021 C 
HETATM   10  C6  UNL     1     -36.191  17.199  -3.151  1.00 20.00     0.021 C 
ENDBRANCH   3   7
TORSDOF 1
ENDMDL
MODEL 6
REMARK VINA RESULT:      -3.8      1.954      3.751
REMARK  1 active torsions:
REMARK  status: ('A' for Active; 'I' for Inactive)
REMARK    1  A    between atoms: C3_3  and  C8_8 
ROOT
HETATM    1  C1  UNL     1     -33.832  17.088  -5.502  1.00 20.00     0.048 A 
HETATM    2  C2  UNL     1     -33.542  18.298  -4.845  1.00 20.00     0.141 A 
HETATM    3  C3  UNL     1     -34.131  16.211  -4.488  1.00 20.00     0.039 A 
HETATM    4  C7  UNL     1     -34.218  16.436  -1.988  1.00 20.00     0.179 C 
HETATM    5  N9  UNL     1     -33.646  18.202  -3.517  1.00 20.00    -0.185 NA
HETATM    6  N10 UNL     1     -34.006  16.921  -3.331  1.00 20.00    -0.278 N 
ENDROOT
BRANCH   3   7
HETATM    7  C8  UNL     1     -34.532  14.726  -4.522  1.00 20.00    -0.007 C 
HETATM    8  C4  UNL     1     -34.653  14.254  -5.988  1.00 20.00     0.021 C 
HETATM    9  C5  UNL     1     -35.893  14.539  -3.816  1.00 20.00     0.021 C 
HETATM   10  C6  UNL     1     -33.522  13.789  -3.823  1.00 20.00     0.021 C 
ENDBRANCH   3   7
TORSDOF 1
ENDMDL
MODEL 7
REMARK VINA RESULT:      -3.8      1.595      2.457
REMARK  1 active torsions:
REMARK  status: ('A' for Active; 'I' for Inactive)
REMARK    1  A    between atoms: C3_3  and  C8_8 
ROOT
HETATM    1  C1  UNL     1     -36.460  16.050  -3.222  1.00 20.00     0.048 A 
HETATM    2  C2  UNL     1     -37.481  15.125  -3.510  1.00 20.00     0.141 A 
HETATM    3  C3  UNL     1     -35.310  15.438  -3.657  1.00 20.00     0.039 A 
HETATM    4  C7  UNL     1     -34.845  13.219  -4.739  1.00 20.00     0.179 C 
HETATM    5  N9  UNL     1     -37.020  14.010  -4.083  1.00 20.00    -0.185 NA
HETATM    6  N10 UNL     1     -35.696  14.231  -4.159  1.00 20.00    -0.278 N 
ENDROOT
BRANCH   3   7
HETATM    7  C8  UNL     1     -33.845  15.909  -3.637  1.00 20.00    -0.007 C 
HETATM    8  C4  UNL     1     -33.632  16.891  -2.465  1.00 20.00     0.021 C 
HETATM    9  C5  UNL     1     -33.511  16.622  -4.965  1.00 20.00     0.021 C 
HETATM   10  C6  UNL     1     -32.823  14.763  -3.464  1.00 20.00     0.021 C 
ENDBRANCH   3   7
TORSDOF 1
ENDMDL
MODEL 8
REMARK VINA RESULT:      -3.8      1.370      2.142
REMARK  1 active torsions:
REMARK  status: ('A' for Active; 'I' for Inactive)
REMARK    1  A    between atoms: C3_3  and  C8_8 
ROOT
HETATM    1  C1  UNL     1     -34.411  14.000  -3.512  1.00 20.00     0.048 A 
HETATM    2  C2  UNL     1     -34.451  13.282  -4.722  1.00 20.00     0.141 A 
HETATM    3  C3  UNL     1     -34.743  15.285  -3.864  1.00 20.00     0.039 A 
HETATM    4  C7  UNL     1     -35.326  16.373  -6.052  1.00 20.00     0.179 C 
HETATM    5  N9  UNL     1     -34.781  14.048  -5.765  1.00 20.00    -0.185 NA
HETATM    6  N10 UNL     1     -34.953  15.261  -5.211  1.00 20.00    -0.278 N 
ENDROOT
BRANCH   3   7
HETATM    7  C8  UNL     1     -34.879  16.562  -3.017  1.00 20.00    -0.007 C 
HETATM    8  C4  UNL     1     -34.566  16.241  -1.540  1.00 20.00     0.021 C 
HETATM    9  C5  UNL     1     -36.321  17.104  -3.124  1.00 20.00     0.021 C 
HETATM   10  C6  UNL     1     -33.930  17.703  -3.448  1.00 20.00     0.021 C 
ENDBRANCH   3   7
TORSDOF 1
ENDMDL
MODEL 9
REMARK VINA RESULT:      -3.8      2.457      3.242
REMARK  1 active torsions:
REMARK  status: ('A' for Active; 'I' for Inactive)
REMARK    1  A    between atoms: C3_3  and  C8_8 
ROOT
HETATM    1  C1  UNL     1     -37.056  16.169  -4.787  1.00 20.00     0.048 A 
HETATM    2  C2  UNL     1     -37.755  15.226  -4.009  1.00 20.00     0.141 A 
HETATM    3  C3  UNL     1     -35.870  15.547  -5.094  1.00 20.00     0.039 A 
HETATM    4  C7  UNL     1     -34.916  13.290  -4.541  1.00 20.00     0.179 C 
HETATM    5  N9  UNL     1     -37.071  14.093  -3.833  1.00 20.00    -0.185 NA
HETATM    6  N10 UNL     1     -35.929  14.319  -4.505  1.00 20.00    -0.278 N 
ENDROOT
BRANCH   3   7
HETATM    7  C8  UNL     1     -34.661  16.028  -5.915  1.00 20.00    -0.007 C 
HETATM    8  C4  UNL     1     -34.959  17.421  -6.511  1.00 20.00     0.021 C 
HETATM    9  C5  UNL     1     -34.385  15.033  -7.063  1.00 20.00     0.021 C 
HETATM   10  C6  UNL     1     -33.358  16.151  -5.094  1.00 20.00     0.021 C 
ENDBRANCH   3   7
TORSDOF 1
ENDMDL
