MODEL 1
REMARK VINA RESULT:      -5.0      0.000      0.000
REMARK  3 active torsions:
REMARK  status: ('A' for Active; 'I' for Inactive)
REMARK    1  A    between atoms: C3_3  and  C9_9 
REMARK    2  A    between atoms: C8_8  and  C10_10 
REMARK    3  A    between atoms: C9_9  and  C10_10 
ROOT
HETATM    1  C1  UNL     1     -35.096   4.423   4.673  1.00 20.00    -0.026 C 
HETATM    2  C2  UNL     1     -34.328   4.937   5.645  1.00 20.00    -0.025 C 
HETATM    3  C4  UNL     1     -35.067   6.715   4.374  1.00 20.00     0.017 C 
HETATM    4  C5  UNL     1     -33.721   5.447   2.884  1.00 20.00     0.013 C 
HETATM    5  C6  UNL     1     -35.118   5.429   3.546  1.00 20.00     0.009 C 
HETATM    6  C7  UNL     1     -33.824   6.278   5.158  1.00 20.00     0.012 C 
HETATM    7  C8  UNL     1     -32.805   5.995   4.024  1.00 20.00    -0.006 C 
ENDROOT
BRANCH   7   8
HETATM    8  C10 UNL     1     -32.030   7.237   3.597  1.00 20.00     0.012 C 
BRANCH   8   9
HETATM    9  C9  UNL     1     -32.172   7.492   2.102  1.00 20.00     0.070 C 
BRANCH   9  10
HETATM   10  C3  UNL     1     -32.108   8.961   1.760  1.00 20.00     0.231 C 
HETATM   11  O11 UNL     1     -32.487   9.450   0.702  1.00 20.00    -0.307 OA
ENDBRANCH   9  10
ENDBRANCH   8   9
ENDBRANCH   7   8
TORSDOF 3
ENDMDL
MODEL 2
REMARK VINA RESULT:      -4.6     10.763     11.781
REMARK  3 active torsions:
REMARK  status: ('A' for Active; 'I' for Inactive)
REMARK    1  A    between atoms: C3_3  and  C9_9 
REMARK    2  A    between atoms: C8_8  and  C10_10 
REMARK    3  A    between atoms: C9_9  and  C10_10 
ROOT
HETATM    1  C1  UNL     1     -34.455  13.912  -5.276  1.00 20.00    -0.026 C 
HETATM    2  C2  UNL     1     -34.849  13.588  -4.035  1.00 20.00    -0.025 C 
HETATM    3  C4  UNL     1     -35.641  15.716  -4.450  1.00 20.00     0.017 C 
HETATM    4  C5  UNL     1     -33.278  15.948  -4.499  1.00 20.00     0.013 C 
HETATM    5  C6  UNL     1     -34.447  15.420  -5.361  1.00 20.00     0.009 C 
HETATM    6  C7  UNL     1     -35.086  14.882  -3.288  1.00 20.00     0.012 C 
HETATM    7  C8  UNL     1     -33.697  15.532  -3.054  1.00 20.00    -0.006 C 
ENDROOT
BRANCH   7   8
HETATM    8  C10 UNL     1     -33.750  16.721  -2.101  1.00 20.00     0.012 C 
BRANCH   8   9
HETATM    9  C9  UNL     1     -34.737  16.481  -0.967  1.00 20.00     0.070 C 
BRANCH   9  10
HETATM   10  C3  UNL     1     -34.642  17.532   0.112  1.00 20.00     0.231 C 
HETATM   11  O11 UNL     1     -35.151  17.441   1.223  1.00 20.00    -0.307 OA
ENDBRANCH   9  10
ENDBRANCH   8   9
ENDBRANCH   7   8
TORSDOF 3
ENDMDL
MODEL 3
REMARK VINA RESULT:      -4.6     10.603     11.867
REMARK  3 active torsions:
REMARK  status: ('A' for Active; 'I' for Inactive)
REMARK    1  A    between atoms: C3_3  and  C9_9 
REMARK    2  A    between atoms: C8_8  and  C10_10 
REMARK    3  A    between atoms: C9_9  and  C10_10 
ROOT
HETATM    1  C1  UNL     1     -35.721  17.835  -0.992  1.00 20.00    -0.026 C 
HETATM    2  C2  UNL     1     -34.778  17.062  -0.433  1.00 20.00    -0.025 C 
HETATM    3  C4  UNL     1     -33.750  18.243  -2.129  1.00 20.00     0.017 C 
HETATM    4  C5  UNL     1     -35.339  16.876  -3.244  1.00 20.00     0.013 C 
HETATM    5  C6  UNL     1     -35.256  18.162  -2.392  1.00 20.00     0.009 C 
HETATM    6  C7  UNL     1     -33.692  16.861  -1.468  1.00 20.00     0.012 C 
HETATM    7  C8  UNL     1     -34.281  15.945  -2.572  1.00 20.00    -0.006 C 
ENDROOT
BRANCH   7   8
HETATM    8  C10 UNL     1     -33.230  15.454  -3.561  1.00 20.00     0.012 C 
BRANCH   8   9
HETATM    9  C9  UNL     1     -33.282  13.940  -3.719  1.00 20.00     0.070 C 
BRANCH   9  10
HETATM   10  C3  UNL     1     -34.377  13.496  -4.658  1.00 20.00     0.231 C 
HETATM   11  O11 UNL     1     -35.121  12.542  -4.463  1.00 20.00    -0.307 OA
ENDBRANCH   9  10
ENDBRANCH   8   9
ENDBRANCH   7   8
TORSDOF 3
ENDMDL
MODEL 4
REMARK VINA RESULT:      -4.5     10.578     12.044
REMARK  3 active torsions:
REMARK  status: ('A' for Active; 'I' for Inactive)
REMARK    1  A    between atoms: C3_3  and  C9_9 
REMARK    2  A    between atoms: C8_8  and  C10_10 
REMARK    3  A    between atoms: C9_9  and  C10_10 
ROOT
HETATM    1  C1  UNL     1     -33.756  18.422   0.528  1.00 20.00    -0.026 C 
HETATM    2  C2  UNL     1     -32.867  18.678  -0.442  1.00 20.00    -0.025 C 
HETATM    3  C4  UNL     1     -34.957  18.777  -1.415  1.00 20.00     0.017 C 
HETATM    4  C5  UNL     1     -34.740  16.518  -0.715  1.00 20.00     0.013 C 
HETATM    5  C6  UNL     1     -35.016  17.927  -0.143  1.00 20.00     0.009 C 
HETATM    6  C7  UNL     1     -33.529  18.338  -1.759  1.00 20.00     0.012 C 
HETATM    7  C8  UNL     1     -33.665  16.794  -1.813  1.00 20.00    -0.006 C 
ENDROOT
BRANCH   7   8
HETATM    8  C10 UNL     1     -34.093  16.282  -3.184  1.00 20.00     0.012 C 
BRANCH   8   9
HETATM    9  C9  UNL     1     -34.915  15.005  -3.066  1.00 20.00     0.070 C 
BRANCH   9  10
HETATM   10  C3  UNL     1     -34.273  13.839  -3.779  1.00 20.00     0.231 C 
HETATM   11  O11 UNL     1     -34.867  12.831  -4.145  1.00 20.00    -0.307 OA
ENDBRANCH   9  10
ENDBRANCH   8   9
ENDBRANCH   7   8
TORSDOF 3
ENDMDL
MODEL 5
REMARK VINA RESULT:      -4.4     10.897     11.850
REMARK  3 active torsions:
REMARK  status: ('A' for Active; 'I' for Inactive)
REMARK    1  A    between atoms: C3_3  and  C9_9 
REMARK    2  A    between atoms: C8_8  and  C10_10 
REMARK    3  A    between atoms: C9_9  and  C10_10 
ROOT
HETATM    1  C1  UNL     1     -35.012  14.470  -5.447  1.00 20.00    -0.026 C 
HETATM    2  C2  UNL     1     -34.100  15.441  -5.605  1.00 20.00    -0.025 C 
HETATM    3  C4  UNL     1     -33.402  14.160  -3.817  1.00 20.00     0.017 C 
HETATM    4  C5  UNL     1     -35.456  15.109  -3.095  1.00 20.00     0.013 C 
HETATM    5  C6  UNL     1     -34.910  13.994  -4.017  1.00 20.00     0.009 C 
HETATM    6  C7  UNL     1     -33.403  15.623  -4.274  1.00 20.00     0.012 C 
HETATM    7  C8  UNL     1     -34.431  16.267  -3.308  1.00 20.00    -0.006 C 
ENDROOT
BRANCH   7   8
HETATM    8  C10 UNL     1     -33.806  16.735  -1.999  1.00 20.00     0.012 C 
BRANCH   8   9
HETATM    9  C9  UNL     1     -34.769  16.563  -0.832  1.00 20.00     0.070 C 
BRANCH   9  10
HETATM   10  C3  UNL     1     -34.584  17.621   0.229  1.00 20.00     0.231 C 
HETATM   11  O11 UNL     1     -34.987  17.533   1.383  1.00 20.00    -0.307 OA
ENDBRANCH   9  10
ENDBRANCH   8   9
ENDBRANCH   7   8
TORSDOF 3
ENDMDL
MODEL 6
REMARK VINA RESULT:      -4.4      9.456     10.970
REMARK  3 active torsions:
REMARK  status: ('A' for Active; 'I' for Inactive)
REMARK    1  A    between atoms: C3_3  and  C9_9 
REMARK    2  A    between atoms: C8_8  and  C10_10 
REMARK    3  A    between atoms: C9_9  and  C10_10 
ROOT
HETATM    1  C1  UNL     1     -40.879   6.992  -0.740  1.00 20.00    -0.026 C 
HETATM    2  C2  UNL     1     -41.865   7.094  -1.644  1.00 20.00    -0.025 C 
HETATM    3  C4  UNL     1     -42.575   5.579  -0.054  1.00 20.00     0.017 C 
HETATM    4  C5  UNL     1     -40.687   4.542  -1.053  1.00 20.00     0.013 C 
HETATM    5  C6  UNL     1     -41.047   5.660  -0.048  1.00 20.00     0.009 C 
HETATM    6  C7  UNL     1     -42.680   5.821  -1.565  1.00 20.00     0.012 C 
HETATM    7  C8  UNL     1     -41.799   4.682  -2.140  1.00 20.00    -0.006 C 
ENDROOT
BRANCH   7   8
HETATM    8  C10 UNL     1     -42.569   3.383  -2.352  1.00 20.00     0.012 C 
BRANCH   8   9
HETATM    9  C9  UNL     1     -41.816   2.438  -3.278  1.00 20.00     0.070 C 
BRANCH   9  10
HETATM   10  C3  UNL     1     -42.708   1.840  -4.340  1.00 20.00     0.231 C 
HETATM   11  O11 UNL     1     -42.668   2.128  -5.530  1.00 20.00    -0.307 OA
ENDBRANCH   9  10
ENDBRANCH   8   9
ENDBRANCH   7   8
TORSDOF 3
ENDMDL
MODEL 7
REMARK VINA RESULT:      -4.4     11.005     12.090
REMARK  3 active torsions:
REMARK  status: ('A' for Active; 'I' for Inactive)
REMARK    1  A    between atoms: C3_3  and  C9_9 
REMARK    2  A    between atoms: C8_8  and  C10_10 
REMARK    3  A    between atoms: C9_9  and  C10_10 
ROOT
HETATM    1  C1  UNL     1     -33.919  17.930  -1.983  1.00 20.00    -0.026 C 
HETATM    2  C2  UNL     1     -34.505  17.049  -1.157  1.00 20.00    -0.025 C 
HETATM    3  C4  UNL     1     -33.503  15.822  -2.835  1.00 20.00     0.017 C 
HETATM    4  C5  UNL     1     -35.169  17.094  -3.951  1.00 20.00     0.013 C 
HETATM    5  C6  UNL     1     -33.765  17.249  -3.323  1.00 20.00     0.009 C 
HETATM    6  C7  UNL     1     -34.757  15.788  -1.953  1.00 20.00     0.012 C 
HETATM    7  C8  UNL     1     -35.882  16.110  -2.971  1.00 20.00    -0.006 C 
ENDROOT
BRANCH   7   8
HETATM    8  C10 UNL     1     -36.416  14.871  -3.681  1.00 20.00     0.012 C 
BRANCH   8   9
HETATM    9  C9  UNL     1     -35.905  14.789  -5.113  1.00 20.00     0.070 C 
BRANCH   9  10
HETATM   10  C3  UNL     1     -34.971  13.622  -5.325  1.00 20.00     0.231 C 
HETATM   11  O11 UNL     1     -34.873  12.659  -4.573  1.00 20.00    -0.307 OA
ENDBRANCH   9  10
ENDBRANCH   8   9
ENDBRANCH   7   8
TORSDOF 3
ENDMDL
MODEL 8
REMARK VINA RESULT:      -4.2     11.127     12.652
REMARK  3 active torsions:
REMARK  status: ('A' for Active; 'I' for Inactive)
REMARK    1  A    between atoms: C3_3  and  C9_9 
REMARK    2  A    between atoms: C8_8  and  C10_10 
REMARK    3  A    between atoms: C9_9  and  C10_10 
ROOT
HETATM    1  C1  UNL     1     -34.445  15.673  -2.618  1.00 20.00    -0.026 C 
HETATM    2  C2  UNL     1     -35.506  15.127  -3.230  1.00 20.00    -0.025 C 
HETATM    3  C4  UNL     1     -33.648  13.985  -3.982  1.00 20.00     0.017 C 
HETATM    4  C5  UNL     1     -33.332  16.204  -4.766  1.00 20.00     0.013 C 
HETATM    5  C6  UNL     1     -33.235  15.368  -3.470  1.00 20.00     0.009 C 
HETATM    6  C7  UNL     1     -35.006  14.474  -4.499  1.00 20.00     0.012 C 
HETATM    7  C8  UNL     1     -34.597  15.615  -5.466  1.00 20.00    -0.006 C 
ENDROOT
BRANCH   7   8
HETATM    8  C10 UNL     1     -34.300  15.121  -6.878  1.00 20.00     0.012 C 
BRANCH   8   9
HETATM    9  C9  UNL     1     -35.481  14.354  -7.457  1.00 20.00     0.070 C 
BRANCH   9  10
HETATM   10  C3  UNL     1     -36.685  15.236  -7.686  1.00 20.00     0.231 C 
HETATM   11  O11 UNL     1     -37.809  15.010  -7.254  1.00 20.00    -0.307 OA
ENDBRANCH   9  10
ENDBRANCH   8   9
ENDBRANCH   7   8
TORSDOF 3
ENDMDL
MODEL 9
REMARK VINA RESULT:      -4.2     10.664     12.075
REMARK  3 active torsions:
REMARK  status: ('A' for Active; 'I' for Inactive)
REMARK    1  A    between atoms: C3_3  and  C9_9 
REMARK    2  A    between atoms: C8_8  and  C10_10 
REMARK    3  A    between atoms: C9_9  and  C10_10 
ROOT
HETATM    1  C1  UNL     1     -33.253  13.803  -3.698  1.00 20.00    -0.026 C 
HETATM    2  C2  UNL     1     -34.443  13.493  -4.232  1.00 20.00    -0.025 C 
HETATM    3  C4  UNL     1     -33.946  15.640  -4.917  1.00 20.00     0.017 C 
HETATM    4  C5  UNL     1     -34.154  15.809  -2.558  1.00 20.00     0.013 C 
HETATM    5  C6  UNL     1     -33.170  15.310  -3.640  1.00 20.00     0.009 C 
HETATM    6  C7  UNL     1     -35.160  14.796  -4.514  1.00 20.00     0.012 C 
HETATM    7  C8  UNL     1     -35.545  15.408  -3.143  1.00 20.00    -0.006 C 
ENDROOT
BRANCH   7   8
HETATM    8  C10 UNL     1     -36.486  16.601  -3.266  1.00 20.00     0.012 C 
BRANCH   8   9
HETATM    9  C9  UNL     1     -37.593  16.332  -4.277  1.00 20.00     0.070 C 
BRANCH   9  10
HETATM   10  C3  UNL     1     -38.657  15.408  -3.734  1.00 20.00     0.231 C 
HETATM   11  O11 UNL     1     -38.651  14.188  -3.854  1.00 20.00    -0.307 OA
ENDBRANCH   9  10
ENDBRANCH   8   9
ENDBRANCH   7   8
TORSDOF 3
ENDMDL
