MODEL 1
REMARK VINA RESULT:      -4.3      0.000      0.000
REMARK  2 active torsions:
REMARK  status: ('A' for Active; 'I' for Inactive)
REMARK    1  A    between atoms: C2_2  and  C3_3 
REMARK    2  A    between atoms: N7_7  and  N8_8 
ROOT
HETATM    1  C2  UNL     1     -33.323   6.819   4.015  1.00 20.00     0.138 C 
HETATM    2  N7  UNL     1     -32.639   6.710   2.922  1.00 20.00    -0.214 NA
ENDROOT
BRANCH   1   3
HETATM    3  C3  UNL     1     -34.346   5.818   4.439  1.00 20.00    -0.047 C 
HETATM    4  C1  UNL     1     -34.234   5.374   5.702  1.00 20.00    -0.023 C 
HETATM    5  C4  UNL     1     -35.108   4.379   6.396  1.00 20.00     0.036 C 
HETATM    6  C5  UNL     1     -35.373   5.423   3.424  1.00 20.00     0.049 C 
ENDBRANCH   1   3
BRANCH   2   7
HETATM    7  N8  UNL     1     -31.767   7.723   2.738  1.00 20.00    -0.222 NA
HETATM    8  C6  UNL     1     -32.016   8.564   1.579  1.00 20.00     0.135 C 
HETATM    9  H20 UNL     1     -30.803   7.388   2.730  1.00 20.00     0.148 HD
ENDBRANCH   2   7
TORSDOF 2
ENDMDL
MODEL 2
REMARK VINA RESULT:      -3.9     11.196     11.795
REMARK  2 active torsions:
REMARK  status: ('A' for Active; 'I' for Inactive)
REMARK    1  A    between atoms: C2_2  and  C3_3 
REMARK    2  A    between atoms: N7_7  and  N8_8 
ROOT
HETATM    1  C2  UNL     1     -34.263  15.099  -3.114  1.00 20.00     0.138 C 
HETATM    2  N7  UNL     1     -33.199  14.521  -3.571  1.00 20.00    -0.214 NA
ENDROOT
BRANCH   1   3
HETATM    3  C3  UNL     1     -34.233  16.411  -2.402  1.00 20.00    -0.047 C 
HETATM    4  C1  UNL     1     -34.599  16.376  -1.109  1.00 20.00    -0.023 C 
HETATM    5  C4  UNL     1     -34.666  17.524  -0.153  1.00 20.00     0.036 C 
HETATM    6  C5  UNL     1     -33.806  17.606  -3.193  1.00 20.00     0.049 C 
ENDBRANCH   1   3
BRANCH   2   7
HETATM    7  N8  UNL     1     -33.455  13.346  -4.184  1.00 20.00    -0.222 NA
HETATM    8  C6  UNL     1     -34.777  13.221  -4.774  1.00 20.00     0.135 C 
HETATM    9  H20 UNL     1     -33.269  12.555  -3.566  1.00 20.00     0.148 HD
ENDBRANCH   2   7
TORSDOF 2
ENDMDL
MODEL 3
REMARK VINA RESULT:      -3.8     11.244     12.060
REMARK  2 active torsions:
REMARK  status: ('A' for Active; 'I' for Inactive)
REMARK    1  A    between atoms: C2_2  and  C3_3 
REMARK    2  A    between atoms: N7_7  and  N8_8 
ROOT
HETATM    1  C2  UNL     1     -36.674  15.126  -3.322  1.00 20.00     0.138 C 
HETATM    2  N7  UNL     1     -37.345  14.121  -3.784  1.00 20.00    -0.214 NA
ENDROOT
BRANCH   1   3
HETATM    3  C3  UNL     1     -35.205  15.073  -3.063  1.00 20.00    -0.047 C 
HETATM    4  C1  UNL     1     -34.536  14.106  -3.714  1.00 20.00    -0.023 C 
HETATM    5  C4  UNL     1     -33.071  13.815  -3.651  1.00 20.00     0.036 C 
HETATM    6  C5  UNL     1     -34.643  16.089  -2.119  1.00 20.00     0.049 C 
ENDBRANCH   1   3
BRANCH   2   7
HETATM    7  N8  UNL     1     -38.658  14.390  -3.947  1.00 20.00    -0.222 NA
HETATM    8  C6  UNL     1     -39.135  15.603  -3.306  1.00 20.00     0.135 C 
HETATM    9  H20 UNL     1     -39.237  13.596  -3.673  1.00 20.00     0.148 HD
ENDBRANCH   2   7
TORSDOF 2
ENDMDL
MODEL 4
REMARK VINA RESULT:      -3.8     11.704     12.178
REMARK  2 active torsions:
REMARK  status: ('A' for Active; 'I' for Inactive)
REMARK    1  A    between atoms: C2_2  and  C3_3 
REMARK    2  A    between atoms: N7_7  and  N8_8 
ROOT
HETATM    1  C2  UNL     1     -35.675  14.728  -3.485  1.00 20.00     0.138 C 
HETATM    2  N7  UNL     1     -36.914  15.020  -3.251  1.00 20.00    -0.214 NA
ENDROOT
BRANCH   1   3
HETATM    3  C3  UNL     1     -34.535  15.489  -2.896  1.00 20.00    -0.047 C 
HETATM    4  C1  UNL     1     -34.837  16.258  -1.836  1.00 20.00    -0.023 C 
HETATM    5  C4  UNL     1     -33.908  17.124  -1.047  1.00 20.00     0.036 C 
HETATM    6  C5  UNL     1     -33.195  15.318  -3.541  1.00 20.00     0.049 C 
ENDBRANCH   1   3
BRANCH   2   7
HETATM    7  N8  UNL     1     -37.781  14.199  -3.881  1.00 20.00    -0.222 NA
HETATM    8  C6  UNL     1     -39.095  14.760  -4.149  1.00 20.00     0.135 C 
HETATM    9  H20 UNL     1     -37.871  13.308  -3.393  1.00 20.00     0.148 HD
ENDBRANCH   2   7
TORSDOF 2
ENDMDL
MODEL 5
REMARK VINA RESULT:      -3.6      1.764      4.754
REMARK  2 active torsions:
REMARK  status: ('A' for Active; 'I' for Inactive)
REMARK    1  A    between atoms: C2_2  and  C3_3 
REMARK    2  A    between atoms: N7_7  and  N8_8 
ROOT
HETATM    1  C2  UNL     1     -33.182   6.120   3.412  1.00 20.00     0.138 C 
HETATM    2  N7  UNL     1     -34.066   6.216   4.352  1.00 20.00    -0.214 NA
ENDROOT
BRANCH   1   3
HETATM    3  C3  UNL     1     -32.275   7.242   3.030  1.00 20.00    -0.047 C 
HETATM    4  C1  UNL     1     -32.479   7.761   1.807  1.00 20.00    -0.023 C 
HETATM    5  C4  UNL     1     -31.731   8.883   1.161  1.00 20.00     0.036 C 
HETATM    6  C5  UNL     1     -31.250   7.662   4.036  1.00 20.00     0.049 C 
ENDBRANCH   1   3
BRANCH   2   7
HETATM    7  N8  UNL     1     -34.774   5.081   4.533  1.00 20.00    -0.222 NA
HETATM    8  C6  UNL     1     -34.944   4.662   5.914  1.00 20.00     0.135 C 
HETATM    9  H20 UNL     1     -34.396   4.314   3.976  1.00 20.00     0.148 HD
ENDBRANCH   2   7
TORSDOF 2
ENDMDL
MODEL 6
REMARK VINA RESULT:      -3.6     11.527     12.918
REMARK  2 active torsions:
REMARK  status: ('A' for Active; 'I' for Inactive)
REMARK    1  A    between atoms: C2_2  and  C3_3 
REMARK    2  A    between atoms: N7_7  and  N8_8 
ROOT
HETATM    1  C2  UNL     1     -36.567  14.701  -3.836  1.00 20.00     0.138 C 
HETATM    2  N7  UNL     1     -37.826  14.403  -3.887  1.00 20.00    -0.214 NA
ENDROOT
BRANCH   1   3
HETATM    3  C3  UNL     1     -35.588  14.275  -4.879  1.00 20.00    -0.047 C 
HETATM    4  C1  UNL     1     -35.769  14.811  -6.098  1.00 20.00    -0.023 C 
HETATM    5  C4  UNL     1     -34.951  14.572  -7.326  1.00 20.00     0.036 C 
HETATM    6  C5  UNL     1     -34.523  13.310  -4.460  1.00 20.00     0.049 C 
ENDBRANCH   1   3
BRANCH   2   7
HETATM    7  N8  UNL     1     -38.530  14.893  -2.845  1.00 20.00    -0.222 NA
HETATM    8  C6  UNL     1     -39.735  15.628  -3.191  1.00 20.00     0.135 C 
HETATM    9  H20 UNL     1     -37.941  15.453  -2.228  1.00 20.00     0.148 HD
ENDBRANCH   2   7
TORSDOF 2
ENDMDL
MODEL 7
REMARK VINA RESULT:      -3.6     11.250     12.039
REMARK  2 active torsions:
REMARK  status: ('A' for Active; 'I' for Inactive)
REMARK    1  A    between atoms: C2_2  and  C3_3 
REMARK    2  A    between atoms: N7_7  and  N8_8 
ROOT
HETATM    1  C2  UNL     1     -33.845  16.445  -2.256  1.00 20.00     0.138 C 
HETATM    2  N7  UNL     1     -34.691  16.232  -1.301  1.00 20.00    -0.214 NA
ENDROOT
BRANCH   1   3
HETATM    3  C3  UNL     1     -33.812  15.635  -3.510  1.00 20.00    -0.047 C 
HETATM    4  C1  UNL     1     -34.341  14.403  -3.417  1.00 20.00    -0.023 C 
HETATM    5  C4  UNL     1     -34.447  13.376  -4.499  1.00 20.00     0.036 C 
HETATM    6  C5  UNL     1     -33.201  16.273  -4.717  1.00 20.00     0.049 C 
ENDBRANCH   1   3
BRANCH   2   7
HETATM    7  N8  UNL     1     -34.547  17.084  -0.264  1.00 20.00    -0.222 NA
HETATM    8  C6  UNL     1     -33.502  18.082  -0.413  1.00 20.00     0.135 C 
HETATM    9  H20 UNL     1     -34.432  16.582   0.617  1.00 20.00     0.148 HD
ENDBRANCH   2   7
TORSDOF 2
ENDMDL
MODEL 8
REMARK VINA RESULT:      -3.5     11.081     12.076
REMARK  2 active torsions:
REMARK  status: ('A' for Active; 'I' for Inactive)
REMARK    1  A    between atoms: C2_2  and  C3_3 
REMARK    2  A    between atoms: N7_7  and  N8_8 
ROOT
HETATM    1  C2  UNL     1     -34.799  16.272  -1.460  1.00 20.00     0.138 C 
HETATM    2  N7  UNL     1     -34.129  15.949  -2.519  1.00 20.00    -0.214 NA
ENDROOT
BRANCH   1   3
HETATM    3  C3  UNL     1     -34.321  17.284  -0.472  1.00 20.00    -0.047 C 
HETATM    4  C1  UNL     1     -33.198  17.940  -0.812  1.00 20.00    -0.023 C 
HETATM    5  C4  UNL     1     -32.493  18.999  -0.026  1.00 20.00     0.036 C 
HETATM    6  C5  UNL     1     -35.133  17.456   0.773  1.00 20.00     0.049 C 
ENDBRANCH   1   3
BRANCH   2   7
HETATM    7  N8  UNL     1     -34.748  15.018  -3.275  1.00 20.00    -0.222 NA
HETATM    8  C6  UNL     1     -33.941  13.865  -3.637  1.00 20.00     0.135 C 
HETATM    9  H20 UNL     1     -35.163  15.433  -4.110  1.00 20.00     0.148 HD
ENDBRANCH   2   7
TORSDOF 2
ENDMDL
MODEL 9
REMARK VINA RESULT:      -3.5      2.096      4.283
REMARK  2 active torsions:
REMARK  status: ('A' for Active; 'I' for Inactive)
REMARK    1  A    between atoms: C2_2  and  C3_3 
REMARK    2  A    between atoms: N7_7  and  N8_8 
ROOT
HETATM    1  C2  UNL     1     -33.955   5.647   4.486  1.00 20.00     0.138 C 
HETATM    2  N7  UNL     1     -33.959   6.382   5.551  1.00 20.00    -0.214 NA
ENDROOT
BRANCH   1   3
HETATM    3  C3  UNL     1     -33.380   6.101   3.186  1.00 20.00    -0.047 C 
HETATM    4  C1  UNL     1     -32.635   7.218   3.241  1.00 20.00    -0.023 C 
HETATM    5  C4  UNL     1     -31.938   7.902   2.109  1.00 20.00     0.036 C 
HETATM    6  C5  UNL     1     -33.690   5.274   1.978  1.00 20.00     0.049 C 
ENDBRANCH   1   3
BRANCH   2   7
HETATM    7  N8  UNL     1     -34.525   5.773   6.615  1.00 20.00    -0.222 NA
HETATM    8  C6  UNL     1     -35.086   4.457   6.360  1.00 20.00     0.135 C 
HETATM    9  H20 UNL     1     -35.221   6.372   7.060  1.00 20.00     0.148 HD
ENDBRANCH   2   7
TORSDOF 2
ENDMDL
