MODEL 1
REMARK VINA RESULT:      -4.7      0.000      0.000
REMARK  2 active torsions:
REMARK  status: ('A' for Active; 'I' for Inactive)
REMARK    1  A    between atoms: C6_6  and  C8_8 
REMARK    2  A    between atoms: C7_7  and  C8_8 
ROOT
HETATM    1  C1  UNL     1     -34.337  16.730  -1.192  1.00 20.00     0.075 C 
HETATM    2  C8  UNL     1     -33.697  16.518  -2.512  1.00 20.00     0.186 C 
HETATM    3  N9  UNL     1     -34.843  16.881  -0.159  1.00 20.00    -0.196 NA
ENDROOT
BRANCH   2   4
HETATM    4  C6  UNL     1     -34.185  15.283  -3.191  1.00 20.00    -0.031 A 
HETATM    5  C2  UNL     1     -35.547  15.085  -3.386  1.00 20.00     0.028 A 
HETATM    6  C4  UNL     1     -35.948  13.922  -4.022  1.00 20.00     0.116 A 
HETATM    7  N10 UNL     1     -35.097  12.968  -4.464  1.00 20.00    -0.273 NA
HETATM    8  C5  UNL     1     -33.781  13.196  -4.257  1.00 20.00     0.116 A 
HETATM    9  C3  UNL     1     -33.278  14.325  -3.632  1.00 20.00     0.028 A 
ENDBRANCH   2   4
BRANCH   2  10
HETATM   10  C7  UNL     1     -33.851  17.749  -3.398  1.00 20.00     0.255 C 
HETATM   11  O11 UNL     1     -33.501  17.830  -4.571  1.00 20.00    -0.305 OA
ENDBRANCH   2  10
TORSDOF 2
ENDMDL
MODEL 2
REMARK VINA RESULT:      -4.7      0.023      1.418
REMARK  2 active torsions:
REMARK  status: ('A' for Active; 'I' for Inactive)
REMARK    1  A    between atoms: C6_6  and  C8_8 
REMARK    2  A    between atoms: C7_7  and  C8_8 
ROOT
HETATM    1  C1  UNL     1     -34.330  16.740  -1.185  1.00 20.00     0.075 C 
HETATM    2  C8  UNL     1     -33.703  16.535  -2.512  1.00 20.00     0.186 C 
HETATM    3  N9  UNL     1     -34.826  16.886  -0.147  1.00 20.00    -0.196 NA
ENDROOT
BRANCH   2   4
HETATM    4  C6  UNL     1     -34.188  15.297  -3.188  1.00 20.00    -0.031 A 
HETATM    5  C2  UNL     1     -33.280  14.342  -3.632  1.00 20.00     0.028 A 
HETATM    6  C4  UNL     1     -33.783  13.211  -4.253  1.00 20.00     0.116 A 
HETATM    7  N10 UNL     1     -35.099  12.978  -4.454  1.00 20.00    -0.273 NA
HETATM    8  C5  UNL     1     -35.951  13.928  -4.008  1.00 20.00     0.116 A 
HETATM    9  C3  UNL     1     -35.551  15.094  -3.376  1.00 20.00     0.028 A 
ENDBRANCH   2   4
BRANCH   2  10
HETATM   10  C7  UNL     1     -33.877  17.767  -3.395  1.00 20.00     0.255 C 
HETATM   11  O11 UNL     1     -33.481  17.874  -4.552  1.00 20.00    -0.305 OA
ENDBRANCH   2  10
TORSDOF 2
ENDMDL
MODEL 3
REMARK VINA RESULT:      -4.6      2.208      4.235
REMARK  2 active torsions:
REMARK  status: ('A' for Active; 'I' for Inactive)
REMARK    1  A    between atoms: C6_6  and  C8_8 
REMARK    2  A    between atoms: C7_7  and  C8_8 
ROOT
HETATM    1  C1  UNL     1     -36.806  14.615  -3.922  1.00 20.00     0.075 C 
HETATM    2  C8  UNL     1     -35.389  14.923  -4.230  1.00 20.00     0.186 C 
HETATM    3  N9  UNL     1     -37.916  14.387  -3.673  1.00 20.00    -0.196 NA
ENDROOT
BRANCH   2   4
HETATM    4  C6  UNL     1     -34.831  15.987  -3.346  1.00 20.00    -0.031 A 
HETATM    5  C2  UNL     1     -34.300  17.147  -3.899  1.00 20.00     0.028 A 
HETATM    6  C4  UNL     1     -33.795  18.104  -3.034  1.00 20.00     0.116 A 
HETATM    7  N10 UNL     1     -33.786  17.980  -1.688  1.00 20.00    -0.273 NA
HETATM    8  C5  UNL     1     -34.312  16.839  -1.188  1.00 20.00     0.116 A 
HETATM    9  C3  UNL     1     -34.841  15.822  -1.965  1.00 20.00     0.028 A 
ENDBRANCH   2   4
BRANCH   2  10
HETATM   10  C7  UNL     1     -34.537  13.659  -4.201  1.00 20.00     0.255 C 
HETATM   11  O11 UNL     1     -34.909  12.542  -4.544  1.00 20.00    -0.305 OA
ENDBRANCH   2  10
TORSDOF 2
ENDMDL
MODEL 4
REMARK VINA RESULT:      -4.6      2.205      4.207
REMARK  2 active torsions:
REMARK  status: ('A' for Active; 'I' for Inactive)
REMARK    1  A    between atoms: C6_6  and  C8_8 
REMARK    2  A    between atoms: C7_7  and  C8_8 
ROOT
HETATM    1  C1  UNL     1     -36.803  14.612  -3.924  1.00 20.00     0.075 C 
HETATM    2  C8  UNL     1     -35.385  14.917  -4.225  1.00 20.00     0.186 C 
HETATM    3  N9  UNL     1     -37.915  14.386  -3.680  1.00 20.00    -0.196 NA
ENDROOT
BRANCH   2   4
HETATM    4  C6  UNL     1     -34.830  15.984  -3.343  1.00 20.00    -0.031 A 
HETATM    5  C2  UNL     1     -34.838  15.822  -1.962  1.00 20.00     0.028 A 
HETATM    6  C4  UNL     1     -34.311  16.843  -1.188  1.00 20.00     0.116 A 
HETATM    7  N10 UNL     1     -33.790  17.984  -1.691  1.00 20.00    -0.273 NA
HETATM    8  C5  UNL     1     -33.800  18.105  -3.037  1.00 20.00     0.116 A 
HETATM    9  C3  UNL     1     -34.303  17.144  -3.899  1.00 20.00     0.028 A 
ENDBRANCH   2   4
BRANCH   2  10
HETATM   10  C7  UNL     1     -34.534  13.652  -4.186  1.00 20.00     0.255 C 
HETATM   11  O11 UNL     1     -34.890  12.543  -4.572  1.00 20.00    -0.305 OA
ENDBRANCH   2  10
TORSDOF 2
ENDMDL
MODEL 5
REMARK VINA RESULT:      -4.6      2.258      4.367
REMARK  2 active torsions:
REMARK  status: ('A' for Active; 'I' for Inactive)
REMARK    1  A    between atoms: C6_6  and  C8_8 
REMARK    2  A    between atoms: C7_7  and  C8_8 
ROOT
HETATM    1  C1  UNL     1     -35.072  13.545  -4.190  1.00 20.00     0.075 C 
HETATM    2  C8  UNL     1     -35.824  14.520  -3.365  1.00 20.00     0.186 C 
HETATM    3  N9  UNL     1     -34.470  12.790  -4.833  1.00 20.00    -0.196 NA
ENDROOT
BRANCH   2   4
HETATM    4  C6  UNL     1     -35.046  15.764  -3.100  1.00 20.00    -0.031 A 
HETATM    5  C2  UNL     1     -34.723  16.122  -1.796  1.00 20.00     0.028 A 
HETATM    6  C4  UNL     1     -33.998  17.287  -1.605  1.00 20.00     0.116 A 
HETATM    7  N10 UNL     1     -33.586  18.096  -2.607  1.00 20.00    -0.273 NA
HETATM    8  C5  UNL     1     -33.918  17.715  -3.860  1.00 20.00     0.116 A 
HETATM    9  C3  UNL     1     -34.639  16.570  -4.158  1.00 20.00     0.028 A 
ENDBRANCH   2   4
BRANCH   2  10
HETATM   10  C7  UNL     1     -37.184  14.824  -3.982  1.00 20.00     0.255 C 
HETATM   11  O11 UNL     1     -38.224  14.215  -3.750  1.00 20.00    -0.305 OA
ENDBRANCH   2  10
TORSDOF 2
ENDMDL
MODEL 6
REMARK VINA RESULT:      -4.3      2.061      2.312
REMARK  2 active torsions:
REMARK  status: ('A' for Active; 'I' for Inactive)
REMARK    1  A    between atoms: C6_6  and  C8_8 
REMARK    2  A    between atoms: C7_7  and  C8_8 
ROOT
HETATM    1  C1  UNL     1     -33.981  17.904  -3.736  1.00 20.00     0.075 C 
HETATM    2  C8  UNL     1     -34.663  16.962  -2.817  1.00 20.00     0.186 C 
HETATM    3  N9  UNL     1     -33.448  18.631  -4.467  1.00 20.00    -0.196 NA
ENDROOT
BRANCH   2   4
HETATM    4  C6  UNL     1     -34.691  15.568  -3.346  1.00 20.00    -0.031 A 
HETATM    5  C2  UNL     1     -35.898  14.985  -3.716  1.00 20.00     0.028 A 
HETATM    6  C4  UNL     1     -35.868  13.688  -4.202  1.00 20.00     0.116 A 
HETATM    7  N10 UNL     1     -34.740  12.955  -4.338  1.00 20.00    -0.273 NA
HETATM    8  C5  UNL     1     -33.587  13.556  -3.969  1.00 20.00     0.116 A 
HETATM    9  C3  UNL     1     -33.509  14.846  -3.472  1.00 20.00     0.028 A 
ENDBRANCH   2   4
BRANCH   2  10
HETATM   10  C7  UNL     1     -34.055  17.025  -1.420  1.00 20.00     0.255 C 
HETATM   11  O11 UNL     1     -34.596  16.631  -0.391  1.00 20.00    -0.305 OA
ENDBRANCH   2  10
TORSDOF 2
ENDMDL
MODEL 7
REMARK VINA RESULT:      -4.3      2.062      2.692
REMARK  2 active torsions:
REMARK  status: ('A' for Active; 'I' for Inactive)
REMARK    1  A    between atoms: C6_6  and  C8_8 
REMARK    2  A    between atoms: C7_7  and  C8_8 
ROOT
HETATM    1  C1  UNL     1     -33.989  17.908  -3.761  1.00 20.00     0.075 C 
HETATM    2  C8  UNL     1     -34.655  16.966  -2.831  1.00 20.00     0.186 C 
HETATM    3  N9  UNL     1     -33.469  18.636  -4.500  1.00 20.00    -0.196 NA
ENDROOT
BRANCH   2   4
HETATM    4  C6  UNL     1     -34.680  15.569  -3.354  1.00 20.00    -0.031 A 
HETATM    5  C2  UNL     1     -33.496  14.853  -3.489  1.00 20.00     0.028 A 
HETATM    6  C4  UNL     1     -33.574  13.560  -3.980  1.00 20.00     0.116 A 
HETATM    7  N10 UNL     1     -34.728  12.952  -4.335  1.00 20.00    -0.273 NA
HETATM    8  C5  UNL     1     -35.858  13.680  -4.189  1.00 20.00     0.116 A 
HETATM    9  C3  UNL     1     -35.888  14.979  -3.708  1.00 20.00     0.028 A 
ENDBRANCH   2   4
BRANCH   2  10
HETATM   10  C7  UNL     1     -34.032  17.038  -1.441  1.00 20.00     0.255 C 
HETATM   11  O11 UNL     1     -34.563  16.656  -0.403  1.00 20.00    -0.305 OA
ENDBRANCH   2  10
TORSDOF 2
ENDMDL
MODEL 8
REMARK VINA RESULT:      -4.2      2.428      4.380
REMARK  2 active torsions:
REMARK  status: ('A' for Active; 'I' for Inactive)
REMARK    1  A    between atoms: C6_6  and  C8_8 
REMARK    2  A    between atoms: C7_7  and  C8_8 
ROOT
HETATM    1  C1  UNL     1     -33.380  16.157  -4.248  1.00 20.00     0.075 C 
HETATM    2  C8  UNL     1     -33.884  15.530  -3.003  1.00 20.00     0.186 C 
HETATM    3  N9  UNL     1     -32.989  16.661  -5.217  1.00 20.00    -0.196 NA
ENDROOT
BRANCH   2   4
HETATM    4  C6  UNL     1     -34.735  16.457  -2.202  1.00 20.00    -0.031 A 
HETATM    5  C2  UNL     1     -34.443  16.691  -0.862  1.00 20.00     0.028 A 
HETATM    6  C4  UNL     1     -35.265  17.560  -0.163  1.00 20.00     0.116 A 
HETATM    7  N10 UNL     1     -36.331  18.194  -0.702  1.00 20.00    -0.273 NA
HETATM    8  C5  UNL     1     -36.582  17.942  -2.006  1.00 20.00     0.116 A 
HETATM    9  C3  UNL     1     -35.823  17.091  -2.792  1.00 20.00     0.028 A 
ENDBRANCH   2   4
BRANCH   2  10
HETATM   10  C7  UNL     1     -34.602  14.219  -3.303  1.00 20.00     0.255 C 
HETATM   11  O11 UNL     1     -34.075  13.206  -3.751  1.00 20.00    -0.305 OA
ENDBRANCH   2  10
TORSDOF 2
ENDMDL
MODEL 9
REMARK VINA RESULT:      -4.2      2.461      4.616
REMARK  2 active torsions:
REMARK  status: ('A' for Active; 'I' for Inactive)
REMARK    1  A    between atoms: C6_6  and  C8_8 
REMARK    2  A    between atoms: C7_7  and  C8_8 
ROOT
HETATM    1  C1  UNL     1     -34.299  14.875  -6.100  1.00 20.00     0.075 C 
HETATM    2  C8  UNL     1     -33.906  14.735  -4.678  1.00 20.00     0.186 C 
HETATM    3  N9  UNL     1     -34.603  15.001  -7.213  1.00 20.00    -0.196 NA
ENDROOT
BRANCH   2   4
HETATM    4  C6  UNL     1     -33.842  16.046  -3.972  1.00 20.00    -0.031 A 
HETATM    5  C2  UNL     1     -33.944  16.099  -2.586  1.00 20.00     0.028 A 
HETATM    6  C4  UNL     1     -33.879  17.342  -1.979  1.00 20.00     0.116 A 
HETATM    7  N10 UNL     1     -33.721  18.506  -2.649  1.00 20.00    -0.273 NA
HETATM    8  C5  UNL     1     -33.625  18.414  -3.994  1.00 20.00     0.116 A 
HETATM    9  C3  UNL     1     -33.679  17.222  -4.697  1.00 20.00     0.028 A 
ENDBRANCH   2   4
BRANCH   2  10
HETATM   10  C7  UNL     1     -34.816  13.747  -3.955  1.00 20.00     0.255 C 
HETATM   11  O11 UNL     1     -35.084  12.613  -4.342  1.00 20.00    -0.305 OA
ENDBRANCH   2  10
TORSDOF 2
ENDMDL
