MODEL 1
REMARK VINA RESULT:      -4.6      0.000      0.000
REMARK  0 active torsions:
REMARK  status: ('A' for Active; 'I' for Inactive)
ROOT
HETATM    1  C1  UNL     1     -34.661  14.029  -4.703  1.00 20.00     0.145 C 
HETATM    2  C2  UNL     1     -34.273  15.978  -3.082  1.00 20.00     0.061 C 
HETATM    3  C3  UNL     1     -35.096  16.344  -5.567  1.00 20.00     0.061 C 
HETATM    4  C4  UNL     1     -33.995  14.522  -3.425  1.00 20.00     0.103 C 
HETATM    5  C5  UNL     1     -34.594  14.948  -5.922  1.00 20.00     0.103 C 
HETATM    6  C6  UNL     1     -32.492  14.252  -3.492  1.00 20.00     0.024 C 
HETATM    7  C7  UNL     1     -35.248  14.287  -7.137  1.00 20.00     0.024 C 
HETATM    8  O8  UNL     1     -35.160  12.904  -4.751  1.00 20.00    -0.296 OA
HETATM    9  S9  UNL     1     -34.669  16.445  -1.518  1.00 20.00    -0.076 SA
HETATM   10  S10 UNL     1     -36.470  17.072  -6.190  1.00 20.00    -0.076 SA
HETATM   11  S11 UNL     1     -34.097  17.169  -4.369  1.00 20.00    -0.074 SA
ENDROOT
TORSDOF 0
ENDMDL
MODEL 2
REMARK VINA RESULT:      -4.3      2.212      3.763
REMARK  0 active torsions:
REMARK  status: ('A' for Active; 'I' for Inactive)
ROOT
HETATM    1  C1  UNL     1     -34.124  15.493  -4.010  1.00 20.00     0.145 C 
HETATM    2  C2  UNL     1     -36.150  14.954  -5.486  1.00 20.00     0.061 C 
HETATM    3  C3  UNL     1     -36.382  16.166  -3.149  1.00 20.00     0.061 C 
HETATM    4  C4  UNL     1     -34.693  14.662  -5.152  1.00 20.00     0.103 C 
HETATM    5  C5  UNL     1     -34.995  15.658  -2.766  1.00 20.00     0.103 C 
HETATM    6  C6  UNL     1     -34.486  13.177  -4.861  1.00 20.00     0.024 C 
HETATM    7  C7  UNL     1     -34.260  16.459  -1.690  1.00 20.00     0.024 C 
HETATM    8  O8  UNL     1     -32.977  15.939  -4.076  1.00 20.00    -0.296 OA
HETATM    9  S9  UNL     1     -36.661  15.127  -7.077  1.00 20.00    -0.076 SA
HETATM   10  S10 UNL     1     -37.026  17.653  -2.724  1.00 20.00    -0.076 SA
HETATM   11  S11 UNL     1     -37.295  15.035  -4.150  1.00 20.00    -0.074 SA
ENDROOT
TORSDOF 0
ENDMDL
MODEL 3
REMARK VINA RESULT:      -4.2      1.834      3.544
REMARK  0 active torsions:
REMARK  status: ('A' for Active; 'I' for Inactive)
ROOT
HETATM    1  C1  UNL     1     -33.619  15.100  -3.817  1.00 20.00     0.145 C 
HETATM    2  C2  UNL     1     -35.102  15.145  -5.909  1.00 20.00     0.061 C 
HETATM    3  C3  UNL     1     -35.164  17.059  -4.086  1.00 20.00     0.061 C 
HETATM    4  C4  UNL     1     -34.251  14.315  -4.958  1.00 20.00     0.103 C 
HETATM    5  C5  UNL     1     -34.507  16.109  -3.090  1.00 20.00     0.103 C 
HETATM    6  C6  UNL     1     -35.050  13.140  -4.393  1.00 20.00     0.024 C 
HETATM    7  C7  UNL     1     -33.750  16.766  -1.935  1.00 20.00     0.024 C 
HETATM    8  O8  UNL     1     -32.464  14.863  -3.463  1.00 20.00    -0.296 OA
HETATM    9  S9  UNL     1     -34.978  14.963  -7.574  1.00 20.00    -0.076 SA
HETATM   10  S10 UNL     1     -34.882  18.707  -4.192  1.00 20.00    -0.076 SA
HETATM   11  S11 UNL     1     -36.272  16.256  -5.201  1.00 20.00    -0.074 SA
ENDROOT
TORSDOF 0
ENDMDL
MODEL 4
REMARK VINA RESULT:      -4.2      2.019      2.459
REMARK  0 active torsions:
REMARK  status: ('A' for Active; 'I' for Inactive)
ROOT
HETATM    1  C1  UNL     1     -35.755  15.130  -3.498  1.00 20.00     0.145 C 
HETATM    2  C2  UNL     1     -34.931  17.543  -3.768  1.00 20.00     0.061 C 
HETATM    3  C3  UNL     1     -34.179  15.599  -5.394  1.00 20.00     0.061 C 
HETATM    4  C4  UNL     1     -35.548  16.494  -2.854  1.00 20.00     0.103 C 
HETATM    5  C5  UNL     1     -34.608  14.578  -4.345  1.00 20.00     0.103 C 
HETATM    6  C6  UNL     1     -34.732  16.338  -1.571  1.00 20.00     0.024 C 
HETATM    7  C7  UNL     1     -34.942  13.179  -4.866  1.00 20.00     0.024 C 
HETATM    8  O8  UNL     1     -36.778  14.483  -3.272  1.00 20.00    -0.296 OA
HETATM    9  S9  UNL     1     -35.540  19.107  -3.835  1.00 20.00    -0.076 SA
HETATM   10  S10 UNL     1     -34.327  15.413  -7.052  1.00 20.00    -0.076 SA
HETATM   11  S11 UNL     1     -33.512  17.080  -4.704  1.00 20.00    -0.074 SA
ENDROOT
TORSDOF 0
ENDMDL
MODEL 5
REMARK VINA RESULT:      -4.1      1.647      1.759
REMARK  0 active torsions:
REMARK  status: ('A' for Active; 'I' for Inactive)
ROOT
HETATM    1  C1  UNL     1     -36.552  14.768  -4.186  1.00 20.00     0.145 C 
HETATM    2  C2  UNL     1     -34.603  16.130  -3.227  1.00 20.00     0.061 C 
HETATM    3  C3  UNL     1     -35.964  16.908  -5.355  1.00 20.00     0.061 C 
HETATM    4  C4  UNL     1     -35.304  14.782  -3.314  1.00 20.00     0.103 C 
HETATM    5  C5  UNL     1     -36.467  15.480  -5.536  1.00 20.00     0.103 C 
HETATM    6  C6  UNL     1     -34.338  13.693  -3.780  1.00 20.00     0.024 C 
HETATM    7  C7  UNL     1     -37.773  15.321  -6.317  1.00 20.00     0.024 C 
HETATM    8  O8  UNL     1     -37.551  14.139  -3.834  1.00 20.00    -0.296 OA
HETATM    9  S9  UNL     1     -34.064  16.738  -1.756  1.00 20.00    -0.076 SA
HETATM   10  S10 UNL     1     -36.845  18.298  -5.667  1.00 20.00    -0.076 SA
HETATM   11  S11 UNL     1     -34.316  17.002  -4.731  1.00 20.00    -0.074 SA
ENDROOT
TORSDOF 0
ENDMDL
MODEL 6
REMARK VINA RESULT:      -3.7      2.469      3.232
REMARK  0 active torsions:
REMARK  status: ('A' for Active; 'I' for Inactive)
ROOT
HETATM    1  C1  UNL     1     -34.242  17.123  -5.071  1.00 20.00     0.145 C 
HETATM    2  C2  UNL     1     -35.154  16.596  -2.734  1.00 20.00     0.061 C 
HETATM    3  C3  UNL     1     -35.240  14.849  -4.716  1.00 20.00     0.061 C 
HETATM    4  C4  UNL     1     -34.740  17.663  -3.738  1.00 20.00     0.103 C 
HETATM    5  C5  UNL     1     -35.046  15.990  -5.709  1.00 20.00     0.103 C 
HETATM    6  C6  UNL     1     -35.874  18.659  -3.977  1.00 20.00     0.024 C 
HETATM    7  C7  UNL     1     -34.459  15.605  -7.068  1.00 20.00     0.024 C 
HETATM    8  O8  UNL     1     -33.276  17.642  -5.632  1.00 20.00    -0.296 OA
HETATM    9  S9  UNL     1     -34.686  16.687  -1.123  1.00 20.00    -0.076 SA
HETATM   10  S10 UNL     1     -34.606  13.306  -4.868  1.00 20.00    -0.076 SA
HETATM   11  S11 UNL     1     -36.201  15.299  -3.304  1.00 20.00    -0.074 SA
ENDROOT
TORSDOF 0
ENDMDL
MODEL 7
REMARK VINA RESULT:      -3.7      2.439      2.932
REMARK  0 active torsions:
REMARK  status: ('A' for Active; 'I' for Inactive)
ROOT
HETATM    1  C1  UNL     1     -33.792  16.773  -4.311  1.00 20.00     0.145 C 
HETATM    2  C2  UNL     1     -34.919  17.331  -2.076  1.00 20.00     0.061 C 
HETATM    3  C3  UNL     1     -36.211  16.157  -4.061  1.00 20.00     0.061 C 
HETATM    4  C4  UNL     1     -33.764  17.598  -3.032  1.00 20.00     0.103 C 
HETATM    5  C5  UNL     1     -35.135  16.643  -5.027  1.00 20.00     0.103 C 
HETATM    6  C6  UNL     1     -33.675  19.084  -3.379  1.00 20.00     0.024 C 
HETATM    7  C7  UNL     1     -34.986  15.843  -6.323  1.00 20.00     0.024 C 
HETATM    8  O8  UNL     1     -32.751  16.304  -4.772  1.00 20.00    -0.296 OA
HETATM    9  S9  UNL     1     -34.659  17.146  -0.427  1.00 20.00    -0.076 SA
HETATM   10  S10 UNL     1     -37.013  14.689  -4.153  1.00 20.00    -0.076 SA
HETATM   11  S11 UNL     1     -36.546  17.291  -2.750  1.00 20.00    -0.074 SA
ENDROOT
TORSDOF 0
ENDMDL
MODEL 8
REMARK VINA RESULT:      -3.6      2.442      4.046
REMARK  0 active torsions:
REMARK  status: ('A' for Active; 'I' for Inactive)
ROOT
HETATM    1  C1  UNL     1     -35.641  17.172  -4.815  1.00 20.00     0.145 C 
HETATM    2  C2  UNL     1     -34.456  14.902  -4.692  1.00 20.00     0.061 C 
HETATM    3  C3  UNL     1     -34.178  16.749  -2.822  1.00 20.00     0.061 C 
HETATM    4  C4  UNL     1     -35.157  15.936  -5.561  1.00 20.00     0.103 C 
HETATM    5  C5  UNL     1     -34.679  17.799  -3.808  1.00 20.00     0.103 C 
HETATM    6  C6  UNL     1     -34.272  16.356  -6.733  1.00 20.00     0.024 C 
HETATM    7  C7  UNL     1     -35.283  19.064  -3.194  1.00 20.00     0.024 C 
HETATM    8  O8  UNL     1     -36.734  17.673  -5.083  1.00 20.00    -0.296 OA
HETATM    9  S9  UNL     1     -34.802  13.264  -4.836  1.00 20.00    -0.076 SA
HETATM   10  S10 UNL     1     -34.496  16.726  -1.177  1.00 20.00    -0.076 SA
HETATM   11  S11 UNL     1     -33.218  15.474  -3.577  1.00 20.00    -0.074 SA
ENDROOT
TORSDOF 0
ENDMDL
MODEL 9
REMARK VINA RESULT:      -3.6      2.079      3.751
REMARK  0 active torsions:
REMARK  status: ('A' for Active; 'I' for Inactive)
ROOT
HETATM    1  C1  UNL     1     -35.378  14.924  -3.808  1.00 20.00     0.145 C 
HETATM    2  C2  UNL     1     -36.736  15.774  -5.809  1.00 20.00     0.061 C 
HETATM    3  C3  UNL     1     -34.986  17.292  -4.538  1.00 20.00     0.061 C 
HETATM    4  C4  UNL     1     -36.601  14.745  -4.695  1.00 20.00     0.103 C 
HETATM    5  C5  UNL     1     -35.054  16.344  -3.345  1.00 20.00     0.103 C 
HETATM    6  C6  UNL     1     -37.862  14.705  -3.832  1.00 20.00     0.024 C 
HETATM    7  C7  UNL     1     -33.841  16.349  -2.413  1.00 20.00     0.024 C 
HETATM    8  O8  UNL     1     -34.735  13.944  -3.429  1.00 20.00    -0.296 OA
HETATM    9  S9  UNL     1     -37.139  15.315  -7.375  1.00 20.00    -0.076 SA
HETATM   10  S10 UNL     1     -33.614  18.093  -5.068  1.00 20.00    -0.076 SA
HETATM   11  S11 UNL     1     -36.524  17.471  -5.386  1.00 20.00    -0.074 SA
ENDROOT
TORSDOF 0
ENDMDL
