MODEL 1
REMARK VINA RESULT:      -5.0      0.000      0.000
REMARK  4 active torsions:
REMARK  status: ('A' for Active; 'I' for Inactive)
REMARK    1  A    between atoms: C1_1  and  C7_7 
REMARK    2  A    between atoms: C2_2  and  C9_9 
REMARK    3  A    between atoms: C9_9  and  C11_11 
REMARK    4  A    between atoms: C10_10  and  C11_11 
ROOT
HETATM    1  C3  UNL     1     -34.821  13.466  -4.342  1.00 20.00     0.006 C 
HETATM    2  C4  UNL     1     -34.976  14.220  -5.656  1.00 20.00     0.026 C 
HETATM    3  C5  UNL     1     -33.436  13.711  -3.750  1.00 20.00     0.045 C 
HETATM    4  C6  UNL     1     -34.623  15.688  -5.475  1.00 20.00     0.169 C 
HETATM    5  C7  UNL     1     -33.089  15.201  -3.685  1.00 20.00     0.200 C 
HETATM    6  O12 UNL     1     -33.304  15.844  -4.947  1.00 20.00    -0.374 OA
ENDROOT
BRANCH   5   7
HETATM    7  C1  UNL     1     -33.795  15.898  -2.599  1.00 20.00    -0.074 C 
HETATM    8  C2  UNL     1     -34.370  16.469  -1.712  1.00 20.00    -0.104 C 
BRANCH   8   9
HETATM    9  C9  UNL     1     -35.073  17.165  -0.626  1.00 20.00     0.094 C 
BRANCH   9  10
HETATM   10  C11 UNL     1     -34.086  17.852   0.317  1.00 20.00     0.012 C 
BRANCH  10  11
HETATM   11  C10 UNL     1     -33.184  18.829  -0.437  1.00 20.00    -0.004 C 
HETATM   12  C8  UNL     1     -31.872  19.057   0.297  1.00 20.00     0.005 C 
ENDBRANCH  10  11
ENDBRANCH   9  10
ENDBRANCH   8   9
ENDBRANCH   5   7
TORSDOF 4
ENDMDL
MODEL 2
REMARK VINA RESULT:      -4.9      0.772      1.395
REMARK  4 active torsions:
REMARK  status: ('A' for Active; 'I' for Inactive)
REMARK    1  A    between atoms: C1_1  and  C7_7 
REMARK    2  A    between atoms: C2_2  and  C9_9 
REMARK    3  A    between atoms: C9_9  and  C11_11 
REMARK    4  A    between atoms: C10_10  and  C11_11 
ROOT
HETATM    1  C3  UNL     1     -34.809  13.397  -4.232  1.00 20.00     0.006 C 
HETATM    2  C4  UNL     1     -35.188  14.130  -5.512  1.00 20.00     0.026 C 
HETATM    3  C5  UNL     1     -33.380  13.744  -3.825  1.00 20.00     0.045 C 
HETATM    4  C6  UNL     1     -34.920  15.621  -5.373  1.00 20.00     0.169 C 
HETATM    5  C7  UNL     1     -33.135  15.255  -3.801  1.00 20.00     0.200 C 
HETATM    6  O12 UNL     1     -33.559  15.874  -5.022  1.00 20.00    -0.374 OA
ENDROOT
BRANCH   5   7
HETATM    7  C1  UNL     1     -33.740  15.906  -2.629  1.00 20.00    -0.074 C 
HETATM    8  C2  UNL     1     -34.234  16.437  -1.671  1.00 20.00    -0.104 C 
BRANCH   8   9
HETATM    9  C9  UNL     1     -34.841  17.086  -0.501  1.00 20.00     0.094 C 
BRANCH   9  10
HETATM   10  C11 UNL     1     -33.912  18.152   0.080  1.00 20.00     0.012 C 
BRANCH  10  11
HETATM   11  C10 UNL     1     -34.117  18.306   1.587  1.00 20.00    -0.004 C 
HETATM   12  C8  UNL     1     -35.398  17.629   2.048  1.00 20.00     0.005 C 
ENDBRANCH  10  11
ENDBRANCH   9  10
ENDBRANCH   8   9
ENDBRANCH   5   7
TORSDOF 4
ENDMDL
MODEL 3
REMARK VINA RESULT:      -4.6      1.531      2.236
REMARK  4 active torsions:
REMARK  status: ('A' for Active; 'I' for Inactive)
REMARK    1  A    between atoms: C1_1  and  C7_7 
REMARK    2  A    between atoms: C2_2  and  C9_9 
REMARK    3  A    between atoms: C9_9  and  C11_11 
REMARK    4  A    between atoms: C10_10  and  C11_11 
ROOT
HETATM    1  C3  UNL     1     -35.553  15.654  -6.052  1.00 20.00     0.006 C 
HETATM    2  C4  UNL     1     -34.850  14.337  -6.350  1.00 20.00     0.026 C 
HETATM    3  C5  UNL     1     -36.694  15.434  -5.062  1.00 20.00     0.045 C 
HETATM    4  C6  UNL     1     -34.435  13.648  -5.060  1.00 20.00     0.169 C 
HETATM    5  C7  UNL     1     -36.246  14.646  -3.828  1.00 20.00     0.200 C 
HETATM    6  O12 UNL     1     -35.555  13.446  -4.196  1.00 20.00    -0.374 OA
ENDROOT
BRANCH   5   7
HETATM    7  C1  UNL     1     -35.452  15.460  -2.896  1.00 20.00    -0.074 C 
HETATM    8  C2  UNL     1     -34.804  16.124  -2.133  1.00 20.00    -0.104 C 
BRANCH   8   9
HETATM    9  C9  UNL     1     -34.012  16.939  -1.201  1.00 20.00     0.094 C 
BRANCH   9  10
HETATM   10  C11 UNL     1     -34.802  17.243   0.072  1.00 20.00     0.012 C 
BRANCH  10  11
HETATM   11  C10 UNL     1     -34.086  18.281   0.936  1.00 20.00    -0.004 C 
HETATM   12  C8  UNL     1     -32.723  18.639   0.363  1.00 20.00     0.005 C 
ENDBRANCH  10  11
ENDBRANCH   9  10
ENDBRANCH   8   9
ENDBRANCH   5   7
TORSDOF 4
ENDMDL
MODEL 4
REMARK VINA RESULT:      -4.6      1.199      1.629
REMARK  4 active torsions:
REMARK  status: ('A' for Active; 'I' for Inactive)
REMARK    1  A    between atoms: C1_1  and  C7_7 
REMARK    2  A    between atoms: C2_2  and  C9_9 
REMARK    3  A    between atoms: C9_9  and  C11_11 
REMARK    4  A    between atoms: C10_10  and  C11_11 
ROOT
HETATM    1  C3  UNL     1     -32.786  14.423  -3.711  1.00 20.00     0.006 C 
HETATM    2  C4  UNL     1     -33.911  13.530  -4.217  1.00 20.00     0.026 C 
HETATM    3  C5  UNL     1     -33.030  15.870  -4.130  1.00 20.00     0.045 C 
HETATM    4  C6  UNL     1     -35.264  14.084  -3.799  1.00 20.00     0.169 C 
HETATM    5  C7  UNL     1     -34.442  16.346  -3.778  1.00 20.00     0.200 C 
HETATM    6  O12 UNL     1     -35.436  15.429  -4.249  1.00 20.00    -0.374 OA
ENDROOT
BRANCH   5   7
HETATM    7  C1  UNL     1     -34.602  16.622  -2.342  1.00 20.00    -0.074 C 
HETATM    8  C2  UNL     1     -34.735  16.848  -1.169  1.00 20.00    -0.104 C 
BRANCH   8   9
HETATM    9  C9  UNL     1     -34.895  17.126   0.265  1.00 20.00     0.094 C 
BRANCH   9  10
HETATM   10  C11 UNL     1     -34.123  18.380   0.672  1.00 20.00     0.012 C 
BRANCH  10  11
HETATM   11  C10 UNL     1     -32.816  18.507  -0.110  1.00 20.00    -0.004 C 
HETATM   12  C8  UNL     1     -31.739  19.199   0.711  1.00 20.00     0.005 C 
ENDBRANCH  10  11
ENDBRANCH   9  10
ENDBRANCH   8   9
ENDBRANCH   5   7
TORSDOF 4
ENDMDL
MODEL 5
REMARK VINA RESULT:      -4.3     12.943     15.932
REMARK  4 active torsions:
REMARK  status: ('A' for Active; 'I' for Inactive)
REMARK    1  A    between atoms: C1_1  and  C7_7 
REMARK    2  A    between atoms: C2_2  and  C9_9 
REMARK    3  A    between atoms: C9_9  and  C11_11 
REMARK    4  A    between atoms: C10_10  and  C11_11 
ROOT
HETATM    1  C3  UNL     1     -40.640   5.672  -0.358  1.00 20.00     0.006 C 
HETATM    2  C4  UNL     1     -41.090   6.937  -1.076  1.00 20.00     0.026 C 
HETATM    3  C5  UNL     1     -41.843   4.787  -0.042  1.00 20.00     0.045 C 
HETATM    4  C6  UNL     1     -41.947   6.591  -2.283  1.00 20.00     0.169 C 
HETATM    5  C7  UNL     1     -42.730   4.554  -1.268  1.00 20.00     0.200 C 
HETATM    6  O12 UNL     1     -43.069   5.789  -1.911  1.00 20.00    -0.374 OA
ENDROOT
BRANCH   5   7
HETATM    7  C1  UNL     1     -42.140   3.598  -2.218  1.00 20.00    -0.074 C 
HETATM    8  C2  UNL     1     -41.657   2.817  -2.993  1.00 20.00    -0.104 C 
BRANCH   8   9
HETATM    9  C9  UNL     1     -41.068   1.864  -3.943  1.00 20.00     0.094 C 
BRANCH   9  10
HETATM   10  C11 UNL     1     -42.116   0.874  -4.451  1.00 20.00     0.012 C 
BRANCH  10  11
HETATM   11  C10 UNL     1     -42.061  -0.441  -3.675  1.00 20.00    -0.004 C 
HETATM   12  C8  UNL     1     -40.904  -1.314  -4.136  1.00 20.00     0.005 C 
ENDBRANCH  10  11
ENDBRANCH   9  10
ENDBRANCH   8   9
ENDBRANCH   5   7
TORSDOF 4
ENDMDL
MODEL 6
REMARK VINA RESULT:      -4.3      1.369      2.138
REMARK  4 active torsions:
REMARK  status: ('A' for Active; 'I' for Inactive)
REMARK    1  A    between atoms: C1_1  and  C7_7 
REMARK    2  A    between atoms: C2_2  and  C9_9 
REMARK    3  A    between atoms: C9_9  and  C11_11 
REMARK    4  A    between atoms: C10_10  and  C11_11 
ROOT
HETATM    1  C3  UNL     1     -34.760  13.491  -4.349  1.00 20.00     0.006 C 
HETATM    2  C4  UNL     1     -35.001  14.275  -5.632  1.00 20.00     0.026 C 
HETATM    3  C5  UNL     1     -33.357  13.768  -3.815  1.00 20.00     0.045 C 
HETATM    4  C6  UNL     1     -34.688  15.749  -5.426  1.00 20.00     0.169 C 
HETATM    5  C7  UNL     1     -33.056  15.267  -3.724  1.00 20.00     0.200 C 
HETATM    6  O12 UNL     1     -33.352  15.936  -4.955  1.00 20.00    -0.374 OA
ENDROOT
BRANCH   5   7
HETATM    7  C1  UNL     1     -33.732  15.910  -2.586  1.00 20.00    -0.074 C 
HETATM    8  C2  UNL     1     -34.285  16.437  -1.659  1.00 20.00    -0.104 C 
BRANCH   8   9
HETATM    9  C9  UNL     1     -34.958  17.080  -0.523  1.00 20.00     0.094 C 
BRANCH   9  10
HETATM   10  C11 UNL     1     -35.671  18.360  -0.958  1.00 20.00     0.012 C 
BRANCH  10  11
HETATM   11  C10 UNL     1     -36.766  18.066  -1.983  1.00 20.00    -0.004 C 
HETATM   12  C8  UNL     1     -36.531  18.820  -3.282  1.00 20.00     0.005 C 
ENDBRANCH  10  11
ENDBRANCH   9  10
ENDBRANCH   8   9
ENDBRANCH   5   7
TORSDOF 4
ENDMDL
MODEL 7
REMARK VINA RESULT:      -4.2      1.617      5.625
REMARK  4 active torsions:
REMARK  status: ('A' for Active; 'I' for Inactive)
REMARK    1  A    between atoms: C1_1  and  C7_7 
REMARK    2  A    between atoms: C2_2  and  C9_9 
REMARK    3  A    between atoms: C9_9  and  C11_11 
REMARK    4  A    between atoms: C10_10  and  C11_11 
ROOT
HETATM    1  C3  UNL     1     -34.891  17.418   0.492  1.00 20.00     0.006 C 
HETATM    2  C4  UNL     1     -33.759  18.355   0.891  1.00 20.00     0.026 C 
HETATM    3  C5  UNL     1     -35.559  17.908  -0.790  1.00 20.00     0.045 C 
HETATM    4  C6  UNL     1     -32.803  18.564  -0.273  1.00 20.00     0.169 C 
HETATM    5  C7  UNL     1     -34.543  18.202  -1.897  1.00 20.00     0.200 C 
HETATM    6  O12 UNL     1     -33.489  19.052  -1.428  1.00 20.00    -0.374 OA
ENDROOT
BRANCH   5   7
HETATM    7  C1  UNL     1     -34.011  16.977  -2.515  1.00 20.00    -0.074 C 
HETATM    8  C2  UNL     1     -33.579  15.977  -3.019  1.00 20.00    -0.104 C 
BRANCH   8   9
HETATM    9  C9  UNL     1     -33.047  14.753  -3.635  1.00 20.00     0.094 C 
BRANCH   9  10
HETATM   10  C11 UNL     1     -34.092  13.638  -3.637  1.00 20.00     0.012 C 
BRANCH  10  11
HETATM   11  C10 UNL     1     -35.340  14.047  -4.419  1.00 20.00    -0.004 C 
HETATM   12  C8  UNL     1     -35.066  14.110  -5.913  1.00 20.00     0.005 C 
ENDBRANCH  10  11
ENDBRANCH   9  10
ENDBRANCH   8   9
ENDBRANCH   5   7
TORSDOF 4
ENDMDL
MODEL 8
REMARK VINA RESULT:      -4.0      1.623      2.416
REMARK  4 active torsions:
REMARK  status: ('A' for Active; 'I' for Inactive)
REMARK    1  A    between atoms: C1_1  and  C7_7 
REMARK    2  A    between atoms: C2_2  and  C9_9 
REMARK    3  A    between atoms: C9_9  and  C11_11 
REMARK    4  A    between atoms: C10_10  and  C11_11 
ROOT
HETATM    1  C3  UNL     1     -34.086  14.069  -4.666  1.00 20.00     0.006 C 
HETATM    2  C4  UNL     1     -35.453  13.529  -4.267  1.00 20.00     0.026 C 
HETATM    3  C5  UNL     1     -34.241  15.247  -5.625  1.00 20.00     0.045 C 
HETATM    4  C6  UNL     1     -36.339  14.649  -3.746  1.00 20.00     0.169 C 
HETATM    5  C7  UNL     1     -35.223  16.297  -5.099  1.00 20.00     0.200 C 
HETATM    6  O12 UNL     1     -36.464  15.702  -4.704  1.00 20.00    -0.374 OA
ENDROOT
BRANCH   5   7
HETATM    7  C1  UNL     1     -34.650  17.114  -4.018  1.00 20.00    -0.074 C 
HETATM    8  C2  UNL     1     -34.182  17.782  -3.136  1.00 20.00    -0.104 C 
BRANCH   8   9
HETATM    9  C9  UNL     1     -33.608  18.597  -2.057  1.00 20.00     0.094 C 
BRANCH   9  10
HETATM   10  C11 UNL     1     -33.441  17.778  -0.778  1.00 20.00     0.012 C 
BRANCH  10  11
HETATM   11  C10 UNL     1     -34.756  17.118  -0.364  1.00 20.00    -0.004 C 
HETATM   12  C8  UNL     1     -35.181  17.550   1.031  1.00 20.00     0.005 C 
ENDBRANCH  10  11
ENDBRANCH   9  10
ENDBRANCH   8   9
ENDBRANCH   5   7
TORSDOF 4
ENDMDL
MODEL 9
REMARK VINA RESULT:      -3.9     11.088     13.226
REMARK  4 active torsions:
REMARK  status: ('A' for Active; 'I' for Inactive)
REMARK    1  A    between atoms: C1_1  and  C7_7 
REMARK    2  A    between atoms: C2_2  and  C9_9 
REMARK    3  A    between atoms: C9_9  and  C11_11 
REMARK    4  A    between atoms: C10_10  and  C11_11 
ROOT
HETATM    1  C3  UNL     1     -42.698   5.526   0.618  1.00 20.00     0.006 C 
HETATM    2  C4  UNL     1     -43.084   4.119   0.181  1.00 20.00     0.026 C 
HETATM    3  C5  UNL     1     -41.287   5.860   0.143  1.00 20.00     0.045 C 
HETATM    4  C6  UNL     1     -42.869   3.945  -1.314  1.00 20.00     0.169 C 
HETATM    5  C7  UNL     1     -41.093   5.570  -1.348  1.00 20.00     0.200 C 
HETATM    6  O12 UNL     1     -41.521   4.245  -1.683  1.00 20.00    -0.374 OA
ENDROOT
BRANCH   5   7
HETATM    7  C1  UNL     1     -41.736   6.577  -2.207  1.00 20.00    -0.074 C 
HETATM    8  C2  UNL     1     -42.260   7.400  -2.907  1.00 20.00    -0.104 C 
BRANCH   8   9
HETATM    9  C9  UNL     1     -42.904   8.405  -3.764  1.00 20.00     0.094 C 
BRANCH   9  10
HETATM   10  C11 UNL     1     -42.034   8.733  -4.976  1.00 20.00     0.012 C 
BRANCH  10  11
HETATM   11  C10 UNL     1     -42.049  10.230  -5.283  1.00 20.00    -0.004 C 
HETATM   12  C8  UNL     1     -41.601  10.513  -6.708  1.00 20.00     0.005 C 
ENDBRANCH  10  11
ENDBRANCH   9  10
ENDBRANCH   8   9
ENDBRANCH   5   7
TORSDOF 4
ENDMDL
