MODEL 1
REMARK VINA RESULT:      -5.4      0.000      0.000
REMARK  3 active torsions:
REMARK  status: ('A' for Active; 'I' for Inactive)
REMARK    1  A    between atoms: C1_1  and  C3_3 
REMARK    2  A    between atoms: C2_2  and  C7_7 
REMARK    3  A    between atoms: C7_7  and  C8_8 
ROOT
HETATM    1  C1  UNL     1     -32.832   6.442   3.023  1.00 20.00     0.045 C 
HETATM    2  C2  UNL     1     -33.894   6.536   3.835  1.00 20.00    -0.023 C 
ENDROOT
BRANCH   2   3
HETATM    3  C7  UNL     1     -34.888   5.423   4.027  1.00 20.00     0.031 C 
BRANCH   3   4
HETATM    4  C8  UNL     1     -35.119   5.070   5.508  1.00 20.00    -0.019 C 
HETATM    5  C5  UNL     1     -34.680   3.628   5.775  1.00 20.00     0.010 C 
HETATM    6  C6  UNL     1     -34.376   6.020   6.450  1.00 20.00     0.010 C 
ENDBRANCH   3   4
ENDBRANCH   2   3
BRANCH   1   7
HETATM    7  C3  UNL     1     -31.887   7.583   2.874  1.00 20.00     0.145 C 
HETATM    8  C4  UNL     1     -31.952   8.351   1.581  1.00 20.00     0.096 C 
HETATM    9  O9  UNL     1     -31.074   7.877   3.747  1.00 20.00    -0.294 OA
ENDBRANCH   1   7
TORSDOF 3
ENDMDL
MODEL 2
REMARK VINA RESULT:      -5.0      1.392      1.749
REMARK  3 active torsions:
REMARK  status: ('A' for Active; 'I' for Inactive)
REMARK    1  A    between atoms: C1_1  and  C3_3 
REMARK    2  A    between atoms: C2_2  and  C7_7 
REMARK    3  A    between atoms: C7_7  and  C8_8 
ROOT
HETATM    1  C1  UNL     1     -31.981   7.668   2.771  1.00 20.00     0.045 C 
HETATM    2  C2  UNL     1     -32.997   6.811   2.934  1.00 20.00    -0.023 C 
ENDROOT
BRANCH   2   3
HETATM    3  C7  UNL     1     -33.061   5.809   4.054  1.00 20.00     0.031 C 
BRANCH   3   4
HETATM    4  C8  UNL     1     -34.312   5.971   4.937  1.00 20.00    -0.019 C 
HETATM    5  C5  UNL     1     -35.027   4.626   5.081  1.00 20.00     0.010 C 
HETATM    6  C6  UNL     1     -33.971   6.526   6.323  1.00 20.00     0.010 C 
ENDBRANCH   3   4
ENDBRANCH   2   3
BRANCH   1   7
HETATM    7  C3  UNL     1     -31.975   8.634   1.638  1.00 20.00     0.145 C 
HETATM    8  C4  UNL     1     -32.719   9.926   1.846  1.00 20.00     0.096 C 
HETATM    9  O9  UNL     1     -31.414   8.389   0.572  1.00 20.00    -0.294 OA
ENDBRANCH   1   7
TORSDOF 3
ENDMDL
MODEL 3
REMARK VINA RESULT:      -4.8      1.302      1.605
REMARK  3 active torsions:
REMARK  status: ('A' for Active; 'I' for Inactive)
REMARK    1  A    between atoms: C1_1  and  C3_3 
REMARK    2  A    between atoms: C2_2  and  C7_7 
REMARK    3  A    between atoms: C7_7  and  C8_8 
ROOT
HETATM    1  C1  UNL     1     -32.119   7.660   2.739  1.00 20.00     0.045 C 
HETATM    2  C2  UNL     1     -33.205   6.932   3.031  1.00 20.00    -0.023 C 
ENDROOT
BRANCH   2   3
HETATM    3  C7  UNL     1     -33.201   5.806   4.028  1.00 20.00     0.031 C 
BRANCH   3   4
HETATM    4  C8  UNL     1     -34.369   5.882   5.028  1.00 20.00    -0.019 C 
HETATM    5  C5  UNL     1     -34.924   4.479   5.289  1.00 20.00     0.010 C 
HETATM    6  C6  UNL     1     -33.953   6.528   6.352  1.00 20.00     0.010 C 
ENDBRANCH   3   4
ENDBRANCH   2   3
BRANCH   1   7
HETATM    7  C3  UNL     1     -32.188   8.760   1.739  1.00 20.00     0.145 C 
HETATM    8  C4  UNL     1     -31.572   8.489   0.391  1.00 20.00     0.096 C 
HETATM    9  O9  UNL     1     -32.699   9.848   1.996  1.00 20.00    -0.294 OA
ENDBRANCH   1   7
TORSDOF 3
ENDMDL
MODEL 4
REMARK VINA RESULT:      -4.5      1.894      5.113
REMARK  3 active torsions:
REMARK  status: ('A' for Active; 'I' for Inactive)
REMARK    1  A    between atoms: C1_1  and  C3_3 
REMARK    2  A    between atoms: C2_2  and  C7_7 
REMARK    3  A    between atoms: C7_7  and  C8_8 
ROOT
HETATM    1  C1  UNL     1     -33.729   6.712   4.199  1.00 20.00     0.045 C 
HETATM    2  C2  UNL     1     -32.655   6.565   3.410  1.00 20.00    -0.023 C 
ENDROOT
BRANCH   2   3
HETATM    3  C7  UNL     1     -31.812   7.718   2.940  1.00 20.00     0.031 C 
BRANCH   3   4
HETATM    4  C8  UNL     1     -32.431   8.471   1.748  1.00 20.00    -0.019 C 
HETATM    5  C5  UNL     1     -32.765   9.909   2.156  1.00 20.00     0.010 C 
HETATM    6  C6  UNL     1     -31.505   8.482   0.529  1.00 20.00     0.010 C 
ENDBRANCH   3   4
ENDBRANCH   2   3
BRANCH   1   7
HETATM    7  C3  UNL     1     -34.525   5.530   4.626  1.00 20.00     0.145 C 
HETATM    8  C4  UNL     1     -34.577   5.246   6.104  1.00 20.00     0.096 C 
HETATM    9  O9  UNL     1     -35.098   4.800   3.819  1.00 20.00    -0.294 OA
ENDBRANCH   1   7
TORSDOF 3
ENDMDL
MODEL 5
REMARK VINA RESULT:      -4.5      2.141      4.775
REMARK  3 active torsions:
REMARK  status: ('A' for Active; 'I' for Inactive)
REMARK    1  A    between atoms: C1_1  and  C3_3 
REMARK    2  A    between atoms: C2_2  and  C7_7 
REMARK    3  A    between atoms: C7_7  and  C8_8 
ROOT
HETATM    1  C1  UNL     1     -34.454   5.395   4.161  1.00 20.00     0.045 C 
HETATM    2  C2  UNL     1     -33.356   6.111   3.887  1.00 20.00    -0.023 C 
ENDROOT
BRANCH   2   3
HETATM    3  C7  UNL     1     -32.977   6.544   2.498  1.00 20.00     0.031 C 
BRANCH   3   4
HETATM    4  C8  UNL     1     -31.805   7.543   2.475  1.00 20.00    -0.019 C 
HETATM    5  C5  UNL     1     -32.209   8.802   1.705  1.00 20.00     0.010 C 
HETATM    6  C6  UNL     1     -31.345   7.923   3.885  1.00 20.00     0.010 C 
ENDBRANCH   3   4
ENDBRANCH   2   3
BRANCH   1   7
HETATM    7  C3  UNL     1     -34.771   4.994   5.560  1.00 20.00     0.145 C 
HETATM    8  C4  UNL     1     -34.423   5.981   6.642  1.00 20.00     0.096 C 
HETATM    9  O9  UNL     1     -35.270   3.904   5.831  1.00 20.00    -0.294 OA
ENDBRANCH   1   7
TORSDOF 3
ENDMDL
MODEL 6
REMARK VINA RESULT:      -4.3     11.065     11.774
REMARK  3 active torsions:
REMARK  status: ('A' for Active; 'I' for Inactive)
REMARK    1  A    between atoms: C1_1  and  C3_3 
REMARK    2  A    between atoms: C2_2  and  C7_7 
REMARK    3  A    between atoms: C7_7  and  C8_8 
ROOT
HETATM    1  C1  UNL     1     -33.953  15.176  -3.173  1.00 20.00     0.045 C 
HETATM    2  C2  UNL     1     -35.007  15.559  -2.440  1.00 20.00    -0.023 C 
ENDROOT
BRANCH   2   3
HETATM    3  C7  UNL     1     -35.129  16.923  -1.818  1.00 20.00     0.031 C 
BRANCH   3   4
HETATM    4  C8  UNL     1     -34.307  17.070  -0.524  1.00 20.00    -0.019 C 
HETATM    5  C5  UNL     1     -33.223  18.134  -0.713  1.00 20.00     0.010 C 
HETATM    6  C6  UNL     1     -35.184  17.433   0.677  1.00 20.00     0.010 C 
ENDBRANCH   3   4
ENDBRANCH   2   3
BRANCH   1   7
HETATM    7  C3  UNL     1     -33.891  13.808  -3.759  1.00 20.00     0.145 C 
HETATM    8  C4  UNL     1     -35.147  13.294  -4.411  1.00 20.00     0.096 C 
HETATM    9  O9  UNL     1     -32.878  13.115  -3.698  1.00 20.00    -0.294 OA
ENDBRANCH   1   7
TORSDOF 3
ENDMDL
MODEL 7
REMARK VINA RESULT:      -4.2     11.323     12.341
REMARK  3 active torsions:
REMARK  status: ('A' for Active; 'I' for Inactive)
REMARK    1  A    between atoms: C1_1  and  C3_3 
REMARK    2  A    between atoms: C2_2  and  C7_7 
REMARK    3  A    between atoms: C7_7  and  C8_8 
ROOT
HETATM    1  C1  UNL     1     -34.295  14.371  -3.389  1.00 20.00     0.045 C 
HETATM    2  C2  UNL     1     -35.007  15.433  -2.988  1.00 20.00    -0.023 C 
ENDROOT
BRANCH   2   3
HETATM    3  C7  UNL     1     -34.787  16.127  -1.672  1.00 20.00     0.031 C 
BRANCH   3   4
HETATM    4  C8  UNL     1     -33.648  17.163  -1.720  1.00 20.00    -0.019 C 
HETATM    5  C5  UNL     1     -33.847  18.101  -2.914  1.00 20.00     0.010 C 
HETATM    6  C6  UNL     1     -33.558  17.980  -0.429  1.00 20.00     0.010 C 
ENDBRANCH   3   4
ENDBRANCH   2   3
BRANCH   1   7
HETATM    7  C3  UNL     1     -34.566  13.727  -4.703  1.00 20.00     0.145 C 
HETATM    8  C4  UNL     1     -34.558  14.624  -5.912  1.00 20.00     0.096 C 
HETATM    9  O9  UNL     1     -34.809  12.526  -4.805  1.00 20.00    -0.294 OA
ENDBRANCH   1   7
TORSDOF 3
ENDMDL
MODEL 8
REMARK VINA RESULT:      -4.0     11.262     12.393
REMARK  3 active torsions:
REMARK  status: ('A' for Active; 'I' for Inactive)
REMARK    1  A    between atoms: C1_1  and  C3_3 
REMARK    2  A    between atoms: C2_2  and  C7_7 
REMARK    3  A    between atoms: C7_7  and  C8_8 
ROOT
HETATM    1  C1  UNL     1     -33.650  17.429  -1.225  1.00 20.00     0.045 C 
HETATM    2  C2  UNL     1     -34.531  16.426  -1.344  1.00 20.00    -0.023 C 
ENDROOT
BRANCH   2   3
HETATM    3  C7  UNL     1     -34.752  15.669  -2.625  1.00 20.00     0.031 C 
BRANCH   3   4
HETATM    4  C8  UNL     1     -33.441  15.340  -3.364  1.00 20.00    -0.019 C 
HETATM    5  C5  UNL     1     -33.406  13.853  -3.726  1.00 20.00     0.010 C 
HETATM    6  C6  UNL     1     -33.265  16.185  -4.629  1.00 20.00     0.010 C 
ENDBRANCH   3   4
ENDBRANCH   2   3
BRANCH   1   7
HETATM    7  C3  UNL     1     -33.482  18.142   0.071  1.00 20.00     0.145 C 
HETATM    8  C4  UNL     1     -32.196  18.902   0.264  1.00 20.00     0.096 C 
HETATM    9  O9  UNL     1     -34.333  18.100   0.956  1.00 20.00    -0.294 OA
ENDBRANCH   1   7
TORSDOF 3
ENDMDL
MODEL 9
REMARK VINA RESULT:      -3.9     11.256     12.184
REMARK  3 active torsions:
REMARK  status: ('A' for Active; 'I' for Inactive)
REMARK    1  A    between atoms: C1_1  and  C3_3 
REMARK    2  A    between atoms: C2_2  and  C7_7 
REMARK    3  A    between atoms: C7_7  and  C8_8 
ROOT
HETATM    1  C1  UNL     1     -34.836  15.819  -2.038  1.00 20.00     0.045 C 
HETATM    2  C2  UNL     1     -34.225  16.676  -1.208  1.00 20.00    -0.023 C 
ENDROOT
BRANCH   2   3
HETATM    3  C7  UNL     1     -34.904  17.304  -0.022  1.00 20.00     0.031 C 
BRANCH   3   4
HETATM    4  C8  UNL     1     -34.144  18.524   0.531  1.00 20.00    -0.019 C 
HETATM    5  C5  UNL     1     -34.119  18.472   2.061  1.00 20.00     0.010 C 
HETATM    6  C6  UNL     1     -32.714  18.605  -0.007  1.00 20.00     0.010 C 
ENDBRANCH   3   4
ENDBRANCH   2   3
BRANCH   1   7
HETATM    7  C3  UNL     1     -34.108  15.235  -3.197  1.00 20.00     0.145 C 
HETATM    8  C4  UNL     1     -34.549  13.870  -3.655  1.00 20.00     0.096 C 
HETATM    9  O9  UNL     1     -33.176  15.819  -3.747  1.00 20.00    -0.294 OA
ENDBRANCH   1   7
TORSDOF 3
ENDMDL
