MODEL 1
REMARK VINA RESULT:      -5.0      0.000      0.000
REMARK  2 active torsions:
REMARK  status: ('A' for Active; 'I' for Inactive)
REMARK    1  A    between atoms: C6_6  and  O8_8 
REMARK    2  A    between atoms: N7_7  and  O8_8 
ROOT
HETATM    1  C1  UNL     1     -31.982   8.761   1.475  1.00 20.00     0.014 C 
HETATM    2  C2  UNL     1     -32.146   7.817   2.198  1.00 20.00    -0.089 C 
HETATM    3  C6  UNL     1     -32.343   6.664   3.077  1.00 20.00     0.296 C 
ENDROOT
BRANCH   3   4
HETATM    4  O8  UNL     1     -33.479   6.860   3.905  1.00 20.00    -0.244 OA
BRANCH   4   5
HETATM    5  N7  UNL     1     -34.101   5.618   4.091  1.00 20.00    -0.143 NA
HETATM    6  C3  UNL     1     -34.381   5.420   5.343  1.00 20.00     0.032 C 
HETATM    7  C4  UNL     1     -35.054   4.179   5.875  1.00 20.00     0.067 C 
HETATM    8  C5  UNL     1     -34.008   6.489   6.336  1.00 20.00     0.067 C 
ENDBRANCH   4   5
ENDBRANCH   3   4
TORSDOF 2
ENDMDL
MODEL 2
REMARK VINA RESULT:      -4.1      1.204      4.562
REMARK  2 active torsions:
REMARK  status: ('A' for Active; 'I' for Inactive)
REMARK    1  A    between atoms: C6_6  and  O8_8 
REMARK    2  A    between atoms: N7_7  and  O8_8 
ROOT
HETATM    1  C1  UNL     1     -35.104   4.627   6.339  1.00 20.00     0.014 C 
HETATM    2  C2  UNL     1     -34.860   4.981   5.218  1.00 20.00    -0.089 C 
HETATM    3  C6  UNL     1     -34.566   5.411   3.851  1.00 20.00     0.296 C 
ENDROOT
BRANCH   3   4
HETATM    4  O8  UNL     1     -33.278   6.004   3.783  1.00 20.00    -0.244 OA
BRANCH   4   5
HETATM    5  N7  UNL     1     -33.187   6.710   2.576  1.00 20.00    -0.143 NA
HETATM    6  C3  UNL     1     -32.217   7.572   2.612  1.00 20.00     0.032 C 
HETATM    7  C4  UNL     1     -31.856   8.490   1.471  1.00 20.00     0.067 C 
HETATM    8  C5  UNL     1     -31.399   7.673   3.873  1.00 20.00     0.067 C 
ENDBRANCH   4   5
ENDBRANCH   3   4
TORSDOF 2
ENDMDL
MODEL 3
REMARK VINA RESULT:      -3.8      1.524      4.334
REMARK  2 active torsions:
REMARK  status: ('A' for Active; 'I' for Inactive)
REMARK    1  A    between atoms: C6_6  and  O8_8 
REMARK    2  A    between atoms: N7_7  and  O8_8 
ROOT
HETATM    1  C1  UNL     1     -34.498   4.673   6.524  1.00 20.00     0.014 C 
HETATM    2  C2  UNL     1     -34.973   4.880   5.442  1.00 20.00    -0.089 C 
HETATM    3  C6  UNL     1     -35.556   5.130   4.123  1.00 20.00     0.296 C 
ENDROOT
BRANCH   3   4
HETATM    4  O8  UNL     1     -34.543   5.476   3.190  1.00 20.00    -0.244 OA
BRANCH   4   5
HETATM    5  N7  UNL     1     -33.891   6.624   3.661  1.00 20.00    -0.143 NA
HETATM    6  C3  UNL     1     -32.633   6.608   3.344  1.00 20.00     0.032 C 
HETATM    7  C4  UNL     1     -31.655   7.699   3.704  1.00 20.00     0.067 C 
HETATM    8  C5  UNL     1     -32.106   5.426   2.573  1.00 20.00     0.067 C 
ENDBRANCH   4   5
ENDBRANCH   3   4
TORSDOF 2
ENDMDL
MODEL 4
REMARK VINA RESULT:      -3.6     11.591     12.450
REMARK  2 active torsions:
REMARK  status: ('A' for Active; 'I' for Inactive)
REMARK    1  A    between atoms: C6_6  and  O8_8 
REMARK    2  A    between atoms: N7_7  and  O8_8 
ROOT
HETATM    1  C1  UNL     1     -34.789  16.961  -0.347  1.00 20.00     0.014 C 
HETATM    2  C2  UNL     1     -34.322  16.584  -1.386  1.00 20.00    -0.089 C 
HETATM    3  C6  UNL     1     -33.750  16.127  -2.653  1.00 20.00     0.296 C 
ENDROOT
BRANCH   3   4
HETATM    4  O8  UNL     1     -34.639  15.234  -3.306  1.00 20.00    -0.244 OA
BRANCH   4   5
HETATM    5  N7  UNL     1     -34.722  15.610  -4.653  1.00 20.00    -0.143 NA
HETATM    6  C3  UNL     1     -34.756  14.569  -5.427  1.00 20.00     0.032 C 
HETATM    7  C4  UNL     1     -34.844  14.633  -6.931  1.00 20.00     0.067 C 
HETATM    8  C5  UNL     1     -34.696  13.205  -4.790  1.00 20.00     0.067 C 
ENDBRANCH   4   5
ENDBRANCH   3   4
TORSDOF 2
ENDMDL
MODEL 5
REMARK VINA RESULT:      -3.6     11.363     11.740
REMARK  2 active torsions:
REMARK  status: ('A' for Active; 'I' for Inactive)
REMARK    1  A    between atoms: C6_6  and  O8_8 
REMARK    2  A    between atoms: N7_7  and  O8_8 
ROOT
HETATM    1  C1  UNL     1     -35.152  17.434   0.757  1.00 20.00     0.014 C 
HETATM    2  C2  UNL     1     -34.712  17.070  -0.299  1.00 20.00    -0.089 C 
HETATM    3  C6  UNL     1     -34.173  16.628  -1.586  1.00 20.00     0.296 C 
ENDROOT
BRANCH   3   4
HETATM    4  O8  UNL     1     -35.110  15.801  -2.259  1.00 20.00    -0.244 OA
BRANCH   4   5
HETATM    5  N7  UNL     1     -34.397  14.876  -3.034  1.00 20.00    -0.143 NA
HETATM    6  C3  UNL     1     -35.181  14.262  -3.865  1.00 20.00     0.032 C 
HETATM    7  C4  UNL     1     -34.723  13.206  -4.840  1.00 20.00     0.067 C 
HETATM    8  C5  UNL     1     -36.646  14.616  -3.859  1.00 20.00     0.067 C 
ENDBRANCH   4   5
ENDBRANCH   3   4
TORSDOF 2
ENDMDL
MODEL 6
REMARK VINA RESULT:      -3.6      1.291      1.970
REMARK  2 active torsions:
REMARK  status: ('A' for Active; 'I' for Inactive)
REMARK    1  A    between atoms: C6_6  and  O8_8 
REMARK    2  A    between atoms: N7_7  and  O8_8 
ROOT
HETATM    1  C1  UNL     1     -31.839   7.077   3.194  1.00 20.00     0.014 C 
HETATM    2  C2  UNL     1     -32.687   6.293   2.867  1.00 20.00    -0.089 C 
HETATM    3  C6  UNL     1     -33.719   5.337   2.465  1.00 20.00     0.296 C 
ENDROOT
BRANCH   3   4
HETATM    4  O8  UNL     1     -34.714   5.228   3.471  1.00 20.00    -0.244 OA
BRANCH   4   5
HETATM    5  N7  UNL     1     -34.447   6.190   4.454  1.00 20.00    -0.143 NA
HETATM    6  C3  UNL     1     -34.477   5.665   5.640  1.00 20.00     0.032 C 
HETATM    7  C4  UNL     1     -34.231   6.435   6.914  1.00 20.00     0.067 C 
HETATM    8  C5  UNL     1     -34.782   4.195   5.763  1.00 20.00     0.067 C 
ENDBRANCH   4   5
ENDBRANCH   3   4
TORSDOF 2
ENDMDL
MODEL 7
REMARK VINA RESULT:      -3.5     10.247     11.058
REMARK  2 active torsions:
REMARK  status: ('A' for Active; 'I' for Inactive)
REMARK    1  A    between atoms: C6_6  and  O8_8 
REMARK    2  A    between atoms: N7_7  and  O8_8 
ROOT
HETATM    1  C1  UNL     1     -43.169   5.159   1.038  1.00 20.00     0.014 C 
HETATM    2  C2  UNL     1     -42.135   5.447   0.500  1.00 20.00    -0.089 C 
HETATM    3  C6  UNL     1     -40.874   5.798  -0.153  1.00 20.00     0.296 C 
ENDROOT
BRANCH   3   4
HETATM    4  O8  UNL     1     -40.980   5.634  -1.559  1.00 20.00    -0.244 OA
BRANCH   4   5
HETATM    5  N7  UNL     1     -41.239   6.889  -2.126  1.00 20.00    -0.143 NA
HETATM    6  C3  UNL     1     -42.261   6.837  -2.924  1.00 20.00     0.032 C 
HETATM    7  C4  UNL     1     -42.797   8.020  -3.692  1.00 20.00     0.067 C 
HETATM    8  C5  UNL     1     -42.958   5.514  -3.107  1.00 20.00     0.067 C 
ENDBRANCH   4   5
ENDBRANCH   3   4
TORSDOF 2
ENDMDL
MODEL 8
REMARK VINA RESULT:      -3.5     11.396     11.911
REMARK  2 active torsions:
REMARK  status: ('A' for Active; 'I' for Inactive)
REMARK    1  A    between atoms: C6_6  and  O8_8 
REMARK    2  A    between atoms: N7_7  and  O8_8 
ROOT
HETATM    1  C1  UNL     1     -34.878  13.321  -4.437  1.00 20.00     0.014 C 
HETATM    2  C2  UNL     1     -34.037  14.095  -4.071  1.00 20.00    -0.089 C 
HETATM    3  C6  UNL     1     -33.010  15.037  -3.625  1.00 20.00     0.296 C 
ENDROOT
BRANCH   3   4
HETATM    4  O8  UNL     1     -33.602  16.258  -3.208  1.00 20.00    -0.244 OA
BRANCH   4   5
HETATM    5  N7  UNL     1     -34.255  16.032  -1.989  1.00 20.00    -0.143 NA
HETATM    6  C3  UNL     1     -34.248  17.099  -1.252  1.00 20.00     0.032 C 
HETATM    7  C4  UNL     1     -34.869  17.186   0.120  1.00 20.00     0.067 C 
HETATM    8  C5  UNL     1     -33.573  18.334  -1.790  1.00 20.00     0.067 C 
ENDBRANCH   4   5
ENDBRANCH   3   4
TORSDOF 2
ENDMDL
MODEL 9
REMARK VINA RESULT:      -3.4     11.660     12.910
REMARK  2 active torsions:
REMARK  status: ('A' for Active; 'I' for Inactive)
REMARK    1  A    between atoms: C6_6  and  O8_8 
REMARK    2  A    between atoms: N7_7  and  O8_8 
ROOT
HETATM    1  C1  UNL     1     -34.874  14.723  -7.441  1.00 20.00     0.014 C 
HETATM    2  C2  UNL     1     -34.379  15.589  -6.774  1.00 20.00    -0.089 C 
HETATM    3  C6  UNL     1     -33.775  16.646  -5.963  1.00 20.00     0.296 C 
ENDROOT
BRANCH   3   4
HETATM    4  O8  UNL     1     -33.090  16.090  -4.851  1.00 20.00    -0.244 OA
BRANCH   4   5
HETATM    5  N7  UNL     1     -33.536  16.742  -3.694  1.00 20.00    -0.143 NA
HETATM    6  C3  UNL     1     -34.069  15.902  -2.861  1.00 20.00     0.032 C 
HETATM    7  C4  UNL     1     -34.646  16.287  -1.521  1.00 20.00     0.067 C 
HETATM    8  C5  UNL     1     -34.126  14.448  -3.252  1.00 20.00     0.067 C 
ENDBRANCH   4   5
ENDBRANCH   3   4
TORSDOF 2
ENDMDL
