MODEL 1
REMARK VINA RESULT:      -3.9      0.000      0.000
REMARK  6 active torsions:
REMARK  status: ('A' for Active; 'I' for Inactive)
REMARK    1  A    between atoms: C1_1  and  C5_5 
REMARK    2  A    between atoms: C1_1  and  C8_8 
REMARK    3  A    between atoms: C6_6  and  O10_10 
REMARK    4  A    between atoms: C7_7  and  O11_11 
REMARK    5  A    between atoms: C8_8  and  O10_10 
REMARK    6  A    between atoms: C8_8  and  O11_11 
ROOT
HETATM    1  C8  UNL     1     -35.684  14.628  -4.024  1.00 20.00     0.329 C 
ENDROOT
BRANCH   1   2
HETATM    2  C1  UNL     1     -35.098  13.733  -5.110  1.00 20.00     0.181 C 
HETATM    3  O9  UNL     1     -34.740  12.579  -4.872  1.00 20.00    -0.293 OA
BRANCH   2   4
HETATM    4  C5  UNL     1     -34.969  14.351  -6.493  1.00 20.00     0.079 C 
HETATM    5  C2  UNL     1     -34.213  15.668  -6.476  1.00 20.00     0.013 C 
ENDBRANCH   2   4
ENDBRANCH   1   2
BRANCH   1   6
HETATM    6  O10 UNL     1     -36.940  14.028  -3.705  1.00 20.00    -0.355 OA
BRANCH   6   7
HETATM    7  C6  UNL     1     -38.035  14.796  -4.184  1.00 20.00     0.167 C 
HETATM    8  C3  UNL     1     -37.645  16.260  -4.190  1.00 20.00     0.033 C 
ENDBRANCH   6   7
ENDBRANCH   1   6
BRANCH   1   9
HETATM    9  O11 UNL     1     -34.817  14.655  -2.900  1.00 20.00    -0.355 OA
BRANCH   9  10
HETATM   10  C7  UNL     1     -34.236  15.935  -2.687  1.00 20.00     0.167 C 
HETATM   11  C4  UNL     1     -34.626  16.430  -1.311  1.00 20.00     0.033 C 
ENDBRANCH   9  10
ENDBRANCH   1   9
TORSDOF 6
ENDMDL
MODEL 2
REMARK VINA RESULT:      -3.9      1.982      3.541
REMARK  6 active torsions:
REMARK  status: ('A' for Active; 'I' for Inactive)
REMARK    1  A    between atoms: C1_1  and  C5_5 
REMARK    2  A    between atoms: C1_1  and  C8_8 
REMARK    3  A    between atoms: C6_6  and  O10_10 
REMARK    4  A    between atoms: C7_7  and  O11_11 
REMARK    5  A    between atoms: C8_8  and  O10_10 
REMARK    6  A    between atoms: C8_8  and  O11_11 
ROOT
HETATM    1  C8  UNL     1     -33.888  15.575  -3.772  1.00 20.00     0.329 C 
ENDROOT
BRANCH   1   2
HETATM    2  C1  UNL     1     -33.845  14.052  -3.833  1.00 20.00     0.181 C 
HETATM    3  O9  UNL     1     -32.827  13.423  -3.544  1.00 20.00    -0.293 OA
BRANCH   2   4
HETATM    4  C5  UNL     1     -35.122  13.361  -4.283  1.00 20.00     0.079 C 
HETATM    5  C2  UNL     1     -36.325  14.288  -4.267  1.00 20.00     0.013 C 
ENDBRANCH   2   4
ENDBRANCH   1   2
BRANCH   1   6
HETATM    6  O10 UNL     1     -33.598  15.887  -2.410  1.00 20.00    -0.355 OA
BRANCH   6   7
HETATM    7  C6  UNL     1     -34.767  16.246  -1.686  1.00 20.00     0.167 C 
HETATM    8  C3  UNL     1     -34.369  17.105  -0.503  1.00 20.00     0.033 C 
ENDBRANCH   6   7
ENDBRANCH   1   6
BRANCH   1   9
HETATM    9  O11 UNL     1     -32.916  16.121  -4.652  1.00 20.00    -0.355 OA
BRANCH   9  10
HETATM   10  C7  UNL     1     -33.448  17.135  -5.494  1.00 20.00     0.167 C 
HETATM   11  C4  UNL     1     -34.265  16.485  -6.591  1.00 20.00     0.033 C 
ENDBRANCH   9  10
ENDBRANCH   1   9
TORSDOF 6
ENDMDL
MODEL 3
REMARK VINA RESULT:      -3.9      0.904      3.363
REMARK  6 active torsions:
REMARK  status: ('A' for Active; 'I' for Inactive)
REMARK    1  A    between atoms: C1_1  and  C5_5 
REMARK    2  A    between atoms: C1_1  and  C8_8 
REMARK    3  A    between atoms: C6_6  and  O10_10 
REMARK    4  A    between atoms: C7_7  and  O11_11 
REMARK    5  A    between atoms: C8_8  and  O10_10 
REMARK    6  A    between atoms: C8_8  and  O11_11 
ROOT
HETATM    1  C8  UNL     1     -35.608  14.435  -4.504  1.00 20.00     0.329 C 
ENDROOT
BRANCH   1   2
HETATM    2  C1  UNL     1     -34.411  14.298  -3.570  1.00 20.00     0.181 C 
HETATM    3  O9  UNL     1     -33.923  13.200  -3.302  1.00 20.00    -0.293 OA
BRANCH   2   4
HETATM    4  C5  UNL     1     -33.867  15.590  -2.981  1.00 20.00     0.079 C 
HETATM    5  C2  UNL     1     -34.692  16.091  -1.808  1.00 20.00     0.013 C 
ENDBRANCH   2   4
ENDBRANCH   1   2
BRANCH   1   6
HETATM    6  O10 UNL     1     -35.256  13.663  -5.652  1.00 20.00    -0.355 OA
BRANCH   6   7
HETATM    7  C6  UNL     1     -35.448  14.386  -6.860  1.00 20.00     0.167 C 
HETATM    8  C3  UNL     1     -34.294  15.348  -7.048  1.00 20.00     0.033 C 
ENDBRANCH   6   7
ENDBRANCH   1   6
BRANCH   1   9
HETATM    9  O11 UNL     1     -36.775  13.930  -3.871  1.00 20.00    -0.355 OA
BRANCH   9  10
HETATM   10  C7  UNL     1     -37.914  14.752  -4.088  1.00 20.00     0.167 C 
HETATM   11  C4  UNL     1     -37.458  16.182  -4.290  1.00 20.00     0.033 C 
ENDBRANCH   9  10
ENDBRANCH   1   9
TORSDOF 6
ENDMDL
MODEL 4
REMARK VINA RESULT:      -3.8      2.038      3.006
REMARK  6 active torsions:
REMARK  status: ('A' for Active; 'I' for Inactive)
REMARK    1  A    between atoms: C1_1  and  C5_5 
REMARK    2  A    between atoms: C1_1  and  C8_8 
REMARK    3  A    between atoms: C6_6  and  O10_10 
REMARK    4  A    between atoms: C7_7  and  O11_11 
REMARK    5  A    between atoms: C8_8  and  O10_10 
REMARK    6  A    between atoms: C8_8  and  O11_11 
ROOT
HETATM    1  C8  UNL     1     -33.400  15.544  -3.336  1.00 20.00     0.329 C 
ENDROOT
BRANCH   1   2
HETATM    2  C1  UNL     1     -33.764  14.125  -3.759  1.00 20.00     0.181 C 
HETATM    3  O9  UNL     1     -32.965  13.195  -3.655  1.00 20.00    -0.293 OA
BRANCH   2   4
HETATM    4  C5  UNL     1     -35.162  13.932  -4.328  1.00 20.00     0.079 C 
HETATM    5  C2  UNL     1     -35.176  13.906  -5.846  1.00 20.00     0.013 C 
ENDBRANCH   2   4
ENDBRANCH   1   2
BRANCH   1   6
HETATM    6  O10 UNL     1     -32.851  16.137  -4.513  1.00 20.00    -0.355 OA
BRANCH   6   7
HETATM    7  C6  UNL     1     -33.453  17.390  -4.809  1.00 20.00     0.167 C 
HETATM    8  C3  UNL     1     -34.003  17.352  -6.219  1.00 20.00     0.033 C 
ENDBRANCH   6   7
ENDBRANCH   1   6
BRANCH   1   9
HETATM    9  O11 UNL     1     -34.562  16.231  -2.897  1.00 20.00    -0.355 OA
BRANCH   9  10
HETATM   10  C7  UNL     1     -34.638  16.330  -1.481  1.00 20.00     0.167 C 
HETATM   11  C4  UNL     1     -33.719  17.440  -1.016  1.00 20.00     0.033 C 
ENDBRANCH   9  10
ENDBRANCH   1   9
TORSDOF 6
ENDMDL
MODEL 5
REMARK VINA RESULT:      -3.8      1.751      2.775
REMARK  6 active torsions:
REMARK  status: ('A' for Active; 'I' for Inactive)
REMARK    1  A    between atoms: C1_1  and  C5_5 
REMARK    2  A    between atoms: C1_1  and  C8_8 
REMARK    3  A    between atoms: C6_6  and  O10_10 
REMARK    4  A    between atoms: C7_7  and  O11_11 
REMARK    5  A    between atoms: C8_8  and  O10_10 
REMARK    6  A    between atoms: C8_8  and  O11_11 
ROOT
HETATM    1  C8  UNL     1     -35.559  15.827  -3.912  1.00 20.00     0.329 C 
ENDROOT
BRANCH   1   2
HETATM    2  C1  UNL     1     -36.078  14.396  -3.999  1.00 20.00     0.181 C 
HETATM    3  O9  UNL     1     -37.273  14.134  -3.866  1.00 20.00    -0.293 OA
BRANCH   2   4
HETATM    4  C5  UNL     1     -35.035  13.317  -4.244  1.00 20.00     0.079 C 
HETATM    5  C2  UNL     1     -33.651  13.722  -3.768  1.00 20.00     0.013 C 
ENDBRANCH   2   4
ENDBRANCH   1   2
BRANCH   1   6
HETATM    6  O10 UNL     1     -35.877  16.400  -5.180  1.00 20.00    -0.355 OA
BRANCH   6   7
HETATM    7  C6  UNL     1     -34.757  16.411  -6.055  1.00 20.00     0.167 C 
HETATM    8  C3  UNL     1     -33.596  17.094  -5.363  1.00 20.00     0.033 C 
ENDBRANCH   6   7
ENDBRANCH   1   6
BRANCH   1   9
HETATM    9  O11 UNL     1     -36.207  16.512  -2.850  1.00 20.00    -0.355 OA
BRANCH   9  10
HETATM   10  C7  UNL     1     -35.321  17.345  -2.114  1.00 20.00     0.167 C 
HETATM   11  C4  UNL     1     -34.590  16.501  -1.090  1.00 20.00     0.033 C 
ENDBRANCH   9  10
ENDBRANCH   1   9
TORSDOF 6
ENDMDL
MODEL 6
REMARK VINA RESULT:      -3.7      0.749      2.942
REMARK  6 active torsions:
REMARK  status: ('A' for Active; 'I' for Inactive)
REMARK    1  A    between atoms: C1_1  and  C5_5 
REMARK    2  A    between atoms: C1_1  and  C8_8 
REMARK    3  A    between atoms: C6_6  and  O10_10 
REMARK    4  A    between atoms: C7_7  and  O11_11 
REMARK    5  A    between atoms: C8_8  and  O10_10 
REMARK    6  A    between atoms: C8_8  and  O11_11 
ROOT
HETATM    1  C8  UNL     1     -35.533  14.313  -3.738  1.00 20.00     0.329 C 
ENDROOT
BRANCH   1   2
HETATM    2  C1  UNL     1     -34.833  13.705  -4.948  1.00 20.00     0.181 C 
HETATM    3  O9  UNL     1     -34.475  12.527  -4.962  1.00 20.00    -0.293 OA
BRANCH   2   4
HETATM    4  C5  UNL     1     -34.591  14.639  -6.124  1.00 20.00     0.079 C 
HETATM    5  C2  UNL     1     -35.587  14.429  -7.251  1.00 20.00     0.013 C 
ENDBRANCH   2   4
ENDBRANCH   1   2
BRANCH   1   6
HETATM    6  O10 UNL     1     -35.291  15.715  -3.852  1.00 20.00    -0.355 OA
BRANCH   6   7
HETATM    7  C6  UNL     1     -34.229  16.143  -3.011  1.00 20.00     0.167 C 
HETATM    8  C3  UNL     1     -34.741  16.263  -1.591  1.00 20.00     0.033 C 
ENDBRANCH   6   7
ENDBRANCH   1   6
BRANCH   1   9
HETATM    9  O11 UNL     1     -36.921  14.016  -3.782  1.00 20.00    -0.355 OA
BRANCH   9  10
HETATM   10  C7  UNL     1     -37.726  15.181  -3.909  1.00 20.00     0.167 C 
HETATM   11  C4  UNL     1     -39.117  14.772  -4.347  1.00 20.00     0.033 C 
ENDBRANCH   9  10
ENDBRANCH   1   9
TORSDOF 6
ENDMDL
MODEL 7
REMARK VINA RESULT:      -3.6      1.154      3.668
REMARK  6 active torsions:
REMARK  status: ('A' for Active; 'I' for Inactive)
REMARK    1  A    between atoms: C1_1  and  C5_5 
REMARK    2  A    between atoms: C1_1  and  C8_8 
REMARK    3  A    between atoms: C6_6  and  O10_10 
REMARK    4  A    between atoms: C7_7  and  O11_11 
REMARK    5  A    between atoms: C8_8  and  O10_10 
REMARK    6  A    between atoms: C8_8  and  O11_11 
ROOT
HETATM    1  C8  UNL     1     -34.643  15.273  -4.198  1.00 20.00     0.329 C 
ENDROOT
BRANCH   1   2
HETATM    2  C1  UNL     1     -35.605  14.092  -4.133  1.00 20.00     0.181 C 
HETATM    3  O9  UNL     1     -35.207  12.929  -4.204  1.00 20.00    -0.293 OA
BRANCH   2   4
HETATM    4  C5  UNL     1     -37.080  14.434  -3.991  1.00 20.00     0.079 C 
HETATM    5  C2  UNL     1     -37.316  15.917  -3.761  1.00 20.00     0.013 C 
ENDBRANCH   2   4
ENDBRANCH   1   2
BRANCH   1   6
HETATM    6  O10 UNL     1     -33.900  15.195  -2.981  1.00 20.00    -0.355 OA
BRANCH   6   7
HETATM    7  C6  UNL     1     -33.777  16.463  -2.350  1.00 20.00     0.167 C 
HETATM    8  C3  UNL     1     -34.645  16.482  -1.110  1.00 20.00     0.033 C 
ENDBRANCH   6   7
ENDBRANCH   1   6
BRANCH   1   9
HETATM    9  O11 UNL     1     -33.800  15.148  -5.334  1.00 20.00    -0.355 OA
BRANCH   9  10
HETATM   10  C7  UNL     1     -34.282  15.878  -6.455  1.00 20.00     0.167 C 
HETATM   11  C4  UNL     1     -34.674  14.903  -7.545  1.00 20.00     0.033 C 
ENDBRANCH   9  10
ENDBRANCH   1   9
TORSDOF 6
ENDMDL
MODEL 8
REMARK VINA RESULT:      -3.6      2.239      4.360
REMARK  6 active torsions:
REMARK  status: ('A' for Active; 'I' for Inactive)
REMARK    1  A    between atoms: C1_1  and  C5_5 
REMARK    2  A    between atoms: C1_1  and  C8_8 
REMARK    3  A    between atoms: C6_6  and  O10_10 
REMARK    4  A    between atoms: C7_7  and  O11_11 
REMARK    5  A    between atoms: C8_8  and  O10_10 
REMARK    6  A    between atoms: C8_8  and  O11_11 
ROOT
HETATM    1  C8  UNL     1     -33.886  15.867  -4.200  1.00 20.00     0.329 C 
ENDROOT
BRANCH   1   2
HETATM    2  C1  UNL     1     -34.655  16.402  -2.997  1.00 20.00     0.181 C 
HETATM    3  O9  UNL     1     -35.882  16.510  -3.010  1.00 20.00    -0.293 OA
BRANCH   2   4
HETATM    4  C5  UNL     1     -33.821  16.808  -1.792  1.00 20.00     0.079 C 
HETATM    5  C2  UNL     1     -34.635  16.870  -0.512  1.00 20.00     0.013 C 
ENDBRANCH   2   4
ENDBRANCH   1   2
BRANCH   1   6
HETATM    6  O10 UNL     1     -33.051  16.952  -4.602  1.00 20.00    -0.355 OA
BRANCH   6   7
HETATM    7  C6  UNL     1     -33.654  17.740  -5.619  1.00 20.00     0.167 C 
HETATM    8  C3  UNL     1     -34.293  16.822  -6.640  1.00 20.00     0.033 C 
ENDBRANCH   6   7
ENDBRANCH   1   6
BRANCH   1   9
HETATM    9  O11 UNL     1     -33.122  14.732  -3.819  1.00 20.00    -0.355 OA
BRANCH   9  10
HETATM   10  C7  UNL     1     -33.917  13.563  -3.667  1.00 20.00     0.167 C 
HETATM   11  C4  UNL     1     -34.638  13.286  -4.969  1.00 20.00     0.033 C 
ENDBRANCH   9  10
ENDBRANCH   1   9
TORSDOF 6
ENDMDL
MODEL 9
REMARK VINA RESULT:      -3.6      2.229      4.697
REMARK  6 active torsions:
REMARK  status: ('A' for Active; 'I' for Inactive)
REMARK    1  A    between atoms: C1_1  and  C5_5 
REMARK    2  A    between atoms: C1_1  and  C8_8 
REMARK    3  A    between atoms: C6_6  and  O10_10 
REMARK    4  A    between atoms: C7_7  and  O11_11 
REMARK    5  A    between atoms: C8_8  and  O10_10 
REMARK    6  A    between atoms: C8_8  and  O11_11 
ROOT
HETATM    1  C8  UNL     1     -33.783  16.177  -3.426  1.00 20.00     0.329 C 
ENDROOT
BRANCH   1   2
HETATM    2  C1  UNL     1     -33.942  17.080  -2.209  1.00 20.00     0.181 C 
HETATM    3  O9  UNL     1     -33.510  18.233  -2.199  1.00 20.00    -0.293 OA
BRANCH   2   4
HETATM    4  C5  UNL     1     -34.649  16.471  -1.008  1.00 20.00     0.079 C 
HETATM    5  C2  UNL     1     -34.748  17.434   0.162  1.00 20.00     0.013 C 
ENDBRANCH   2   4
ENDBRANCH   1   2
BRANCH   1   6
HETATM    6  O10 UNL     1     -34.291  14.912  -3.002  1.00 20.00    -0.355 OA
BRANCH   6   7
HETATM    7  C6  UNL     1     -33.750  13.839  -3.760  1.00 20.00     0.167 C 
HETATM    8  C3  UNL     1     -34.857  13.207  -4.578  1.00 20.00     0.033 C 
ENDBRANCH   6   7
ENDBRANCH   1   6
BRANCH   1   9
HETATM    9  O11 UNL     1     -34.527  16.700  -4.517  1.00 20.00    -0.355 OA
BRANCH   9  10
HETATM   10  C7  UNL     1     -33.723  16.935  -5.666  1.00 20.00     0.167 C 
HETATM   11  C4  UNL     1     -34.258  16.110  -6.817  1.00 20.00     0.033 C 
ENDBRANCH   9  10
ENDBRANCH   1   9
TORSDOF 6
ENDMDL
