MODEL 1
REMARK VINA RESULT:      -3.3      0.000      0.000
REMARK  0 active torsions:
REMARK  status: ('A' for Active; 'I' for Inactive)
ROOT
HETATM    1  C1  UNL     1     -34.543  13.699  -4.217  1.00 20.00     0.084 C 
HETATM    2  C2  UNL     1     -34.578  15.602  -2.651  1.00 20.00     0.048 C 
HETATM    3  C3  UNL     1     -33.983  15.944  -5.071  1.00 20.00     0.048 C 
HETATM    4  C4  UNL     1     -33.914  14.988  -3.882  1.00 20.00     0.118 C 
HETATM    5  N5  UNL     1     -35.042  12.685  -4.483  1.00 20.00    -0.195 NA
HETATM    6 CL6  UNL     1     -32.193  14.652  -3.506  1.00 20.00    -0.104 Cl
ENDROOT
TORSDOF 0
ENDMDL
MODEL 2
REMARK VINA RESULT:      -3.2      1.357      1.886
REMARK  0 active torsions:
REMARK  status: ('A' for Active; 'I' for Inactive)
ROOT
HETATM    1  C1  UNL     1     -34.529  13.713  -4.171  1.00 20.00     0.084 C 
HETATM    2  C2  UNL     1     -32.384  14.771  -3.574  1.00 20.00     0.048 C 
HETATM    3  C3  UNL     1     -34.547  15.631  -2.622  1.00 20.00     0.048 C 
HETATM    4  C4  UNL     1     -33.874  14.987  -3.832  1.00 20.00     0.118 C 
HETATM    5  N5  UNL     1     -35.045  12.707  -4.435  1.00 20.00    -0.195 NA
HETATM    6 CL6  UNL     1     -34.065  16.071  -5.248  1.00 20.00    -0.104 Cl
ENDROOT
TORSDOF 0
ENDMDL
MODEL 3
REMARK VINA RESULT:      -3.2     12.116     12.672
REMARK  0 active torsions:
REMARK  status: ('A' for Active; 'I' for Inactive)
ROOT
HETATM    1  C1  UNL     1     -33.245   5.794   3.953  1.00 20.00     0.084 C 
HETATM    2  C2  UNL     1     -34.299   4.003   5.279  1.00 20.00     0.048 C 
HETATM    3  C3  UNL     1     -35.706   5.706   4.077  1.00 20.00     0.048 C 
HETATM    4  C4  UNL     1     -34.391   5.454   4.813  1.00 20.00     0.118 C 
HETATM    5  N5  UNL     1     -32.343   6.059   3.273  1.00 20.00    -0.195 NA
HETATM    6 CL6  UNL     1     -34.312   6.530   6.246  1.00 20.00    -0.104 Cl
ENDROOT
TORSDOF 0
ENDMDL
MODEL 4
REMARK VINA RESULT:      -3.2     12.171     12.737
REMARK  0 active torsions:
REMARK  status: ('A' for Active; 'I' for Inactive)
ROOT
HETATM    1  C1  UNL     1     -33.272   5.799   3.985  1.00 20.00     0.084 C 
HETATM    2  C2  UNL     1     -34.386   6.322   6.121  1.00 20.00     0.048 C 
HETATM    3  C3  UNL     1     -34.305   3.959   5.261  1.00 20.00     0.048 C 
HETATM    4  C4  UNL     1     -34.386   5.436   4.877  1.00 20.00     0.118 C 
HETATM    5  N5  UNL     1     -32.391   6.084   3.284  1.00 20.00    -0.195 NA
HETATM    6 CL6  UNL     1     -35.904   5.717   3.965  1.00 20.00    -0.104 Cl
ENDROOT
TORSDOF 0
ENDMDL
MODEL 5
REMARK VINA RESULT:      -3.1      2.199      2.570
REMARK  0 active torsions:
REMARK  status: ('A' for Active; 'I' for Inactive)
ROOT
HETATM    1  C1  UNL     1     -36.584  14.638  -3.726  1.00 20.00     0.084 C 
HETATM    2  C2  UNL     1     -34.792  15.935  -4.813  1.00 20.00     0.048 C 
HETATM    3  C3  UNL     1     -34.288  13.740  -3.693  1.00 20.00     0.048 C 
HETATM    4  C4  UNL     1     -35.157  14.996  -3.665  1.00 20.00     0.118 C 
HETATM    5  N5  UNL     1     -37.708  14.353  -3.777  1.00 20.00    -0.195 NA
HETATM    6 CL6  UNL     1     -34.894  15.850  -2.111  1.00 20.00    -0.104 Cl
ENDROOT
TORSDOF 0
ENDMDL
MODEL 6
REMARK VINA RESULT:      -3.1      1.565      1.690
REMARK  0 active torsions:
REMARK  status: ('A' for Active; 'I' for Inactive)
ROOT
HETATM    1  C1  UNL     1     -34.777  13.993  -4.097  1.00 20.00     0.084 C 
HETATM    2  C2  UNL     1     -35.629  16.244  -4.629  1.00 20.00     0.048 C 
HETATM    3  C3  UNL     1     -33.165  15.845  -4.318  1.00 20.00     0.048 C 
HETATM    4  C4  UNL     1     -34.570  15.435  -3.882  1.00 20.00     0.118 C 
HETATM    5  N5  UNL     1     -34.939  12.857  -4.270  1.00 20.00    -0.195 NA
HETATM    6 CL6  UNL     1     -34.744  15.736  -2.123  1.00 20.00    -0.104 Cl
ENDROOT
TORSDOF 0
ENDMDL
MODEL 7
REMARK VINA RESULT:      -3.1      1.794      2.009
REMARK  0 active torsions:
REMARK  status: ('A' for Active; 'I' for Inactive)
ROOT
HETATM    1  C1  UNL     1     -34.742  13.818  -5.016  1.00 20.00     0.084 C 
HETATM    2  C2  UNL     1     -35.947  15.938  -5.376  1.00 20.00     0.048 C 
HETATM    3  C3  UNL     1     -34.417  15.016  -7.147  1.00 20.00     0.048 C 
HETATM    4  C4  UNL     1     -34.668  15.147  -5.646  1.00 20.00     0.118 C 
HETATM    5  N5  UNL     1     -34.802  12.769  -4.522  1.00 20.00    -0.195 NA
HETATM    6 CL6  UNL     1     -33.284  16.009  -4.899  1.00 20.00    -0.104 Cl
ENDROOT
TORSDOF 0
ENDMDL
MODEL 8
REMARK VINA RESULT:      -3.1      2.069      2.218
REMARK  0 active torsions:
REMARK  status: ('A' for Active; 'I' for Inactive)
ROOT
HETATM    1  C1  UNL     1     -34.737  13.832  -4.850  1.00 20.00     0.084 C 
HETATM    2  C2  UNL     1     -33.371  15.875  -4.668  1.00 20.00     0.048 C 
HETATM    3  C3  UNL     1     -35.838  16.020  -5.134  1.00 20.00     0.048 C 
HETATM    4  C4  UNL     1     -34.563  15.206  -5.348  1.00 20.00     0.118 C 
HETATM    5  N5  UNL     1     -34.876  12.749  -4.454  1.00 20.00    -0.195 NA
HETATM    6 CL6  UNL     1     -34.237  15.091  -7.108  1.00 20.00    -0.104 Cl
ENDROOT
TORSDOF 0
ENDMDL
MODEL 9
REMARK VINA RESULT:      -3.1      2.137      2.565
REMARK  0 active torsions:
REMARK  status: ('A' for Active; 'I' for Inactive)
ROOT
HETATM    1  C1  UNL     1     -36.492  14.644  -3.708  1.00 20.00     0.084 C 
HETATM    2  C2  UNL     1     -34.184  13.783  -3.642  1.00 20.00     0.048 C 
HETATM    3  C3  UNL     1     -34.832  15.819  -2.314  1.00 20.00     0.048 C 
HETATM    4  C4  UNL     1     -35.074  15.023  -3.596  1.00 20.00     0.118 C 
HETATM    5  N5  UNL     1     -37.610  14.344  -3.793  1.00 20.00    -0.195 NA
HETATM    6 CL6  UNL     1     -34.694  16.064  -5.006  1.00 20.00    -0.104 Cl
ENDROOT
TORSDOF 0
ENDMDL
