MODEL 1
REMARK VINA RESULT:      -5.0      0.000      0.000
REMARK  1 active torsions:
REMARK  status: ('A' for Active; 'I' for Inactive)
REMARK    1  A    between atoms: C7_7  and  C11_11 
ROOT
HETATM    1  C1  UNL     1     -35.090  13.747  -4.994  1.00 20.00     0.127 C 
HETATM    2  C2  UNL     1     -34.571  14.594  -6.132  1.00 20.00     0.078 C 
HETATM    3  C3  UNL     1     -36.311  14.272  -4.281  1.00 20.00     0.079 C 
HETATM    4  C4  UNL     1     -33.812  15.815  -5.638  1.00 20.00     0.008 C 
HETATM    5  C5  UNL     1     -35.966  15.172  -3.104  1.00 20.00     0.013 C 
HETATM    6  C6  UNL     1     -34.589  16.716  -4.669  1.00 20.00     0.006 C 
HETATM    7  C7  UNL     1     -34.747  16.101  -3.264  1.00 20.00    -0.007 C 
HETATM    8  O12 UNL     1     -34.526  12.713  -4.642  1.00 20.00    -0.298 OA
ENDROOT
BRANCH   7   9
HETATM    9  C11 UNL     1     -34.825  17.210  -2.207  1.00 20.00    -0.048 C 
HETATM   10  C8  UNL     1     -34.621  16.604  -0.811  1.00 20.00     0.015 C 
HETATM   11  C9  UNL     1     -36.201  17.888  -2.275  1.00 20.00     0.015 C 
HETATM   12  C10 UNL     1     -33.729  18.252  -2.477  1.00 20.00     0.015 C 
ENDBRANCH   7   9
TORSDOF 1
ENDMDL
MODEL 2
REMARK VINA RESULT:      -4.8      2.617      5.004
REMARK  1 active torsions:
REMARK  status: ('A' for Active; 'I' for Inactive)
REMARK    1  A    between atoms: C7_7  and  C11_11 
ROOT
HETATM    1  C1  UNL     1     -33.356  19.003  -1.153  1.00 20.00     0.127 C 
HETATM    2  C2  UNL     1     -34.341  18.477  -0.135  1.00 20.00     0.078 C 
HETATM    3  C3  UNL     1     -33.872  19.141  -2.564  1.00 20.00     0.079 C 
HETATM    4  C4  UNL     1     -34.542  16.976  -0.255  1.00 20.00     0.008 C 
HETATM    5  C5  UNL     1     -33.658  17.885  -3.396  1.00 20.00     0.013 C 
HETATM    6  C6  UNL     1     -34.965  16.485  -1.647  1.00 20.00     0.006 C 
HETATM    7  C7  UNL     1     -33.821  16.531  -2.679  1.00 20.00    -0.007 C 
HETATM    8  O12 UNL     1     -32.191  19.262  -0.860  1.00 20.00    -0.298 OA
ENDROOT
BRANCH   7   9
HETATM    9  C11 UNL     1     -34.013  15.431  -3.730  1.00 20.00    -0.048 C 
HETATM   10  C8  UNL     1     -32.964  14.329  -3.518  1.00 20.00     0.015 C 
HETATM   11  C9  UNL     1     -33.849  16.030  -5.135  1.00 20.00     0.015 C 
HETATM   12  C10 UNL     1     -35.420  14.831  -3.593  1.00 20.00     0.015 C 
ENDBRANCH   7   9
TORSDOF 1
ENDMDL
MODEL 3
REMARK VINA RESULT:      -4.7      1.736      2.231
REMARK  1 active torsions:
REMARK  status: ('A' for Active; 'I' for Inactive)
REMARK    1  A    between atoms: C7_7  and  C11_11 
ROOT
HETATM    1  C1  UNL     1     -36.700  14.651  -4.182  1.00 20.00     0.127 C 
HETATM    2  C2  UNL     1     -35.377  13.953  -4.389  1.00 20.00     0.078 C 
HETATM    3  C3  UNL     1     -36.716  16.135  -4.451  1.00 20.00     0.079 C 
HETATM    4  C4  UNL     1     -34.407  14.214  -3.249  1.00 20.00     0.008 C 
HETATM    5  C5  UNL     1     -36.387  16.962  -3.217  1.00 20.00     0.013 C 
HETATM    6  C6  UNL     1     -34.139  15.695  -2.948  1.00 20.00     0.006 C 
HETATM    7  C7  UNL     1     -35.324  16.396  -2.255  1.00 20.00    -0.007 C 
HETATM    8  O12 UNL     1     -37.695  14.055  -3.777  1.00 20.00    -0.298 OA
ENDROOT
BRANCH   7   9
HETATM    9  C11 UNL     1     -34.815  17.528  -1.354  1.00 20.00    -0.048 C 
HETATM   10  C8  UNL     1     -33.351  17.840  -1.698  1.00 20.00     0.015 C 
HETATM   11  C9  UNL     1     -34.914  17.098   0.117  1.00 20.00     0.015 C 
HETATM   12  C10 UNL     1     -35.671  18.784  -1.576  1.00 20.00     0.015 C 
ENDBRANCH   7   9
TORSDOF 1
ENDMDL
MODEL 4
REMARK VINA RESULT:      -4.6      2.263      4.324
REMARK  1 active torsions:
REMARK  status: ('A' for Active; 'I' for Inactive)
REMARK    1  A    between atoms: C7_7  and  C11_11 
ROOT
HETATM    1  C1  UNL     1     -34.419  18.370  -2.082  1.00 20.00     0.127 C 
HETATM    2  C2  UNL     1     -33.560  19.015  -3.144  1.00 20.00     0.078 C 
HETATM    3  C3  UNL     1     -33.916  17.061  -1.527  1.00 20.00     0.079 C 
HETATM    4  C4  UNL     1     -33.710  18.335  -4.494  1.00 20.00     0.008 C 
HETATM    5  C5  UNL     1     -34.429  15.856  -2.300  1.00 20.00     0.013 C 
HETATM    6  C6  UNL     1     -33.442  16.824  -4.495  1.00 20.00     0.006 C 
HETATM    7  C7  UNL     1     -34.566  16.008  -3.828  1.00 20.00    -0.007 C 
HETATM    8  O12 UNL     1     -35.487  18.860  -1.722  1.00 20.00    -0.298 OA
ENDROOT
BRANCH   7   9
HETATM    9  C11 UNL     1     -34.654  14.613  -4.460  1.00 20.00    -0.048 C 
HETATM   10  C8  UNL     1     -34.477  14.726  -5.981  1.00 20.00     0.015 C 
HETATM   11  C9  UNL     1     -36.024  13.994  -4.149  1.00 20.00     0.015 C 
HETATM   12  C10 UNL     1     -33.547  13.718  -3.882  1.00 20.00     0.015 C 
ENDBRANCH   7   9
TORSDOF 1
ENDMDL
MODEL 5
REMARK VINA RESULT:      -4.6      2.268      4.330
REMARK  1 active torsions:
REMARK  status: ('A' for Active; 'I' for Inactive)
REMARK    1  A    between atoms: C7_7  and  C11_11 
ROOT
HETATM    1  C1  UNL     1     -34.478  18.358  -2.012  1.00 20.00     0.127 C 
HETATM    2  C2  UNL     1     -33.599  19.020  -3.048  1.00 20.00     0.078 C 
HETATM    3  C3  UNL     1     -33.981  17.044  -1.463  1.00 20.00     0.079 C 
HETATM    4  C4  UNL     1     -33.719  18.355  -4.410  1.00 20.00     0.008 C 
HETATM    5  C5  UNL     1     -34.474  15.847  -2.262  1.00 20.00     0.013 C 
HETATM    6  C6  UNL     1     -33.445  16.845  -4.423  1.00 20.00     0.006 C 
HETATM    7  C7  UNL     1     -34.580  16.017  -3.790  1.00 20.00    -0.007 C 
HETATM    8  O12 UNL     1     -35.555  18.840  -1.668  1.00 20.00    -0.298 OA
ENDROOT
BRANCH   7   9
HETATM    9  C11 UNL     1     -34.649  14.630  -4.441  1.00 20.00    -0.048 C 
HETATM   10  C8  UNL     1     -33.542  13.736  -3.864  1.00 20.00     0.015 C 
HETATM   11  C9  UNL     1     -34.458  14.766  -5.959  1.00 20.00     0.015 C 
HETATM   12  C10 UNL     1     -36.019  13.998  -4.154  1.00 20.00     0.015 C 
ENDBRANCH   7   9
TORSDOF 1
ENDMDL
MODEL 6
REMARK VINA RESULT:      -4.6      1.176      2.377
REMARK  1 active torsions:
REMARK  status: ('A' for Active; 'I' for Inactive)
REMARK    1  A    between atoms: C7_7  and  C11_11 
ROOT
HETATM    1  C1  UNL     1     -34.956  14.650  -6.083  1.00 20.00     0.127 C 
HETATM    2  C2  UNL     1     -34.559  13.442  -5.268  1.00 20.00     0.078 C 
HETATM    3  C3  UNL     1     -34.043  15.846  -5.983  1.00 20.00     0.079 C 
HETATM    4  C4  UNL     1     -34.877  13.616  -3.792  1.00 20.00     0.008 C 
HETATM    5  C5  UNL     1     -34.439  16.799  -4.866  1.00 20.00     0.013 C 
HETATM    6  C6  UNL     1     -34.275  14.868  -3.141  1.00 20.00     0.006 C 
HETATM    7  C7  UNL     1     -34.980  16.171  -3.566  1.00 20.00    -0.007 C 
HETATM    8  O12 UNL     1     -35.986  14.673  -6.754  1.00 20.00    -0.298 OA
ENDROOT
BRANCH   7   9
HETATM    9  C11 UNL     1     -34.896  17.209  -2.440  1.00 20.00    -0.048 C 
HETATM   10  C8  UNL     1     -33.770  18.208  -2.744  1.00 20.00     0.015 C 
HETATM   11  C9  UNL     1     -34.606  16.501  -1.109  1.00 20.00     0.015 C 
HETATM   12  C10 UNL     1     -36.232  17.962  -2.336  1.00 20.00     0.015 C 
ENDBRANCH   7   9
TORSDOF 1
ENDMDL
MODEL 7
REMARK VINA RESULT:      -4.6      1.196      2.027
REMARK  1 active torsions:
REMARK  status: ('A' for Active; 'I' for Inactive)
REMARK    1  A    between atoms: C7_7  and  C11_11 
ROOT
HETATM    1  C1  UNL     1     -35.020  14.605  -6.164  1.00 20.00     0.127 C 
HETATM    2  C2  UNL     1     -34.627  13.394  -5.351  1.00 20.00     0.078 C 
HETATM    3  C3  UNL     1     -34.098  15.794  -6.069  1.00 20.00     0.079 C 
HETATM    4  C4  UNL     1     -34.936  13.570  -3.874  1.00 20.00     0.008 C 
HETATM    5  C5  UNL     1     -34.481  16.750  -4.949  1.00 20.00     0.013 C 
HETATM    6  C6  UNL     1     -34.322  14.818  -3.225  1.00 20.00     0.006 C 
HETATM    7  C7  UNL     1     -35.020  16.126  -3.647  1.00 20.00    -0.007 C 
HETATM    8  O12 UNL     1     -36.052  14.635  -6.830  1.00 20.00    -0.298 OA
ENDROOT
BRANCH   7   9
HETATM    9  C11 UNL     1     -34.924  17.163  -2.521  1.00 20.00    -0.048 C 
HETATM   10  C8  UNL     1     -34.604  16.456  -1.196  1.00 20.00     0.015 C 
HETATM   11  C9  UNL     1     -36.261  17.908  -2.394  1.00 20.00     0.015 C 
HETATM   12  C10 UNL     1     -33.809  18.169  -2.845  1.00 20.00     0.015 C 
ENDBRANCH   7   9
TORSDOF 1
ENDMDL
MODEL 8
REMARK VINA RESULT:      -4.6      2.133      3.229
REMARK  1 active torsions:
REMARK  status: ('A' for Active; 'I' for Inactive)
REMARK    1  A    between atoms: C7_7  and  C11_11 
ROOT
HETATM    1  C1  UNL     1     -34.765  13.548  -4.731  1.00 20.00     0.127 C 
HETATM    2  C2  UNL     1     -33.500  13.691  -3.919  1.00 20.00     0.078 C 
HETATM    3  C3  UNL     1     -34.686  14.005  -6.166  1.00 20.00     0.079 C 
HETATM    4  C4  UNL     1     -33.251  15.129  -3.493  1.00 20.00     0.008 C 
HETATM    5  C5  UNL     1     -35.055  15.471  -6.340  1.00 20.00     0.013 C 
HETATM    6  C6  UNL     1     -33.218  16.150  -4.639  1.00 20.00     0.006 C 
HETATM    7  C7  UNL     1     -34.611  16.443  -5.230  1.00 20.00    -0.007 C 
HETATM    8  O12 UNL     1     -35.809  13.125  -4.241  1.00 20.00    -0.298 OA
ENDROOT
BRANCH   7   9
HETATM    9  C11 UNL     1     -34.664  17.876  -5.773  1.00 20.00    -0.048 C 
HETATM   10  C8  UNL     1     -34.473  17.855  -7.297  1.00 20.00     0.015 C 
HETATM   11  C9  UNL     1     -33.547  18.711  -5.130  1.00 20.00     0.015 C 
HETATM   12  C10 UNL     1     -36.026  18.502  -5.437  1.00 20.00     0.015 C 
ENDBRANCH   7   9
TORSDOF 1
ENDMDL
MODEL 9
REMARK VINA RESULT:      -4.5      2.030      3.554
REMARK  1 active torsions:
REMARK  status: ('A' for Active; 'I' for Inactive)
REMARK    1  A    between atoms: C7_7  and  C11_11 
ROOT
HETATM    1  C1  UNL     1     -33.328  15.221  -3.683  1.00 20.00     0.127 C 
HETATM    2  C2  UNL     1     -33.439  13.721  -3.819  1.00 20.00     0.078 C 
HETATM    3  C3  UNL     1     -34.295  15.874  -2.727  1.00 20.00     0.079 C 
HETATM    4  C4  UNL     1     -34.628  13.310  -4.673  1.00 20.00     0.008 C 
HETATM    5  C5  UNL     1     -35.593  16.296  -3.398  1.00 20.00     0.013 C 
HETATM    6  C6  UNL     1     -35.983  13.864  -4.211  1.00 20.00     0.006 C 
HETATM    7  C7  UNL     1     -36.151  15.369  -4.495  1.00 20.00    -0.007 C 
HETATM    8  O12 UNL     1     -32.526  15.877  -4.344  1.00 20.00    -0.298 OA
ENDROOT
BRANCH   7   9
HETATM    9  C11 UNL     1     -37.630  15.702  -4.723  1.00 20.00    -0.048 C 
HETATM   10  C8  UNL     1     -38.503  14.796  -3.842  1.00 20.00     0.015 C 
HETATM   11  C9  UNL     1     -37.986  15.476  -6.200  1.00 20.00     0.015 C 
HETATM   12  C10 UNL     1     -37.887  17.172  -4.357  1.00 20.00     0.015 C 
ENDBRANCH   7   9
TORSDOF 1
ENDMDL
