MODEL 1
REMARK VINA RESULT:      -4.6      0.000      0.000
REMARK  1 active torsions:
REMARK  status: ('A' for Active; 'I' for Inactive)
REMARK    1  A    between atoms: C1_1  and  S12_12 
ROOT
HETATM    1  C1  UNL     1     -35.781  15.102  -5.281  1.00 20.00     0.066 C 
HETATM    2  C2  UNL     1     -36.462  14.935  -3.963  1.00 20.00     0.074 C 
HETATM    3  C3  UNL     1     -33.526  16.296  -3.275  1.00 20.00     0.042 A 
HETATM    4  C4  UNL     1     -35.334  15.087  -2.956  1.00 20.00     0.029 A 
HETATM    5  C5  UNL     1     -34.840  16.499  -2.473  1.00 20.00    -0.039 A 
HETATM    6  C6  UNL     1     -34.069  14.971  -3.847  1.00 20.00     0.056 A 
HETATM    7  C7  UNL     1     -34.612  16.542  -0.960  1.00 20.00     0.015 C 
HETATM    8  C8  UNL     1     -35.641  17.714  -2.935  1.00 20.00     0.015 C 
HETATM    9  C9  UNL     1     -33.203  13.743  -3.670  1.00 20.00     0.041 C 
HETATM   10  N11 UNL     1     -34.490  15.134  -5.253  1.00 20.00    -0.276 NA
ENDROOT
BRANCH   1  11
HETATM   11  S12 UNL     1     -36.718  15.233  -6.729  1.00 20.00    -0.119 SA
HETATM   12  C10 UNL     1     -35.537  14.554  -7.917  1.00 20.00     0.097 C 
ENDBRANCH   1  11
TORSDOF 1
ENDMDL
MODEL 2
REMARK VINA RESULT:      -4.4      2.130      4.189
REMARK  1 active torsions:
REMARK  status: ('A' for Active; 'I' for Inactive)
REMARK    1  A    between atoms: C1_1  and  S12_12 
ROOT
HETATM    1  C1  UNL     1     -34.064  16.573  -3.067  1.00 20.00     0.066 C 
HETATM    2  C2  UNL     1     -33.605  16.794  -4.470  1.00 20.00     0.074 C 
HETATM    3  C3  UNL     1     -35.579  14.142  -4.594  1.00 20.00     0.042 A 
HETATM    4  C4  UNL     1     -33.934  15.483  -5.166  1.00 20.00     0.029 A 
HETATM    5  C5  UNL     1     -35.370  15.182  -5.728  1.00 20.00    -0.039 A 
HETATM    6  C6  UNL     1     -34.224  14.533  -3.973  1.00 20.00     0.056 A 
HETATM    7  C7  UNL     1     -35.321  14.543  -7.118  1.00 20.00     0.015 C 
HETATM    8  C8  UNL     1     -36.388  16.320  -5.691  1.00 20.00     0.015 C 
HETATM    9  C9  UNL     1     -33.238  13.413  -3.720  1.00 20.00     0.041 C 
HETATM   10  N11 UNL     1     -34.412  15.365  -2.768  1.00 20.00    -0.276 NA
ENDROOT
BRANCH   1  11
HETATM   11  S12 UNL     1     -34.098  17.892  -1.949  1.00 20.00    -0.119 SA
HETATM   12  C10 UNL     1     -34.606  17.011  -0.455  1.00 20.00     0.097 C 
ENDBRANCH   1  11
TORSDOF 1
ENDMDL
MODEL 3
REMARK VINA RESULT:      -4.4      2.716      4.550
REMARK  1 active torsions:
REMARK  status: ('A' for Active; 'I' for Inactive)
REMARK    1  A    between atoms: C1_1  and  S12_12 
ROOT
HETATM    1  C1  UNL     1     -34.162  17.230  -2.258  1.00 20.00     0.066 C 
HETATM    2  C2  UNL     1     -34.791  15.906  -1.979  1.00 20.00     0.074 C 
HETATM    3  C3  UNL     1     -33.905  15.810  -5.164  1.00 20.00     0.042 A 
HETATM    4  C4  UNL     1     -35.075  15.346  -3.363  1.00 20.00     0.029 A 
HETATM    5  C5  UNL     1     -33.972  14.599  -4.196  1.00 20.00    -0.039 A 
HETATM    6  C6  UNL     1     -34.892  16.589  -4.274  1.00 20.00     0.056 A 
HETATM    7  C7  UNL     1     -34.516  13.333  -4.865  1.00 20.00     0.015 C 
HETATM    8  C8  UNL     1     -32.643  14.315  -3.499  1.00 20.00     0.015 C 
HETATM    9  C9  UNL     1     -36.127  17.149  -4.946  1.00 20.00     0.041 C 
HETATM   10  N11 UNL     1     -34.192  17.625  -3.488  1.00 20.00    -0.276 NA
ENDROOT
BRANCH   1  11
HETATM   11  S12 UNL     1     -33.456  18.142  -0.969  1.00 20.00    -0.119 SA
HETATM   12  C10 UNL     1     -34.594  17.710   0.368  1.00 20.00     0.097 C 
ENDBRANCH   1  11
TORSDOF 1
ENDMDL
MODEL 4
REMARK VINA RESULT:      -4.3      2.390      4.308
REMARK  1 active torsions:
REMARK  status: ('A' for Active; 'I' for Inactive)
REMARK    1  A    between atoms: C1_1  and  S12_12 
ROOT
HETATM    1  C1  UNL     1     -35.147  16.008  -2.373  1.00 20.00     0.066 C 
HETATM    2  C2  UNL     1     -34.363  14.918  -3.024  1.00 20.00     0.074 C 
HETATM    3  C3  UNL     1     -36.125  16.309  -5.453  1.00 20.00     0.042 A 
HETATM    4  C4  UNL     1     -35.055  14.728  -4.363  1.00 20.00     0.029 A 
HETATM    5  C5  UNL     1     -34.731  15.641  -5.600  1.00 20.00    -0.039 A 
HETATM    6  C6  UNL     1     -36.386  15.502  -4.167  1.00 20.00     0.056 A 
HETATM    7  C7  UNL     1     -34.593  14.832  -6.892  1.00 20.00     0.015 C 
HETATM    8  C8  UNL     1     -33.576  16.630  -5.454  1.00 20.00     0.015 C 
HETATM    9  C9  UNL     1     -37.663  14.690  -4.114  1.00 20.00     0.041 C 
HETATM   10  N11 UNL     1     -36.241  16.353  -2.969  1.00 20.00    -0.276 NA
ENDROOT
BRANCH   1  11
HETATM   11  S12 UNL     1     -34.581  16.725  -0.905  1.00 20.00    -0.119 SA
HETATM   12  C10 UNL     1     -33.684  18.140  -1.584  1.00 20.00     0.097 C 
ENDBRANCH   1  11
TORSDOF 1
ENDMDL
MODEL 5
REMARK VINA RESULT:      -4.3      2.100      3.406
REMARK  1 active torsions:
REMARK  status: ('A' for Active; 'I' for Inactive)
REMARK    1  A    between atoms: C1_1  and  S12_12 
ROOT
HETATM    1  C1  UNL     1     -34.618  17.730  -4.732  1.00 20.00     0.066 C 
HETATM    2  C2  UNL     1     -33.323  17.016  -4.934  1.00 20.00     0.074 C 
HETATM    3  C3  UNL     1     -35.232  14.920  -3.229  1.00 20.00     0.042 A 
HETATM    4  C4  UNL     1     -33.382  15.877  -3.929  1.00 20.00     0.029 A 
HETATM    5  C5  UNL     1     -34.126  14.530  -4.245  1.00 20.00    -0.039 A 
HETATM    6  C6  UNL     1     -34.567  16.294  -3.017  1.00 20.00     0.056 A 
HETATM    7  C7  UNL     1     -33.317  13.308  -3.803  1.00 20.00     0.015 C 
HETATM    8  C8  UNL     1     -34.657  14.343  -5.665  1.00 20.00     0.015 C 
HETATM    9  C9  UNL     1     -34.244  16.686  -1.591  1.00 20.00     0.041 C 
HETATM   10  N11 UNL     1     -35.317  17.360  -3.710  1.00 20.00    -0.276 NA
ENDROOT
BRANCH   1  11
HETATM   11  S12 UNL     1     -35.098  18.979  -5.828  1.00 20.00    -0.119 SA
HETATM   12  C10 UNL     1     -34.433  18.304  -7.367  1.00 20.00     0.097 C 
ENDBRANCH   1  11
TORSDOF 1
ENDMDL
MODEL 6
REMARK VINA RESULT:      -4.3      2.147      3.290
REMARK  1 active torsions:
REMARK  status: ('A' for Active; 'I' for Inactive)
REMARK    1  A    between atoms: C1_1  and  S12_12 
ROOT
HETATM    1  C1  UNL     1     -35.482  16.258  -3.183  1.00 20.00     0.066 C 
HETATM    2  C2  UNL     1     -34.220  15.852  -2.496  1.00 20.00     0.074 C 
HETATM    3  C3  UNL     1     -34.689  19.024  -1.683  1.00 20.00     0.042 A 
HETATM    4  C4  UNL     1     -33.580  17.176  -2.112  1.00 20.00     0.029 A 
HETATM    5  C5  UNL     1     -33.993  17.948  -0.807  1.00 20.00    -0.039 A 
HETATM    6  C6  UNL     1     -34.393  18.199  -2.950  1.00 20.00     0.056 A 
HETATM    7  C7  UNL     1     -32.778  18.492  -0.052  1.00 20.00     0.015 C 
HETATM    8  C8  UNL     1     -34.953  17.241   0.148  1.00 20.00     0.015 C 
HETATM    9  C9  UNL     1     -33.671  18.907  -4.076  1.00 20.00     0.041 C 
HETATM   10  N11 UNL     1     -35.610  17.518  -3.436  1.00 20.00    -0.276 NA
ENDROOT
BRANCH   1  11
HETATM   11  S12 UNL     1     -36.662  15.065  -3.600  1.00 20.00    -0.119 SA
HETATM   12  C10 UNL     1     -35.573  13.761  -4.215  1.00 20.00     0.097 C 
ENDBRANCH   1  11
TORSDOF 1
ENDMDL
MODEL 7
REMARK VINA RESULT:      -4.3      1.604      2.837
REMARK  1 active torsions:
REMARK  status: ('A' for Active; 'I' for Inactive)
REMARK    1  A    between atoms: C1_1  and  S12_12 
ROOT
HETATM    1  C1  UNL     1     -36.740  15.843  -4.890  1.00 20.00     0.066 C 
HETATM    2  C2  UNL     1     -36.274  14.597  -4.212  1.00 20.00     0.074 C 
HETATM    3  C3  UNL     1     -33.523  16.253  -5.006  1.00 20.00     0.042 A 
HETATM    4  C4  UNL     1     -34.802  14.517  -4.582  1.00 20.00     0.029 A 
HETATM    5  C5  UNL     1     -33.704  15.311  -3.786  1.00 20.00    -0.039 A 
HETATM    6  C6  UNL     1     -34.687  15.553  -5.733  1.00 20.00     0.056 A 
HETATM    7  C7  UNL     1     -32.465  14.455  -3.508  1.00 20.00     0.015 C 
HETATM    8  C8  UNL     1     -34.150  16.045  -2.524  1.00 20.00     0.015 C 
HETATM    9  C9  UNL     1     -34.408  15.022  -7.122  1.00 20.00     0.041 C 
HETATM   10  N11 UNL     1     -35.905  16.388  -5.711  1.00 20.00    -0.276 NA
ENDROOT
BRANCH   1  11
HETATM   11  S12 UNL     1     -38.319  16.468  -4.562  1.00 20.00    -0.119 SA
HETATM   12  C10 UNL     1     -38.950  15.153  -3.494  1.00 20.00     0.097 C 
ENDBRANCH   1  11
TORSDOF 1
ENDMDL
MODEL 8
REMARK VINA RESULT:      -4.1      1.609      2.902
REMARK  1 active torsions:
REMARK  status: ('A' for Active; 'I' for Inactive)
REMARK    1  A    between atoms: C1_1  and  S12_12 
ROOT
HETATM    1  C1  UNL     1     -35.569  16.579  -5.914  1.00 20.00     0.066 C 
HETATM    2  C2  UNL     1     -34.267  15.931  -6.249  1.00 20.00     0.074 C 
HETATM    3  C3  UNL     1     -34.762  15.313  -3.037  1.00 20.00     0.042 A 
HETATM    4  C4  UNL     1     -33.636  15.672  -4.890  1.00 20.00     0.029 A 
HETATM    5  C5  UNL     1     -34.000  14.403  -4.038  1.00 20.00    -0.039 A 
HETATM    6  C6  UNL     1     -34.512  16.535  -3.943  1.00 20.00     0.056 A 
HETATM    7  C7  UNL     1     -32.760  13.751  -3.421  1.00 20.00     0.015 C 
HETATM    8  C8  UNL     1     -34.895  13.354  -4.694  1.00 20.00     0.015 C 
HETATM    9  C9  UNL     1     -33.863  17.742  -3.302  1.00 20.00     0.041 C 
HETATM   10  N11 UNL     1     -35.737  16.910  -4.677  1.00 20.00    -0.276 NA
ENDROOT
BRANCH   1  11
HETATM   11  S12 UNL     1     -36.744  16.852  -7.154  1.00 20.00    -0.119 SA
HETATM   12  C10 UNL     1     -37.221  15.144  -7.503  1.00 20.00     0.097 C 
ENDBRANCH   1  11
TORSDOF 1
ENDMDL
MODEL 9
REMARK VINA RESULT:      -4.1      2.391      4.176
REMARK  1 active torsions:
REMARK  status: ('A' for Active; 'I' for Inactive)
REMARK    1  A    between atoms: C1_1  and  S12_12 
ROOT
HETATM    1  C1  UNL     1     -35.410  17.514  -2.418  1.00 20.00     0.066 C 
HETATM    2  C2  UNL     1     -34.813  16.295  -1.798  1.00 20.00     0.074 C 
HETATM    3  C3  UNL     1     -35.410  15.483  -4.949  1.00 20.00     0.042 A 
HETATM    4  C4  UNL     1     -35.148  15.190  -2.786  1.00 20.00     0.029 A 
HETATM    5  C5  UNL     1     -34.268  14.923  -4.060  1.00 20.00    -0.039 A 
HETATM    6  C6  UNL     1     -36.217  15.860  -3.691  1.00 20.00     0.056 A 
HETATM    7  C7  UNL     1     -34.019  13.429  -4.283  1.00 20.00     0.015 C 
HETATM    8  C8  UNL     1     -32.967  15.713  -4.188  1.00 20.00     0.015 C 
HETATM    9  C9  UNL     1     -37.633  15.335  -3.601  1.00 20.00     0.041 C 
HETATM   10  N11 UNL     1     -36.167  17.315  -3.446  1.00 20.00    -0.276 NA
ENDROOT
BRANCH   1  11
HETATM   11  S12 UNL     1     -35.080  19.075  -1.751  1.00 20.00    -0.119 SA
HETATM   12  C10 UNL     1     -33.355  19.263  -2.255  1.00 20.00     0.097 C 
ENDBRANCH   1  11
TORSDOF 1
ENDMDL
