MODEL 1
REMARK VINA RESULT:      -4.5      0.000      0.000
REMARK  2 active torsions:
REMARK  status: ('A' for Active; 'I' for Inactive)
REMARK    1  A    between atoms: C3_3  and  C7_7 
REMARK    2  A    between atoms: C7_7  and  C8_8 
ROOT
HETATM    1  C1  UNL     1     -32.021   8.298   1.826  1.00 20.00     0.088 C 
HETATM    2  C2  UNL     1     -32.713   7.976   3.024  1.00 20.00     0.096 C 
HETATM    3  C3  UNL     1     -32.851   6.727   3.506  1.00 20.00    -0.073 C 
HETATM    4  C4  UNL     1     -32.249   5.563   2.761  1.00 20.00     0.044 C 
HETATM    5  N9  UNL     1     -31.457   8.569   0.848  1.00 20.00    -0.192 NA
ENDROOT
BRANCH   3   6
HETATM    6  C7  UNL     1     -33.555   6.375   4.804  1.00 20.00     0.038 C 
BRANCH   6   7
HETATM    7  C8  UNL     1     -34.499   5.159   4.714  1.00 20.00    -0.019 C 
HETATM    8  C5  UNL     1     -35.724   5.440   3.840  1.00 20.00     0.010 C 
HETATM    9  C6  UNL     1     -34.949   4.746   6.118  1.00 20.00     0.010 C 
ENDBRANCH   6   7
ENDBRANCH   3   6
TORSDOF 2
ENDMDL
MODEL 2
REMARK VINA RESULT:      -4.4      1.088      1.474
REMARK  2 active torsions:
REMARK  status: ('A' for Active; 'I' for Inactive)
REMARK    1  A    between atoms: C3_3  and  C7_7 
REMARK    2  A    between atoms: C7_7  and  C8_8 
ROOT
HETATM    1  C1  UNL     1     -32.072   7.978   2.126  1.00 20.00     0.088 C 
HETATM    2  C2  UNL     1     -32.252   7.203   3.303  1.00 20.00     0.096 C 
HETATM    3  C3  UNL     1     -33.087   6.151   3.396  1.00 20.00    -0.073 C 
HETATM    4  C4  UNL     1     -33.905   5.733   2.201  1.00 20.00     0.044 C 
HETATM    5  N9  UNL     1     -31.919   8.616   1.168  1.00 20.00    -0.192 NA
ENDROOT
BRANCH   3   6
HETATM    6  C7  UNL     1     -33.259   5.292   4.635  1.00 20.00     0.038 C 
BRANCH   6   7
HETATM    7  C8  UNL     1     -34.437   5.703   5.543  1.00 20.00    -0.019 C 
HETATM    8  C5  UNL     1     -34.012   6.692   6.631  1.00 20.00     0.010 C 
HETATM    9  C6  UNL     1     -35.054   4.458   6.187  1.00 20.00     0.010 C 
ENDBRANCH   6   7
ENDBRANCH   3   6
TORSDOF 2
ENDMDL
MODEL 3
REMARK VINA RESULT:      -4.3     10.680     11.866
REMARK  2 active torsions:
REMARK  status: ('A' for Active; 'I' for Inactive)
REMARK    1  A    between atoms: C3_3  and  C7_7 
REMARK    2  A    between atoms: C7_7  and  C8_8 
ROOT
HETATM    1  C1  UNL     1     -34.747  13.819  -3.816  1.00 20.00     0.088 C 
HETATM    2  C2  UNL     1     -34.809  15.010  -3.044  1.00 20.00     0.096 C 
HETATM    3  C3  UNL     1     -34.085  16.116  -3.301  1.00 20.00    -0.073 C 
HETATM    4  C4  UNL     1     -33.134  16.137  -4.470  1.00 20.00     0.044 C 
HETATM    5  N9  UNL     1     -34.703  12.842  -4.442  1.00 20.00    -0.192 NA
ENDROOT
BRANCH   3   6
HETATM    6  C7  UNL     1     -34.171  17.407  -2.507  1.00 20.00     0.038 C 
BRANCH   6   7
HETATM    7  C8  UNL     1     -33.708  17.290  -1.040  1.00 20.00    -0.019 C 
HETATM    8  C5  UNL     1     -34.882  17.125  -0.073  1.00 20.00     0.010 C 
HETATM    9  C6  UNL     1     -32.890  18.527  -0.655  1.00 20.00     0.010 C 
ENDBRANCH   6   7
ENDBRANCH   3   6
TORSDOF 2
ENDMDL
MODEL 4
REMARK VINA RESULT:      -4.2      2.587      4.675
REMARK  2 active torsions:
REMARK  status: ('A' for Active; 'I' for Inactive)
REMARK    1  A    between atoms: C3_3  and  C7_7 
REMARK    2  A    between atoms: C7_7  and  C8_8 
ROOT
HETATM    1  C1  UNL     1     -34.366   5.580   5.316  1.00 20.00     0.088 C 
HETATM    2  C2  UNL     1     -33.414   6.522   4.842  1.00 20.00     0.096 C 
HETATM    3  C3  UNL     1     -32.979   6.583   3.569  1.00 20.00    -0.073 C 
HETATM    4  C4  UNL     1     -33.508   5.610   2.547  1.00 20.00     0.044 C 
HETATM    5  N9  UNL     1     -35.144   4.815   5.710  1.00 20.00    -0.192 NA
ENDROOT
BRANCH   3   6
HETATM    6  C7  UNL     1     -31.991   7.608   3.043  1.00 20.00     0.038 C 
BRANCH   6   7
HETATM    7  C8  UNL     1     -32.491   8.417   1.828  1.00 20.00    -0.019 C 
HETATM    8  C5  UNL     1     -31.505   8.374   0.658  1.00 20.00     0.010 C 
HETATM    9  C6  UNL     1     -32.741   9.871   2.240  1.00 20.00     0.010 C 
ENDBRANCH   6   7
ENDBRANCH   3   6
TORSDOF 2
ENDMDL
MODEL 5
REMARK VINA RESULT:      -3.9     10.803     11.840
REMARK  2 active torsions:
REMARK  status: ('A' for Active; 'I' for Inactive)
REMARK    1  A    between atoms: C3_3  and  C7_7 
REMARK    2  A    between atoms: C7_7  and  C8_8 
ROOT
HETATM    1  C1  UNL     1     -34.943  17.350   0.340  1.00 20.00     0.088 C 
HETATM    2  C2  UNL     1     -34.637  16.543  -0.788  1.00 20.00     0.096 C 
HETATM    3  C3  UNL     1     -34.036  16.998  -1.904  1.00 20.00    -0.073 C 
HETATM    4  C4  UNL     1     -33.645  18.450  -2.008  1.00 20.00     0.044 C 
HETATM    5  N9  UNL     1     -35.195  18.003   1.266  1.00 20.00    -0.192 NA
ENDROOT
BRANCH   3   6
HETATM    6  C7  UNL     1     -33.671  16.138  -3.099  1.00 20.00     0.038 C 
BRANCH   6   7
HETATM    7  C8  UNL     1     -34.378  14.768  -3.144  1.00 20.00    -0.019 C 
HETATM    8  C5  UNL     1     -33.530  13.699  -3.839  1.00 20.00     0.010 C 
HETATM    9  C6  UNL     1     -35.726  14.904  -3.859  1.00 20.00     0.010 C 
ENDBRANCH   6   7
ENDBRANCH   3   6
TORSDOF 2
ENDMDL
MODEL 6
REMARK VINA RESULT:      -3.9     10.739     12.289
REMARK  2 active torsions:
REMARK  status: ('A' for Active; 'I' for Inactive)
REMARK    1  A    between atoms: C3_3  and  C7_7 
REMARK    2  A    between atoms: C7_7  and  C8_8 
ROOT
HETATM    1  C1  UNL     1     -34.345  13.563  -4.171  1.00 20.00     0.088 C 
HETATM    2  C2  UNL     1     -33.755  14.609  -3.412  1.00 20.00     0.096 C 
HETATM    3  C3  UNL     1     -34.449  15.601  -2.823  1.00 20.00    -0.073 C 
HETATM    4  C4  UNL     1     -35.950  15.647  -2.952  1.00 20.00     0.044 C 
HETATM    5  N9  UNL     1     -34.820  12.705  -4.792  1.00 20.00    -0.192 NA
ENDROOT
BRANCH   3   6
HETATM    6  C7  UNL     1     -33.833  16.701  -1.978  1.00 20.00     0.038 C 
BRANCH   6   7
HETATM    7  C8  UNL     1     -34.065  18.129  -2.515  1.00 20.00    -0.019 C 
HETATM    8  C5  UNL     1     -33.698  18.260  -3.994  1.00 20.00     0.010 C 
HETATM    9  C6  UNL     1     -33.253  19.131  -1.689  1.00 20.00     0.010 C 
ENDBRANCH   6   7
ENDBRANCH   3   6
TORSDOF 2
ENDMDL
MODEL 7
REMARK VINA RESULT:      -3.8     11.117     12.324
REMARK  2 active torsions:
REMARK  status: ('A' for Active; 'I' for Inactive)
REMARK    1  A    between atoms: C3_3  and  C7_7 
REMARK    2  A    between atoms: C7_7  and  C8_8 
ROOT
HETATM    1  C1  UNL     1     -34.678  16.729  -0.805  1.00 20.00     0.088 C 
HETATM    2  C2  UNL     1     -34.277  15.995  -1.953  1.00 20.00     0.096 C 
HETATM    3  C3  UNL     1     -33.848  16.557  -3.099  1.00 20.00    -0.073 C 
HETATM    4  C4  UNL     1     -33.773  18.058  -3.218  1.00 20.00     0.044 C 
HETATM    5  N9  UNL     1     -35.006  17.322   0.138  1.00 20.00    -0.192 NA
ENDROOT
BRANCH   3   6
HETATM    6  C7  UNL     1     -33.382  15.783  -4.318  1.00 20.00     0.038 C 
BRANCH   6   7
HETATM    7  C8  UNL     1     -34.467  14.905  -4.975  1.00 20.00    -0.019 C 
HETATM    8  C5  UNL     1     -34.288  13.421  -4.648  1.00 20.00     0.010 C 
HETATM    9  C6  UNL     1     -34.448  15.107  -6.494  1.00 20.00     0.010 C 
ENDBRANCH   6   7
ENDBRANCH   3   6
TORSDOF 2
ENDMDL
MODEL 8
REMARK VINA RESULT:      -3.8      2.881      4.782
REMARK  2 active torsions:
REMARK  status: ('A' for Active; 'I' for Inactive)
REMARK    1  A    between atoms: C3_3  and  C7_7 
REMARK    2  A    between atoms: C7_7  and  C8_8 
ROOT
HETATM    1  C1  UNL     1     -34.720   4.979   5.814  1.00 20.00     0.088 C 
HETATM    2  C2  UNL     1     -34.210   6.153   5.197  1.00 20.00     0.096 C 
HETATM    3  C3  UNL     1     -34.063   6.305   3.867  1.00 20.00    -0.073 C 
HETATM    4  C4  UNL     1     -34.450   5.186   2.935  1.00 20.00     0.044 C 
HETATM    5  N9  UNL     1     -35.137   4.024   6.325  1.00 20.00    -0.192 NA
ENDROOT
BRANCH   3   6
HETATM    6  C7  UNL     1     -33.555   7.567   3.194  1.00 20.00     0.038 C 
BRANCH   6   7
HETATM    7  C8  UNL     1     -32.107   7.477   2.668  1.00 20.00    -0.019 C 
HETATM    8  C5  UNL     1     -31.073   7.703   3.773  1.00 20.00     0.010 C 
HETATM    9  C6  UNL     1     -31.898   8.499   1.547  1.00 20.00     0.010 C 
ENDBRANCH   6   7
ENDBRANCH   3   6
TORSDOF 2
ENDMDL
MODEL 9
REMARK VINA RESULT:      -3.8     10.917     11.990
REMARK  2 active torsions:
REMARK  status: ('A' for Active; 'I' for Inactive)
REMARK    1  A    between atoms: C3_3  and  C7_7 
REMARK    2  A    between atoms: C7_7  and  C8_8 
ROOT
HETATM    1  C1  UNL     1     -34.681  14.899  -6.505  1.00 20.00     0.088 C 
HETATM    2  C2  UNL     1     -34.261  15.598  -5.342  1.00 20.00     0.096 C 
HETATM    3  C3  UNL     1     -34.251  15.070  -4.103  1.00 20.00    -0.073 C 
HETATM    4  C4  UNL     1     -34.707  13.650  -3.888  1.00 20.00     0.044 C 
HETATM    5  N9  UNL     1     -35.021  14.333  -7.459  1.00 20.00    -0.192 NA
ENDROOT
BRANCH   3   6
HETATM    6  C7  UNL     1     -33.769  15.795  -2.860  1.00 20.00     0.038 C 
BRANCH   6   7
HETATM    7  C8  UNL     1     -34.886  16.182  -1.869  1.00 20.00    -0.019 C 
HETATM    8  C5  UNL     1     -35.992  17.005  -2.533  1.00 20.00     0.010 C 
HETATM    9  C6  UNL     1     -34.290  16.968  -0.697  1.00 20.00     0.010 C 
ENDBRANCH   6   7
ENDBRANCH   3   6
TORSDOF 2
ENDMDL
