MODEL 1
REMARK VINA RESULT:      -5.1      0.000      0.000
REMARK  1 active torsions:
REMARK  status: ('A' for Active; 'I' for Inactive)
REMARK    1  A    between atoms: C6_6  and  C10_10 
ROOT
HETATM    1  C1  UNL     1     -35.970  15.448  -2.745  1.00 20.00     0.052 C 
HETATM    2  C2  UNL     1     -34.664  15.726  -2.617  1.00 20.00    -0.080 C 
HETATM    3  C3  UNL     1     -36.437  14.449  -3.738  1.00 20.00     0.149 C 
HETATM    4  C4  UNL     1     -33.603  15.097  -3.486  1.00 20.00     0.039 C 
HETATM    5  C5  UNL     1     -35.405  13.688  -4.541  1.00 20.00     0.088 C 
HETATM    6  C6  UNL     1     -34.146  14.516  -4.800  1.00 20.00     0.000 C 
HETATM    7  C7  UNL     1     -34.170  16.689  -1.576  1.00 20.00     0.043 C 
HETATM    8  O11 UNL     1     -37.639  14.215  -3.847  1.00 20.00    -0.293 OA
ENDROOT
BRANCH   6   9
HETATM    9  C10 UNL     1     -34.405  15.616  -5.839  1.00 20.00    -0.018 C 
HETATM   10  C8  UNL     1     -33.376  16.735  -5.704  1.00 20.00     0.010 C 
HETATM   11  C9  UNL     1     -34.385  15.034  -7.251  1.00 20.00     0.010 C 
ENDBRANCH   6   9
TORSDOF 1
ENDMDL
MODEL 2
REMARK VINA RESULT:      -4.7      1.488      3.568
REMARK  1 active torsions:
REMARK  status: ('A' for Active; 'I' for Inactive)
REMARK    1  A    between atoms: C6_6  and  C10_10 
ROOT
HETATM    1  C1  UNL     1     -34.703  14.499  -5.884  1.00 20.00     0.052 C 
HETATM    2  C2  UNL     1     -34.963  15.793  -6.123  1.00 20.00    -0.080 C 
HETATM    3  C3  UNL     1     -35.200  13.843  -4.650  1.00 20.00     0.149 C 
HETATM    4  C4  UNL     1     -35.719  16.670  -5.155  1.00 20.00     0.039 C 
HETATM    5  C5  UNL     1     -36.079  14.638  -3.710  1.00 20.00     0.088 C 
HETATM    6  C6  UNL     1     -35.737  16.128  -3.718  1.00 20.00     0.000 C 
HETATM    7  C7  UNL     1     -34.519  16.456  -7.395  1.00 20.00     0.043 C 
HETATM    8  O11 UNL     1     -34.943  12.658  -4.445  1.00 20.00    -0.293 OA
ENDROOT
BRANCH   6   9
HETATM    9  C10 UNL     1     -34.411  16.400  -2.995  1.00 20.00    -0.018 C 
HETATM   10  C8  UNL     1     -33.872  17.780  -3.363  1.00 20.00     0.010 C 
HETATM   11  C9  UNL     1     -34.590  16.279  -1.483  1.00 20.00     0.010 C 
ENDBRANCH   6   9
TORSDOF 1
ENDMDL
MODEL 3
REMARK VINA RESULT:      -4.6      2.043      2.391
REMARK  1 active torsions:
REMARK  status: ('A' for Active; 'I' for Inactive)
REMARK    1  A    between atoms: C6_6  and  C10_10 
ROOT
HETATM    1  C1  UNL     1     -34.620  14.283  -3.350  1.00 20.00     0.052 C 
HETATM    2  C2  UNL     1     -34.581  15.612  -3.176  1.00 20.00    -0.080 C 
HETATM    3  C3  UNL     1     -34.652  13.699  -4.714  1.00 20.00     0.149 C 
HETATM    4  C4  UNL     1     -34.618  16.591  -4.324  1.00 20.00     0.039 C 
HETATM    5  C5  UNL     1     -34.552  14.629  -5.903  1.00 20.00     0.088 C 
HETATM    6  C6  UNL     1     -35.178  15.996  -5.624  1.00 20.00     0.000 C 
HETATM    7  C7  UNL     1     -34.488  16.217  -1.805  1.00 20.00     0.043 C 
HETATM    8  O11 UNL     1     -34.696  12.478  -4.853  1.00 20.00    -0.293 OA
ENDROOT
BRANCH   6   9
HETATM    9  C10 UNL     1     -36.710  15.911  -5.592  1.00 20.00    -0.018 C 
HETATM   10  C8  UNL     1     -37.318  17.282  -5.304  1.00 20.00     0.010 C 
HETATM   11  C9  UNL     1     -37.244  15.353  -6.909  1.00 20.00     0.010 C 
ENDBRANCH   6   9
TORSDOF 1
ENDMDL
MODEL 4
REMARK VINA RESULT:      -4.4      1.146      3.483
REMARK  1 active torsions:
REMARK  status: ('A' for Active; 'I' for Inactive)
REMARK    1  A    between atoms: C6_6  and  C10_10 
ROOT
HETATM    1  C1  UNL     1     -36.424  14.553  -5.201  1.00 20.00     0.052 C 
HETATM    2  C2  UNL     1     -35.414  15.337  -5.606  1.00 20.00    -0.080 C 
HETATM    3  C3  UNL     1     -37.266  14.941  -4.043  1.00 20.00     0.149 C 
HETATM    4  C4  UNL     1     -35.036  16.616  -4.900  1.00 20.00     0.039 C 
HETATM    5  C5  UNL     1     -37.018  16.279  -3.383  1.00 20.00     0.088 C 
HETATM    6  C6  UNL     1     -35.550  16.698  -3.456  1.00 20.00     0.000 C 
HETATM    7  C7  UNL     1     -34.591  14.989  -6.813  1.00 20.00     0.043 C 
HETATM    8  O11 UNL     1     -38.182  14.204  -3.681  1.00 20.00    -0.293 OA
ENDROOT
BRANCH   6   9
HETATM    9  C10 UNL     1     -34.684  15.866  -2.500  1.00 20.00    -0.018 C 
HETATM   10  C8  UNL     1     -33.264  15.729  -3.043  1.00 20.00     0.010 C 
HETATM   11  C9  UNL     1     -34.669  16.492  -1.107  1.00 20.00     0.010 C 
ENDBRANCH   6   9
TORSDOF 1
ENDMDL
MODEL 5
REMARK VINA RESULT:      -4.4      1.988      3.537
REMARK  1 active torsions:
REMARK  status: ('A' for Active; 'I' for Inactive)
REMARK    1  A    between atoms: C6_6  and  C10_10 
ROOT
HETATM    1  C1  UNL     1     -36.475  15.281  -6.297  1.00 20.00     0.052 C 
HETATM    2  C2  UNL     1     -37.172  15.253  -5.151  1.00 20.00    -0.080 C 
HETATM    3  C3  UNL     1     -35.215  14.509  -6.435  1.00 20.00     0.149 C 
HETATM    4  C4  UNL     1     -36.713  14.494  -3.931  1.00 20.00     0.039 C 
HETATM    5  C5  UNL     1     -34.780  13.622  -5.290  1.00 20.00     0.088 C 
HETATM    6  C6  UNL     1     -35.211  14.175  -3.931  1.00 20.00     0.000 C 
HETATM    7  C7  UNL     1     -38.479  15.979  -5.016  1.00 20.00     0.043 C 
HETATM    8  O11 UNL     1     -34.585  14.554  -7.490  1.00 20.00    -0.293 OA
ENDROOT
BRANCH   6   9
HETATM    9  C10 UNL     1     -34.374  15.399  -3.537  1.00 20.00    -0.018 C 
HETATM   10  C8  UNL     1     -34.754  15.882  -2.139  1.00 20.00     0.010 C 
HETATM   11  C9  UNL     1     -32.883  15.075  -3.606  1.00 20.00     0.010 C 
ENDBRANCH   6   9
TORSDOF 1
ENDMDL
MODEL 6
REMARK VINA RESULT:      -4.4      1.626      3.377
REMARK  1 active torsions:
REMARK  status: ('A' for Active; 'I' for Inactive)
REMARK    1  A    between atoms: C6_6  and  C10_10 
ROOT
HETATM    1  C1  UNL     1     -35.422  13.964  -3.711  1.00 20.00     0.052 C 
HETATM    2  C2  UNL     1     -34.199  14.514  -3.717  1.00 20.00    -0.080 C 
HETATM    3  C3  UNL     1     -36.634  14.813  -3.818  1.00 20.00     0.149 C 
HETATM    4  C4  UNL     1     -33.971  16.005  -3.781  1.00 20.00     0.039 C 
HETATM    5  C5  UNL     1     -36.460  16.302  -4.023  1.00 20.00     0.088 C 
HETATM    6  C6  UNL     1     -35.191  16.834  -3.357  1.00 20.00     0.000 C 
HETATM    7  C7  UNL     1     -32.961  13.665  -3.670  1.00 20.00     0.043 C 
HETATM    8  O11 UNL     1     -37.747  14.290  -3.802  1.00 20.00    -0.293 OA
ENDROOT
BRANCH   6   9
HETATM    9  C10 UNL     1     -35.340  16.879  -1.830  1.00 20.00    -0.018 C 
HETATM   10  C8  UNL     1     -33.979  17.064  -1.163  1.00 20.00     0.010 C 
HETATM   11  C9  UNL     1     -36.297  17.996  -1.417  1.00 20.00     0.010 C 
ENDBRANCH   6   9
TORSDOF 1
ENDMDL
MODEL 7
REMARK VINA RESULT:      -4.3      1.833      3.133
REMARK  1 active torsions:
REMARK  status: ('A' for Active; 'I' for Inactive)
REMARK    1  A    between atoms: C6_6  and  C10_10 
ROOT
HETATM    1  C1  UNL     1     -34.553  14.506  -3.223  1.00 20.00     0.052 C 
HETATM    2  C2  UNL     1     -34.720  15.823  -3.031  1.00 20.00    -0.080 C 
HETATM    3  C3  UNL     1     -35.215  13.817  -4.358  1.00 20.00     0.149 C 
HETATM    4  C4  UNL     1     -35.612  16.672  -3.903  1.00 20.00     0.039 C 
HETATM    5  C5  UNL     1     -36.010  14.644  -5.343  1.00 20.00     0.088 C 
HETATM    6  C6  UNL     1     -36.656  15.865  -4.687  1.00 20.00     0.000 C 
HETATM    7  C7  UNL     1     -34.009  16.546  -1.923  1.00 20.00     0.043 C 
HETATM    8  O11 UNL     1     -35.057  12.607  -4.512  1.00 20.00    -0.293 OA
ENDROOT
BRANCH   6   9
HETATM    9  C10 UNL     1     -37.840  15.459  -3.799  1.00 20.00    -0.018 C 
HETATM   10  C8  UNL     1     -38.421  16.679  -3.088  1.00 20.00     0.010 C 
HETATM   11  C9  UNL     1     -38.915  14.756  -4.625  1.00 20.00     0.010 C 
ENDBRANCH   6   9
TORSDOF 1
ENDMDL
MODEL 8
REMARK VINA RESULT:      -4.3      2.100      4.393
REMARK  1 active torsions:
REMARK  status: ('A' for Active; 'I' for Inactive)
REMARK    1  A    between atoms: C6_6  and  C10_10 
ROOT
HETATM    1  C1  UNL     1     -34.480  16.506  -6.869  1.00 20.00     0.052 C 
HETATM    2  C2  UNL     1     -34.813  15.208  -6.798  1.00 20.00    -0.080 C 
HETATM    3  C3  UNL     1     -33.669  17.138  -5.799  1.00 20.00     0.149 C 
HETATM    4  C4  UNL     1     -34.441  14.329  -5.629  1.00 20.00     0.039 C 
HETATM    5  C5  UNL     1     -33.153  16.271  -4.672  1.00 20.00     0.088 C 
HETATM    6  C6  UNL     1     -34.097  15.112  -4.354  1.00 20.00     0.000 C 
HETATM    7  C7  UNL     1     -35.582  14.539  -7.901  1.00 20.00     0.043 C 
HETATM    8  O11 UNL     1     -33.380  18.331  -5.878  1.00 20.00    -0.293 OA
ENDROOT
BRANCH   6   9
HETATM    9  C10 UNL     1     -35.361  15.604  -3.636  1.00 20.00    -0.018 C 
HETATM   10  C8  UNL     1     -36.468  14.555  -3.716  1.00 20.00     0.010 C 
HETATM   11  C9  UNL     1     -35.051  15.947  -2.180  1.00 20.00     0.010 C 
ENDBRANCH   6   9
TORSDOF 1
ENDMDL
MODEL 9
REMARK VINA RESULT:      -4.3      2.227      3.126
REMARK  1 active torsions:
REMARK  status: ('A' for Active; 'I' for Inactive)
REMARK    1  A    between atoms: C6_6  and  C10_10 
ROOT
HETATM    1  C1  UNL     1     -33.896  17.506  -3.075  1.00 20.00     0.052 C 
HETATM    2  C2  UNL     1     -34.729  16.705  -2.394  1.00 20.00    -0.080 C 
HETATM    3  C3  UNL     1     -34.085  17.734  -4.529  1.00 20.00     0.149 C 
HETATM    4  C4  UNL     1     -35.864  15.956  -3.049  1.00 20.00     0.039 C 
HETATM    5  C5  UNL     1     -35.287  17.117  -5.209  1.00 20.00     0.088 C 
HETATM    6  C6  UNL     1     -35.699  15.792  -4.567  1.00 20.00     0.000 C 
HETATM    7  C7  UNL     1     -34.588  16.511  -0.912  1.00 20.00     0.043 C 
HETATM    8  O11 UNL     1     -33.305  18.464  -5.138  1.00 20.00    -0.293 OA
ENDROOT
BRANCH   6   9
HETATM    9  C10 UNL     1     -34.706  14.673  -4.910  1.00 20.00    -0.018 C 
HETATM   10  C8  UNL     1     -35.095  13.376  -4.205  1.00 20.00     0.010 C 
HETATM   11  C9  UNL     1     -34.635  14.464  -6.421  1.00 20.00     0.010 C 
ENDBRANCH   6   9
TORSDOF 1
ENDMDL
