MODEL 1
REMARK VINA RESULT:      -3.4      0.000      0.000
REMARK  0 active torsions:
REMARK  status: ('A' for Active; 'I' for Inactive)
ROOT
HETATM    1  C1  UNL     1     -34.938  15.934  -2.451  1.00 20.00     0.062 C 
HETATM    2  C2  UNL     1     -36.301  15.041  -4.351  1.00 20.00     0.113 C 
HETATM    3  C3  UNL     1     -34.796  14.737  -4.386  1.00 20.00     0.056 C 
HETATM    4  C4  UNL     1     -34.589  16.511  -1.121  1.00 20.00     0.078 C 
HETATM    5  C5  UNL     1     -34.560  13.244  -4.633  1.00 20.00     0.041 C 
HETATM    6  C6  UNL     1     -34.070  15.552  -5.467  1.00 20.00     0.041 C 
HETATM    7  N7  UNL     1     -34.197  15.075  -3.069  1.00 20.00    -0.277 NA
HETATM    8  S8  UNL     1     -36.442  16.413  -3.187  1.00 20.00    -0.113 SA
ENDROOT
TORSDOF 0
ENDMDL
MODEL 2
REMARK VINA RESULT:      -3.4      1.401      3.348
REMARK  0 active torsions:
REMARK  status: ('A' for Active; 'I' for Inactive)
ROOT
HETATM    1  C1  UNL     1     -34.382  14.884  -3.385  1.00 20.00     0.062 C 
HETATM    2  C2  UNL     1     -35.837  16.887  -3.008  1.00 20.00     0.113 C 
HETATM    3  C3  UNL     1     -34.481  16.880  -2.288  1.00 20.00     0.056 C 
HETATM    4  C4  UNL     1     -33.843  13.634  -3.991  1.00 20.00     0.078 C 
HETATM    5  C5  UNL     1     -33.744  18.200  -2.530  1.00 20.00     0.041 C 
HETATM    6  C6  UNL     1     -34.634  16.653  -0.776  1.00 20.00     0.041 C 
HETATM    7  N7  UNL     1     -33.638  15.788  -2.838  1.00 20.00    -0.277 NA
HETATM    8  S8  UNL     1     -36.101  15.158  -3.456  1.00 20.00    -0.113 SA
ENDROOT
TORSDOF 0
ENDMDL
MODEL 3
REMARK VINA RESULT:      -3.4      2.187      3.671
REMARK  0 active torsions:
REMARK  status: ('A' for Active; 'I' for Inactive)
ROOT
HETATM    1  C1  UNL     1     -34.601  15.054  -6.509  1.00 20.00     0.062 C 
HETATM    2  C2  UNL     1     -33.318  16.054  -4.607  1.00 20.00     0.113 C 
HETATM    3  C3  UNL     1     -34.064  14.744  -4.316  1.00 20.00     0.056 C 
HETATM    4  C4  UNL     1     -35.073  14.784  -7.897  1.00 20.00     0.078 C 
HETATM    5  C5  UNL     1     -33.128  13.738  -3.640  1.00 20.00     0.041 C 
HETATM    6  C6  UNL     1     -35.295  14.970  -3.426  1.00 20.00     0.041 C 
HETATM    7  N7  UNL     1     -34.519  14.145  -5.596  1.00 20.00    -0.277 NA
HETATM    8  S8  UNL     1     -34.095  16.674  -6.114  1.00 20.00    -0.113 SA
ENDROOT
TORSDOF 0
ENDMDL
MODEL 4
REMARK VINA RESULT:      -3.4     11.961     13.004
REMARK  0 active torsions:
REMARK  status: ('A' for Active; 'I' for Inactive)
ROOT
HETATM    1  C1  UNL     1     -41.780   3.992  -2.241  1.00 20.00     0.062 C 
HETATM    2  C2  UNL     1     -42.338   6.365  -1.672  1.00 20.00     0.113 C 
HETATM    3  C3  UNL     1     -41.622   5.549  -0.585  1.00 20.00     0.056 C 
HETATM    4  C4  UNL     1     -41.543   2.758  -3.044  1.00 20.00     0.078 C 
HETATM    5  C5  UNL     1     -40.420   6.327  -0.043  1.00 20.00     0.041 C 
HETATM    6  C6  UNL     1     -42.562   5.193   0.577  1.00 20.00     0.041 C 
HETATM    7  N7  UNL     1     -41.113   4.286  -1.175  1.00 20.00    -0.277 NA
HETATM    8  S8  UNL     1     -42.992   5.113  -2.796  1.00 20.00    -0.113 SA
ENDROOT
TORSDOF 0
ENDMDL
MODEL 5
REMARK VINA RESULT:      -3.4      1.379      1.921
REMARK  0 active torsions:
REMARK  status: ('A' for Active; 'I' for Inactive)
ROOT
HETATM    1  C1  UNL     1     -34.339  16.411  -2.440  1.00 20.00     0.062 C 
HETATM    2  C2  UNL     1     -34.970  15.961  -4.820  1.00 20.00     0.113 C 
HETATM    3  C3  UNL     1     -35.413  14.917  -3.785  1.00 20.00     0.056 C 
HETATM    4  C4  UNL     1     -33.887  17.138  -1.220  1.00 20.00     0.078 C 
HETATM    5  C5  UNL     1     -36.902  14.601  -3.953  1.00 20.00     0.041 C 
HETATM    6  C6  UNL     1     -34.602  13.617  -3.897  1.00 20.00     0.041 C 
HETATM    7  N7  UNL     1     -35.222  15.468  -2.420  1.00 20.00    -0.277 NA
HETATM    8  S8  UNL     1     -33.671  16.887  -3.976  1.00 20.00    -0.113 SA
ENDROOT
TORSDOF 0
ENDMDL
MODEL 6
REMARK VINA RESULT:      -3.4     11.754     12.705
REMARK  0 active torsions:
REMARK  status: ('A' for Active; 'I' for Inactive)
ROOT
HETATM    1  C1  UNL     1     -42.117   6.377  -2.392  1.00 20.00     0.062 C 
HETATM    2  C2  UNL     1     -40.841   4.626  -1.139  1.00 20.00     0.113 C 
HETATM    3  C3  UNL     1     -42.042   4.140  -1.963  1.00 20.00     0.056 C 
HETATM    4  C4  UNL     1     -42.454   7.679  -3.036  1.00 20.00     0.078 C 
HETATM    5  C5  UNL     1     -41.636   2.957  -2.846  1.00 20.00     0.041 C 
HETATM    6  C6  UNL     1     -43.222   3.727  -1.070  1.00 20.00     0.041 C 
HETATM    7  N7  UNL     1     -42.498   5.234  -2.858  1.00 20.00    -0.277 NA
HETATM    8  S8  UNL     1     -41.123   6.401  -0.962  1.00 20.00    -0.113 SA
ENDROOT
TORSDOF 0
ENDMDL
MODEL 7
REMARK VINA RESULT:      -3.3      1.537      3.415
REMARK  0 active torsions:
REMARK  status: ('A' for Active; 'I' for Inactive)
ROOT
HETATM    1  C1  UNL     1     -34.340  14.787  -4.043  1.00 20.00     0.062 C 
HETATM    2  C2  UNL     1     -33.730  17.114  -3.348  1.00 20.00     0.113 C 
HETATM    3  C3  UNL     1     -34.861  16.437  -2.559  1.00 20.00     0.056 C 
HETATM    4  C4  UNL     1     -34.255  13.445  -4.686  1.00 20.00     0.078 C 
HETATM    5  C5  UNL     1     -34.604  16.558  -1.054  1.00 20.00     0.041 C 
HETATM    6  C6  UNL     1     -36.233  17.042  -2.890  1.00 20.00     0.041 C 
HETATM    7  N7  UNL     1     -34.896  14.991  -2.895  1.00 20.00    -0.277 NA
HETATM    8  S8  UNL     1     -33.614  16.141  -4.864  1.00 20.00    -0.113 SA
ENDROOT
TORSDOF 0
ENDMDL
MODEL 8
REMARK VINA RESULT:      -3.3      1.969      3.375
REMARK  0 active torsions:
REMARK  status: ('A' for Active; 'I' for Inactive)
ROOT
HETATM    1  C1  UNL     1     -34.372  15.622  -5.816  1.00 20.00     0.062 C 
HETATM    2  C2  UNL     1     -34.939  14.166  -3.861  1.00 20.00     0.113 C 
HETATM    3  C3  UNL     1     -33.859  15.233  -3.630  1.00 20.00     0.056 C 
HETATM    4  C4  UNL     1     -34.472  16.295  -7.143  1.00 20.00     0.078 C 
HETATM    5  C5  UNL     1     -34.169  16.037  -2.364  1.00 20.00     0.041 C 
HETATM    6  C6  UNL     1     -32.458  14.616  -3.510  1.00 20.00     0.041 C 
HETATM    7  N7  UNL     1     -33.853  16.180  -4.774  1.00 20.00    -0.277 NA
HETATM    8  S8  UNL     1     -35.026  14.015  -5.658  1.00 20.00    -0.113 SA
ENDROOT
TORSDOF 0
ENDMDL
MODEL 9
REMARK VINA RESULT:      -3.3      1.781      2.799
REMARK  0 active torsions:
REMARK  status: ('A' for Active; 'I' for Inactive)
ROOT
HETATM    1  C1  UNL     1     -37.601  14.927  -4.195  1.00 20.00     0.062 C 
HETATM    2  C2  UNL     1     -35.484  15.475  -5.413  1.00 20.00     0.113 C 
HETATM    3  C3  UNL     1     -35.371  14.463  -4.264  1.00 20.00     0.056 C 
HETATM    4  C4  UNL     1     -39.055  14.818  -3.883  1.00 20.00     0.078 C 
HETATM    5  C5  UNL     1     -34.615  13.215  -4.728  1.00 20.00     0.041 C 
HETATM    6  C6  UNL     1     -34.661  15.061  -3.040  1.00 20.00     0.041 C 
HETATM    7  N7  UNL     1     -36.732  14.036  -3.850  1.00 20.00    -0.277 NA
HETATM    8  S8  UNL     1     -37.057  16.307  -5.108  1.00 20.00    -0.113 SA
ENDROOT
TORSDOF 0
ENDMDL
