MODEL 1
REMARK VINA RESULT:      -4.6      0.000      0.000
REMARK  1 active torsions:
REMARK  status: ('A' for Active; 'I' for Inactive)
REMARK    1  A    between atoms: C3_3  and  C7_7 
ROOT
HETATM    1  C1  UNL     1     -34.710  17.364  -3.422  1.00 20.00    -0.082 C 
HETATM    2  C2  UNL     1     -34.654  16.365  -2.513  1.00 20.00    -0.081 C 
HETATM    3  C4  UNL     1     -34.718  17.094  -4.911  1.00 20.00     0.035 C 
HETATM    4  C5  UNL     1     -34.650  14.904  -2.920  1.00 20.00     0.050 C 
HETATM    5  C6  UNL     1     -34.382  15.654  -5.305  1.00 20.00     0.021 C 
HETATM    6  C7  UNL     1     -35.053  14.632  -4.382  1.00 20.00     0.013 C 
HETATM    7  C8  UNL     1     -34.788  18.830  -3.084  1.00 20.00     0.043 C 
HETATM    8  C9  UNL     1     -34.569  16.566  -1.023  1.00 20.00     0.043 C 
HETATM    9  C10 UNL     1     -34.655  13.206  -4.783  1.00 20.00     0.023 C 
ENDROOT
BRANCH   6  10
HETATM   10  C3  UNL     1     -36.554  14.711  -4.531  1.00 20.00     0.240 C 
HETATM   11  O11 UNL     1     -37.339  14.142  -3.781  1.00 20.00    -0.306 OA
ENDBRANCH   6  10
TORSDOF 1
ENDMDL
MODEL 2
REMARK VINA RESULT:      -4.5      1.767      2.860
REMARK  1 active torsions:
REMARK  status: ('A' for Active; 'I' for Inactive)
REMARK    1  A    between atoms: C3_3  and  C7_7 
ROOT
HETATM    1  C1  UNL     1     -33.946  17.396  -3.142  1.00 20.00    -0.082 C 
HETATM    2  C2  UNL     1     -33.940  17.122  -4.466  1.00 20.00    -0.081 C 
HETATM    3  C4  UNL     1     -34.402  16.381  -2.116  1.00 20.00     0.035 C 
HETATM    4  C5  UNL     1     -34.336  15.762  -5.010  1.00 20.00     0.050 C 
HETATM    5  C6  UNL     1     -35.103  15.151  -2.695  1.00 20.00     0.021 C 
HETATM    6  C7  UNL     1     -34.412  14.637  -3.962  1.00 20.00     0.013 C 
HETATM    7  C8  UNL     1     -33.500  18.698  -2.532  1.00 20.00     0.043 C 
HETATM    8  C9  UNL     1     -33.570  18.108  -5.544  1.00 20.00     0.043 C 
HETATM    9  C10 UNL     1     -35.171  13.433  -4.534  1.00 20.00     0.023 C 
ENDROOT
BRANCH   6  10
HETATM   10  C3  UNL     1     -33.024  14.143  -3.626  1.00 20.00     0.240 C 
HETATM   11  O11 UNL     1     -32.716  12.956  -3.599  1.00 20.00    -0.306 OA
ENDBRANCH   6  10
TORSDOF 1
ENDMDL
MODEL 3
REMARK VINA RESULT:      -4.3      2.120      3.271
REMARK  1 active torsions:
REMARK  status: ('A' for Active; 'I' for Inactive)
REMARK    1  A    between atoms: C3_3  and  C7_7 
ROOT
HETATM    1  C1  UNL     1     -36.950  15.342  -5.860  1.00 20.00    -0.082 C 
HETATM    2  C2  UNL     1     -37.002  15.182  -4.518  1.00 20.00    -0.081 C 
HETATM    3  C4  UNL     1     -35.639  15.516  -6.596  1.00 20.00     0.035 C 
HETATM    4  C5  UNL     1     -35.749  15.113  -3.666  1.00 20.00     0.050 C 
HETATM    5  C6  UNL     1     -34.427  15.775  -5.699  1.00 20.00     0.021 C 
HETATM    6  C7  UNL     1     -34.440  14.894  -4.446  1.00 20.00     0.013 C 
HETATM    7  C8  UNL     1     -38.148  15.348  -6.772  1.00 20.00     0.043 C 
HETATM    8  C9  UNL     1     -38.273  15.078  -3.716  1.00 20.00     0.043 C 
HETATM    9  C10 UNL     1     -33.234  15.216  -3.554  1.00 20.00     0.023 C 
ENDROOT
BRANCH   6  10
HETATM   10  C3  UNL     1     -34.303  13.441  -4.836  1.00 20.00     0.240 C 
HETATM   11  O11 UNL     1     -34.953  12.538  -4.319  1.00 20.00    -0.306 OA
ENDBRANCH   6  10
TORSDOF 1
ENDMDL
MODEL 4
REMARK VINA RESULT:      -4.3      1.984      3.733
REMARK  1 active torsions:
REMARK  status: ('A' for Active; 'I' for Inactive)
REMARK    1  A    between atoms: C3_3  and  C7_7 
ROOT
HETATM    1  C1  UNL     1     -35.920  15.081  -6.526  1.00 20.00    -0.082 C 
HETATM    2  C2  UNL     1     -36.709  15.251  -5.441  1.00 20.00    -0.081 C 
HETATM    3  C4  UNL     1     -34.411  15.156  -6.440  1.00 20.00     0.035 C 
HETATM    4  C5  UNL     1     -36.135  15.473  -4.055  1.00 20.00     0.050 C 
HETATM    5  C6  UNL     1     -33.869  15.703  -5.118  1.00 20.00     0.021 C 
HETATM    6  C7  UNL     1     -34.635  15.156  -3.910  1.00 20.00     0.013 C 
HETATM    7  C8  UNL     1     -36.421  14.788  -7.916  1.00 20.00     0.043 C 
HETATM    8  C9  UNL     1     -38.215  15.264  -5.470  1.00 20.00     0.043 C 
HETATM    9  C10 UNL     1     -34.090  15.762  -2.611  1.00 20.00     0.023 C 
ENDROOT
BRANCH   6  10
HETATM   10  C3  UNL     1     -34.427  13.663  -3.801  1.00 20.00     0.240 C 
HETATM   11  O11 UNL     1     -33.321  13.138  -3.734  1.00 20.00    -0.306 OA
ENDBRANCH   6  10
TORSDOF 1
ENDMDL
MODEL 5
REMARK VINA RESULT:      -4.3      1.788      2.770
REMARK  1 active torsions:
REMARK  status: ('A' for Active; 'I' for Inactive)
REMARK    1  A    between atoms: C3_3  and  C7_7 
ROOT
HETATM    1  C1  UNL     1     -33.743  14.810  -3.535  1.00 20.00    -0.082 C 
HETATM    2  C2  UNL     1     -34.495  15.670  -2.811  1.00 20.00    -0.081 C 
HETATM    3  C4  UNL     1     -34.362  13.795  -4.471  1.00 20.00     0.035 C 
HETATM    4  C5  UNL     1     -36.007  15.714  -2.929  1.00 20.00     0.050 C 
HETATM    5  C6  UNL     1     -35.877  13.630  -4.330  1.00 20.00     0.021 C 
HETATM    6  C7  UNL     1     -36.589  14.974  -4.148  1.00 20.00     0.013 C 
HETATM    7  C8  UNL     1     -32.238  14.761  -3.518  1.00 20.00     0.043 C 
HETATM    8  C9  UNL     1     -33.949  16.651  -1.808  1.00 20.00     0.043 C 
HETATM    9  C10 UNL     1     -38.096  14.760  -3.966  1.00 20.00     0.023 C 
ENDROOT
BRANCH   6  10
HETATM   10  C3  UNL     1     -36.427  15.815  -5.393  1.00 20.00     0.240 C 
HETATM   11  O11 UNL     1     -36.515  17.038  -5.399  1.00 20.00    -0.306 OA
ENDBRANCH   6  10
TORSDOF 1
ENDMDL
MODEL 6
REMARK VINA RESULT:      -4.3      1.426      3.510
REMARK  1 active torsions:
REMARK  status: ('A' for Active; 'I' for Inactive)
REMARK    1  A    between atoms: C3_3  and  C7_7 
ROOT
HETATM    1  C1  UNL     1     -34.409  15.275  -5.855  1.00 20.00    -0.082 C 
HETATM    2  C2  UNL     1     -34.285  16.559  -5.448  1.00 20.00    -0.081 C 
HETATM    3  C4  UNL     1     -34.550  14.133  -4.872  1.00 20.00     0.035 C 
HETATM    4  C5  UNL     1     -34.334  16.948  -3.982  1.00 20.00     0.050 C 
HETATM    5  C6  UNL     1     -34.267  14.500  -3.414  1.00 20.00     0.021 C 
HETATM    6  C7  UNL     1     -34.866  15.857  -3.034  1.00 20.00     0.013 C 
HETATM    7  C8  UNL     1     -34.439  14.829  -7.293  1.00 20.00     0.043 C 
HETATM    8  C9  UNL     1     -34.066  17.732  -6.367  1.00 20.00     0.043 C 
HETATM    9  C10 UNL     1     -34.522  16.206  -1.581  1.00 20.00     0.023 C 
ENDROOT
BRANCH   6  10
HETATM   10  C3  UNL     1     -36.374  15.793  -3.109  1.00 20.00     0.240 C 
HETATM   11  O11 UNL     1     -37.090  16.786  -3.192  1.00 20.00    -0.306 OA
ENDBRANCH   6  10
TORSDOF 1
ENDMDL
MODEL 7
REMARK VINA RESULT:      -4.2      2.439      3.979
REMARK  1 active torsions:
REMARK  status: ('A' for Active; 'I' for Inactive)
REMARK    1  A    between atoms: C3_3  and  C7_7 
ROOT
HETATM    1  C1  UNL     1     -36.716  15.450  -5.690  1.00 20.00    -0.082 C 
HETATM    2  C2  UNL     1     -35.753  14.844  -6.420  1.00 20.00    -0.081 C 
HETATM    3  C4  UNL     1     -36.646  15.530  -4.180  1.00 20.00     0.035 C 
HETATM    4  C5  UNL     1     -34.511  14.250  -5.782  1.00 20.00     0.050 C 
HETATM    5  C6  UNL     1     -35.573  14.649  -3.538  1.00 20.00     0.021 C 
HETATM    6  C7  UNL     1     -34.258  14.677  -4.324  1.00 20.00     0.013 C 
HETATM    7  C8  UNL     1     -37.936  16.120  -6.264  1.00 20.00     0.043 C 
HETATM    8  C9  UNL     1     -35.796  14.664  -7.915  1.00 20.00     0.043 C 
HETATM    9  C10 UNL     1     -33.226  13.748  -3.673  1.00 20.00     0.023 C 
ENDROOT
BRANCH   6  10
HETATM   10  C3  UNL     1     -33.664  16.066  -4.283  1.00 20.00     0.240 C 
HETATM   11  O11 UNL     1     -32.878  16.489  -5.124  1.00 20.00    -0.306 OA
ENDBRANCH   6  10
TORSDOF 1
ENDMDL
MODEL 8
REMARK VINA RESULT:      -4.2      1.494      2.540
REMARK  1 active torsions:
REMARK  status: ('A' for Active; 'I' for Inactive)
REMARK    1  A    between atoms: C3_3  and  C7_7 
ROOT
HETATM    1  C1  UNL     1     -35.176  16.238  -3.011  1.00 20.00    -0.082 C 
HETATM    2  C2  UNL     1     -34.461  16.720  -4.053  1.00 20.00    -0.081 C 
HETATM    3  C4  UNL     1     -36.200  15.137  -3.183  1.00 20.00     0.035 C 
HETATM    4  C5  UNL     1     -34.596  16.154  -5.454  1.00 20.00     0.050 C 
HETATM    5  C6  UNL     1     -36.559  14.813  -4.635  1.00 20.00     0.021 C 
HETATM    6  C7  UNL     1     -35.326  14.801  -5.544  1.00 20.00     0.013 C 
HETATM    7  C8  UNL     1     -35.040  16.706  -1.586  1.00 20.00     0.043 C 
HETATM    8  C9  UNL     1     -33.483  17.862  -3.966  1.00 20.00     0.043 C 
HETATM    9  C10 UNL     1     -35.734  14.517  -6.995  1.00 20.00     0.023 C 
ENDROOT
BRANCH   6  10
HETATM   10  C3  UNL     1     -34.397  13.681  -5.137  1.00 20.00     0.240 C 
HETATM   11  O11 UNL     1     -34.782  12.550  -4.858  1.00 20.00    -0.306 OA
ENDBRANCH   6  10
TORSDOF 1
ENDMDL
MODEL 9
REMARK VINA RESULT:      -4.2      2.149      3.073
REMARK  1 active torsions:
REMARK  status: ('A' for Active; 'I' for Inactive)
REMARK    1  A    between atoms: C3_3  and  C7_7 
ROOT
HETATM    1  C1  UNL     1     -36.602  16.475  -3.032  1.00 20.00    -0.082 C 
HETATM    2  C2  UNL     1     -36.792  15.287  -3.650  1.00 20.00    -0.081 C 
HETATM    3  C4  UNL     1     -35.247  16.899  -2.508  1.00 20.00     0.035 C 
HETATM    4  C5  UNL     1     -35.650  14.322  -3.908  1.00 20.00     0.050 C 
HETATM    5  C6  UNL     1     -34.193  15.791  -2.480  1.00 20.00     0.021 C 
HETATM    6  C7  UNL     1     -34.240  14.918  -3.738  1.00 20.00     0.013 C 
HETATM    7  C8  UNL     1     -37.676  17.507  -2.806  1.00 20.00     0.043 C 
HETATM    8  C9  UNL     1     -38.124  14.772  -4.127  1.00 20.00     0.043 C 
HETATM    9  C10 UNL     1     -33.199  13.795  -3.649  1.00 20.00     0.023 C 
ENDROOT
BRANCH   6  10
HETATM   10  C3  UNL     1     -33.873  15.742  -4.950  1.00 20.00     0.240 C 
HETATM   11  O11 UNL     1     -32.845  16.406  -5.030  1.00 20.00    -0.306 OA
ENDBRANCH   6  10
TORSDOF 1
ENDMDL
