MODEL 1
REMARK VINA RESULT:      -4.0      0.000      0.000
REMARK  4 active torsions:
REMARK  status: ('A' for Active; 'I' for Inactive)
REMARK    1  A    between atoms: C2_2  and  C6_6 
REMARK    2  A    between atoms: C2_2  and  C7_7 
REMARK    3  A    between atoms: C6_6  and  C8_8 
REMARK    4  A    between atoms: C7_7  and  O10_10 
ROOT
HETATM    1  C1  UNL     1     -34.421  13.606  -5.127  1.00 20.00     0.209 A 
HETATM    2  C2  UNL     1     -35.376  14.232  -4.139  1.00 20.00     0.104 A 
HETATM    3  O9  UNL     1     -35.183  12.812  -4.204  1.00 20.00    -0.373 OA
ENDROOT
BRANCH   2   4
HETATM    4  C6  UNL     1     -34.830  14.868  -2.866  1.00 20.00     0.051 C 
BRANCH   4   5
HETATM    5  C8  UNL     1     -34.576  16.395  -2.930  1.00 20.00    -0.049 C 
HETATM    6  C3  UNL     1     -33.847  16.817  -1.638  1.00 20.00     0.014 C 
HETATM    7  C4  UNL     1     -35.898  17.176  -3.022  1.00 20.00     0.014 C 
HETATM    8  C5  UNL     1     -33.688  16.761  -4.132  1.00 20.00     0.014 C 
ENDBRANCH   4   5
ENDBRANCH   2   4
BRANCH   2   9
HETATM    9  C7  UNL     1     -36.725  14.678  -4.601  1.00 20.00     0.204 C 
BRANCH   9  10
HETATM   10  O10 UNL     1     -37.728  14.159  -3.730  1.00 20.00    -0.398 OA
HETATM   11  H26 UNL     1     -37.427  13.279  -3.456  1.00 20.00     0.209 HD
ENDBRANCH   9  10
ENDBRANCH   2   9
TORSDOF 4
ENDMDL
MODEL 2
REMARK VINA RESULT:      -3.9      1.497      2.055
REMARK  4 active torsions:
REMARK  status: ('A' for Active; 'I' for Inactive)
REMARK    1  A    between atoms: C2_2  and  C6_6 
REMARK    2  A    between atoms: C2_2  and  C7_7 
REMARK    3  A    between atoms: C6_6  and  C8_8 
REMARK    4  A    between atoms: C7_7  and  O10_10 
ROOT
HETATM    1  C1  UNL     1     -36.289  15.230  -6.223  1.00 20.00     0.209 A 
HETATM    2  C2  UNL     1     -35.449  14.721  -5.076  1.00 20.00     0.104 A 
HETATM    3  O9  UNL     1     -34.920  15.627  -6.054  1.00 20.00    -0.373 OA
ENDROOT
BRANCH   2   4
HETATM    4  C6  UNL     1     -35.613  15.338  -3.692  1.00 20.00     0.051 C 
BRANCH   4   5
HETATM    5  C8  UNL     1     -34.384  16.108  -3.147  1.00 20.00    -0.049 C 
HETATM    6  C3  UNL     1     -34.535  16.235  -1.618  1.00 20.00     0.014 C 
HETATM    7  C4  UNL     1     -34.301  17.521  -3.748  1.00 20.00     0.014 C 
HETATM    8  C5  UNL     1     -33.077  15.353  -3.446  1.00 20.00     0.014 C 
ENDBRANCH   4   5
ENDBRANCH   2   4
BRANCH   2   9
HETATM    9  C7  UNL     1     -34.862  13.349  -5.147  1.00 20.00     0.204 C 
BRANCH   9  10
HETATM   10  O10 UNL     1     -35.353  12.558  -4.067  1.00 20.00    -0.398 OA
HETATM   11  H26 UNL     1     -36.310  12.712  -4.026  1.00 20.00     0.209 HD
ENDBRANCH   9  10
ENDBRANCH   2   9
TORSDOF 4
ENDMDL
MODEL 3
REMARK VINA RESULT:      -3.9      2.111      3.490
REMARK  4 active torsions:
REMARK  status: ('A' for Active; 'I' for Inactive)
REMARK    1  A    between atoms: C2_2  and  C6_6 
REMARK    2  A    between atoms: C2_2  and  C7_7 
REMARK    3  A    between atoms: C6_6  and  C8_8 
REMARK    4  A    between atoms: C7_7  and  O10_10 
ROOT
HETATM    1  C1  UNL     1     -35.595  13.529  -4.254  1.00 20.00     0.209 A 
HETATM    2  C2  UNL     1     -34.323  14.272  -4.588  1.00 20.00     0.104 A 
HETATM    3  O9  UNL     1     -34.394  12.840  -4.633  1.00 20.00    -0.373 OA
ENDROOT
BRANCH   2   4
HETATM    4  C6  UNL     1     -34.170  14.922  -5.957  1.00 20.00     0.051 C 
BRANCH   4   5
HETATM    5  C8  UNL     1     -34.611  16.404  -6.053  1.00 20.00    -0.049 C 
HETATM    6  C3  UNL     1     -34.828  16.747  -7.541  1.00 20.00     0.014 C 
HETATM    7  C4  UNL     1     -33.533  17.344  -5.488  1.00 20.00     0.014 C 
HETATM    8  C5  UNL     1     -35.932  16.641  -5.301  1.00 20.00     0.014 C 
ENDBRANCH   4   5
ENDBRANCH   2   4
BRANCH   2   9
HETATM    9  C7  UNL     1     -33.466  14.797  -3.482  1.00 20.00     0.204 C 
BRANCH   9  10
HETATM   10  O10 UNL     1     -32.090  14.614  -3.810  1.00 20.00    -0.398 OA
HETATM   11  H26 UNL     1     -32.021  14.714  -4.772  1.00 20.00     0.209 HD
ENDBRANCH   9  10
ENDBRANCH   2   9
TORSDOF 4
ENDMDL
MODEL 4
REMARK VINA RESULT:      -3.8      1.835      3.583
REMARK  4 active torsions:
REMARK  status: ('A' for Active; 'I' for Inactive)
REMARK    1  A    between atoms: C2_2  and  C6_6 
REMARK    2  A    between atoms: C2_2  and  C7_7 
REMARK    3  A    between atoms: C6_6  and  C8_8 
REMARK    4  A    between atoms: C7_7  and  O10_10 
ROOT
HETATM    1  C1  UNL     1     -37.174  15.518  -3.393  1.00 20.00     0.209 A 
HETATM    2  C2  UNL     1     -36.416  14.672  -4.389  1.00 20.00     0.104 A 
HETATM    3  O9  UNL     1     -37.633  14.215  -3.783  1.00 20.00    -0.373 OA
ENDROOT
BRANCH   2   4
HETATM    4  C6  UNL     1     -36.546  14.969  -5.878  1.00 20.00     0.051 C 
BRANCH   4   5
HETATM    5  C8  UNL     1     -35.436  15.863  -6.486  1.00 20.00    -0.049 C 
HETATM    6  C3  UNL     1     -36.077  16.763  -7.561  1.00 20.00     0.014 C 
HETATM    7  C4  UNL     1     -34.340  15.013  -7.153  1.00 20.00     0.014 C 
HETATM    8  C5  UNL     1     -34.796  16.763  -5.415  1.00 20.00     0.014 C 
ENDBRANCH   4   5
ENDBRANCH   2   4
BRANCH   2   9
HETATM    9  C7  UNL     1     -35.204  13.922  -3.944  1.00 20.00     0.204 C 
BRANCH   9  10
HETATM   10  O10 UNL     1     -35.359  12.536  -4.242  1.00 20.00    -0.398 OA
HETATM   11  H26 UNL     1     -35.731  12.123  -3.447  1.00 20.00     0.209 HD
ENDBRANCH   9  10
ENDBRANCH   2   9
TORSDOF 4
ENDMDL
MODEL 5
REMARK VINA RESULT:      -3.7      1.187      1.252
REMARK  4 active torsions:
REMARK  status: ('A' for Active; 'I' for Inactive)
REMARK    1  A    between atoms: C2_2  and  C6_6 
REMARK    2  A    between atoms: C2_2  and  C7_7 
REMARK    3  A    between atoms: C6_6  and  C8_8 
REMARK    4  A    between atoms: C7_7  and  O10_10 
ROOT
HETATM    1  C1  UNL     1     -33.706  13.288  -4.120  1.00 20.00     0.209 A 
HETATM    2  C2  UNL     1     -34.905  14.154  -4.426  1.00 20.00     0.104 A 
HETATM    3  O9  UNL     1     -35.018  12.731  -4.289  1.00 20.00    -0.373 OA
ENDROOT
BRANCH   2   4
HETATM    4  C6  UNL     1     -35.574  14.934  -3.301  1.00 20.00     0.051 C 
BRANCH   4   5
HETATM    5  C8  UNL     1     -34.938  16.305  -2.959  1.00 20.00    -0.049 C 
HETATM    6  C3  UNL     1     -34.670  16.346  -1.441  1.00 20.00     0.014 C 
HETATM    7  C4  UNL     1     -35.884  17.463  -3.319  1.00 20.00     0.014 C 
HETATM    8  C5  UNL     1     -33.601  16.497  -3.695  1.00 20.00     0.014 C 
ENDBRANCH   4   5
ENDBRANCH   2   4
BRANCH   2   9
HETATM    9  C7  UNL     1     -35.122  14.644  -5.821  1.00 20.00     0.204 C 
BRANCH   9  10
HETATM   10  O10 UNL     1     -36.491  14.998  -5.999  1.00 20.00    -0.398 OA
HETATM   11  H26 UNL     1     -36.501  15.919  -6.301  1.00 20.00     0.209 HD
ENDBRANCH   9  10
ENDBRANCH   2   9
TORSDOF 4
ENDMDL
MODEL 6
REMARK VINA RESULT:      -3.7      2.010      3.461
REMARK  4 active torsions:
REMARK  status: ('A' for Active; 'I' for Inactive)
REMARK    1  A    between atoms: C2_2  and  C6_6 
REMARK    2  A    between atoms: C2_2  and  C7_7 
REMARK    3  A    between atoms: C6_6  and  C8_8 
REMARK    4  A    between atoms: C7_7  and  O10_10 
ROOT
HETATM    1  C1  UNL     1     -33.730  15.906  -3.266  1.00 20.00     0.209 A 
HETATM    2  C2  UNL     1     -34.603  14.905  -3.985  1.00 20.00     0.104 A 
HETATM    3  O9  UNL     1     -34.782  15.199  -2.592  1.00 20.00    -0.373 OA
ENDROOT
BRANCH   2   4
HETATM    4  C6  UNL     1     -35.742  15.399  -4.868  1.00 20.00     0.051 C 
BRANCH   4   5
HETATM    5  C8  UNL     1     -35.378  15.672  -6.349  1.00 20.00    -0.049 C 
HETATM    6  C3  UNL     1     -36.373  16.709  -6.908  1.00 20.00     0.014 C 
HETATM    7  C4  UNL     1     -35.484  14.390  -7.193  1.00 20.00     0.014 C 
HETATM    8  C5  UNL     1     -33.956  16.244  -6.476  1.00 20.00     0.014 C 
ENDBRANCH   4   5
ENDBRANCH   2   4
BRANCH   2   9
HETATM    9  C7  UNL     1     -34.082  13.530  -4.247  1.00 20.00     0.204 C 
BRANCH   9  10
HETATM   10  O10 UNL     1     -35.147  12.586  -4.155  1.00 20.00    -0.398 OA
HETATM   11  H26 UNL     1     -35.838  12.889  -4.765  1.00 20.00     0.209 HD
ENDBRANCH   9  10
ENDBRANCH   2   9
TORSDOF 4
ENDMDL
MODEL 7
REMARK VINA RESULT:      -3.7      1.600      2.644
REMARK  4 active torsions:
REMARK  status: ('A' for Active; 'I' for Inactive)
REMARK    1  A    between atoms: C2_2  and  C6_6 
REMARK    2  A    between atoms: C2_2  and  C7_7 
REMARK    3  A    between atoms: C6_6  and  C8_8 
REMARK    4  A    between atoms: C7_7  and  O10_10 
ROOT
HETATM    1  C1  UNL     1     -33.303  15.734  -4.546  1.00 20.00     0.209 A 
HETATM    2  C2  UNL     1     -34.375  14.759  -4.119  1.00 20.00     0.104 A 
HETATM    3  O9  UNL     1     -33.074  14.763  -3.513  1.00 20.00    -0.373 OA
ENDROOT
BRANCH   2   4
HETATM    4  C6  UNL     1     -35.487  15.226  -3.187  1.00 20.00     0.051 C 
BRANCH   4   5
HETATM    5  C8  UNL     1     -36.739  15.823  -3.878  1.00 20.00    -0.049 C 
HETATM    6  C3  UNL     1     -37.185  17.064  -3.079  1.00 20.00     0.014 C 
HETATM    7  C4  UNL     1     -37.899  14.813  -3.896  1.00 20.00     0.014 C 
HETATM    8  C5  UNL     1     -36.425  16.258  -5.319  1.00 20.00     0.014 C 
ENDBRANCH   4   5
ENDBRANCH   2   4
BRANCH   2   9
HETATM    9  C7  UNL     1     -34.646  13.551  -4.954  1.00 20.00     0.204 C 
BRANCH   9  10
HETATM   10  O10 UNL     1     -35.288  12.553  -4.164  1.00 20.00    -0.398 OA
HETATM   11  H26 UNL     1     -35.325  11.751  -4.709  1.00 20.00     0.209 HD
ENDBRANCH   9  10
ENDBRANCH   2   9
TORSDOF 4
ENDMDL
MODEL 8
REMARK VINA RESULT:      -3.6      2.613      3.369
REMARK  4 active torsions:
REMARK  status: ('A' for Active; 'I' for Inactive)
REMARK    1  A    between atoms: C2_2  and  C6_6 
REMARK    2  A    between atoms: C2_2  and  C7_7 
REMARK    3  A    between atoms: C6_6  and  C8_8 
REMARK    4  A    between atoms: C7_7  and  O10_10 
ROOT
HETATM    1  C1  UNL     1     -34.294  16.547  -5.441  1.00 20.00     0.209 A 
HETATM    2  C2  UNL     1     -33.615  16.165  -4.148  1.00 20.00     0.104 A 
HETATM    3  O9  UNL     1     -32.886  16.740  -5.240  1.00 20.00    -0.373 OA
ENDROOT
BRANCH   2   4
HETATM    4  C6  UNL     1     -33.734  17.083  -2.937  1.00 20.00     0.051 C 
BRANCH   4   5
HETATM    5  C8  UNL     1     -35.024  16.925  -2.095  1.00 20.00    -0.049 C 
HETATM    6  C3  UNL     1     -35.852  18.219  -2.234  1.00 20.00     0.014 C 
HETATM    7  C4  UNL     1     -34.696  16.714  -0.607  1.00 20.00     0.014 C 
HETATM    8  C5  UNL     1     -35.876  15.747  -2.596  1.00 20.00     0.014 C 
ENDBRANCH   4   5
ENDBRANCH   2   4
BRANCH   2   9
HETATM    9  C7  UNL     1     -33.280  14.732  -3.888  1.00 20.00     0.204 C 
BRANCH   9  10
HETATM   10  O10 UNL     1     -31.878  14.599  -3.662  1.00 20.00    -0.398 OA
HETATM   11  H26 UNL     1     -31.437  15.119  -4.351  1.00 20.00     0.209 HD
ENDBRANCH   9  10
ENDBRANCH   2   9
TORSDOF 4
ENDMDL
MODEL 9
REMARK VINA RESULT:      -3.6      2.035      3.365
REMARK  4 active torsions:
REMARK  status: ('A' for Active; 'I' for Inactive)
REMARK    1  A    between atoms: C2_2  and  C6_6 
REMARK    2  A    between atoms: C2_2  and  C7_7 
REMARK    3  A    between atoms: C6_6  and  C8_8 
REMARK    4  A    between atoms: C7_7  and  O10_10 
ROOT
HETATM    1  C1  UNL     1     -33.600  15.852  -3.399  1.00 20.00     0.209 A 
HETATM    2  C2  UNL     1     -34.552  14.919  -4.107  1.00 20.00     0.104 A 
HETATM    3  O9  UNL     1     -34.642  15.160  -2.696  1.00 20.00    -0.373 OA
ENDROOT
BRANCH   2   4
HETATM    4  C6  UNL     1     -35.717  15.496  -4.904  1.00 20.00     0.051 C 
BRANCH   4   5
HETATM    5  C8  UNL     1     -35.450  15.734  -6.411  1.00 20.00    -0.049 C 
HETATM    6  C3  UNL     1     -34.036  16.330  -6.562  1.00 20.00     0.014 C 
HETATM    7  C4  UNL     1     -36.464  16.726  -7.006  1.00 20.00     0.014 C 
HETATM    8  C5  UNL     1     -35.509  14.415  -7.202  1.00 20.00     0.014 C 
ENDBRANCH   4   5
ENDBRANCH   2   4
BRANCH   2   9
HETATM    9  C7  UNL     1     -34.106  13.536  -4.454  1.00 20.00     0.204 C 
BRANCH   9  10
HETATM   10  O10 UNL     1     -35.141  12.604  -4.148  1.00 20.00    -0.398 OA
HETATM   11  H26 UNL     1     -34.724  11.881  -3.656  1.00 20.00     0.209 HD
ENDBRANCH   9  10
ENDBRANCH   2   9
TORSDOF 4
ENDMDL
