MODEL 1
REMARK VINA RESULT:      -4.8      0.000      0.000
REMARK  0 active torsions:
REMARK  status: ('A' for Active; 'I' for Inactive)
ROOT
HETATM    1  C1  UNL     1     -40.734   5.916  -0.520  1.00 20.00    -0.002 A 
HETATM    2  C2  UNL     1     -41.169   6.978  -1.382  1.00 20.00     0.010 A 
HETATM    3  C3  UNL     1     -41.161   4.660  -0.687  1.00 20.00    -0.010 A 
HETATM    4  C4  UNL     1     -42.020   6.801  -2.402  1.00 20.00    -0.015 A 
HETATM    5  C5  UNL     1     -42.555   5.427  -2.669  1.00 20.00     0.166 A 
HETATM    6  C6  UNL     1     -42.122   4.246  -1.773  1.00 20.00     0.035 A 
HETATM    7  C7  UNL     1     -42.472   7.911  -3.297  1.00 20.00     0.052 C 
HETATM    8  C8  UNL     1     -41.443   3.197  -2.666  1.00 20.00     0.027 C 
HETATM    9  C9  UNL     1     -43.381   3.652  -1.126  1.00 20.00     0.027 C 
HETATM   10  O10 UNL     1     -43.339   5.258  -3.605  1.00 20.00    -0.292 OA
ENDROOT
TORSDOF 0
ENDMDL
MODEL 2
REMARK VINA RESULT:      -4.6      8.904     10.480
REMARK  0 active torsions:
REMARK  status: ('A' for Active; 'I' for Inactive)
ROOT
HETATM    1  C1  UNL     1     -35.040   4.083   5.847  1.00 20.00    -0.002 A 
HETATM    2  C2  UNL     1     -34.386   5.132   6.577  1.00 20.00     0.010 A 
HETATM    3  C3  UNL     1     -35.272   4.184   4.534  1.00 20.00    -0.010 A 
HETATM    4  C4  UNL     1     -33.966   6.272   6.015  1.00 20.00    -0.015 A 
HETATM    5  C5  UNL     1     -34.181   6.480   4.547  1.00 20.00     0.166 A 
HETATM    6  C6  UNL     1     -34.880   5.386   3.711  1.00 20.00     0.035 A 
HETATM    7  C7  UNL     1     -33.286   7.363   6.781  1.00 20.00     0.052 C 
HETATM    8  C8  UNL     1     -33.909   4.938   2.608  1.00 20.00     0.027 C 
HETATM    9  C9  UNL     1     -36.142   5.997   3.085  1.00 20.00     0.027 C 
HETATM   10  O10 UNL     1     -33.797   7.528   4.024  1.00 20.00    -0.292 OA
ENDROOT
TORSDOF 0
ENDMDL
MODEL 3
REMARK VINA RESULT:      -4.6     11.911     12.908
REMARK  0 active torsions:
REMARK  status: ('A' for Active; 'I' for Inactive)
ROOT
HETATM    1  C1  UNL     1     -33.414  16.799  -5.419  1.00 20.00    -0.002 A 
HETATM    2  C2  UNL     1     -34.089  16.176  -6.522  1.00 20.00     0.010 A 
HETATM    3  C3  UNL     1     -33.320  16.199  -4.228  1.00 20.00    -0.010 A 
HETATM    4  C4  UNL     1     -34.667  14.970  -6.449  1.00 20.00    -0.015 A 
HETATM    5  C5  UNL     1     -34.615  14.217  -5.155  1.00 20.00     0.166 A 
HETATM    6  C6  UNL     1     -33.902  14.839  -3.934  1.00 20.00     0.035 A 
HETATM    7  C7  UNL     1     -35.370  14.325  -7.602  1.00 20.00     0.052 C 
HETATM    8  C8  UNL     1     -32.768  13.892  -3.512  1.00 20.00     0.027 C 
HETATM    9  C9  UNL     1     -34.928  14.970  -2.799  1.00 20.00     0.027 C 
HETATM   10  O10 UNL     1     -35.145  13.107  -5.081  1.00 20.00    -0.292 OA
ENDROOT
TORSDOF 0
ENDMDL
MODEL 4
REMARK VINA RESULT:      -4.6     11.569     13.152
REMARK  0 active torsions:
REMARK  status: ('A' for Active; 'I' for Inactive)
ROOT
HETATM    1  C1  UNL     1     -35.019  13.270  -4.884  1.00 20.00    -0.002 A 
HETATM    2  C2  UNL     1     -35.088  14.077  -6.070  1.00 20.00     0.010 A 
HETATM    3  C3  UNL     1     -34.369  13.684  -3.793  1.00 20.00    -0.010 A 
HETATM    4  C4  UNL     1     -34.517  15.284  -6.176  1.00 20.00    -0.015 A 
HETATM    5  C5  UNL     1     -33.764  15.835  -5.004  1.00 20.00     0.166 A 
HETATM    6  C6  UNL     1     -33.657  15.011  -3.703  1.00 20.00     0.035 A 
HETATM    7  C7  UNL     1     -34.591  16.121  -7.414  1.00 20.00     0.052 C 
HETATM    8  C8  UNL     1     -34.279  15.834  -2.566  1.00 20.00     0.027 C 
HETATM    9  C9  UNL     1     -32.169  14.761  -3.418  1.00 20.00     0.027 C 
HETATM   10  O10 UNL     1     -33.236  16.945  -5.096  1.00 20.00    -0.292 OA
ENDROOT
TORSDOF 0
ENDMDL
MODEL 5
REMARK VINA RESULT:      -4.5     11.019     12.735
REMARK  0 active torsions:
REMARK  status: ('A' for Active; 'I' for Inactive)
ROOT
HETATM    1  C1  UNL     1     -34.035  13.688  -3.977  1.00 20.00    -0.002 A 
HETATM    2  C2  UNL     1     -35.463  13.643  -4.116  1.00 20.00     0.010 A 
HETATM    3  C3  UNL     1     -33.400  14.815  -3.640  1.00 20.00    -0.010 A 
HETATM    4  C4  UNL     1     -36.258  14.704  -3.925  1.00 20.00    -0.015 A 
HETATM    5  C5  UNL     1     -35.639  16.015  -3.545  1.00 20.00     0.166 A 
HETATM    6  C6  UNL     1     -34.107  16.122  -3.381  1.00 20.00     0.035 A 
HETATM    7  C7  UNL     1     -37.746  14.653  -4.072  1.00 20.00     0.052 C 
HETATM    8  C8  UNL     1     -33.813  16.571  -1.943  1.00 20.00     0.027 C 
HETATM    9  C9  UNL     1     -33.594  17.173  -4.376  1.00 20.00     0.027 C 
HETATM   10  O10 UNL     1     -36.365  16.995  -3.368  1.00 20.00    -0.292 OA
ENDROOT
TORSDOF 0
ENDMDL
MODEL 6
REMARK VINA RESULT:      -4.4     11.686     12.737
REMARK  0 active torsions:
REMARK  status: ('A' for Active; 'I' for Inactive)
ROOT
HETATM    1  C1  UNL     1     -34.451  13.271  -4.666  1.00 20.00    -0.002 A 
HETATM    2  C2  UNL     1     -34.361  13.987  -3.424  1.00 20.00     0.010 A 
HETATM    3  C3  UNL     1     -34.865  13.867  -5.789  1.00 20.00    -0.010 A 
HETATM    4  C4  UNL     1     -34.679  15.282  -3.294  1.00 20.00    -0.015 A 
HETATM    5  C5  UNL     1     -35.154  16.037  -4.497  1.00 20.00     0.166 A 
HETATM    6  C6  UNL     1     -35.270  15.318  -5.859  1.00 20.00     0.035 A 
HETATM    7  C7  UNL     1     -34.584  16.023  -1.997  1.00 20.00     0.052 C 
HETATM    8  C8  UNL     1     -34.358  16.043  -6.858  1.00 20.00     0.027 C 
HETATM    9  C9  UNL     1     -36.732  15.406  -6.321  1.00 20.00     0.027 C 
HETATM   10  O10 UNL     1     -35.448  17.229  -4.382  1.00 20.00    -0.292 OA
ENDROOT
TORSDOF 0
ENDMDL
MODEL 7
REMARK VINA RESULT:      -4.4      0.846      3.111
REMARK  0 active torsions:
REMARK  status: ('A' for Active; 'I' for Inactive)
ROOT
HETATM    1  C1  UNL     1     -40.461   5.503  -0.447  1.00 20.00    -0.002 A 
HETATM    2  C2  UNL     1     -40.789   4.265  -1.095  1.00 20.00     0.010 A 
HETATM    3  C3  UNL     1     -41.063   6.648  -0.780  1.00 20.00    -0.010 A 
HETATM    4  C4  UNL     1     -41.705   4.160  -2.068  1.00 20.00    -0.015 A 
HETATM    5  C5  UNL     1     -42.434   5.391  -2.513  1.00 20.00     0.166 A 
HETATM    6  C6  UNL     1     -42.122   6.750  -1.850  1.00 20.00     0.035 A 
HETATM    7  C7  UNL     1     -42.042   2.867  -2.741  1.00 20.00     0.052 C 
HETATM    8  C8  UNL     1     -43.417   7.281  -1.219  1.00 20.00     0.027 C 
HETATM    9  C9  UNL     1     -41.636   7.713  -2.943  1.00 20.00     0.027 C 
HETATM   10  O10 UNL     1     -43.277   5.301  -3.407  1.00 20.00    -0.292 OA
ENDROOT
TORSDOF 0
ENDMDL
MODEL 8
REMARK VINA RESULT:      -4.3     11.745     13.359
REMARK  0 active torsions:
REMARK  status: ('A' for Active; 'I' for Inactive)
ROOT
HETATM    1  C1  UNL     1     -34.736  14.791  -7.042  1.00 20.00    -0.002 A 
HETATM    2  C2  UNL     1     -34.305  16.159  -6.991  1.00 20.00     0.010 A 
HETATM    3  C3  UNL     1     -34.901  14.067  -5.931  1.00 20.00    -0.010 A 
HETATM    4  C4  UNL     1     -34.037  16.807  -5.849  1.00 20.00    -0.015 A 
HETATM    5  C5  UNL     1     -34.192  16.079  -4.549  1.00 20.00     0.166 A 
HETATM    6  C6  UNL     1     -34.653  14.605  -4.544  1.00 20.00     0.035 A 
HETATM    7  C7  UNL     1     -33.587  18.233  -5.800  1.00 20.00     0.052 C 
HETATM    8  C8  UNL     1     -35.956  14.517  -3.735  1.00 20.00     0.027 C 
HETATM    9  C9  UNL     1     -33.559  13.766  -3.870  1.00 20.00     0.027 C 
HETATM   10  O10 UNL     1     -33.948  16.670  -3.495  1.00 20.00    -0.292 OA
ENDROOT
TORSDOF 0
ENDMDL
MODEL 9
REMARK VINA RESULT:      -4.3     11.972     13.375
REMARK  0 active torsions:
REMARK  status: ('A' for Active; 'I' for Inactive)
ROOT
HETATM    1  C1  UNL     1     -34.128  16.838  -2.172  1.00 20.00    -0.002 A 
HETATM    2  C2  UNL     1     -33.839  17.713  -3.272  1.00 20.00     0.010 A 
HETATM    3  C3  UNL     1     -34.428  15.549  -2.363  1.00 20.00    -0.010 A 
HETATM    4  C4  UNL     1     -33.847  17.318  -4.552  1.00 20.00    -0.015 A 
HETATM    5  C5  UNL     1     -34.173  15.890  -4.869  1.00 20.00     0.166 A 
HETATM    6  C6  UNL     1     -34.493  14.904  -3.724  1.00 20.00     0.035 A 
HETATM    7  C7  UNL     1     -33.546  18.234  -5.696  1.00 20.00     0.052 C 
HETATM    8  C8  UNL     1     -33.470  13.760  -3.783  1.00 20.00     0.027 C 
HETATM    9  C9  UNL     1     -35.909  14.355  -3.950  1.00 20.00     0.027 C 
HETATM   10  O10 UNL     1     -34.183  15.521  -6.044  1.00 20.00    -0.292 OA
ENDROOT
TORSDOF 0
ENDMDL
