MODEL 1
REMARK VINA RESULT:      -3.9      0.000      0.000
REMARK  0 active torsions:
REMARK  status: ('A' for Active; 'I' for Inactive)
ROOT
HETATM    1  C1  UNL     1     -35.189   4.995   6.043  1.00 20.00     0.028 C 
HETATM    2  C2  UNL     1     -35.091   4.316   4.677  1.00 20.00     0.017 C 
HETATM    3  C3  UNL     1     -33.930   5.796   6.355  1.00 20.00     0.188 C 
HETATM    4  C4  UNL     1     -34.758   5.318   3.581  1.00 20.00     0.140 C 
HETATM    5  O5  UNL     1     -33.022   7.266   2.955  1.00 20.00    -0.229 OA
HETATM    6  O6  UNL     1     -33.681   6.754   5.326  1.00 20.00    -0.296 OA
HETATM    7  S7  UNL     1     -33.165   6.133   3.928  1.00 20.00     0.152 S 
ENDROOT
TORSDOF 0
ENDMDL
MODEL 2
REMARK VINA RESULT:      -3.8      1.169      1.980
REMARK  0 active torsions:
REMARK  status: ('A' for Active; 'I' for Inactive)
ROOT
HETATM    1  C1  UNL     1     -34.970   4.537   5.964  1.00 20.00     0.028 C 
HETATM    2  C2  UNL     1     -34.480   5.906   6.436  1.00 20.00     0.017 C 
HETATM    3  C3  UNL     1     -35.358   4.566   4.490  1.00 20.00     0.188 C 
HETATM    4  C4  UNL     1     -33.356   6.429   5.553  1.00 20.00     0.140 C 
HETATM    5  O5  UNL     1     -32.718   6.868   2.985  1.00 20.00    -0.229 OA
HETATM    6  O6  UNL     1     -34.262   5.018   3.695  1.00 20.00    -0.296 OA
HETATM    7  S7  UNL     1     -33.926   6.590   3.830  1.00 20.00     0.152 S 
ENDROOT
TORSDOF 0
ENDMDL
MODEL 3
REMARK VINA RESULT:      -3.6      1.869      2.239
REMARK  0 active torsions:
REMARK  status: ('A' for Active; 'I' for Inactive)
ROOT
HETATM    1  C1  UNL     1     -34.322   5.064   6.648  1.00 20.00     0.028 C 
HETATM    2  C2  UNL     1     -34.064   6.440   6.036  1.00 20.00     0.017 C 
HETATM    3  C3  UNL     1     -35.289   4.251   5.795  1.00 20.00     0.188 C 
HETATM    4  C4  UNL     1     -33.604   6.328   4.590  1.00 20.00     0.140 C 
HETATM    5  O5  UNL     1     -34.254   5.192   2.248  1.00 20.00    -0.229 OA
HETATM    6  O6  UNL     1     -34.797   4.131   4.461  1.00 20.00    -0.296 OA
HETATM    7  S7  UNL     1     -34.869   5.485   3.585  1.00 20.00     0.152 S 
ENDROOT
TORSDOF 0
ENDMDL
MODEL 4
REMARK VINA RESULT:      -3.5     12.177     12.454
REMARK  0 active torsions:
REMARK  status: ('A' for Active; 'I' for Inactive)
ROOT
HETATM    1  C1  UNL     1     -34.699  15.962  -2.375  1.00 20.00     0.028 C 
HETATM    2  C2  UNL     1     -33.413  15.703  -3.159  1.00 20.00     0.017 C 
HETATM    3  C3  UNL     1     -35.931  15.596  -3.194  1.00 20.00     0.188 C 
HETATM    4  C4  UNL     1     -33.358  14.273  -3.678  1.00 20.00     0.140 C 
HETATM    5  O5  UNL     1     -34.790  12.466  -5.049  1.00 20.00    -0.229 OA
HETATM    6  O6  UNL     1     -35.860  14.236  -3.621  1.00 20.00    -0.296 OA
HETATM    7  S7  UNL     1     -34.773  13.942  -4.777  1.00 20.00     0.152 S 
ENDROOT
TORSDOF 0
ENDMDL
MODEL 5
REMARK VINA RESULT:      -3.5     12.887     13.491
REMARK  0 active torsions:
REMARK  status: ('A' for Active; 'I' for Inactive)
ROOT
HETATM    1  C1  UNL     1     -33.240  16.500  -5.241  1.00 20.00     0.028 C 
HETATM    2  C2  UNL     1     -34.386  16.084  -6.161  1.00 20.00     0.017 C 
HETATM    3  C3  UNL     1     -33.461  15.998  -3.818  1.00 20.00     0.188 C 
HETATM    4  C4  UNL     1     -34.624  14.581  -6.109  1.00 20.00     0.140 C 
HETATM    5  O5  UNL     1     -35.015  12.563  -4.386  1.00 20.00    -0.229 OA
HETATM    6  O6  UNL     1     -33.633  14.581  -3.810  1.00 20.00    -0.296 OA
HETATM    7  S7  UNL     1     -35.038  14.063  -4.412  1.00 20.00     0.152 S 
ENDROOT
TORSDOF 0
ENDMDL
MODEL 6
REMARK VINA RESULT:      -3.5     12.031     13.077
REMARK  0 active torsions:
REMARK  status: ('A' for Active; 'I' for Inactive)
ROOT
HETATM    1  C1  UNL     1     -33.765  17.015  -3.853  1.00 20.00     0.028 C 
HETATM    2  C2  UNL     1     -33.965  16.240  -2.552  1.00 20.00     0.017 C 
HETATM    3  C3  UNL     1     -33.182  16.125  -4.945  1.00 20.00     0.188 C 
HETATM    4  C4  UNL     1     -34.794  14.983  -2.776  1.00 20.00     0.140 C 
HETATM    5  O5  UNL     1     -34.945  12.801  -4.328  1.00 20.00    -0.229 OA
HETATM    6  O6  UNL     1     -34.014  14.984  -5.154  1.00 20.00    -0.296 OA
HETATM    7  S7  UNL     1     -33.970  13.884  -3.973  1.00 20.00     0.152 S 
ENDROOT
TORSDOF 0
ENDMDL
MODEL 7
REMARK VINA RESULT:      -3.4      2.101      2.390
REMARK  0 active torsions:
REMARK  status: ('A' for Active; 'I' for Inactive)
ROOT
HETATM    1  C1  UNL     1     -35.316   4.502   4.353  1.00 20.00     0.028 C 
HETATM    2  C2  UNL     1     -34.266   5.413   3.721  1.00 20.00     0.017 C 
HETATM    3  C3  UNL     1     -35.009   4.239   5.823  1.00 20.00     0.188 C 
HETATM    4  C4  UNL     1     -34.097   6.701   4.514  1.00 20.00     0.140 C 
HETATM    5  O5  UNL     1     -33.669   7.608   7.002  1.00 20.00    -0.229 OA
HETATM    6  O6  UNL     1     -34.905   5.470   6.538  1.00 20.00    -0.296 OA
HETATM    7  S7  UNL     1     -33.577   6.331   6.221  1.00 20.00     0.152 S 
ENDROOT
TORSDOF 0
ENDMDL
MODEL 8
REMARK VINA RESULT:      -3.4     12.283     12.622
REMARK  0 active torsions:
REMARK  status: ('A' for Active; 'I' for Inactive)
ROOT
HETATM    1  C1  UNL     1     -33.647  15.006  -3.363  1.00 20.00     0.028 C 
HETATM    2  C2  UNL     1     -34.027  14.036  -4.481  1.00 20.00     0.017 C 
HETATM    3  C3  UNL     1     -34.709  16.084  -3.179  1.00 20.00     0.188 C 
HETATM    4  C4  UNL     1     -35.413  13.448  -4.259  1.00 20.00     0.140 C 
HETATM    5  O5  UNL     1     -37.949  14.154  -3.741  1.00 20.00    -0.229 OA
HETATM    6  O6  UNL     1     -35.983  15.490  -2.927  1.00 20.00    -0.296 OA
HETATM    7  S7  UNL     1     -36.663  14.773  -4.203  1.00 20.00     0.152 S 
ENDROOT
TORSDOF 0
ENDMDL
MODEL 9
REMARK VINA RESULT:      -3.3      9.379     10.034
REMARK  0 active torsions:
REMARK  status: ('A' for Active; 'I' for Inactive)
ROOT
HETATM    1  C1  UNL     1     -41.200   7.228  -0.927  1.00 20.00     0.028 C 
HETATM    2  C2  UNL     1     -42.496   6.970  -1.694  1.00 20.00     0.017 C 
HETATM    3  C3  UNL     1     -40.702   5.962  -0.239  1.00 20.00     0.188 C 
HETATM    4  C4  UNL     1     -42.344   5.807  -2.664  1.00 20.00     0.140 C 
HETATM    5  O5  UNL     1     -41.530   3.254  -2.792  1.00 20.00    -0.229 OA
HETATM    6  O6  UNL     1     -40.530   4.913  -1.191  1.00 20.00    -0.296 OA
HETATM    7  S7  UNL     1     -41.900   4.285  -1.767  1.00 20.00     0.152 S 
ENDROOT
TORSDOF 0
ENDMDL
