MODEL 1
REMARK VINA RESULT:      -3.5      0.000      0.000
REMARK  1 active torsions:
REMARK  status: ('A' for Active; 'I' for Inactive)
REMARK    1  A    between atoms: C3_3  and  C5_5 
ROOT
HETATM    1  C1  UNL     1     -35.672  13.919  -4.363  1.00 20.00     0.179 C 
HETATM    2  C2  UNL     1     -33.664  13.586  -4.022  1.00 20.00     0.179 C 
HETATM    3  C3  UNL     1     -34.511  14.872  -4.025  1.00 20.00     0.011 C 
HETATM    4  C4  UNL     1     -34.633  15.537  -2.660  1.00 20.00     0.020 C 
HETATM    5  O6  UNL     1     -34.852  12.759  -4.084  1.00 20.00    -0.389 OA
ENDROOT
BRANCH   3   6
HETATM    6  C5  UNL     1     -34.159  15.865  -5.126  1.00 20.00     0.128 C 
HETATM    7 CL7  UNL     1     -34.284  15.089  -6.717  1.00 20.00    -0.130 Cl
ENDBRANCH   3   6
TORSDOF 1
ENDMDL
MODEL 2
REMARK VINA RESULT:      -3.4      1.890      2.524
REMARK  1 active torsions:
REMARK  status: ('A' for Active; 'I' for Inactive)
REMARK    1  A    between atoms: C3_3  and  C5_5 
ROOT
HETATM    1  C1  UNL     1     -33.787  13.525  -4.221  1.00 20.00     0.179 C 
HETATM    2  C2  UNL     1     -35.797  13.979  -4.327  1.00 20.00     0.179 C 
HETATM    3  C3  UNL     1     -34.537  14.772  -4.724  1.00 20.00     0.011 C 
HETATM    4  C4  UNL     1     -34.404  15.011  -6.223  1.00 20.00     0.020 C 
HETATM    5  O6  UNL     1     -35.021  12.774  -4.123  1.00 20.00    -0.389 OA
ENDROOT
BRANCH   3   6
HETATM    6  C5  UNL     1     -34.294  16.035  -3.910  1.00 20.00     0.128 C 
HETATM    7 CL7  UNL     1     -34.674  15.748  -2.201  1.00 20.00    -0.130 Cl
ENDBRANCH   3   6
TORSDOF 1
ENDMDL
MODEL 3
REMARK VINA RESULT:      -3.4     12.693     13.312
REMARK  1 active torsions:
REMARK  status: ('A' for Active; 'I' for Inactive)
REMARK    1  A    between atoms: C3_3  and  C5_5 
ROOT
HETATM    1  C1  UNL     1     -35.544   5.454   4.097  1.00 20.00     0.179 C 
HETATM    2  C2  UNL     1     -33.490   5.643   4.192  1.00 20.00     0.179 C 
HETATM    3  C3  UNL     1     -34.524   5.092   5.193  1.00 20.00     0.011 C 
HETATM    4  C4  UNL     1     -34.399   3.596   5.451  1.00 20.00     0.020 C 
HETATM    5  O6  UNL     1     -34.486   5.705   3.141  1.00 20.00    -0.389 OA
ENDROOT
BRANCH   3   6
HETATM    6  C5  UNL     1     -34.658   5.895   6.479  1.00 20.00     0.128 C 
HETATM    7 CL7  UNL     1     -33.373   7.115   6.579  1.00 20.00    -0.130 Cl
ENDBRANCH   3   6
TORSDOF 1
ENDMDL
MODEL 4
REMARK VINA RESULT:      -3.3     12.277     12.838
REMARK  1 active torsions:
REMARK  status: ('A' for Active; 'I' for Inactive)
REMARK    1  A    between atoms: C3_3  and  C5_5 
ROOT
HETATM    1  C1  UNL     1     -34.610   4.277   5.286  1.00 20.00     0.179 C 
HETATM    2  C2  UNL     1     -34.223   6.279   5.610  1.00 20.00     0.179 C 
HETATM    3  C3  UNL     1     -34.528   5.480   4.328  1.00 20.00     0.011 C 
HETATM    4  C4  UNL     1     -35.856   5.841   3.675  1.00 20.00     0.020 C 
HETATM    5  O6  UNL     1     -34.573   5.147   6.443  1.00 20.00    -0.389 OA
ENDROOT
BRANCH   3   6
HETATM    6  C5  UNL     1     -33.384   5.421   3.326  1.00 20.00     0.128 C 
HETATM    7 CL7  UNL     1     -32.331   6.837   3.509  1.00 20.00    -0.130 Cl
ENDBRANCH   3   6
TORSDOF 1
ENDMDL
MODEL 5
REMARK VINA RESULT:      -3.3     12.589     13.117
REMARK  1 active torsions:
REMARK  status: ('A' for Active; 'I' for Inactive)
REMARK    1  A    between atoms: C3_3  and  C5_5 
ROOT
HETATM    1  C1  UNL     1     -35.495   5.099   4.583  1.00 20.00     0.179 C 
HETATM    2  C2  UNL     1     -33.969   4.032   5.474  1.00 20.00     0.179 C 
HETATM    3  C3  UNL     1     -34.155   5.537   5.203  1.00 20.00     0.011 C 
HETATM    4  C4  UNL     1     -34.303   6.380   6.463  1.00 20.00     0.020 C 
HETATM    5  O6  UNL     1     -35.344   3.758   5.108  1.00 20.00    -0.389 OA
ENDROOT
BRANCH   3   6
HETATM    6  C5  UNL     1     -33.161   6.135   4.216  1.00 20.00     0.128 C 
HETATM    7 CL7  UNL     1     -33.540   5.607   2.565  1.00 20.00    -0.130 Cl
ENDBRANCH   3   6
TORSDOF 1
ENDMDL
MODEL 6
REMARK VINA RESULT:      -3.3      2.223      2.789
REMARK  1 active torsions:
REMARK  status: ('A' for Active; 'I' for Inactive)
REMARK    1  A    between atoms: C3_3  and  C5_5 
ROOT
HETATM    1  C1  UNL     1     -33.038  15.106  -3.742  1.00 20.00     0.179 C 
HETATM    2  C2  UNL     1     -34.109  16.749  -4.388  1.00 20.00     0.179 C 
HETATM    3  C3  UNL     1     -34.388  15.697  -3.297  1.00 20.00     0.011 C 
HETATM    4  C4  UNL     1     -34.381  16.258  -1.880  1.00 20.00     0.020 C 
HETATM    5  O6  UNL     1     -32.751  16.272  -4.552  1.00 20.00    -0.389 OA
ENDROOT
BRANCH   3   6
HETATM    6  C5  UNL     1     -35.594  14.806  -3.563  1.00 20.00     0.128 C 
HETATM    7 CL7  UNL     1     -35.068  13.236  -4.202  1.00 20.00    -0.130 Cl
ENDBRANCH   3   6
TORSDOF 1
ENDMDL
MODEL 7
REMARK VINA RESULT:      -3.2      2.634      3.141
REMARK  1 active torsions:
REMARK  status: ('A' for Active; 'I' for Inactive)
REMARK    1  A    between atoms: C3_3  and  C5_5 
ROOT
HETATM    1  C1  UNL     1     -34.116  16.017  -5.143  1.00 20.00     0.179 C 
HETATM    2  C2  UNL     1     -32.886  15.359  -3.622  1.00 20.00     0.179 C 
HETATM    3  C3  UNL     1     -34.316  14.966  -4.036  1.00 20.00     0.011 C 
HETATM    4  C4  UNL     1     -34.441  13.538  -4.554  1.00 20.00     0.020 C 
HETATM    5  O6  UNL     1     -32.705  16.127  -4.837  1.00 20.00    -0.389 OA
ENDROOT
BRANCH   3   6
HETATM    6  C5  UNL     1     -35.394  15.310  -3.016  1.00 20.00     0.128 C 
HETATM    7 CL7  UNL     1     -34.674  16.122  -1.612  1.00 20.00    -0.130 Cl
ENDBRANCH   3   6
TORSDOF 1
ENDMDL
MODEL 8
REMARK VINA RESULT:      -3.1      1.944      2.473
REMARK  1 active torsions:
REMARK  status: ('A' for Active; 'I' for Inactive)
REMARK    1  A    between atoms: C3_3  and  C5_5 
ROOT
HETATM    1  C1  UNL     1     -33.454  14.537  -3.818  1.00 20.00     0.179 C 
HETATM    2  C2  UNL     1     -34.839  13.228  -4.612  1.00 20.00     0.179 C 
HETATM    3  C3  UNL     1     -34.672  14.754  -4.735  1.00 20.00     0.011 C 
HETATM    4  C4  UNL     1     -34.312  15.226  -6.139  1.00 20.00     0.020 C 
HETATM    5  O6  UNL     1     -33.544  13.100  -3.974  1.00 20.00    -0.389 OA
ENDROOT
BRANCH   3   6
HETATM    6  C5  UNL     1     -35.798  15.572  -4.118  1.00 20.00     0.128 C 
HETATM    7 CL7  UNL     1     -37.248  14.568  -3.917  1.00 20.00    -0.130 Cl
ENDBRANCH   3   6
TORSDOF 1
ENDMDL
MODEL 9
REMARK VINA RESULT:      -3.1     12.374     12.903
REMARK  1 active torsions:
REMARK  status: ('A' for Active; 'I' for Inactive)
REMARK    1  A    between atoms: C3_3  and  C5_5 
ROOT
HETATM    1  C1  UNL     1     -33.812   6.431   4.658  1.00 20.00     0.179 C 
HETATM    2  C2  UNL     1     -33.612   5.368   2.900  1.00 20.00     0.179 C 
HETATM    3  C3  UNL     1     -34.722   5.399   3.968  1.00 20.00     0.011 C 
HETATM    4  C4  UNL     1     -36.043   5.973   3.471  1.00 20.00     0.020 C 
HETATM    5  O6  UNL     1     -32.962   6.520   3.489  1.00 20.00    -0.389 OA
ENDROOT
BRANCH   3   6
HETATM    6  C5  UNL     1     -34.907   4.096   4.736  1.00 20.00     0.128 C 
HETATM    7 CL7  UNL     1     -35.124   4.427   6.465  1.00 20.00    -0.130 Cl
ENDBRANCH   3   6
TORSDOF 1
ENDMDL
