MODEL 1
REMARK VINA RESULT:      -5.1      0.000      0.000
REMARK  1 active torsions:
REMARK  status: ('A' for Active; 'I' for Inactive)
REMARK    1  A    between atoms: C3_3  and  C7_7 
ROOT
HETATM    1  C1  UNL     1     -33.851  17.524  -3.167  1.00 20.00    -0.082 C 
HETATM    2  C2  UNL     1     -34.286  16.508  -2.389  1.00 20.00    -0.081 C 
HETATM    3  C4  UNL     1     -33.530  17.332  -4.634  1.00 20.00     0.035 C 
HETATM    4  C5  UNL     1     -34.535  15.117  -2.945  1.00 20.00     0.050 C 
HETATM    5  C6  UNL     1     -33.473  15.872  -5.085  1.00 20.00     0.021 C 
HETATM    6  C7  UNL     1     -34.606  15.032  -4.482  1.00 20.00     0.013 C 
HETATM    7  C8  UNL     1     -33.650  18.941  -2.695  1.00 20.00     0.043 C 
HETATM    8  C9  UNL     1     -34.553  16.612  -0.910  1.00 20.00     0.043 C 
HETATM    9  C10 UNL     1     -35.980  15.475  -5.005  1.00 20.00     0.023 C 
ENDROOT
BRANCH   6  10
HETATM   10  C3  UNL     1     -34.407  13.590  -4.875  1.00 20.00     0.240 C 
HETATM   11  O11 UNL     1     -35.031  12.661  -4.374  1.00 20.00    -0.306 OA
ENDBRANCH   6  10
TORSDOF 1
ENDMDL
MODEL 2
REMARK VINA RESULT:      -4.8      0.895      2.401
REMARK  1 active torsions:
REMARK  status: ('A' for Active; 'I' for Inactive)
REMARK    1  A    between atoms: C3_3  and  C7_7 
ROOT
HETATM    1  C1  UNL     1     -33.873  17.555  -2.812  1.00 20.00    -0.082 C 
HETATM    2  C2  UNL     1     -33.871  17.415  -4.156  1.00 20.00    -0.081 C 
HETATM    3  C4  UNL     1     -34.316  16.440  -1.889  1.00 20.00     0.035 C 
HETATM    4  C5  UNL     1     -34.261  16.112  -4.831  1.00 20.00     0.050 C 
HETATM    5  C6  UNL     1     -35.007  15.271  -2.592  1.00 20.00     0.021 C 
HETATM    6  C7  UNL     1     -34.308  14.884  -3.901  1.00 20.00     0.013 C 
HETATM    7  C8  UNL     1     -33.432  18.795  -2.078  1.00 20.00     0.043 C 
HETATM    8  C9  UNL     1     -33.513  18.505  -5.133  1.00 20.00     0.043 C 
HETATM    9  C10 UNL     1     -32.903  14.319  -3.648  1.00 20.00     0.023 C 
ENDROOT
BRANCH   6  10
HETATM   10  C3  UNL     1     -35.117  13.814  -4.589  1.00 20.00     0.240 C 
HETATM   11  O11 UNL     1     -34.987  12.616  -4.360  1.00 20.00    -0.306 OA
ENDBRANCH   6  10
TORSDOF 1
ENDMDL
MODEL 3
REMARK VINA RESULT:      -4.5     11.568     12.912
REMARK  1 active torsions:
REMARK  status: ('A' for Active; 'I' for Inactive)
REMARK    1  A    between atoms: C3_3  and  C7_7 
ROOT
HETATM    1  C1  UNL     1     -34.580   5.279   5.301  1.00 20.00    -0.082 C 
HETATM    2  C2  UNL     1     -33.868   6.394   5.575  1.00 20.00    -0.081 C 
HETATM    3  C4  UNL     1     -34.771   4.776   3.886  1.00 20.00     0.035 C 
HETATM    4  C5  UNL     1     -33.166   7.189   4.489  1.00 20.00     0.050 C 
HETATM    5  C6  UNL     1     -34.339   5.760   2.799  1.00 20.00     0.021 C 
HETATM    6  C7  UNL     1     -33.018   6.460   3.139  1.00 20.00     0.013 C 
HETATM    7  C8  UNL     1     -35.242   4.407   6.336  1.00 20.00     0.043 C 
HETATM    8  C9  UNL     1     -33.700   6.990   6.949  1.00 20.00     0.043 C 
HETATM    9  C10 UNL     1     -31.842   5.473   3.161  1.00 20.00     0.023 C 
ENDROOT
BRANCH   6  10
HETATM   10  C3  UNL     1     -32.728   7.497   2.083  1.00 20.00     0.240 C 
HETATM   11  O11 UNL     1     -31.786   8.280   2.145  1.00 20.00    -0.306 OA
ENDBRANCH   6  10
TORSDOF 1
ENDMDL
MODEL 4
REMARK VINA RESULT:      -4.5      1.911      2.884
REMARK  1 active torsions:
REMARK  status: ('A' for Active; 'I' for Inactive)
REMARK    1  A    between atoms: C3_3  and  C7_7 
ROOT
HETATM    1  C1  UNL     1     -33.703  14.757  -3.602  1.00 20.00    -0.082 C 
HETATM    2  C2  UNL     1     -34.507  15.603  -2.921  1.00 20.00    -0.081 C 
HETATM    3  C4  UNL     1     -34.246  13.790  -4.633  1.00 20.00     0.035 C 
HETATM    4  C5  UNL     1     -36.000  15.681  -3.179  1.00 20.00     0.050 C 
HETATM    5  C6  UNL     1     -35.769  13.658  -4.639  1.00 20.00     0.021 C 
HETATM    6  C7  UNL     1     -36.472  15.012  -4.486  1.00 20.00     0.013 C 
HETATM    7  C8  UNL     1     -32.207  14.679  -3.444  1.00 20.00     0.043 C 
HETATM    8  C9  UNL     1     -34.044  16.537  -1.832  1.00 20.00     0.043 C 
HETATM    9  C10 UNL     1     -36.225  15.920  -5.700  1.00 20.00     0.023 C 
ENDROOT
BRANCH   6  10
HETATM   10  C3  UNL     1     -37.958  14.783  -4.378  1.00 20.00     0.240 C 
HETATM   11  O11 UNL     1     -38.508  14.386  -3.356  1.00 20.00    -0.306 OA
ENDBRANCH   6  10
TORSDOF 1
ENDMDL
MODEL 5
REMARK VINA RESULT:      -4.3      2.120      3.938
REMARK  1 active torsions:
REMARK  status: ('A' for Active; 'I' for Inactive)
REMARK    1  A    between atoms: C3_3  and  C7_7 
ROOT
HETATM    1  C1  UNL     1     -34.412  15.284  -6.059  1.00 20.00    -0.082 C 
HETATM    2  C2  UNL     1     -34.315  16.590  -5.724  1.00 20.00    -0.081 C 
HETATM    3  C4  UNL     1     -34.374  14.185  -5.019  1.00 20.00     0.035 C 
HETATM    4  C5  UNL     1     -34.217  17.047  -4.280  1.00 20.00     0.050 C 
HETATM    5  C6  UNL     1     -33.950  14.644  -3.624  1.00 20.00     0.021 C 
HETATM    6  C7  UNL     1     -34.590  15.981  -3.231  1.00 20.00     0.013 C 
HETATM    7  C8  UNL     1     -34.581  14.769  -7.464  1.00 20.00     0.043 C 
HETATM    8  C9  UNL     1     -34.272  17.728  -6.711  1.00 20.00     0.043 C 
HETATM    9  C10 UNL     1     -36.113  15.857  -3.077  1.00 20.00     0.023 C 
ENDROOT
BRANCH   6  10
HETATM   10  C3  UNL     1     -34.028  16.421  -1.903  1.00 20.00     0.240 C 
HETATM   11  O11 UNL     1     -34.652  16.355  -0.850  1.00 20.00    -0.306 OA
ENDBRANCH   6  10
TORSDOF 1
ENDMDL
MODEL 6
REMARK VINA RESULT:      -4.3      1.329      2.183
REMARK  1 active torsions:
REMARK  status: ('A' for Active; 'I' for Inactive)
REMARK    1  A    between atoms: C3_3  and  C7_7 
ROOT
HETATM    1  C1  UNL     1     -35.376  16.708  -2.312  1.00 20.00    -0.082 C 
HETATM    2  C2  UNL     1     -36.377  16.411  -3.169  1.00 20.00    -0.081 C 
HETATM    3  C4  UNL     1     -34.043  15.991  -2.354  1.00 20.00     0.035 C 
HETATM    4  C5  UNL     1     -36.216  15.375  -4.267  1.00 20.00     0.050 C 
HETATM    5  C6  UNL     1     -34.021  14.744  -3.239  1.00 20.00     0.021 C 
HETATM    6  C7  UNL     1     -34.762  14.958  -4.564  1.00 20.00     0.013 C 
HETATM    7  C8  UNL     1     -35.445  17.770  -1.246  1.00 20.00     0.043 C 
HETATM    8  C9  UNL     1     -37.749  17.032  -3.136  1.00 20.00     0.043 C 
HETATM    9  C10 UNL     1     -34.053  15.993  -5.450  1.00 20.00     0.023 C 
ENDROOT
BRANCH   6  10
HETATM   10  C3  UNL     1     -34.800  13.654  -5.319  1.00 20.00     0.240 C 
HETATM   11  O11 UNL     1     -34.840  12.557  -4.772  1.00 20.00    -0.306 OA
ENDBRANCH   6  10
TORSDOF 1
ENDMDL
MODEL 7
REMARK VINA RESULT:      -4.3      1.834      3.008
REMARK  1 active torsions:
REMARK  status: ('A' for Active; 'I' for Inactive)
REMARK    1  A    between atoms: C3_3  and  C7_7 
ROOT
HETATM    1  C1  UNL     1     -34.511  16.975  -6.890  1.00 20.00    -0.082 C 
HETATM    2  C2  UNL     1     -34.207  17.108  -5.579  1.00 20.00    -0.081 C 
HETATM    3  C4  UNL     1     -35.052  15.682  -7.461  1.00 20.00     0.035 C 
HETATM    4  C5  UNL     1     -34.438  15.987  -4.581  1.00 20.00     0.050 C 
HETATM    5  C6  UNL     1     -34.966  14.484  -6.515  1.00 20.00     0.021 C 
HETATM    6  C7  UNL     1     -35.353  14.850  -5.077  1.00 20.00     0.013 C 
HETATM    7  C8  UNL     1     -34.371  18.067  -7.918  1.00 20.00     0.043 C 
HETATM    8  C9  UNL     1     -33.598  18.339  -4.959  1.00 20.00     0.043 C 
HETATM    9  C10 UNL     1     -36.836  15.237  -4.970  1.00 20.00     0.023 C 
ENDROOT
BRANCH   6  10
HETATM   10  C3  UNL     1     -35.125  13.653  -4.190  1.00 20.00     0.240 C 
HETATM   11  O11 UNL     1     -34.891  12.528  -4.619  1.00 20.00    -0.306 OA
ENDBRANCH   6  10
TORSDOF 1
ENDMDL
MODEL 8
REMARK VINA RESULT:      -4.2      2.607      4.318
REMARK  1 active torsions:
REMARK  status: ('A' for Active; 'I' for Inactive)
REMARK    1  A    between atoms: C3_3  and  C7_7 
ROOT
HETATM    1  C1  UNL     1     -33.943  17.099  -3.689  1.00 20.00    -0.082 C 
HETATM    2  C2  UNL     1     -34.188  16.062  -2.857  1.00 20.00    -0.081 C 
HETATM    3  C4  UNL     1     -34.213  18.533  -3.285  1.00 20.00     0.035 C 
HETATM    4  C5  UNL     1     -34.701  16.268  -1.443  1.00 20.00     0.050 C 
HETATM    5  C6  UNL     1     -35.025  18.689  -1.999  1.00 20.00     0.021 C 
HETATM    6  C7  UNL     1     -34.580  17.708  -0.908  1.00 20.00     0.013 C 
HETATM    7  C8  UNL     1     -33.371  16.970  -5.076  1.00 20.00     0.043 C 
HETATM    8  C9  UNL     1     -34.012  14.610  -3.220  1.00 20.00     0.043 C 
HETATM    9  C10 UNL     1     -33.154  18.007  -0.423  1.00 20.00     0.023 C 
ENDROOT
BRANCH   6  10
HETATM   10  C3  UNL     1     -35.505  17.841   0.275  1.00 20.00     0.240 C 
HETATM   11  O11 UNL     1     -35.211  17.472   1.408  1.00 20.00    -0.306 OA
ENDBRANCH   6  10
TORSDOF 1
ENDMDL
MODEL 9
REMARK VINA RESULT:      -4.2      1.795      2.751
REMARK  1 active torsions:
REMARK  status: ('A' for Active; 'I' for Inactive)
REMARK    1  A    between atoms: C3_3  and  C7_7 
ROOT
HETATM    1  C1  UNL     1     -36.307  16.668  -2.887  1.00 20.00    -0.082 C 
HETATM    2  C2  UNL     1     -36.452  15.444  -3.443  1.00 20.00    -0.081 C 
HETATM    3  C4  UNL     1     -34.955  17.204  -2.467  1.00 20.00     0.035 C 
HETATM    4  C5  UNL     1     -35.263  14.546  -3.733  1.00 20.00     0.050 C 
HETATM    5  C6  UNL     1     -33.833  16.165  -2.466  1.00 20.00     0.021 C 
HETATM    6  C7  UNL     1     -33.891  15.245  -3.691  1.00 20.00     0.013 C 
HETATM    7  C8  UNL     1     -37.434  17.635  -2.637  1.00 20.00     0.043 C 
HETATM    8  C9  UNL     1     -37.772  14.821  -3.816  1.00 20.00     0.043 C 
HETATM    9  C10 UNL     1     -33.613  16.014  -4.991  1.00 20.00     0.023 C 
ENDROOT
BRANCH   6  10
HETATM   10  C3  UNL     1     -32.833  14.180  -3.552  1.00 20.00     0.240 C 
HETATM   11  O11 UNL     1     -33.018  13.002  -3.839  1.00 20.00    -0.306 OA
ENDBRANCH   6  10
TORSDOF 1
ENDMDL
