MODEL 1
REMARK VINA RESULT:      -4.8      0.000      0.000
REMARK  0 active torsions:
REMARK  status: ('A' for Active; 'I' for Inactive)
ROOT
HETATM    1  C1  UNL     1     -35.284   4.318   5.824  1.00 20.00     0.009 A 
HETATM    2  C2  UNL     1     -35.176   4.246   4.494  1.00 20.00     0.074 A 
HETATM    3  C3  UNL     1     -34.618   5.353   6.564  1.00 20.00     0.043 A 
HETATM    4  C4  UNL     1     -33.875   6.265   5.921  1.00 20.00     0.108 A 
HETATM    5  C5  UNL     1     -34.352   5.248   3.754  1.00 20.00     0.248 A 
HETATM    6  C6  UNL     1     -32.903   7.255   3.880  1.00 20.00     0.160 C 
HETATM    7  N7  UNL     1     -33.726   6.238   4.534  1.00 20.00    -0.309 N 
HETATM    8  O8  UNL     1     -34.274   5.147   2.530  1.00 20.00    -0.268 OA
HETATM    9 CL9  UNL     1     -33.079   7.505   6.818  1.00 20.00    -0.064 Cl
ENDROOT
TORSDOF 0
ENDMDL
MODEL 2
REMARK VINA RESULT:      -4.7      2.383      2.879
REMARK  0 active torsions:
REMARK  status: ('A' for Active; 'I' for Inactive)
ROOT
HETATM    1  C1  UNL     1     -35.267   4.497   5.951  1.00 20.00     0.009 A 
HETATM    2  C2  UNL     1     -34.599   5.427   6.640  1.00 20.00     0.074 A 
HETATM    3  C3  UNL     1     -35.140   4.402   4.524  1.00 20.00     0.043 A 
HETATM    4  C4  UNL     1     -34.343   5.253   3.864  1.00 20.00     0.108 A 
HETATM    5  C5  UNL     1     -33.705   6.389   5.928  1.00 20.00     0.248 A 
HETATM    6  C6  UNL     1     -32.767   7.149   3.763  1.00 20.00     0.160 C 
HETATM    7  N7  UNL     1     -33.622   6.244   4.530  1.00 20.00    -0.309 N 
HETATM    8  O8  UNL     1     -33.109   7.233   6.596  1.00 20.00    -0.268 OA
HETATM    9 CL9  UNL     1     -34.196   5.131   2.149  1.00 20.00    -0.064 Cl
ENDROOT
TORSDOF 0
ENDMDL
MODEL 3
REMARK VINA RESULT:      -4.6     12.909     13.938
REMARK  0 active torsions:
REMARK  status: ('A' for Active; 'I' for Inactive)
ROOT
HETATM    1  C1  UNL     1     -32.968  15.258  -3.660  1.00 20.00     0.009 A 
HETATM    2  C2  UNL     1     -33.507  14.036  -3.714  1.00 20.00     0.074 A 
HETATM    3  C3  UNL     1     -33.215  16.221  -4.696  1.00 20.00     0.043 A 
HETATM    4  C4  UNL     1     -33.997  15.901  -5.736  1.00 20.00     0.108 A 
HETATM    5  C5  UNL     1     -34.380  13.653  -4.864  1.00 20.00     0.248 A 
HETATM    6  C6  UNL     1     -35.430  14.340  -7.001  1.00 20.00     0.160 C 
HETATM    7  N7  UNL     1     -34.586  14.640  -5.846  1.00 20.00    -0.309 N 
HETATM    8  O8  UNL     1     -34.857  12.519  -4.880  1.00 20.00    -0.268 OA
HETATM    9 CL9  UNL     1     -34.289  17.064  -6.975  1.00 20.00    -0.064 Cl
ENDROOT
TORSDOF 0
ENDMDL
MODEL 4
REMARK VINA RESULT:      -4.4      1.811      2.471
REMARK  0 active torsions:
REMARK  status: ('A' for Active; 'I' for Inactive)
ROOT
HETATM    1  C1  UNL     1     -34.028   6.365   6.517  1.00 20.00     0.009 A 
HETATM    2  C2  UNL     1     -34.751   5.269   6.270  1.00 20.00     0.074 A 
HETATM    3  C3  UNL     1     -33.320   7.036   5.462  1.00 20.00     0.043 A 
HETATM    4  C4  UNL     1     -33.379   6.564   4.209  1.00 20.00     0.108 A 
HETATM    5  C5  UNL     1     -34.832   4.721   4.882  1.00 20.00     0.248 A 
HETATM    6  C6  UNL     1     -34.149   4.948   2.510  1.00 20.00     0.160 C 
HETATM    7  N7  UNL     1     -34.118   5.423   3.893  1.00 20.00    -0.309 N 
HETATM    8  O8  UNL     1     -35.505   3.709   4.695  1.00 20.00    -0.268 OA
HETATM    9 CL9  UNL     1     -32.526   7.377   2.949  1.00 20.00    -0.064 Cl
ENDROOT
TORSDOF 0
ENDMDL
MODEL 5
REMARK VINA RESULT:      -4.3     12.292     12.753
REMARK  0 active torsions:
REMARK  status: ('A' for Active; 'I' for Inactive)
ROOT
HETATM    1  C1  UNL     1     -32.797  14.963  -3.418  1.00 20.00     0.009 A 
HETATM    2  C2  UNL     1     -33.284  13.808  -3.879  1.00 20.00     0.074 A 
HETATM    3  C3  UNL     1     -33.671  16.052  -3.081  1.00 20.00     0.043 A 
HETATM    4  C4  UNL     1     -34.996  15.917  -3.228  1.00 20.00     0.108 A 
HETATM    5  C5  UNL     1     -34.757  13.632  -4.054  1.00 20.00     0.248 A 
HETATM    6  C6  UNL     1     -37.014  14.637  -3.849  1.00 20.00     0.160 C 
HETATM    7  N7  UNL     1     -35.562  14.733  -3.706  1.00 20.00    -0.309 N 
HETATM    8  O8  UNL     1     -35.168  12.555  -4.484  1.00 20.00    -0.268 OA
HETATM    9 CL9  UNL     1     -36.039  17.229  -2.820  1.00 20.00    -0.064 Cl
ENDROOT
TORSDOF 0
ENDMDL
MODEL 6
REMARK VINA RESULT:      -4.2     12.427     12.882
REMARK  0 active torsions:
REMARK  status: ('A' for Active; 'I' for Inactive)
ROOT
HETATM    1  C1  UNL     1     -33.839  13.651  -4.124  1.00 20.00     0.009 A 
HETATM    2  C2  UNL     1     -35.145  13.380  -4.209  1.00 20.00     0.074 A 
HETATM    3  C3  UNL     1     -33.379  14.930  -3.661  1.00 20.00     0.043 A 
HETATM    4  C4  UNL     1     -34.263  15.872  -3.306  1.00 20.00     0.108 A 
HETATM    5  C5  UNL     1     -36.151  14.413  -3.822  1.00 20.00     0.248 A 
HETATM    6  C6  UNL     1     -36.562  16.707  -2.978  1.00 20.00     0.160 C 
HETATM    7  N7  UNL     1     -35.639  15.646  -3.375  1.00 20.00    -0.309 N 
HETATM    8  O8  UNL     1     -37.345  14.128  -3.917  1.00 20.00    -0.268 OA
HETATM    9 CL9  UNL     1     -33.702  17.405  -2.750  1.00 20.00    -0.064 Cl
ENDROOT
TORSDOF 0
ENDMDL
MODEL 7
REMARK VINA RESULT:      -4.1      1.948      2.693
REMARK  0 active torsions:
REMARK  status: ('A' for Active; 'I' for Inactive)
ROOT
HETATM    1  C1  UNL     1     -34.615   5.000   3.144  1.00 20.00     0.009 A 
HETATM    2  C2  UNL     1     -35.202   4.778   4.324  1.00 20.00     0.074 A 
HETATM    3  C3  UNL     1     -33.522   5.925   3.024  1.00 20.00     0.043 A 
HETATM    4  C4  UNL     1     -33.078   6.580   4.105  1.00 20.00     0.108 A 
HETATM    5  C5  UNL     1     -34.726   5.498   5.544  1.00 20.00     0.248 A 
HETATM    6  C6  UNL     1     -33.131   7.130   6.511  1.00 20.00     0.160 C 
HETATM    7  N7  UNL     1     -33.653   6.389   5.363  1.00 20.00    -0.309 N 
HETATM    8  O8  UNL     1     -35.294   5.270   6.612  1.00 20.00    -0.268 OA
HETATM    9 CL9  UNL     1     -31.765   7.688   3.953  1.00 20.00    -0.064 Cl
ENDROOT
TORSDOF 0
ENDMDL
MODEL 8
REMARK VINA RESULT:      -4.0     12.699     13.576
REMARK  0 active torsions:
REMARK  status: ('A' for Active; 'I' for Inactive)
ROOT
HETATM    1  C1  UNL     1     -34.913  13.357  -4.492  1.00 20.00     0.009 A 
HETATM    2  C2  UNL     1     -34.809  13.813  -5.744  1.00 20.00     0.074 A 
HETATM    3  C3  UNL     1     -34.561  14.185  -3.372  1.00 20.00     0.043 A 
HETATM    4  C4  UNL     1     -34.119  15.434  -3.576  1.00 20.00     0.108 A 
HETATM    5  C5  UNL     1     -34.317  15.200  -5.997  1.00 20.00     0.248 A 
HETATM    6  C6  UNL     1     -33.501  17.331  -5.029  1.00 20.00     0.160 C 
HETATM    7  N7  UNL     1     -33.988  15.963  -4.861  1.00 20.00    -0.309 N 
HETATM    8  O8  UNL     1     -34.231  15.583  -7.164  1.00 20.00    -0.268 OA
HETATM    9 CL9  UNL     1     -33.699  16.422  -2.225  1.00 20.00    -0.064 Cl
ENDROOT
TORSDOF 0
ENDMDL
MODEL 9
REMARK VINA RESULT:      -4.0     12.169     12.464
REMARK  0 active torsions:
REMARK  status: ('A' for Active; 'I' for Inactive)
ROOT
HETATM    1  C1  UNL     1     -36.930  15.174  -3.569  1.00 20.00     0.009 A 
HETATM    2  C2  UNL     1     -36.537  14.069  -4.210  1.00 20.00     0.074 A 
HETATM    3  C3  UNL     1     -35.984  16.003  -2.876  1.00 20.00     0.043 A 
HETATM    4  C4  UNL     1     -34.685  15.672  -2.866  1.00 20.00     0.108 A 
HETATM    5  C5  UNL     1     -35.096  13.677  -4.211  1.00 20.00     0.248 A 
HETATM    6  C6  UNL     1     -32.791  14.212  -3.474  1.00 20.00     0.160 C 
HETATM    7  N7  UNL     1     -34.217  14.530  -3.516  1.00 20.00    -0.309 N 
HETATM    8  O8  UNL     1     -34.772  12.651  -4.809  1.00 20.00    -0.268 OA
HETATM    9 CL9  UNL     1     -33.556  16.674  -2.032  1.00 20.00    -0.064 Cl
ENDROOT
TORSDOF 0
ENDMDL
