MODEL 1
REMARK VINA RESULT:      -3.4      0.000      0.000
REMARK  0 active torsions:
REMARK  status: ('A' for Active; 'I' for Inactive)
ROOT
HETATM    1  C1  UNL     1     -34.362   5.657   5.293  1.00 20.00     0.061 C 
HETATM    2  C2  UNL     1     -34.056   5.501   2.817  1.00 20.00     0.107 C 
HETATM    3  C3  UNL     1     -33.398   6.683   3.522  1.00 20.00     0.114 C 
HETATM    4  C4  UNL     1     -34.679   5.245   6.689  1.00 20.00     0.078 C 
HETATM    5  C5  UNL     1     -31.968   6.896   3.048  1.00 20.00     0.035 C 
HETATM    6  N6  UNL     1     -33.382   6.442   4.985  1.00 20.00    -0.282 NA
HETATM    7  S7  UNL     1     -35.324   4.998   3.996  1.00 20.00    -0.113 SA
ENDROOT
TORSDOF 0
ENDMDL
MODEL 2
REMARK VINA RESULT:      -3.3      0.957      3.026
REMARK  0 active torsions:
REMARK  status: ('A' for Active; 'I' for Inactive)
ROOT
HETATM    1  C1  UNL     1     -33.188   6.410   3.507  1.00 20.00     0.061 C 
HETATM    2  C2  UNL     1     -35.212   5.093   4.155  1.00 20.00     0.107 C 
HETATM    3  C3  UNL     1     -34.122   5.252   5.211  1.00 20.00     0.114 C 
HETATM    4  C4  UNL     1     -32.318   7.348   2.742  1.00 20.00     0.078 C 
HETATM    5  C5  UNL     1     -34.704   5.616   6.569  1.00 20.00     0.035 C 
HETATM    6  N6  UNL     1     -33.181   6.320   4.797  1.00 20.00    -0.282 NA
HETATM    7  S7  UNL     1     -34.321   5.423   2.622  1.00 20.00    -0.113 SA
ENDROOT
TORSDOF 0
ENDMDL
MODEL 3
REMARK VINA RESULT:      -3.3      1.766      2.090
REMARK  0 active torsions:
REMARK  status: ('A' for Active; 'I' for Inactive)
ROOT
HETATM    1  C1  UNL     1     -34.081   6.293   5.776  1.00 20.00     0.061 C 
HETATM    2  C2  UNL     1     -34.956   4.217   4.695  1.00 20.00     0.107 C 
HETATM    3  C3  UNL     1     -34.847   5.460   3.817  1.00 20.00     0.114 C 
HETATM    4  C4  UNL     1     -33.402   7.169   6.772  1.00 20.00     0.078 C 
HETATM    5  C5  UNL     1     -34.224   5.141   2.465  1.00 20.00     0.035 C 
HETATM    6  N6  UNL     1     -34.008   6.475   4.498  1.00 20.00    -0.282 NA
HETATM    7  S7  UNL     1     -34.972   4.912   6.358  1.00 20.00    -0.113 SA
ENDROOT
TORSDOF 0
ENDMDL
MODEL 4
REMARK VINA RESULT:      -3.2     12.219     12.557
REMARK  0 active torsions:
REMARK  status: ('A' for Active; 'I' for Inactive)
ROOT
HETATM    1  C1  UNL     1     -34.286  15.889  -2.683  1.00 20.00     0.061 C 
HETATM    2  C2  UNL     1     -34.101  15.729  -5.171  1.00 20.00     0.107 C 
HETATM    3  C3  UNL     1     -33.944  14.433  -4.380  1.00 20.00     0.114 C 
HETATM    4  C4  UNL     1     -34.614  16.446  -1.340  1.00 20.00     0.078 C 
HETATM    5  C5  UNL     1     -34.743  13.295  -5.000  1.00 20.00     0.035 C 
HETATM    6  N6  UNL     1     -34.415  14.640  -2.989  1.00 20.00    -0.282 NA
HETATM    7  S7  UNL     1     -33.756  16.989  -3.929  1.00 20.00    -0.113 SA
ENDROOT
TORSDOF 0
ENDMDL
MODEL 5
REMARK VINA RESULT:      -3.1     11.971     13.067
REMARK  0 active torsions:
REMARK  status: ('A' for Active; 'I' for Inactive)
ROOT
HETATM    1  C1  UNL     1     -34.253  14.866  -5.747  1.00 20.00     0.061 C 
HETATM    2  C2  UNL     1     -34.530  14.094  -3.386  1.00 20.00     0.107 C 
HETATM    3  C3  UNL     1     -33.539  15.228  -3.632  1.00 20.00     0.114 C 
HETATM    4  C4  UNL     1     -34.543  15.062  -7.196  1.00 20.00     0.078 C 
HETATM    5  C5  UNL     1     -33.705  16.349  -2.615  1.00 20.00     0.035 C 
HETATM    6  N6  UNL     1     -33.747  15.784  -4.990  1.00 20.00    -0.282 NA
HETATM    7  S7  UNL     1     -34.672  13.339  -5.017  1.00 20.00    -0.113 SA
ENDROOT
TORSDOF 0
ENDMDL
MODEL 6
REMARK VINA RESULT:      -3.1     12.144     12.712
REMARK  0 active torsions:
REMARK  status: ('A' for Active; 'I' for Inactive)
ROOT
HETATM    1  C1  UNL     1     -34.422  14.697  -4.124  1.00 20.00     0.061 C 
HETATM    2  C2  UNL     1     -33.699  16.991  -3.445  1.00 20.00     0.107 C 
HETATM    3  C3  UNL     1     -34.812  16.346  -2.625  1.00 20.00     0.114 C 
HETATM    4  C4  UNL     1     -34.389  13.359  -4.779  1.00 20.00     0.078 C 
HETATM    5  C5  UNL     1     -34.582  16.520  -1.131  1.00 20.00     0.035 C 
HETATM    6  N6  UNL     1     -34.877  14.897  -2.930  1.00 20.00    -0.282 NA
HETATM    7  S7  UNL     1     -33.758  16.059  -4.987  1.00 20.00    -0.113 SA
ENDROOT
TORSDOF 0
ENDMDL
MODEL 7
REMARK VINA RESULT:      -3.1      9.647     10.685
REMARK  0 active torsions:
REMARK  status: ('A' for Active; 'I' for Inactive)
ROOT
HETATM    1  C1  UNL     1     -42.094   6.379  -2.319  1.00 20.00     0.061 C 
HETATM    2  C2  UNL     1     -40.800   4.573  -1.172  1.00 20.00     0.107 C 
HETATM    3  C3  UNL     1     -42.018   4.143  -1.985  1.00 20.00     0.114 C 
HETATM    4  C4  UNL     1     -42.414   7.712  -2.901  1.00 20.00     0.078 C 
HETATM    5  C5  UNL     1     -41.712   2.933  -2.857  1.00 20.00     0.035 C 
HETATM    6  N6  UNL     1     -42.452   5.259  -2.858  1.00 20.00    -0.282 NA
HETATM    7  S7  UNL     1     -41.132   6.319  -0.865  1.00 20.00    -0.113 SA
ENDROOT
TORSDOF 0
ENDMDL
MODEL 8
REMARK VINA RESULT:      -3.0      1.433      2.922
REMARK  0 active torsions:
REMARK  status: ('A' for Active; 'I' for Inactive)
ROOT
HETATM    1  C1  UNL     1     -34.281   5.486   4.070  1.00 20.00     0.061 C 
HETATM    2  C2  UNL     1     -34.896   5.294   6.485  1.00 20.00     0.107 C 
HETATM    3  C3  UNL     1     -33.659   6.123   6.149  1.00 20.00     0.114 C 
HETATM    4  C4  UNL     1     -34.414   5.432   2.587  1.00 20.00     0.078 C 
HETATM    5  C5  UNL     1     -33.642   7.440   6.912  1.00 20.00     0.035 C 
HETATM    6  N6  UNL     1     -33.638   6.416   4.696  1.00 20.00    -0.282 NA
HETATM    7  S7  UNL     1     -35.084   4.263   5.018  1.00 20.00    -0.113 SA
ENDROOT
TORSDOF 0
ENDMDL
MODEL 9
REMARK VINA RESULT:      -3.0      9.722     10.693
REMARK  0 active torsions:
REMARK  status: ('A' for Active; 'I' for Inactive)
ROOT
HETATM    1  C1  UNL     1     -42.336   6.655  -2.961  1.00 20.00     0.061 C 
HETATM    2  C2  UNL     1     -42.479   4.817  -1.273  1.00 20.00     0.107 C 
HETATM    3  C3  UNL     1     -41.171   5.600  -1.334  1.00 20.00     0.114 C 
HETATM    4  C4  UNL     1     -42.775   7.679  -3.951  1.00 20.00     0.078 C 
HETATM    5  C5  UNL     1     -40.678   5.979   0.056  1.00 20.00     0.035 C 
HETATM    6  N6  UNL     1     -41.372   6.841  -2.120  1.00 20.00    -0.282 NA
HETATM    7  S7  UNL     1     -43.207   5.146  -2.889  1.00 20.00    -0.113 SA
ENDROOT
TORSDOF 0
ENDMDL
