MODEL 1
REMARK VINA RESULT:      -3.5      0.000      0.000
REMARK  0 active torsions:
REMARK  status: ('A' for Active; 'I' for Inactive)
ROOT
HETATM    1  C1  UNL     1     -34.669  15.659  -2.910  1.00 20.00     0.021 A 
HETATM    2  C2  UNL     1     -34.278  14.507  -3.484  1.00 20.00     0.004 A 
HETATM    3  C3  UNL     1     -36.745  14.969  -3.784  1.00 20.00     0.145 A 
HETATM    4  C4  UNL     1     -33.796  16.615  -2.157  1.00 20.00     0.069 C 
HETATM    5  C5  UNL     1     -32.924  13.882  -3.533  1.00 20.00     0.058 C 
HETATM    6  C6  UNL     1     -36.621  17.147  -2.498  1.00 20.00     0.157 C 
HETATM    7  N7  UNL     1     -36.033  15.934  -3.064  1.00 20.00    -0.340 N 
HETATM    8  S8  UNL     1     -38.364  14.922  -4.185  1.00 20.00    -0.052 SA
HETATM    9  S9  UNL     1     -35.612  13.693  -4.261  1.00 20.00    -0.063 SA
ENDROOT
TORSDOF 0
ENDMDL
MODEL 2
REMARK VINA RESULT:      -3.4      3.029      3.622
REMARK  0 active torsions:
REMARK  status: ('A' for Active; 'I' for Inactive)
ROOT
HETATM    1  C1  UNL     1     -34.466  15.503  -4.169  1.00 20.00     0.021 A 
HETATM    2  C2  UNL     1     -34.200  15.939  -5.414  1.00 20.00     0.004 A 
HETATM    3  C3  UNL     1     -33.921  17.738  -3.661  1.00 20.00     0.145 A 
HETATM    4  C4  UNL     1     -34.888  14.118  -3.786  1.00 20.00     0.069 C 
HETATM    5  C5  UNL     1     -34.246  15.199  -6.709  1.00 20.00     0.058 C 
HETATM    6  C6  UNL     1     -34.571  16.177  -1.775  1.00 20.00     0.157 C 
HETATM    7  N7  UNL     1     -34.318  16.485  -3.182  1.00 20.00    -0.340 N 
HETATM    8  S8  UNL     1     -33.636  19.153  -2.825  1.00 20.00    -0.052 SA
HETATM    9  S9  UNL     1     -33.742  17.623  -5.420  1.00 20.00    -0.063 SA
ENDROOT
TORSDOF 0
ENDMDL
MODEL 3
REMARK VINA RESULT:      -3.4      2.435      3.498
REMARK  0 active torsions:
REMARK  status: ('A' for Active; 'I' for Inactive)
ROOT
HETATM    1  C1  UNL     1     -34.321  16.587  -3.054  1.00 20.00     0.021 A 
HETATM    2  C2  UNL     1     -33.884  17.774  -3.513  1.00 20.00     0.004 A 
HETATM    3  C3  UNL     1     -34.244  16.080  -5.353  1.00 20.00     0.145 A 
HETATM    4  C4  UNL     1     -34.588  16.234  -1.623  1.00 20.00     0.069 C 
HETATM    5  C5  UNL     1     -33.556  19.020  -2.761  1.00 20.00     0.058 C 
HETATM    6  C6  UNL     1     -35.000  14.289  -3.729  1.00 20.00     0.157 C 
HETATM    7  N7  UNL     1     -34.527  15.633  -4.058  1.00 20.00    -0.340 N 
HETATM    8  S8  UNL     1     -34.357  15.267  -6.806  1.00 20.00    -0.052 SA
HETATM    9  S9  UNL     1     -33.704  17.764  -5.248  1.00 20.00    -0.063 SA
ENDROOT
TORSDOF 0
ENDMDL
MODEL 4
REMARK VINA RESULT:      -3.4      2.037      2.632
REMARK  0 active torsions:
REMARK  status: ('A' for Active; 'I' for Inactive)
ROOT
HETATM    1  C1  UNL     1     -34.984  14.642  -3.705  1.00 20.00     0.021 A 
HETATM    2  C2  UNL     1     -33.807  15.210  -3.387  1.00 20.00     0.004 A 
HETATM    3  C3  UNL     1     -35.791  16.665  -2.807  1.00 20.00     0.145 A 
HETATM    4  C4  UNL     1     -35.177  13.297  -4.336  1.00 20.00     0.069 C 
HETATM    5  C5  UNL     1     -32.421  14.687  -3.563  1.00 20.00     0.058 C 
HETATM    6  C6  UNL     1     -37.452  14.961  -3.675  1.00 20.00     0.157 C 
HETATM    7  N7  UNL     1     -36.097  15.432  -3.392  1.00 20.00    -0.340 N 
HETATM    8  S8  UNL     1     -36.812  17.879  -2.293  1.00 20.00    -0.052 SA
HETATM    9  S9  UNL     1     -34.029  16.785  -2.668  1.00 20.00    -0.063 SA
ENDROOT
TORSDOF 0
ENDMDL
MODEL 5
REMARK VINA RESULT:      -3.4      2.763      3.128
REMARK  0 active torsions:
REMARK  status: ('A' for Active; 'I' for Inactive)
ROOT
HETATM    1  C1  UNL     1     -34.251  16.428  -2.970  1.00 20.00     0.021 A 
HETATM    2  C2  UNL     1     -34.128  15.409  -3.839  1.00 20.00     0.004 A 
HETATM    3  C3  UNL     1     -33.897  17.673  -4.938  1.00 20.00     0.145 A 
HETATM    4  C4  UNL     1     -34.499  16.312  -1.497  1.00 20.00     0.069 C 
HETATM    5  C5  UNL     1     -34.199  13.938  -3.595  1.00 20.00     0.058 C 
HETATM    6  C6  UNL     1     -34.236  18.908  -2.753  1.00 20.00     0.157 C 
HETATM    7  N7  UNL     1     -34.126  17.692  -3.559  1.00 20.00    -0.340 N 
HETATM    8  S8  UNL     1     -33.692  18.944  -5.999  1.00 20.00    -0.052 SA
HETATM    9  S9  UNL     1     -33.844  15.982  -5.463  1.00 20.00    -0.063 SA
ENDROOT
TORSDOF 0
ENDMDL
MODEL 6
REMARK VINA RESULT:      -3.4      1.740      2.791
REMARK  0 active torsions:
REMARK  status: ('A' for Active; 'I' for Inactive)
ROOT
HETATM    1  C1  UNL     1     -34.650  15.041  -3.779  1.00 20.00     0.021 A 
HETATM    2  C2  UNL     1     -35.163  15.861  -2.844  1.00 20.00     0.004 A 
HETATM    3  C3  UNL     1     -36.635  15.654  -4.888  1.00 20.00     0.145 A 
HETATM    4  C4  UNL     1     -33.353  14.296  -3.689  1.00 20.00     0.069 C 
HETATM    5  C5  UNL     1     -34.612  16.246  -1.512  1.00 20.00     0.058 C 
HETATM    6  C6  UNL     1     -35.037  14.057  -6.033  1.00 20.00     0.157 C 
HETATM    7  N7  UNL     1     -35.450  14.912  -4.920  1.00 20.00    -0.340 N 
HETATM    8  S8  UNL     1     -37.845  15.774  -6.031  1.00 20.00    -0.052 SA
HETATM    9  S9  UNL     1     -36.696  16.525  -3.347  1.00 20.00    -0.063 SA
ENDROOT
TORSDOF 0
ENDMDL
MODEL 7
REMARK VINA RESULT:      -3.3      3.082      3.957
REMARK  0 active torsions:
REMARK  status: ('A' for Active; 'I' for Inactive)
ROOT
HETATM    1  C1  UNL     1     -34.330  15.891  -3.515  1.00 20.00     0.021 A 
HETATM    2  C2  UNL     1     -34.350  16.777  -2.503  1.00 20.00     0.004 A 
HETATM    3  C3  UNL     1     -33.979  17.864  -4.754  1.00 20.00     0.145 A 
HETATM    4  C4  UNL     1     -34.501  14.408  -3.399  1.00 20.00     0.069 C 
HETATM    5  C5  UNL     1     -34.540  16.544  -1.041  1.00 20.00     0.058 C 
HETATM    6  C6  UNL     1     -34.075  15.650  -5.980  1.00 20.00     0.157 C 
HETATM    7  N7  UNL     1     -34.125  16.473  -4.772  1.00 20.00    -0.340 N 
HETATM    8  S8  UNL     1     -33.724  18.923  -6.018  1.00 20.00    -0.052 SA
HETATM    9  S9  UNL     1     -34.112  18.409  -3.073  1.00 20.00    -0.063 SA
ENDROOT
TORSDOF 0
ENDMDL
MODEL 8
REMARK VINA RESULT:      -3.3      2.388      3.194
REMARK  0 active torsions:
REMARK  status: ('A' for Active; 'I' for Inactive)
ROOT
HETATM    1  C1  UNL     1     -33.994  17.604  -3.118  1.00 20.00     0.021 A 
HETATM    2  C2  UNL     1     -34.409  16.627  -2.291  1.00 20.00     0.004 A 
HETATM    3  C3  UNL     1     -34.375  15.915  -4.715  1.00 20.00     0.145 A 
HETATM    4  C4  UNL     1     -33.583  18.988  -2.720  1.00 20.00     0.069 C 
HETATM    5  C5  UNL     1     -34.568  16.643  -0.807  1.00 20.00     0.058 C 
HETATM    6  C6  UNL     1     -33.544  18.176  -5.498  1.00 20.00     0.157 C 
HETATM    7  N7  UNL     1     -33.969  17.230  -4.467  1.00 20.00    -0.340 N 
HETATM    8  S8  UNL     1     -34.485  15.092  -6.162  1.00 20.00    -0.052 SA
HETATM    9  S9  UNL     1     -34.793  15.167  -3.165  1.00 20.00    -0.063 SA
ENDROOT
TORSDOF 0
ENDMDL
MODEL 9
REMARK VINA RESULT:      -3.3      3.202      3.776
REMARK  0 active torsions:
REMARK  status: ('A' for Active; 'I' for Inactive)
ROOT
HETATM    1  C1  UNL     1     -34.065  15.928  -5.235  1.00 20.00     0.021 A 
HETATM    2  C2  UNL     1     -34.192  15.115  -4.171  1.00 20.00     0.004 A 
HETATM    3  C3  UNL     1     -33.855  17.535  -3.525  1.00 20.00     0.145 A 
HETATM    4  C4  UNL     1     -34.108  15.518  -6.675  1.00 20.00     0.069 C 
HETATM    5  C5  UNL     1     -34.402  13.638  -4.124  1.00 20.00     0.058 C 
HETATM    6  C6  UNL     1     -33.721  18.291  -5.938  1.00 20.00     0.157 C 
HETATM    7  N7  UNL     1     -33.878  17.274  -4.899  1.00 20.00    -0.340 N 
HETATM    8  S8  UNL     1     -33.660  18.984  -2.721  1.00 20.00    -0.052 SA
HETATM    9  S9  UNL     1     -34.083  16.000  -2.671  1.00 20.00    -0.063 SA
ENDROOT
TORSDOF 0
ENDMDL
