MODEL 1
REMARK VINA RESULT:      -4.5      0.000      0.000
REMARK  0 active torsions:
REMARK  status: ('A' for Active; 'I' for Inactive)
ROOT
HETATM    1  C1  UNL     1     -34.573  13.709  -4.778  1.00 20.00     0.149 C 
HETATM    2  C2  UNL     1     -33.931  14.111  -3.464  1.00 20.00     0.080 C 
HETATM    3  C3  UNL     1     -32.833  15.139  -3.678  1.00 20.00     0.007 C 
HETATM    4  C4  UNL     1     -33.332  16.338  -4.475  1.00 20.00     0.003 C 
HETATM    5  C5  UNL     1     -33.882  15.894  -5.831  1.00 20.00     0.033 C 
HETATM    6  C6  UNL     1     -34.989  14.833  -5.730  1.00 20.00     0.093 C 
HETATM    7  C7  UNL     1     -35.322  14.289  -7.121  1.00 20.00     0.041 C 
HETATM    8  O8  UNL     1     -34.823  12.525  -5.012  1.00 20.00    -0.296 OA
HETATM    9 CL9  UNL     1     -36.482  15.542  -5.032  1.00 20.00    -0.111 Cl
ENDROOT
TORSDOF 0
ENDMDL
MODEL 2
REMARK VINA RESULT:      -4.3      2.043      2.407
REMARK  0 active torsions:
REMARK  status: ('A' for Active; 'I' for Inactive)
ROOT
HETATM    1  C1  UNL     1     -36.024  14.795  -3.682  1.00 20.00     0.149 C 
HETATM    2  C2  UNL     1     -36.103  16.052  -2.838  1.00 20.00     0.080 C 
HETATM    3  C3  UNL     1     -34.878  16.201  -1.952  1.00 20.00     0.007 C 
HETATM    4  C4  UNL     1     -33.587  16.120  -2.758  1.00 20.00     0.003 C 
HETATM    5  C5  UNL     1     -33.507  14.793  -3.516  1.00 20.00     0.033 C 
HETATM    6  C6  UNL     1     -34.715  14.532  -4.429  1.00 20.00     0.093 C 
HETATM    7  C7  UNL     1     -34.662  13.102  -4.972  1.00 20.00     0.041 C 
HETATM    8  O8  UNL     1     -37.014  14.075  -3.819  1.00 20.00    -0.296 OA
HETATM    9 CL9  UNL     1     -34.709  15.662  -5.824  1.00 20.00    -0.111 Cl
ENDROOT
TORSDOF 0
ENDMDL
MODEL 3
REMARK VINA RESULT:      -4.2      2.409      3.213
REMARK  0 active torsions:
REMARK  status: ('A' for Active; 'I' for Inactive)
ROOT
HETATM    1  C1  UNL     1     -35.482  15.678  -4.173  1.00 20.00     0.149 C 
HETATM    2  C2  UNL     1     -35.794  14.194  -4.154  1.00 20.00     0.080 C 
HETATM    3  C3  UNL     1     -34.575  13.368  -4.529  1.00 20.00     0.007 C 
HETATM    4  C4  UNL     1     -33.368  13.722  -3.668  1.00 20.00     0.003 C 
HETATM    5  C5  UNL     1     -33.033  15.209  -3.795  1.00 20.00     0.033 C 
HETATM    6  C6  UNL     1     -34.210  16.138  -3.458  1.00 20.00     0.093 C 
HETATM    7  C7  UNL     1     -33.859  17.582  -3.822  1.00 20.00     0.041 C 
HETATM    8  O8  UNL     1     -36.278  16.474  -4.672  1.00 20.00    -0.296 OA
HETATM    9 CL9  UNL     1     -34.581  16.076  -1.703  1.00 20.00    -0.111 Cl
ENDROOT
TORSDOF 0
ENDMDL
MODEL 4
REMARK VINA RESULT:      -4.1      2.138      2.862
REMARK  0 active torsions:
REMARK  status: ('A' for Active; 'I' for Inactive)
ROOT
HETATM    1  C1  UNL     1     -34.056  15.388  -5.144  1.00 20.00     0.149 C 
HETATM    2  C2  UNL     1     -33.253  16.653  -4.909  1.00 20.00     0.080 C 
HETATM    3  C3  UNL     1     -33.789  17.434  -3.721  1.00 20.00     0.007 C 
HETATM    4  C4  UNL     1     -33.887  16.564  -2.474  1.00 20.00     0.003 C 
HETATM    5  C5  UNL     1     -34.784  15.352  -2.730  1.00 20.00     0.033 C 
HETATM    6  C6  UNL     1     -34.342  14.501  -3.930  1.00 20.00     0.093 C 
HETATM    7  C7  UNL     1     -35.407  13.450  -4.249  1.00 20.00     0.041 C 
HETATM    8  O8  UNL     1     -34.378  15.060  -6.287  1.00 20.00    -0.296 OA
HETATM    9 CL9  UNL     1     -32.804  13.650  -3.569  1.00 20.00    -0.111 Cl
ENDROOT
TORSDOF 0
ENDMDL
MODEL 5
REMARK VINA RESULT:      -4.1      2.004      2.933
REMARK  0 active torsions:
REMARK  status: ('A' for Active; 'I' for Inactive)
ROOT
HETATM    1  C1  UNL     1     -35.073  13.820  -4.389  1.00 20.00     0.149 C 
HETATM    2  C2  UNL     1     -36.469  14.387  -4.561  1.00 20.00     0.080 C 
HETATM    3  C3  UNL     1     -36.903  15.169  -3.332  1.00 20.00     0.007 C 
HETATM    4  C4  UNL     1     -35.881  16.235  -2.953  1.00 20.00     0.003 C 
HETATM    5  C5  UNL     1     -34.512  15.603  -2.696  1.00 20.00     0.033 C 
HETATM    6  C6  UNL     1     -33.988  14.768  -3.874  1.00 20.00     0.093 C 
HETATM    7  C7  UNL     1     -32.732  14.000  -3.454  1.00 20.00     0.041 C 
HETATM    8  O8  UNL     1     -34.824  12.665  -4.740  1.00 20.00    -0.296 OA
HETATM    9 CL9  UNL     1     -33.560  15.826  -5.259  1.00 20.00    -0.111 Cl
ENDROOT
TORSDOF 0
ENDMDL
MODEL 6
REMARK VINA RESULT:      -4.1      2.367      2.728
REMARK  0 active torsions:
REMARK  status: ('A' for Active; 'I' for Inactive)
ROOT
HETATM    1  C1  UNL     1     -33.696  15.714  -4.331  1.00 20.00     0.149 C 
HETATM    2  C2  UNL     1     -33.997  15.820  -2.848  1.00 20.00     0.080 C 
HETATM    3  C3  UNL     1     -35.459  16.155  -2.604  1.00 20.00     0.007 C 
HETATM    4  C4  UNL     1     -36.387  15.180  -3.320  1.00 20.00     0.003 C 
HETATM    5  C5  UNL     1     -36.111  15.179  -4.824  1.00 20.00     0.033 C 
HETATM    6  C6  UNL     1     -34.648  14.872  -5.182  1.00 20.00     0.093 C 
HETATM    7  C7  UNL     1     -34.414  15.108  -6.676  1.00 20.00     0.041 C 
HETATM    8  O8  UNL     1     -32.672  16.218  -4.794  1.00 20.00    -0.296 OA
HETATM    9 CL9  UNL     1     -34.254  13.160  -4.816  1.00 20.00    -0.111 Cl
ENDROOT
TORSDOF 0
ENDMDL
MODEL 7
REMARK VINA RESULT:      -4.1      1.100      1.656
REMARK  0 active torsions:
REMARK  status: ('A' for Active; 'I' for Inactive)
ROOT
HETATM    1  C1  UNL     1     -34.852  14.436  -5.744  1.00 20.00     0.149 C 
HETATM    2  C2  UNL     1     -34.718  13.533  -4.533  1.00 20.00     0.080 C 
HETATM    3  C3  UNL     1     -33.406  13.775  -3.805  1.00 20.00     0.007 C 
HETATM    4  C4  UNL     1     -33.217  15.247  -3.461  1.00 20.00     0.003 C 
HETATM    5  C5  UNL     1     -33.262  16.108  -4.724  1.00 20.00     0.033 C 
HETATM    6  C6  UNL     1     -34.545  15.923  -5.550  1.00 20.00     0.093 C 
HETATM    7  C7  UNL     1     -34.412  16.643  -6.893  1.00 20.00     0.041 C 
HETATM    8  O8  UNL     1     -35.278  13.987  -6.810  1.00 20.00    -0.296 OA
HETATM    9 CL9  UNL     1     -35.959  16.608  -4.683  1.00 20.00    -0.111 Cl
ENDROOT
TORSDOF 0
ENDMDL
MODEL 8
REMARK VINA RESULT:      -4.0      2.049      2.715
REMARK  0 active torsions:
REMARK  status: ('A' for Active; 'I' for Inactive)
ROOT
HETATM    1  C1  UNL     1     -34.807  16.149  -4.880  1.00 20.00     0.149 C 
HETATM    2  C2  UNL     1     -33.302  16.087  -4.702  1.00 20.00     0.080 C 
HETATM    3  C3  UNL     1     -32.913  15.089  -3.623  1.00 20.00     0.007 C 
HETATM    4  C4  UNL     1     -33.528  13.718  -3.878  1.00 20.00     0.003 C 
HETATM    5  C5  UNL     1     -35.052  13.816  -3.954  1.00 20.00     0.033 C 
HETATM    6  C6  UNL     1     -35.554  14.819  -5.003  1.00 20.00     0.093 C 
HETATM    7  C7  UNL     1     -37.065  15.016  -4.860  1.00 20.00     0.041 C 
HETATM    8  O8  UNL     1     -35.373  17.235  -5.007  1.00 20.00    -0.296 OA
HETATM    9 CL9  UNL     1     -35.222  14.220  -6.662  1.00 20.00    -0.111 Cl
ENDROOT
TORSDOF 0
ENDMDL
MODEL 9
REMARK VINA RESULT:      -3.9      2.260      3.569
REMARK  0 active torsions:
REMARK  status: ('A' for Active; 'I' for Inactive)
ROOT
HETATM    1  C1  UNL     1     -33.981  16.107  -4.710  1.00 20.00     0.149 C 
HETATM    2  C2  UNL     1     -35.373  16.518  -5.152  1.00 20.00     0.080 C 
HETATM    3  C3  UNL     1     -36.253  15.305  -5.403  1.00 20.00     0.007 C 
HETATM    4  C4  UNL     1     -36.275  14.368  -4.201  1.00 20.00     0.003 C 
HETATM    5  C5  UNL     1     -34.859  13.904  -3.853  1.00 20.00     0.033 C 
HETATM    6  C6  UNL     1     -33.877  15.058  -3.601  1.00 20.00     0.093 C 
HETATM    7  C7  UNL     1     -32.451  14.517  -3.480  1.00 20.00     0.041 C 
HETATM    8  O8  UNL     1     -32.990  16.672  -5.174  1.00 20.00    -0.296 OA
HETATM    9 CL9  UNL     1     -34.284  15.912  -2.075  1.00 20.00    -0.111 Cl
ENDROOT
TORSDOF 0
ENDMDL
