MODEL 1
REMARK VINA RESULT:      -4.1      0.000      0.000
REMARK  3 active torsions:
REMARK  status: ('A' for Active; 'I' for Inactive)
REMARK    1  A    between atoms: C3_3  and  C9_9 
REMARK    2  A    between atoms: C8_8  and  O11_11 
REMARK    3  A    between atoms: N10_10  and  O11_11 
ROOT
HETATM    1  C1  UNL     1     -38.022  15.842  -6.560  1.00 20.00     0.014 C 
HETATM    2  C2  UNL     1     -38.167  15.382  -5.461  1.00 20.00    -0.089 C 
HETATM    3  C8  UNL     1     -38.347  14.823  -4.122  1.00 20.00     0.296 C 
ENDROOT
BRANCH   3   4
HETATM    4  O11 UNL     1     -37.206  14.069  -3.740  1.00 20.00    -0.244 OA
BRANCH   4   5
HETATM    5  N10 UNL     1     -36.178  14.966  -3.423  1.00 20.00    -0.142 NA
HETATM    6  C3  UNL     1     -35.033  14.564  -3.889  1.00 20.00     0.043 C 
HETATM    7  C4  UNL     1     -34.887  13.273  -4.673  1.00 20.00     0.069 C 
BRANCH   6   8
HETATM    8  C9  UNL     1     -33.775  15.427  -3.631  1.00 20.00    -0.009 C 
HETATM    9  C5  UNL     1     -32.549  14.512  -3.496  1.00 20.00     0.021 C 
HETATM   10  C6  UNL     1     -33.975  16.250  -2.351  1.00 20.00     0.021 C 
HETATM   11  C7  UNL     1     -33.522  16.402  -4.798  1.00 20.00     0.021 C 
ENDBRANCH   6   8
ENDBRANCH   4   5
ENDBRANCH   3   4
TORSDOF 3
ENDMDL
MODEL 2
REMARK VINA RESULT:      -4.1      2.267      4.674
REMARK  3 active torsions:
REMARK  status: ('A' for Active; 'I' for Inactive)
REMARK    1  A    between atoms: C3_3  and  C9_9 
REMARK    2  A    between atoms: C8_8  and  O11_11 
REMARK    3  A    between atoms: N10_10  and  O11_11 
ROOT
HETATM    1  C1  UNL     1     -33.248  18.557   0.248  1.00 20.00     0.014 C 
HETATM    2  C2  UNL     1     -33.793  17.698  -0.388  1.00 20.00    -0.089 C 
HETATM    3  C8  UNL     1     -34.460  16.652  -1.163  1.00 20.00     0.296 C 
ENDROOT
BRANCH   3   4
HETATM    4  O11 UNL     1     -33.652  16.254  -2.260  1.00 20.00    -0.244 OA
BRANCH   4   5
HETATM    5  N10 UNL     1     -34.387  15.349  -3.036  1.00 20.00    -0.142 NA
HETATM    6  C3  UNL     1     -34.222  15.566  -4.308  1.00 20.00     0.043 C 
HETATM    7  C4  UNL     1     -33.329  16.677  -4.829  1.00 20.00     0.069 C 
BRANCH   6   8
HETATM    8  C9  UNL     1     -34.963  14.666  -5.324  1.00 20.00    -0.009 C 
HETATM    9  C5  UNL     1     -36.463  14.993  -5.294  1.00 20.00     0.021 C 
HETATM   10  C6  UNL     1     -34.726  13.192  -4.968  1.00 20.00     0.021 C 
HETATM   11  C7  UNL     1     -34.447  14.905  -6.757  1.00 20.00     0.021 C 
ENDBRANCH   6   8
ENDBRANCH   4   5
ENDBRANCH   3   4
TORSDOF 3
ENDMDL
MODEL 3
REMARK VINA RESULT:      -4.1      2.248      4.648
REMARK  3 active torsions:
REMARK  status: ('A' for Active; 'I' for Inactive)
REMARK    1  A    between atoms: C3_3  and  C9_9 
REMARK    2  A    between atoms: C8_8  and  O11_11 
REMARK    3  A    between atoms: N10_10  and  O11_11 
ROOT
HETATM    1  C1  UNL     1     -33.349  18.541   0.245  1.00 20.00     0.014 C 
HETATM    2  C2  UNL     1     -33.868  17.662  -0.386  1.00 20.00    -0.089 C 
HETATM    3  C8  UNL     1     -34.503  16.591  -1.154  1.00 20.00     0.296 C 
ENDROOT
BRANCH   3   4
HETATM    4  O11 UNL     1     -33.681  16.208  -2.247  1.00 20.00    -0.244 OA
BRANCH   4   5
HETATM    5  N10 UNL     1     -34.407  15.315  -3.045  1.00 20.00    -0.142 NA
HETATM    6  C3  UNL     1     -34.228  15.552  -4.311  1.00 20.00     0.043 C 
HETATM    7  C4  UNL     1     -33.332  16.672  -4.805  1.00 20.00     0.069 C 
BRANCH   6   8
HETATM    8  C9  UNL     1     -34.957  14.667  -5.349  1.00 20.00    -0.009 C 
HETATM    9  C5  UNL     1     -34.399  14.959  -6.749  1.00 20.00     0.021 C 
HETATM   10  C6  UNL     1     -36.463  14.958  -5.299  1.00 20.00     0.021 C 
HETATM   11  C7  UNL     1     -34.746  13.170  -5.048  1.00 20.00     0.021 C 
ENDBRANCH   6   8
ENDBRANCH   4   5
ENDBRANCH   3   4
TORSDOF 3
ENDMDL
MODEL 4
REMARK VINA RESULT:      -4.0      1.010      1.592
REMARK  3 active torsions:
REMARK  status: ('A' for Active; 'I' for Inactive)
REMARK    1  A    between atoms: C3_3  and  C9_9 
REMARK    2  A    between atoms: C8_8  and  O11_11 
REMARK    3  A    between atoms: N10_10  and  O11_11 
ROOT
HETATM    1  C1  UNL     1     -40.296  15.908  -2.714  1.00 20.00     0.014 C 
HETATM    2  C2  UNL     1     -39.522  15.393  -3.474  1.00 20.00    -0.089 C 
HETATM    3  C8  UNL     1     -38.581  14.768  -4.402  1.00 20.00     0.296 C 
ENDROOT
BRANCH   3   4
HETATM    4  O11 UNL     1     -37.537  14.119  -3.690  1.00 20.00    -0.244 OA
BRANCH   4   5
HETATM    5  N10 UNL     1     -36.570  15.079  -3.367  1.00 20.00    -0.142 NA
HETATM    6  C3  UNL     1     -35.377  14.685  -3.702  1.00 20.00     0.043 C 
HETATM    7  C4  UNL     1     -35.123  13.342  -4.360  1.00 20.00     0.069 C 
BRANCH   6   8
HETATM    8  C9  UNL     1     -34.174  15.615  -3.416  1.00 20.00    -0.009 C 
HETATM    9  C5  UNL     1     -32.869  14.822  -3.577  1.00 20.00     0.021 C 
HETATM   10  C6  UNL     1     -34.290  16.175  -1.991  1.00 20.00     0.021 C 
HETATM   11  C7  UNL     1     -34.142  16.801  -4.399  1.00 20.00     0.021 C 
ENDBRANCH   6   8
ENDBRANCH   4   5
ENDBRANCH   3   4
TORSDOF 3
ENDMDL
MODEL 5
REMARK VINA RESULT:      -4.0     11.004     12.275
REMARK  3 active torsions:
REMARK  status: ('A' for Active; 'I' for Inactive)
REMARK    1  A    between atoms: C3_3  and  C9_9 
REMARK    2  A    between atoms: C8_8  and  O11_11 
REMARK    3  A    between atoms: N10_10  and  O11_11 
ROOT
HETATM    1  C1  UNL     1     -32.502   9.116   0.321  1.00 20.00     0.014 C 
HETATM    2  C2  UNL     1     -32.143   8.740   1.403  1.00 20.00    -0.089 C 
HETATM    3  C8  UNL     1     -31.705   8.285   2.722  1.00 20.00     0.296 C 
ENDROOT
BRANCH   3   4
HETATM    4  O11 UNL     1     -31.843   6.876   2.832  1.00 20.00    -0.244 OA
BRANCH   4   5
HETATM    5  N10 UNL     1     -32.619   6.603   3.966  1.00 20.00    -0.142 NA
HETATM    6  C3  UNL     1     -33.568   5.754   3.702  1.00 20.00     0.043 C 
HETATM    7  C4  UNL     1     -33.763   5.164   2.317  1.00 20.00     0.069 C 
BRANCH   6   8
HETATM    8  C9  UNL     1     -34.535   5.335   4.834  1.00 20.00    -0.009 C 
HETATM    9  C5  UNL     1     -35.982   5.434   4.331  1.00 20.00     0.021 C 
HETATM   10  C6  UNL     1     -34.324   6.249   6.049  1.00 20.00     0.021 C 
HETATM   11  C7  UNL     1     -34.277   3.880   5.275  1.00 20.00     0.021 C 
ENDBRANCH   6   8
ENDBRANCH   4   5
ENDBRANCH   3   4
TORSDOF 3
ENDMDL
MODEL 6
REMARK VINA RESULT:      -4.0      2.328      4.324
REMARK  3 active torsions:
REMARK  status: ('A' for Active; 'I' for Inactive)
REMARK    1  A    between atoms: C3_3  and  C9_9 
REMARK    2  A    between atoms: C8_8  and  O11_11 
REMARK    3  A    between atoms: N10_10  and  O11_11 
ROOT
HETATM    1  C1  UNL     1     -34.673  16.934  -0.338  1.00 20.00     0.014 C 
HETATM    2  C2  UNL     1     -34.530  17.549  -1.359  1.00 20.00    -0.089 C 
HETATM    3  C8  UNL     1     -34.357  18.300  -2.602  1.00 20.00     0.296 C 
ENDROOT
BRANCH   3   4
HETATM    4  O11 UNL     1     -33.561  17.566  -3.520  1.00 20.00    -0.244 OA
BRANCH   4   5
HETATM    5  N10 UNL     1     -34.419  16.863  -4.374  1.00 20.00    -0.142 NA
HETATM    6  C3  UNL     1     -34.092  15.607  -4.452  1.00 20.00     0.043 C 
HETATM    7  C4  UNL     1     -32.915  15.029  -3.689  1.00 20.00     0.069 C 
BRANCH   6   8
HETATM    8  C9  UNL     1     -34.926  14.670  -5.358  1.00 20.00    -0.009 C 
HETATM    9  C5  UNL     1     -34.709  13.214  -4.922  1.00 20.00     0.021 C 
HETATM   10  C6  UNL     1     -34.500  14.863  -6.820  1.00 20.00     0.021 C 
HETATM   11  C7  UNL     1     -36.431  14.987  -5.248  1.00 20.00     0.021 C 
ENDBRANCH   6   8
ENDBRANCH   4   5
ENDBRANCH   3   4
TORSDOF 3
ENDMDL
MODEL 7
REMARK VINA RESULT:      -4.0      2.257      4.407
REMARK  3 active torsions:
REMARK  status: ('A' for Active; 'I' for Inactive)
REMARK    1  A    between atoms: C3_3  and  C9_9 
REMARK    2  A    between atoms: C8_8  and  O11_11 
REMARK    3  A    between atoms: N10_10  and  O11_11 
ROOT
HETATM    1  C1  UNL     1     -32.658  18.656  -0.281  1.00 20.00     0.014 C 
HETATM    2  C2  UNL     1     -33.619  17.939  -0.240  1.00 20.00    -0.089 C 
HETATM    3  C8  UNL     1     -34.790  17.064  -0.187  1.00 20.00     0.296 C 
ENDROOT
BRANCH   3   4
HETATM    4  O11 UNL     1     -35.356  16.912  -1.481  1.00 20.00    -0.244 OA
BRANCH   4   5
HETATM    5  N10 UNL     1     -34.442  16.210  -2.276  1.00 20.00    -0.142 NA
HETATM    6  C3  UNL     1     -35.043  15.521  -3.200  1.00 20.00     0.043 C 
HETATM    7  C4  UNL     1     -36.553  15.516  -3.351  1.00 20.00     0.069 C 
BRANCH   6   8
HETATM    8  C9  UNL     1     -34.193  14.672  -4.174  1.00 20.00    -0.009 C 
HETATM    9  C5  UNL     1     -34.779  13.255  -4.260  1.00 20.00     0.021 C 
HETATM   10  C6  UNL     1     -32.742  14.625  -3.677  1.00 20.00     0.021 C 
HETATM   11  C7  UNL     1     -34.198  15.281  -5.591  1.00 20.00     0.021 C 
ENDBRANCH   6   8
ENDBRANCH   4   5
ENDBRANCH   3   4
TORSDOF 3
ENDMDL
MODEL 8
REMARK VINA RESULT:      -4.0      2.223      3.119
REMARK  3 active torsions:
REMARK  status: ('A' for Active; 'I' for Inactive)
REMARK    1  A    between atoms: C3_3  and  C9_9 
REMARK    2  A    between atoms: C8_8  and  O11_11 
REMARK    3  A    between atoms: N10_10  and  O11_11 
ROOT
HETATM    1  C1  UNL     1     -34.787  15.028  -6.866  1.00 20.00     0.014 C 
HETATM    2  C2  UNL     1     -34.861  14.134  -6.069  1.00 20.00    -0.089 C 
HETATM    3  C8  UNL     1     -34.953  13.042  -5.100  1.00 20.00     0.296 C 
ENDROOT
BRANCH   3   4
HETATM    4  O11 UNL     1     -34.246  13.370  -3.913  1.00 20.00    -0.244 OA
BRANCH   4   5
HETATM    5  N10 UNL     1     -34.908  14.438  -3.294  1.00 20.00    -0.142 NA
HETATM    6  C3  UNL     1     -34.102  15.433  -3.070  1.00 20.00     0.043 C 
HETATM    7  C4  UNL     1     -32.635  15.388  -3.453  1.00 20.00     0.069 C 
BRANCH   6   8
HETATM    8  C9  UNL     1     -34.655  16.705  -2.384  1.00 20.00    -0.009 C 
HETATM    9  C5  UNL     1     -36.122  16.905  -2.791  1.00 20.00     0.021 C 
HETATM   10  C6  UNL     1     -33.811  17.917  -2.802  1.00 20.00     0.021 C 
HETATM   11  C7  UNL     1     -34.594  16.580  -0.849  1.00 20.00     0.021 C 
ENDBRANCH   6   8
ENDBRANCH   4   5
ENDBRANCH   3   4
TORSDOF 3
ENDMDL
MODEL 9
REMARK VINA RESULT:      -4.0     11.536     12.833
REMARK  3 active torsions:
REMARK  status: ('A' for Active; 'I' for Inactive)
REMARK    1  A    between atoms: C3_3  and  C9_9 
REMARK    2  A    between atoms: C8_8  and  O11_11 
REMARK    3  A    between atoms: N10_10  and  O11_11 
ROOT
HETATM    1  C1  UNL     1     -32.508   9.734   1.445  1.00 20.00     0.014 C 
HETATM    2  C2  UNL     1     -32.158   8.705   1.953  1.00 20.00    -0.089 C 
HETATM    3  C8  UNL     1     -31.730   7.450   2.570  1.00 20.00     0.296 C 
ENDROOT
BRANCH   3   4
HETATM    4  O11 UNL     1     -32.262   7.333   3.882  1.00 20.00    -0.244 OA
BRANCH   4   5
HETATM    5  N10 UNL     1     -33.173   6.269   3.888  1.00 20.00    -0.142 NA
HETATM    6  C3  UNL     1     -33.700   6.100   5.065  1.00 20.00     0.043 C 
HETATM    7  C4  UNL     1     -33.336   6.977   6.248  1.00 20.00     0.069 C 
BRANCH   6   8
HETATM    8  C9  UNL     1     -34.729   4.963   5.268  1.00 20.00    -0.009 C 
HETATM    9  C5  UNL     1     -35.791   5.033   4.161  1.00 20.00     0.021 C 
HETATM   10  C6  UNL     1     -35.382   5.106   6.649  1.00 20.00     0.021 C 
HETATM   11  C7  UNL     1     -34.050   3.580   5.196  1.00 20.00     0.021 C 
ENDBRANCH   6   8
ENDBRANCH   4   5
ENDBRANCH   3   4
TORSDOF 3
ENDMDL
