MODEL 1
REMARK VINA RESULT:      -5.6      0.000      0.000
REMARK  1 active torsions:
REMARK  status: ('A' for Active; 'I' for Inactive)
REMARK    1  A    between atoms: C1_1  and  C7_7 
ROOT
HETATM    1  C2  UNL     1     -34.354   4.816   5.978  1.00 20.00     0.001 C 
HETATM    2  C3  UNL     1     -33.014   5.723   2.328  1.00 20.00     0.016 C 
HETATM    3  C4  UNL     1     -35.466   4.784   4.939  1.00 20.00     0.005 C 
HETATM    4  C5  UNL     1     -33.834   6.245   5.891  1.00 20.00     0.006 C 
HETATM    5  C6  UNL     1     -34.157   4.809   2.737  1.00 20.00     0.006 C 
HETATM    6  C7  UNL     1     -32.579   6.336   3.653  1.00 20.00     0.091 C 
HETATM    7  C8  UNL     1     -34.926   5.622   3.782  1.00 20.00    -0.010 C 
HETATM    8  C9  UNL     1     -33.895   6.592   4.400  1.00 20.00     0.004 C 
ENDROOT
BRANCH   6   9
HETATM    9  C1  UNL     1     -31.817   7.603   3.421  1.00 20.00     0.177 C 
HETATM   10  O10 UNL     1     -30.992   7.909   4.325  1.00 20.00    -0.648 OA
HETATM   11  O11 UNL     1     -32.102   8.202   2.346  1.00 20.00    -0.648 OA
ENDBRANCH   6   9
TORSDOF 1
ENDMDL
MODEL 2
REMARK VINA RESULT:      -5.1     11.482     13.076
REMARK  1 active torsions:
REMARK  status: ('A' for Active; 'I' for Inactive)
REMARK    1  A    between atoms: C1_1  and  C7_7 
ROOT
HETATM    1  C2  UNL     1     -34.565  17.896  -3.448  1.00 20.00     0.001 C 
HETATM    2  C3  UNL     1     -34.422  14.969  -6.159  1.00 20.00     0.016 C 
HETATM    3  C4  UNL     1     -33.631  18.234  -4.602  1.00 20.00     0.005 C 
HETATM    4  C5  UNL     1     -33.972  16.612  -2.882  1.00 20.00     0.006 C 
HETATM    5  C6  UNL     1     -34.260  16.468  -6.347  1.00 20.00     0.006 C 
HETATM    6  C7  UNL     1     -34.512  14.825  -4.645  1.00 20.00     0.091 C 
HETATM    7  C8  UNL     1     -33.301  16.880  -5.228  1.00 20.00    -0.010 C 
HETATM    8  C9  UNL     1     -33.487  15.833  -4.109  1.00 20.00     0.004 C 
ENDROOT
BRANCH   6   9
HETATM    9  C1  UNL     1     -34.185  13.426  -4.230  1.00 20.00     0.177 C 
HETATM   10  O10 UNL     1     -33.045  13.270  -3.710  1.00 20.00    -0.648 OA
HETATM   11  O11 UNL     1     -35.096  12.580  -4.454  1.00 20.00    -0.648 OA
ENDBRANCH   6   9
TORSDOF 1
ENDMDL
MODEL 3
REMARK VINA RESULT:      -4.9     11.083     12.671
REMARK  1 active torsions:
REMARK  status: ('A' for Active; 'I' for Inactive)
REMARK    1  A    between atoms: C1_1  and  C7_7 
ROOT
HETATM    1  C2  UNL     1     -35.110  17.391  -2.430  1.00 20.00     0.001 C 
HETATM    2  C3  UNL     1     -34.219  15.357  -5.746  1.00 20.00     0.016 C 
HETATM    3  C4  UNL     1     -34.047  18.095  -3.261  1.00 20.00     0.005 C 
HETATM    4  C5  UNL     1     -34.479  16.039  -2.126  1.00 20.00     0.006 C 
HETATM    5  C6  UNL     1     -34.193  16.855  -5.497  1.00 20.00     0.006 C 
HETATM    6  C7  UNL     1     -34.533  14.788  -4.369  1.00 20.00     0.091 C 
HETATM    7  C8  UNL     1     -33.475  16.995  -4.152  1.00 20.00    -0.010 C 
HETATM    8  C9  UNL     1     -33.722  15.666  -3.405  1.00 20.00     0.004 C 
ENDROOT
BRANCH   6   9
HETATM    9  C1  UNL     1     -34.126  13.352  -4.286  1.00 20.00     0.177 C 
HETATM   10  O10 UNL     1     -34.899  12.538  -4.863  1.00 20.00    -0.648 OA
HETATM   11  O11 UNL     1     -33.057  13.140  -3.647  1.00 20.00    -0.648 OA
ENDBRANCH   6   9
TORSDOF 1
ENDMDL
MODEL 4
REMARK VINA RESULT:      -4.8     10.934     12.194
REMARK  1 active torsions:
REMARK  status: ('A' for Active; 'I' for Inactive)
REMARK    1  A    between atoms: C1_1  and  C7_7 
ROOT
HETATM    1  C2  UNL     1     -36.929  16.788  -3.755  1.00 20.00     0.001 C 
HETATM    2  C3  UNL     1     -33.141  15.554  -3.506  1.00 20.00     0.016 C 
HETATM    3  C4  UNL     1     -36.258  17.265  -2.474  1.00 20.00     0.005 C 
HETATM    4  C5  UNL     1     -36.820  15.272  -3.664  1.00 20.00     0.006 C 
HETATM    5  C6  UNL     1     -33.783  16.816  -2.956  1.00 20.00     0.006 C 
HETATM    6  C7  UNL     1     -34.331  14.783  -4.063  1.00 20.00     0.091 C 
HETATM    7  C8  UNL     1     -35.071  16.320  -2.296  1.00 20.00    -0.010 C 
HETATM    8  C9  UNL     1     -35.447  15.017  -3.035  1.00 20.00     0.004 C 
ENDROOT
BRANCH   6   9
HETATM    9  C1  UNL     1     -34.000  13.331  -4.201  1.00 20.00     0.177 C 
HETATM   10  O10 UNL     1     -34.866  12.634  -4.799  1.00 20.00    -0.648 OA
HETATM   11  O11 UNL     1     -32.891  12.991  -3.700  1.00 20.00    -0.648 OA
ENDBRANCH   6   9
TORSDOF 1
ENDMDL
MODEL 5
REMARK VINA RESULT:      -4.7     11.151     12.443
REMARK  1 active torsions:
REMARK  status: ('A' for Active; 'I' for Inactive)
REMARK    1  A    between atoms: C1_1  and  C7_7 
ROOT
HETATM    1  C2  UNL     1     -33.198  13.452  -3.663  1.00 20.00     0.001 C 
HETATM    2  C3  UNL     1     -35.699  16.318  -2.454  1.00 20.00     0.016 C 
HETATM    3  C4  UNL     1     -32.556  14.831  -3.726  1.00 20.00     0.005 C 
HETATM    4  C5  UNL     1     -34.408  13.586  -4.577  1.00 20.00     0.006 C 
HETATM    5  C6  UNL     1     -34.184  16.253  -2.353  1.00 20.00     0.006 C 
HETATM    6  C7  UNL     1     -36.039  15.076  -3.268  1.00 20.00     0.091 C 
HETATM    7  C8  UNL     1     -33.739  15.796  -3.744  1.00 20.00    -0.010 C 
HETATM    8  C9  UNL     1     -34.930  15.004  -4.327  1.00 20.00     0.004 C 
ENDROOT
BRANCH   6   9
HETATM    9  C1  UNL     1     -37.392  15.209  -3.890  1.00 20.00     0.177 C 
HETATM   10  O10 UNL     1     -38.165  14.226  -3.715  1.00 20.00    -0.648 OA
HETATM   11  O11 UNL     1     -37.586  16.291  -4.512  1.00 20.00    -0.648 OA
ENDBRANCH   6   9
TORSDOF 1
ENDMDL
MODEL 6
REMARK VINA RESULT:      -4.7     10.908     12.143
REMARK  1 active torsions:
REMARK  status: ('A' for Active; 'I' for Inactive)
REMARK    1  A    between atoms: C1_1  and  C7_7 
ROOT
HETATM    1  C2  UNL     1     -34.846  17.049  -1.508  1.00 20.00     0.001 C 
HETATM    2  C3  UNL     1     -36.459  14.403  -4.025  1.00 20.00     0.016 C 
HETATM    3  C4  UNL     1     -35.680  17.725  -2.588  1.00 20.00     0.005 C 
HETATM    4  C5  UNL     1     -33.792  16.290  -2.304  1.00 20.00     0.006 C 
HETATM    5  C6  UNL     1     -36.985  15.758  -3.581  1.00 20.00     0.006 C 
HETATM    6  C7  UNL     1     -35.078  14.348  -3.385  1.00 20.00     0.091 C 
HETATM    7  C8  UNL     1     -35.772  16.683  -3.701  1.00 20.00    -0.010 C 
HETATM    8  C9  UNL     1     -34.533  15.775  -3.541  1.00 20.00     0.004 C 
ENDROOT
BRANCH   6   9
HETATM    9  C1  UNL     1     -34.215  13.345  -4.081  1.00 20.00     0.177 C 
HETATM   10  O10 UNL     1     -34.803  12.629  -4.938  1.00 20.00    -0.648 OA
HETATM   11  O11 UNL     1     -33.004  13.346  -3.719  1.00 20.00    -0.648 OA
ENDBRANCH   6   9
TORSDOF 1
ENDMDL
MODEL 7
REMARK VINA RESULT:      -4.6     11.389     13.025
REMARK  1 active torsions:
REMARK  status: ('A' for Active; 'I' for Inactive)
REMARK    1  A    between atoms: C1_1  and  C7_7 
ROOT
HETATM    1  C2  UNL     1     -33.743  17.604  -5.736  1.00 20.00     0.001 C 
HETATM    2  C3  UNL     1     -34.789  15.339  -2.620  1.00 20.00     0.016 C 
HETATM    3  C4  UNL     1     -35.139  17.940  -5.231  1.00 20.00     0.005 C 
HETATM    4  C5  UNL     1     -33.849  16.130  -6.103  1.00 20.00     0.006 C 
HETATM    5  C6  UNL     1     -35.194  16.764  -2.957  1.00 20.00     0.006 C 
HETATM    6  C7  UNL     1     -33.987  14.916  -3.844  1.00 20.00     0.091 C 
HETATM    7  C8  UNL     1     -35.562  16.703  -4.441  1.00 20.00    -0.010 C 
HETATM    8  C9  UNL     1     -34.755  15.524  -5.026  1.00 20.00     0.004 C 
ENDROOT
BRANCH   6   9
HETATM    9  C1  UNL     1     -33.917  13.424  -3.937  1.00 20.00     0.177 C 
HETATM   10  O10 UNL     1     -32.805  12.916  -3.622  1.00 20.00    -0.648 OA
HETATM   11  O11 UNL     1     -34.983  12.867  -4.321  1.00 20.00    -0.648 OA
ENDBRANCH   6   9
TORSDOF 1
ENDMDL
MODEL 8
REMARK VINA RESULT:      -4.6     11.800     12.722
REMARK  1 active torsions:
REMARK  status: ('A' for Active; 'I' for Inactive)
REMARK    1  A    between atoms: C1_1  and  C7_7 
ROOT
HETATM    1  C2  UNL     1     -33.635  15.968  -3.042  1.00 20.00     0.001 C 
HETATM    2  C3  UNL     1     -35.905  14.710  -6.075  1.00 20.00     0.016 C 
HETATM    3  C4  UNL     1     -33.075  14.709  -3.688  1.00 20.00     0.005 C 
HETATM    4  C5  UNL     1     -35.024  15.539  -2.585  1.00 20.00     0.006 C 
HETATM    5  C6  UNL     1     -34.405  14.579  -5.873  1.00 20.00     0.006 C 
HETATM    6  C7  UNL     1     -36.373  15.318  -4.759  1.00 20.00     0.091 C 
HETATM    7  C8  UNL     1     -34.266  14.101  -4.425  1.00 20.00    -0.010 C 
HETATM    8  C9  UNL     1     -35.527  14.608  -3.693  1.00 20.00     0.004 C 
ENDROOT
BRANCH   6   9
HETATM    9  C1  UNL     1     -37.835  15.077  -4.559  1.00 20.00     0.177 C 
HETATM   10  O10 UNL     1     -38.125  14.186  -3.713  1.00 20.00    -0.648 OA
HETATM   11  O11 UNL     1     -38.593  15.801  -5.265  1.00 20.00    -0.648 OA
ENDBRANCH   6   9
TORSDOF 1
ENDMDL
MODEL 9
REMARK VINA RESULT:      -4.6     11.528     13.156
REMARK  1 active torsions:
REMARK  status: ('A' for Active; 'I' for Inactive)
REMARK    1  A    between atoms: C1_1  and  C7_7 
ROOT
HETATM    1  C2  UNL     1     -34.033  17.391  -6.218  1.00 20.00     0.001 C 
HETATM    2  C3  UNL     1     -34.814  15.423  -2.834  1.00 20.00     0.016 C 
HETATM    3  C4  UNL     1     -35.406  17.739  -5.661  1.00 20.00     0.005 C 
HETATM    4  C5  UNL     1     -34.113  15.885  -6.431  1.00 20.00     0.006 C 
HETATM    5  C6  UNL     1     -35.285  16.795  -3.283  1.00 20.00     0.006 C 
HETATM    6  C7  UNL     1     -34.075  14.900  -4.059  1.00 20.00     0.091 C 
HETATM    7  C8  UNL     1     -35.740  16.577  -4.728  1.00 20.00    -0.010 C 
HETATM    8  C9  UNL     1     -34.932  15.367  -5.244  1.00 20.00     0.004 C 
ENDROOT
BRANCH   6   9
HETATM    9  C1  UNL     1     -33.961  13.410  -4.010  1.00 20.00     0.177 C 
HETATM   10  O10 UNL     1     -35.014  12.778  -4.304  1.00 20.00    -0.648 OA
HETATM   11  O11 UNL     1     -32.822  12.976  -3.679  1.00 20.00    -0.648 OA
ENDBRANCH   6   9
TORSDOF 1
ENDMDL
