MODEL 1
REMARK VINA RESULT:      -4.1      0.000      0.000
REMARK  2 active torsions:
REMARK  status: ('A' for Active; 'I' for Inactive)
REMARK    1  A    between atoms: C1_1  and  C7_7 
REMARK    2  A    between atoms: C7_7  and  C8_8 
ROOT
HETATM    1  C3  UNL     1     -36.912  15.266  -3.942  1.00 20.00     0.018 C 
HETATM    2  C7  UNL     1     -35.535  14.667  -3.631  1.00 20.00     0.058 C 
ENDROOT
BRANCH   2   3
HETATM    3  C1  UNL     1     -35.159  13.736  -4.787  1.00 20.00     0.127 C 
HETATM    4  C2  UNL     1     -35.262  14.305  -6.180  1.00 20.00     0.091 C 
HETATM    5  O9  UNL     1     -34.769  12.583  -4.603  1.00 20.00    -0.298 OA
ENDBRANCH   2   3
BRANCH   2   6
HETATM    6  C8  UNL     1     -34.421  15.710  -3.290  1.00 20.00    -0.041 C 
HETATM    7  C4  UNL     1     -34.505  16.112  -1.802  1.00 20.00     0.015 C 
HETATM    8  C5  UNL     1     -32.999  15.186  -3.572  1.00 20.00     0.015 C 
HETATM    9  C6  UNL     1     -34.630  16.990  -4.126  1.00 20.00     0.015 C 
ENDBRANCH   2   6
TORSDOF 2
ENDMDL
MODEL 2
REMARK VINA RESULT:      -4.1      0.105      1.425
REMARK  2 active torsions:
REMARK  status: ('A' for Active; 'I' for Inactive)
REMARK    1  A    between atoms: C1_1  and  C7_7 
REMARK    2  A    between atoms: C7_7  and  C8_8 
ROOT
HETATM    1  C3  UNL     1     -36.854  15.340  -4.007  1.00 20.00     0.018 C 
HETATM    2  C7  UNL     1     -35.505  14.699  -3.660  1.00 20.00     0.058 C 
ENDROOT
BRANCH   2   3
HETATM    3  C1  UNL     1     -35.145  13.728  -4.787  1.00 20.00     0.127 C 
HETATM    4  C2  UNL     1     -35.201  14.267  -6.194  1.00 20.00     0.091 C 
HETATM    5  O9  UNL     1     -34.803  12.565  -4.570  1.00 20.00    -0.298 OA
ENDBRANCH   2   3
BRANCH   2   6
HETATM    6  C8  UNL     1     -34.358  15.709  -3.324  1.00 20.00    -0.041 C 
HETATM    7  C4  UNL     1     -32.983  15.048  -3.553  1.00 20.00     0.015 C 
HETATM    8  C5  UNL     1     -34.424  16.997  -4.167  1.00 20.00     0.015 C 
HETATM    9  C6  UNL     1     -34.436  16.110  -1.835  1.00 20.00     0.015 C 
ENDBRANCH   2   6
TORSDOF 2
ENDMDL
MODEL 3
REMARK VINA RESULT:      -4.0      0.759      2.239
REMARK  2 active torsions:
REMARK  status: ('A' for Active; 'I' for Inactive)
REMARK    1  A    between atoms: C1_1  and  C7_7 
REMARK    2  A    between atoms: C7_7  and  C8_8 
ROOT
HETATM    1  C3  UNL     1     -32.944  14.025  -3.502  1.00 20.00     0.018 C 
HETATM    2  C7  UNL     1     -33.974  14.779  -4.351  1.00 20.00     0.058 C 
ENDROOT
BRANCH   2   3
HETATM    3  C1  UNL     1     -34.692  13.754  -5.233  1.00 20.00     0.127 C 
HETATM    4  C2  UNL     1     -35.152  14.227  -6.589  1.00 20.00     0.091 C 
HETATM    5  O9  UNL     1     -34.872  12.589  -4.877  1.00 20.00    -0.298 OA
ENDBRANCH   2   3
BRANCH   2   6
HETATM    6  C8  UNL     1     -34.954  15.694  -3.546  1.00 20.00    -0.041 C 
HETATM    7  C4  UNL     1     -35.107  17.060  -4.250  1.00 20.00     0.015 C 
HETATM    8  C5  UNL     1     -36.355  15.076  -3.377  1.00 20.00     0.015 C 
HETATM    9  C6  UNL     1     -34.379  15.963  -2.139  1.00 20.00     0.015 C 
ENDBRANCH   2   6
TORSDOF 2
ENDMDL
MODEL 4
REMARK VINA RESULT:      -3.9      1.425      2.416
REMARK  2 active torsions:
REMARK  status: ('A' for Active; 'I' for Inactive)
REMARK    1  A    between atoms: C1_1  and  C7_7 
REMARK    2  A    between atoms: C7_7  and  C8_8 
ROOT
HETATM    1  C3  UNL     1     -36.697  14.689  -4.082  1.00 20.00     0.018 C 
HETATM    2  C7  UNL     1     -35.210  14.977  -4.321  1.00 20.00     0.058 C 
ENDROOT
BRANCH   2   3
HETATM    3  C1  UNL     1     -34.453  13.652  -4.203  1.00 20.00     0.127 C 
HETATM    4  C2  UNL     1     -33.063  13.712  -3.623  1.00 20.00     0.091 C 
HETATM    5  O9  UNL     1     -34.950  12.577  -4.541  1.00 20.00    -0.298 OA
ENDBRANCH   2   3
BRANCH   2   6
HETATM    6  C8  UNL     1     -34.890  15.757  -5.638  1.00 20.00    -0.041 C 
HETATM    7  C4  UNL     1     -33.702  16.718  -5.412  1.00 20.00     0.015 C 
HETATM    8  C5  UNL     1     -34.546  14.830  -6.819  1.00 20.00     0.015 C 
HETATM    9  C6  UNL     1     -36.107  16.616  -6.045  1.00 20.00     0.015 C 
ENDBRANCH   2   6
TORSDOF 2
ENDMDL
MODEL 5
REMARK VINA RESULT:      -3.9      1.490      2.848
REMARK  2 active torsions:
REMARK  status: ('A' for Active; 'I' for Inactive)
REMARK    1  A    between atoms: C1_1  and  C7_7 
REMARK    2  A    between atoms: C7_7  and  C8_8 
ROOT
HETATM    1  C3  UNL     1     -34.889  16.128  -2.092  1.00 20.00     0.018 C 
HETATM    2  C7  UNL     1     -35.246  14.951  -3.008  1.00 20.00     0.058 C 
ENDROOT
BRANCH   2   3
HETATM    3  C1  UNL     1     -36.698  15.134  -3.457  1.00 20.00     0.127 C 
HETATM    4  C2  UNL     1     -37.237  16.542  -3.461  1.00 20.00     0.091 C 
HETATM    5  O9  UNL     1     -37.399  14.190  -3.822  1.00 20.00    -0.298 OA
ENDBRANCH   2   3
BRANCH   2   6
HETATM    6  C8  UNL     1     -34.258  14.711  -4.195  1.00 20.00    -0.041 C 
HETATM    7  C4  UNL     1     -34.317  13.236  -4.648  1.00 20.00     0.015 C 
HETATM    8  C5  UNL     1     -34.551  15.605  -5.415  1.00 20.00     0.015 C 
HETATM    9  C6  UNL     1     -32.811  14.994  -3.735  1.00 20.00     0.015 C 
ENDBRANCH   2   6
TORSDOF 2
ENDMDL
MODEL 6
REMARK VINA RESULT:      -3.8      0.922      2.234
REMARK  2 active torsions:
REMARK  status: ('A' for Active; 'I' for Inactive)
REMARK    1  A    between atoms: C1_1  and  C7_7 
REMARK    2  A    between atoms: C7_7  and  C8_8 
ROOT
HETATM    1  C3  UNL     1     -34.458  14.880  -6.126  1.00 20.00     0.018 C 
HETATM    2  C7  UNL     1     -35.098  15.339  -4.811  1.00 20.00     0.058 C 
ENDROOT
BRANCH   2   3
HETATM    3  C1  UNL     1     -36.020  14.218  -4.325  1.00 20.00     0.127 C 
HETATM    4  C2  UNL     1     -37.432  14.606  -3.964  1.00 20.00     0.091 C 
HETATM    5  O9  UNL     1     -35.649  13.046  -4.248  1.00 20.00    -0.298 OA
ENDBRANCH   2   3
BRANCH   2   6
HETATM    6  C8  UNL     1     -34.092  15.829  -3.719  1.00 20.00    -0.041 C 
HETATM    7  C4  UNL     1     -33.618  17.263  -4.036  1.00 20.00     0.015 C 
HETATM    8  C5  UNL     1     -34.692  15.818  -2.299  1.00 20.00     0.015 C 
HETATM    9  C6  UNL     1     -32.844  14.920  -3.714  1.00 20.00     0.015 C 
ENDBRANCH   2   6
TORSDOF 2
ENDMDL
MODEL 7
REMARK VINA RESULT:      -3.8      1.678      3.569
REMARK  2 active torsions:
REMARK  status: ('A' for Active; 'I' for Inactive)
REMARK    1  A    between atoms: C1_1  and  C7_7 
REMARK    2  A    between atoms: C7_7  and  C8_8 
ROOT
HETATM    1  C3  UNL     1     -33.634  17.406  -5.211  1.00 20.00     0.018 C 
HETATM    2  C7  UNL     1     -33.465  15.882  -5.208  1.00 20.00     0.058 C 
ENDROOT
BRANCH   2   3
HETATM    3  C1  UNL     1     -33.096  15.455  -3.785  1.00 20.00     0.127 C 
HETATM    4  C2  UNL     1     -33.864  16.101  -2.660  1.00 20.00     0.091 C 
HETATM    5  O9  UNL     1     -32.230  14.611  -3.554  1.00 20.00    -0.298 OA
ENDBRANCH   2   3
BRANCH   2   6
HETATM    6  C8  UNL     1     -34.671  15.080  -5.800  1.00 20.00    -0.041 C 
HETATM    7  C4  UNL     1     -34.516  14.936  -7.328  1.00 20.00     0.015 C 
HETATM    8  C5  UNL     1     -34.815  13.672  -5.191  1.00 20.00     0.015 C 
HETATM    9  C6  UNL     1     -35.985  15.847  -5.539  1.00 20.00     0.015 C 
ENDBRANCH   2   6
TORSDOF 2
ENDMDL
MODEL 8
REMARK VINA RESULT:      -3.8      1.988      3.762
REMARK  2 active torsions:
REMARK  status: ('A' for Active; 'I' for Inactive)
REMARK    1  A    between atoms: C1_1  and  C7_7 
REMARK    2  A    between atoms: C7_7  and  C8_8 
ROOT
HETATM    1  C3  UNL     1     -32.600  14.891  -3.610  1.00 20.00     0.018 C 
HETATM    2  C7  UNL     1     -34.017  15.066  -3.051  1.00 20.00     0.058 C 
ENDROOT
BRANCH   2   3
HETATM    3  C1  UNL     1     -34.110  16.469  -2.446  1.00 20.00     0.127 C 
HETATM    4  C2  UNL     1     -34.576  16.564  -1.015  1.00 20.00     0.091 C 
HETATM    5  O9  UNL     1     -33.802  17.480  -3.077  1.00 20.00    -0.298 OA
ENDBRANCH   2   3
BRANCH   2   6
HETATM    6  C8  UNL     1     -35.171  14.749  -4.057  1.00 20.00    -0.041 C 
HETATM    7  C4  UNL     1     -34.966  15.539  -5.368  1.00 20.00     0.015 C 
HETATM    8  C5  UNL     1     -35.275  13.252  -4.404  1.00 20.00     0.015 C 
HETATM    9  C6  UNL     1     -36.523  15.193  -3.457  1.00 20.00     0.015 C 
ENDBRANCH   2   6
TORSDOF 2
ENDMDL
MODEL 9
REMARK VINA RESULT:      -3.7      1.736      2.280
REMARK  2 active torsions:
REMARK  status: ('A' for Active; 'I' for Inactive)
REMARK    1  A    between atoms: C1_1  and  C7_7 
REMARK    2  A    between atoms: C7_7  and  C8_8 
ROOT
HETATM    1  C3  UNL     1     -35.215  13.268  -4.292  1.00 20.00     0.018 C 
HETATM    2  C7  UNL     1     -34.357  14.308  -5.021  1.00 20.00     0.058 C 
ENDROOT
BRANCH   2   3
HETATM    3  C1  UNL     1     -35.230  14.962  -6.096  1.00 20.00     0.127 C 
HETATM    4  C2  UNL     1     -34.707  14.927  -7.510  1.00 20.00     0.091 C 
HETATM    5  O9  UNL     1     -36.318  15.475  -5.839  1.00 20.00    -0.298 OA
ENDBRANCH   2   3
BRANCH   2   6
HETATM    6  C8  UNL     1     -33.640  15.344  -4.094  1.00 20.00    -0.041 C 
HETATM    7  C4  UNL     1     -32.314  14.757  -3.565  1.00 20.00     0.015 C 
HETATM    8  C5  UNL     1     -33.331  16.676  -4.805  1.00 20.00     0.015 C 
HETATM    9  C6  UNL     1     -34.530  15.653  -2.871  1.00 20.00     0.015 C 
ENDBRANCH   2   6
TORSDOF 2
ENDMDL
