MODEL 1
REMARK VINA RESULT:      -4.1      0.000      0.000
REMARK  3 active torsions:
REMARK  status: ('A' for Active; 'I' for Inactive)
REMARK    1  A    between atoms: C3_3  and  C8_8 
REMARK    2  A    between atoms: C6_6  and  C7_7 
REMARK    3  A    between atoms: C7_7  and  C8_8 
ROOT
HETATM    1  C1  UNL     1     -33.654  18.090  -5.107  1.00 20.00     0.197 C 
HETATM    2  C2  UNL     1     -35.068  17.700  -5.438  1.00 20.00     0.197 C 
HETATM    3  C3  UNL     1     -33.905  15.851  -4.874  1.00 20.00     0.263 C 
HETATM    4  O9  UNL     1     -32.938  16.860  -5.197  1.00 20.00    -0.359 OA
HETATM    5  O10 UNL     1     -35.212  16.433  -4.798  1.00 20.00    -0.359 OA
ENDROOT
BRANCH   3   6
HETATM    6  C8  UNL     1     -33.559  15.212  -3.543  1.00 20.00     0.037 C 
HETATM    7  C5  UNL     1     -33.563  13.689  -3.687  1.00 20.00     0.015 C 
BRANCH   6   8
HETATM    8  C7  UNL     1     -34.535  15.703  -2.459  1.00 20.00     0.009 C 
BRANCH   8   9
HETATM    9  C6  UNL     1     -33.955  16.807  -1.571  1.00 20.00    -0.004 C 
HETATM   10  C4  UNL     1     -34.761  16.970  -0.291  1.00 20.00     0.005 C 
ENDBRANCH   8   9
ENDBRANCH   6   8
ENDBRANCH   3   6
TORSDOF 3
ENDMDL
MODEL 2
REMARK VINA RESULT:      -4.0      1.192      1.567
REMARK  3 active torsions:
REMARK  status: ('A' for Active; 'I' for Inactive)
REMARK    1  A    between atoms: C3_3  and  C8_8 
REMARK    2  A    between atoms: C6_6  and  C7_7 
REMARK    3  A    between atoms: C7_7  and  C8_8 
ROOT
HETATM    1  C1  UNL     1     -33.663  16.920  -5.718  1.00 20.00     0.197 C 
HETATM    2  C2  UNL     1     -34.128  15.678  -6.427  1.00 20.00     0.197 C 
HETATM    3  C3  UNL     1     -33.572  15.151  -4.305  1.00 20.00     0.263 C 
HETATM    4  O9  UNL     1     -32.952  16.414  -4.588  1.00 20.00    -0.359 OA
HETATM    5  O10 UNL     1     -34.486  14.809  -5.354  1.00 20.00    -0.359 OA
ENDROOT
BRANCH   3   6
HETATM    6  C8  UNL     1     -34.322  15.229  -2.989  1.00 20.00     0.037 C 
HETATM    7  C5  UNL     1     -35.829  15.221  -3.254  1.00 20.00     0.015 C 
BRANCH   6   8
HETATM    8  C7  UNL     1     -33.870  16.473  -2.202  1.00 20.00     0.009 C 
BRANCH   8   9
HETATM    9  C6  UNL     1     -34.620  16.666  -0.882  1.00 20.00    -0.004 C 
HETATM   10  C4  UNL     1     -34.041  17.821  -0.080  1.00 20.00     0.005 C 
ENDBRANCH   8   9
ENDBRANCH   6   8
ENDBRANCH   3   6
TORSDOF 3
ENDMDL
MODEL 3
REMARK VINA RESULT:      -4.0      1.442      1.863
REMARK  3 active torsions:
REMARK  status: ('A' for Active; 'I' for Inactive)
REMARK    1  A    between atoms: C3_3  and  C8_8 
REMARK    2  A    between atoms: C6_6  and  C7_7 
REMARK    3  A    between atoms: C7_7  and  C8_8 
ROOT
HETATM    1  C1  UNL     1     -34.433  15.021  -7.244  1.00 20.00     0.197 C 
HETATM    2  C2  UNL     1     -34.790  16.468  -7.040  1.00 20.00     0.197 C 
HETATM    3  C3  UNL     1     -34.636  15.455  -5.030  1.00 20.00     0.263 C 
HETATM    4  O9  UNL     1     -34.786  14.412  -6.003  1.00 20.00    -0.359 OA
HETATM    5  O10 UNL     1     -34.405  16.707  -5.688  1.00 20.00    -0.359 OA
ENDROOT
BRANCH   3   6
HETATM    6  C8  UNL     1     -33.468  15.144  -4.115  1.00 20.00     0.037 C 
HETATM    7  C5  UNL     1     -33.504  13.666  -3.719  1.00 20.00     0.015 C 
BRANCH   6   8
HETATM    8  C7  UNL     1     -33.496  16.081  -2.894  1.00 20.00     0.009 C 
BRANCH   8   9
HETATM    9  C6  UNL     1     -34.773  15.958  -2.059  1.00 20.00    -0.004 C 
HETATM   10  C4  UNL     1     -34.643  16.696  -0.736  1.00 20.00     0.005 C 
ENDBRANCH   8   9
ENDBRANCH   6   8
ENDBRANCH   3   6
TORSDOF 3
ENDMDL
MODEL 4
REMARK VINA RESULT:      -4.0     11.563     13.242
REMARK  3 active torsions:
REMARK  status: ('A' for Active; 'I' for Inactive)
REMARK    1  A    between atoms: C3_3  and  C8_8 
REMARK    2  A    between atoms: C6_6  and  C7_7 
REMARK    3  A    between atoms: C7_7  and  C8_8 
ROOT
HETATM    1  C1  UNL     1     -35.166   4.986   5.874  1.00 20.00     0.197 C 
HETATM    2  C2  UNL     1     -34.447   6.010   6.708  1.00 20.00     0.197 C 
HETATM    3  C3  UNL     1     -33.352   5.752   4.753  1.00 20.00     0.263 C 
HETATM    4  O9  UNL     1     -34.190   4.598   4.907  1.00 20.00    -0.359 OA
HETATM    5  O10 UNL     1     -33.681   6.732   5.745  1.00 20.00    -0.359 OA
ENDROOT
BRANCH   3   6
HETATM    6  C8  UNL     1     -33.545   6.348   3.372  1.00 20.00     0.037 C 
HETATM    7  C5  UNL     1     -34.183   5.309   2.448  1.00 20.00     0.015 C 
BRANCH   6   8
HETATM    8  C7  UNL     1     -32.199   6.867   2.834  1.00 20.00     0.009 C 
BRANCH   8   9
HETATM    9  C6  UNL     1     -32.219   8.354   2.471  1.00 20.00    -0.004 C 
HETATM   10  C4  UNL     1     -31.844   8.574   1.014  1.00 20.00     0.005 C 
ENDBRANCH   8   9
ENDBRANCH   6   8
ENDBRANCH   3   6
TORSDOF 3
ENDMDL
MODEL 5
REMARK VINA RESULT:      -3.9      1.519      2.690
REMARK  3 active torsions:
REMARK  status: ('A' for Active; 'I' for Inactive)
REMARK    1  A    between atoms: C3_3  and  C8_8 
REMARK    2  A    between atoms: C6_6  and  C7_7 
REMARK    3  A    between atoms: C7_7  and  C8_8 
ROOT
HETATM    1  C1  UNL     1     -35.018  14.208  -5.703  1.00 20.00     0.197 C 
HETATM    2  C2  UNL     1     -34.835  13.240  -4.567  1.00 20.00     0.197 C 
HETATM    3  C3  UNL     1     -33.748  15.157  -4.084  1.00 20.00     0.263 C 
HETATM    4  O9  UNL     1     -33.975  15.161  -5.500  1.00 20.00    -0.359 OA
HETATM    5  O10 UNL     1     -34.481  14.087  -3.475  1.00 20.00    -0.359 OA
ENDROOT
BRANCH   3   6
HETATM    6  C8  UNL     1     -34.195  16.477  -3.486  1.00 20.00     0.037 C 
HETATM    7  C5  UNL     1     -33.733  17.629  -4.380  1.00 20.00     0.015 C 
BRANCH   6   8
HETATM    8  C7  UNL     1     -33.669  16.603  -2.045  1.00 20.00     0.009 C 
BRANCH   8   9
HETATM    9  C6  UNL     1     -34.769  16.516  -0.984  1.00 20.00    -0.004 C 
HETATM   10  C4  UNL     1     -34.564  17.549   0.113  1.00 20.00     0.005 C 
ENDBRANCH   8   9
ENDBRANCH   6   8
ENDBRANCH   3   6
TORSDOF 3
ENDMDL
MODEL 6
REMARK VINA RESULT:      -3.9     11.002     12.712
REMARK  3 active torsions:
REMARK  status: ('A' for Active; 'I' for Inactive)
REMARK    1  A    between atoms: C3_3  and  C8_8 
REMARK    2  A    between atoms: C6_6  and  C7_7 
REMARK    3  A    between atoms: C7_7  and  C8_8 
ROOT
HETATM    1  C1  UNL     1     -34.352   5.187   5.795  1.00 20.00     0.197 C 
HETATM    2  C2  UNL     1     -35.247   4.831   4.640  1.00 20.00     0.197 C 
HETATM    3  C3  UNL     1     -33.914   6.548   4.037  1.00 20.00     0.263 C 
HETATM    4  O9  UNL     1     -33.896   6.500   5.471  1.00 20.00    -0.359 OA
HETATM    5  O10 UNL     1     -34.559   5.379   3.517  1.00 20.00    -0.359 OA
ENDROOT
BRANCH   3   6
HETATM    6  C8  UNL     1     -32.496   6.620   3.505  1.00 20.00     0.037 C 
HETATM    7  C5  UNL     1     -31.662   7.551   4.388  1.00 20.00     0.015 C 
BRANCH   6   8
HETATM    8  C7  UNL     1     -32.513   7.065   2.031  1.00 20.00     0.009 C 
BRANCH   8   9
HETATM    9  C6  UNL     1     -31.792   8.393   1.787  1.00 20.00    -0.004 C 
HETATM   10  C4  UNL     1     -32.484   9.208   0.706  1.00 20.00     0.005 C 
ENDBRANCH   8   9
ENDBRANCH   6   8
ENDBRANCH   3   6
TORSDOF 3
ENDMDL
MODEL 7
REMARK VINA RESULT:      -3.9      1.755      3.547
REMARK  3 active torsions:
REMARK  status: ('A' for Active; 'I' for Inactive)
REMARK    1  A    between atoms: C3_3  and  C8_8 
REMARK    2  A    between atoms: C6_6  and  C7_7 
REMARK    3  A    between atoms: C7_7  and  C8_8 
ROOT
HETATM    1  C1  UNL     1     -33.567  17.753  -1.086  1.00 20.00     0.197 C 
HETATM    2  C2  UNL     1     -34.618  16.739  -0.725  1.00 20.00     0.197 C 
HETATM    3  C3  UNL     1     -34.256  16.665  -2.951  1.00 20.00     0.263 C 
HETATM    4  O9  UNL     1     -33.736  17.921  -2.494  1.00 20.00    -0.359 OA
HETATM    5  O10 UNL     1     -34.590  15.837  -1.830  1.00 20.00    -0.359 OA
ENDROOT
BRANCH   3   6
HETATM    6  C8  UNL     1     -33.223  15.960  -3.808  1.00 20.00     0.037 C 
HETATM    7  C5  UNL     1     -33.372  16.405  -5.264  1.00 20.00     0.015 C 
BRANCH   6   8
HETATM    8  C7  UNL     1     -33.359  14.435  -3.642  1.00 20.00     0.009 C 
BRANCH   8   9
HETATM    9  C6  UNL     1     -34.188  13.773  -4.746  1.00 20.00    -0.004 C 
HETATM   10  C4  UNL     1     -35.611  13.502  -4.282  1.00 20.00     0.005 C 
ENDBRANCH   8   9
ENDBRANCH   6   8
ENDBRANCH   3   6
TORSDOF 3
ENDMDL
MODEL 8
REMARK VINA RESULT:      -3.8      0.971      2.818
REMARK  3 active torsions:
REMARK  status: ('A' for Active; 'I' for Inactive)
REMARK    1  A    between atoms: C3_3  and  C8_8 
REMARK    2  A    between atoms: C6_6  and  C7_7 
REMARK    3  A    between atoms: C7_7  and  C8_8 
ROOT
HETATM    1  C1  UNL     1     -35.087  17.274  -5.973  1.00 20.00     0.197 C 
HETATM    2  C2  UNL     1     -33.669  17.773  -5.940  1.00 20.00     0.197 C 
HETATM    3  C3  UNL     1     -34.325  17.275  -3.840  1.00 20.00     0.263 C 
HETATM    4  O9  UNL     1     -35.521  17.409  -4.620  1.00 20.00    -0.359 OA
HETATM    5  O10 UNL     1     -33.178  17.270  -4.699  1.00 20.00    -0.359 OA
ENDROOT
BRANCH   3   6
HETATM    6  C8  UNL     1     -34.367  15.982  -3.049  1.00 20.00     0.037 C 
HETATM    7  C5  UNL     1     -34.462  16.296  -1.554  1.00 20.00     0.015 C 
BRANCH   6   8
HETATM    8  C7  UNL     1     -33.140  15.119  -3.392  1.00 20.00     0.009 C 
BRANCH   8   9
HETATM    9  C6  UNL     1     -33.498  13.697  -3.833  1.00 20.00    -0.004 C 
HETATM   10  C4  UNL     1     -34.980  13.571  -4.147  1.00 20.00     0.005 C 
ENDBRANCH   8   9
ENDBRANCH   6   8
ENDBRANCH   3   6
TORSDOF 3
ENDMDL
MODEL 9
REMARK VINA RESULT:      -3.8      2.217      2.705
REMARK  3 active torsions:
REMARK  status: ('A' for Active; 'I' for Inactive)
REMARK    1  A    between atoms: C3_3  and  C8_8 
REMARK    2  A    between atoms: C6_6  and  C7_7 
REMARK    3  A    between atoms: C7_7  and  C8_8 
ROOT
HETATM    1  C1  UNL     1     -37.508  15.714  -5.292  1.00 20.00     0.197 C 
HETATM    2  C2  UNL     1     -38.157  14.866  -4.234  1.00 20.00     0.197 C 
HETATM    3  C3  UNL     1     -35.982  14.292  -4.407  1.00 20.00     0.263 C 
HETATM    4  O9  UNL     1     -36.316  14.996  -5.611  1.00 20.00    -0.359 OA
HETATM    5  O10 UNL     1     -37.049  14.413  -3.458  1.00 20.00    -0.359 OA
ENDROOT
BRANCH   3   6
HETATM    6  C8  UNL     1     -34.711  14.865  -3.810  1.00 20.00     0.037 C 
HETATM    7  C5  UNL     1     -33.619  13.793  -3.800  1.00 20.00     0.015 C 
BRANCH   6   8
HETATM    8  C7  UNL     1     -34.999  15.425  -2.406  1.00 20.00     0.009 C 
BRANCH   8   9
HETATM    9  C6  UNL     1     -34.024  16.524  -1.976  1.00 20.00    -0.004 C 
HETATM   10  C4  UNL     1     -34.377  17.072  -0.601  1.00 20.00     0.005 C 
ENDBRANCH   8   9
ENDBRANCH   6   8
ENDBRANCH   3   6
TORSDOF 3
ENDMDL
