MODEL 1
REMARK VINA RESULT:      -4.0      0.000      0.000
REMARK  2 active torsions:
REMARK  status: ('A' for Active; 'I' for Inactive)
REMARK    1  A    between atoms: C1_1  and  C5_5 
REMARK    2  A    between atoms: C2_2  and  C6_6 
ROOT
HETATM    1  C1  UNL     1     -34.445  16.565  -1.626  1.00 20.00    -0.063 C 
HETATM    2  C2  UNL     1     -34.557  15.728  -2.480  1.00 20.00    -0.063 C 
ENDROOT
BRANCH   1   3
HETATM    3  C5  UNL     1     -34.310  17.564  -0.609  1.00 20.00     0.141 A 
HETATM    4  C3  UNL     1     -33.855  18.949  -1.000  1.00 20.00     0.221 A 
HETATM    5  O9  UNL     1     -32.954  17.994  -0.424  1.00 20.00    -0.362 OA
HETATM    6  C7  UNL     1     -35.055  17.364   0.670  1.00 20.00     0.063 C 
ENDBRANCH   1   3
BRANCH   2   7
HETATM    7  C6  UNL     1     -34.695  14.708  -3.518  1.00 20.00     0.141 A 
HETATM    8  C4  UNL     1     -33.539  13.790  -3.756  1.00 20.00     0.221 A 
HETATM    9  O10 UNL     1     -33.791  14.924  -4.596  1.00 20.00    -0.362 OA
HETATM   10  C8  UNL     1     -36.072  14.339  -3.915  1.00 20.00     0.063 C 
ENDBRANCH   2   7
TORSDOF 2
ENDMDL
MODEL 2
REMARK VINA RESULT:      -3.9      0.862      1.385
REMARK  2 active torsions:
REMARK  status: ('A' for Active; 'I' for Inactive)
REMARK    1  A    between atoms: C1_1  and  C5_5 
REMARK    2  A    between atoms: C2_2  and  C6_6 
ROOT
HETATM    1  C1  UNL     1     -34.367  16.544  -1.747  1.00 20.00    -0.063 C 
HETATM    2  C2  UNL     1     -34.450  15.714  -2.611  1.00 20.00    -0.063 C 
ENDROOT
BRANCH   1   3
HETATM    3  C5  UNL     1     -34.269  17.535  -0.717  1.00 20.00     0.141 A 
HETATM    4  C3  UNL     1     -33.822  18.929  -1.084  1.00 20.00     0.221 A 
HETATM    5  O9  UNL     1     -32.923  17.980  -0.495  1.00 20.00    -0.362 OA
HETATM    6  C7  UNL     1     -35.042  17.313   0.541  1.00 20.00     0.063 C 
ENDBRANCH   1   3
BRANCH   2   7
HETATM    7  C6  UNL     1     -34.550  14.703  -3.662  1.00 20.00     0.141 A 
HETATM    8  C4  UNL     1     -35.428  15.000  -4.835  1.00 20.00     0.221 A 
HETATM    9  O10 UNL     1     -35.864  14.164  -3.755  1.00 20.00    -0.362 OA
HETATM   10  C8  UNL     1     -33.455  13.712  -3.744  1.00 20.00     0.063 C 
ENDBRANCH   2   7
TORSDOF 2
ENDMDL
MODEL 3
REMARK VINA RESULT:      -3.9      0.910      4.834
REMARK  2 active torsions:
REMARK  status: ('A' for Active; 'I' for Inactive)
REMARK    1  A    between atoms: C1_1  and  C5_5 
REMARK    2  A    between atoms: C2_2  and  C6_6 
ROOT
HETATM    1  C1  UNL     1     -34.585  15.779  -2.354  1.00 20.00    -0.063 C 
HETATM    2  C2  UNL     1     -34.459  16.580  -1.467  1.00 20.00    -0.063 C 
ENDROOT
BRANCH   1   3
HETATM    3  C5  UNL     1     -34.737  14.824  -3.410  1.00 20.00     0.141 A 
HETATM    4  C3  UNL     1     -33.606  13.867  -3.697  1.00 20.00     0.221 A 
HETATM    5  O9  UNL     1     -33.821  15.039  -4.493  1.00 20.00    -0.362 OA
HETATM    6  C7  UNL     1     -36.122  14.488  -3.854  1.00 20.00     0.063 C 
ENDBRANCH   1   3
BRANCH   2   7
HETATM    7  C6  UNL     1     -34.304  17.555  -0.389  1.00 20.00     0.141 A 
HETATM    8  C4  UNL     1     -35.168  17.400   0.822  1.00 20.00     0.221 A 
HETATM    9  O10 UNL     1     -35.477  18.341  -0.214  1.00 20.00    -0.362 OA
HETATM   10  C8  UNL     1     -33.030  18.305  -0.342  1.00 20.00     0.063 C 
ENDBRANCH   2   7
TORSDOF 2
ENDMDL
MODEL 4
REMARK VINA RESULT:      -3.9      0.865      4.787
REMARK  2 active torsions:
REMARK  status: ('A' for Active; 'I' for Inactive)
REMARK    1  A    between atoms: C1_1  and  C5_5 
REMARK    2  A    between atoms: C2_2  and  C6_6 
ROOT
HETATM    1  C1  UNL     1     -34.473  15.722  -2.599  1.00 20.00    -0.063 C 
HETATM    2  C2  UNL     1     -34.384  16.549  -1.732  1.00 20.00    -0.063 C 
ENDROOT
BRANCH   1   3
HETATM    3  C5  UNL     1     -34.578  14.737  -3.633  1.00 20.00     0.141 A 
HETATM    4  C3  UNL     1     -35.454  15.023  -4.829  1.00 20.00     0.221 A 
HETATM    5  O9  UNL     1     -35.899  14.189  -3.751  1.00 20.00    -0.362 OA
HETATM    6  C7  UNL     1     -33.494  13.715  -3.737  1.00 20.00     0.063 C 
ENDBRANCH   1   3
BRANCH   2   7
HETATM    7  C6  UNL     1     -34.276  17.555  -0.677  1.00 20.00     0.141 A 
HETATM    8  C4  UNL     1     -33.839  18.931  -1.065  1.00 20.00     0.221 A 
HETATM    9  O10 UNL     1     -32.932  17.982  -0.488  1.00 20.00    -0.362 OA
HETATM   10  C8  UNL     1     -35.039  17.305   0.566  1.00 20.00     0.063 C 
ENDBRANCH   2   7
TORSDOF 2
ENDMDL
MODEL 5
REMARK VINA RESULT:      -3.9      0.914      1.428
REMARK  2 active torsions:
REMARK  status: ('A' for Active; 'I' for Inactive)
REMARK    1  A    between atoms: C1_1  and  C5_5 
REMARK    2  A    between atoms: C2_2  and  C6_6 
ROOT
HETATM    1  C1  UNL     1     -34.417  16.608  -1.481  1.00 20.00    -0.063 C 
HETATM    2  C2  UNL     1     -34.510  15.809  -2.373  1.00 20.00    -0.063 C 
ENDROOT
BRANCH   1   3
HETATM    3  C5  UNL     1     -34.306  17.560  -0.417  1.00 20.00     0.141 A 
HETATM    4  C3  UNL     1     -35.167  17.389   0.811  1.00 20.00     0.221 A 
HETATM    5  O9  UNL     1     -35.505  18.324  -0.222  1.00 20.00    -0.362 OA
HETATM    6  C7  UNL     1     -33.056  18.374  -0.337  1.00 20.00     0.063 C 
ENDBRANCH   1   3
BRANCH   2   7
HETATM    7  C6  UNL     1     -34.623  14.837  -3.459  1.00 20.00     0.141 A 
HETATM    8  C4  UNL     1     -33.418  14.017  -3.793  1.00 20.00     0.221 A 
HETATM    9  O10 UNL     1     -33.786  15.172  -4.559  1.00 20.00    -0.362 OA
HETATM   10  C8  UNL     1     -35.988  14.391  -3.818  1.00 20.00     0.063 C 
ENDBRANCH   2   7
TORSDOF 2
ENDMDL
MODEL 6
REMARK VINA RESULT:      -3.7      3.478      5.029
REMARK  2 active torsions:
REMARK  status: ('A' for Active; 'I' for Inactive)
REMARK    1  A    between atoms: C1_1  and  C5_5 
REMARK    2  A    between atoms: C2_2  and  C6_6 
ROOT
HETATM    1  C1  UNL     1     -37.803  14.723  -3.977  1.00 20.00    -0.063 C 
HETATM    2  C2  UNL     1     -36.635  14.448  -4.043  1.00 20.00    -0.063 C 
ENDROOT
BRANCH   1   3
HETATM    3  C5  UNL     1     -39.195  15.050  -3.897  1.00 20.00     0.141 A 
HETATM    4  C3  UNL     1     -39.602  16.366  -3.279  1.00 20.00     0.221 A 
HETATM    5  O9  UNL     1     -39.673  15.135  -2.547  1.00 20.00    -0.362 OA
HETATM    6  C7  UNL     1     -40.131  14.346  -4.823  1.00 20.00     0.063 C 
ENDBRANCH   1   3
BRANCH   2   7
HETATM    7  C6  UNL     1     -35.215  14.114  -4.123  1.00 20.00     0.141 A 
HETATM    8  C4  UNL     1     -34.708  13.513  -5.396  1.00 20.00     0.221 A 
HETATM    9  O10 UNL     1     -35.006  12.712  -4.245  1.00 20.00    -0.362 OA
HETATM   10  C8  UNL     1     -34.310  14.806  -3.179  1.00 20.00     0.063 C 
ENDBRANCH   2   7
TORSDOF 2
ENDMDL
MODEL 7
REMARK VINA RESULT:      -3.7      3.477      5.407
REMARK  2 active torsions:
REMARK  status: ('A' for Active; 'I' for Inactive)
REMARK    1  A    between atoms: C1_1  and  C5_5 
REMARK    2  A    between atoms: C2_2  and  C6_6 
ROOT
HETATM    1  C1  UNL     1     -36.629  14.449  -4.044  1.00 20.00    -0.063 C 
HETATM    2  C2  UNL     1     -37.796  14.725  -3.977  1.00 20.00    -0.063 C 
ENDROOT
BRANCH   1   3
HETATM    3  C5  UNL     1     -35.237  14.121  -4.123  1.00 20.00     0.141 A 
HETATM    4  C3  UNL     1     -34.703  13.508  -5.395  1.00 20.00     0.221 A 
HETATM    5  O9  UNL     1     -35.001  12.711  -4.242  1.00 20.00    -0.362 OA
HETATM    6  C7  UNL     1     -34.303  14.809  -3.184  1.00 20.00     0.063 C 
ENDBRANCH   1   3
BRANCH   2   7
HETATM    7  C6  UNL     1     -39.217  15.060  -3.895  1.00 20.00     0.141 A 
HETATM    8  C4  UNL     1     -39.593  16.365  -3.271  1.00 20.00     0.221 A 
HETATM    9  O10 UNL     1     -39.668  15.130  -2.548  1.00 20.00    -0.362 OA
HETATM   10  C8  UNL     1     -40.125  14.356  -4.828  1.00 20.00     0.063 C 
ENDBRANCH   2   7
TORSDOF 2
ENDMDL
MODEL 8
REMARK VINA RESULT:      -3.7     12.526     14.358
REMARK  2 active torsions:
REMARK  status: ('A' for Active; 'I' for Inactive)
REMARK    1  A    between atoms: C1_1  and  C5_5 
REMARK    2  A    between atoms: C2_2  and  C6_6 
ROOT
HETATM    1  C1  UNL     1     -41.856   4.569  -1.976  1.00 20.00    -0.063 C 
HETATM    2  C2  UNL     1     -42.096   3.500  -2.469  1.00 20.00    -0.063 C 
ENDROOT
BRANCH   1   3
HETATM    3  C5  UNL     1     -41.571   5.844  -1.388  1.00 20.00     0.141 A 
HETATM    4  C3  UNL     1     -42.486   7.007  -1.686  1.00 20.00     0.221 A 
HETATM    5  O9  UNL     1     -41.231   6.844  -2.359  1.00 20.00    -0.362 OA
HETATM    6  C7  UNL     1     -40.708   5.873  -0.169  1.00 20.00     0.063 C 
ENDBRANCH   1   3
BRANCH   2   7
HETATM    7  C6  UNL     1     -42.388   2.199  -3.068  1.00 20.00     0.141 A 
HETATM    8  C4  UNL     1     -41.384   1.626  -4.017  1.00 20.00     0.221 A 
HETATM    9  O10 UNL     1     -42.567   2.293  -4.477  1.00 20.00    -0.362 OA
HETATM   10  C8  UNL     1     -43.367   1.342  -2.364  1.00 20.00     0.063 C 
ENDBRANCH   2   7
TORSDOF 2
ENDMDL
MODEL 9
REMARK VINA RESULT:      -3.7     12.515     15.041
REMARK  2 active torsions:
REMARK  status: ('A' for Active; 'I' for Inactive)
REMARK    1  A    between atoms: C1_1  and  C5_5 
REMARK    2  A    between atoms: C2_2  and  C6_6 
ROOT
HETATM    1  C1  UNL     1     -42.094   3.505  -2.478  1.00 20.00    -0.063 C 
HETATM    2  C2  UNL     1     -41.857   4.575  -1.986  1.00 20.00    -0.063 C 
ENDROOT
BRANCH   1   3
HETATM    3  C5  UNL     1     -42.375   2.229  -3.065  1.00 20.00     0.141 A 
HETATM    4  C3  UNL     1     -41.371   1.624  -4.016  1.00 20.00     0.221 A 
HETATM    5  O9  UNL     1     -42.549   2.293  -4.487  1.00 20.00    -0.362 OA
HETATM    6  C7  UNL     1     -43.368   1.349  -2.378  1.00 20.00     0.063 C 
ENDBRANCH   1   3
BRANCH   2   7
HETATM    7  C6  UNL     1     -41.570   5.877  -1.388  1.00 20.00     0.141 A 
HETATM    8  C4  UNL     1     -42.494   7.010  -1.701  1.00 20.00     0.221 A 
HETATM    9  O10 UNL     1     -41.237   6.850  -2.371  1.00 20.00    -0.362 OA
HETATM   10  C8  UNL     1     -40.716   5.884  -0.180  1.00 20.00     0.063 C 
ENDBRANCH   2   7
TORSDOF 2
ENDMDL
