MODEL 1
REMARK VINA RESULT:      -5.0      0.000      0.000
REMARK  1 active torsions:
REMARK  status: ('A' for Active; 'I' for Inactive)
REMARK    1  A    between atoms: C6_6  and  O11_11 
ROOT
HETATM    1  C1  UNL     1     -33.698  15.773  -3.765  1.00 20.00     0.011 A 
HETATM    2  C2  UNL     1     -34.176  14.496  -3.462  1.00 20.00     0.037 A 
HETATM    3  C3  UNL     1     -35.020  14.224  -5.726  1.00 20.00     0.044 A 
HETATM    4  C4  UNL     1     -33.899  16.269  -5.044  1.00 20.00    -0.048 A 
HETATM    5  C5  UNL     1     -34.555  15.497  -6.014  1.00 20.00    -0.049 A 
HETATM    6  C6  UNL     1     -34.832  13.727  -4.435  1.00 20.00     0.066 A 
HETATM    7  C7  UNL     1     -34.612  16.216  -7.325  1.00 20.00     0.040 C 
HETATM    8  C8  UNL     1     -34.358  17.663  -6.876  1.00 20.00     0.014 C 
HETATM    9  C9  UNL     1     -33.452  17.579  -5.629  1.00 20.00     0.015 C 
HETATM   10  C10 UNL     1     -33.617  18.785  -4.717  1.00 20.00     0.015 C 
ENDROOT
BRANCH   6  11
HETATM   11  O11 UNL     1     -35.282  12.481  -4.117  1.00 20.00    -0.361 OA
HETATM   12  H23 UNL     1     -34.552  11.934  -3.789  1.00 20.00     0.217 HD
ENDBRANCH   6  11
TORSDOF 1
ENDMDL
MODEL 2
REMARK VINA RESULT:      -4.8      1.319      2.804
REMARK  1 active torsions:
REMARK  status: ('A' for Active; 'I' for Inactive)
REMARK    1  A    between atoms: C6_6  and  O11_11 
ROOT
HETATM    1  C1  UNL     1     -34.471  16.130  -5.404  1.00 20.00     0.011 A 
HETATM    2  C2  UNL     1     -34.545  14.763  -5.684  1.00 20.00     0.037 A 
HETATM    3  C3  UNL     1     -34.540  14.230  -3.312  1.00 20.00     0.044 A 
HETATM    4  C4  UNL     1     -34.418  16.532  -4.078  1.00 20.00    -0.048 A 
HETATM    5  C5  UNL     1     -34.453  15.586  -3.043  1.00 20.00    -0.049 A 
HETATM    6  C6  UNL     1     -34.580  13.820  -4.646  1.00 20.00     0.066 A 
HETATM    7  C7  UNL     1     -34.433  16.253  -1.704  1.00 20.00     0.040 C 
HETATM    8  C8  UNL     1     -33.893  17.642  -2.077  1.00 20.00     0.014 C 
HETATM    9  C9  UNL     1     -34.377  17.925  -3.515  1.00 20.00     0.015 C 
HETATM   10  C10 UNL     1     -33.463  18.893  -4.250  1.00 20.00     0.015 C 
ENDROOT
BRANCH   6  11
HETATM   11  O11 UNL     1     -34.659  12.493  -4.944  1.00 20.00    -0.361 OA
HETATM   12  H23 UNL     1     -33.844  12.197  -5.376  1.00 20.00     0.217 HD
ENDBRANCH   6  11
TORSDOF 1
ENDMDL
MODEL 3
REMARK VINA RESULT:      -4.8      2.529      2.985
REMARK  1 active torsions:
REMARK  status: ('A' for Active; 'I' for Inactive)
REMARK    1  A    between atoms: C6_6  and  O11_11 
ROOT
HETATM    1  C1  UNL     1     -33.274  15.288  -3.126  1.00 20.00     0.011 A 
HETATM    2  C2  UNL     1     -33.470  14.065  -3.771  1.00 20.00     0.037 A 
HETATM    3  C3  UNL     1     -35.859  14.483  -3.940  1.00 20.00     0.044 A 
HETATM    4  C4  UNL     1     -34.378  16.092  -2.882  1.00 20.00    -0.048 A 
HETATM    5  C5  UNL     1     -35.658  15.689  -3.288  1.00 20.00    -0.049 A 
HETATM    6  C6  UNL     1     -34.753  13.665  -4.176  1.00 20.00     0.066 A 
HETATM    7  C7  UNL     1     -36.679  16.733  -2.963  1.00 20.00     0.040 C 
HETATM    8  C8  UNL     1     -35.931  17.552  -1.899  1.00 20.00     0.014 C 
HETATM    9  C9  UNL     1     -34.432  17.454  -2.250  1.00 20.00     0.015 C 
HETATM   10  C10 UNL     1     -33.543  17.638  -1.030  1.00 20.00     0.015 C 
ENDROOT
BRANCH   6  11
HETATM   11  O11 UNL     1     -34.917  12.470  -4.810  1.00 20.00    -0.361 OA
HETATM   12  H23 UNL     1     -35.116  11.774  -4.166  1.00 20.00     0.217 HD
ENDBRANCH   6  11
TORSDOF 1
ENDMDL
MODEL 4
REMARK VINA RESULT:      -4.7      2.104      3.418
REMARK  1 active torsions:
REMARK  status: ('A' for Active; 'I' for Inactive)
REMARK    1  A    between atoms: C6_6  and  O11_11 
ROOT
HETATM    1  C1  UNL     1     -34.050  15.079  -3.126  1.00 20.00     0.011 A 
HETATM    2  C2  UNL     1     -34.082  14.604  -4.440  1.00 20.00     0.037 A 
HETATM    3  C3  UNL     1     -33.739  16.848  -5.309  1.00 20.00     0.044 A 
HETATM    4  C4  UNL     1     -33.876  16.439  -2.918  1.00 20.00    -0.048 A 
HETATM    5  C5  UNL     1     -33.721  17.313  -4.004  1.00 20.00    -0.049 A 
HETATM    6  C6  UNL     1     -33.928  15.482  -5.523  1.00 20.00     0.066 A 
HETATM    7  C7  UNL     1     -33.500  18.717  -3.536  1.00 20.00     0.040 C 
HETATM    8  C8  UNL     1     -34.028  18.632  -2.096  1.00 20.00     0.014 C 
HETATM    9  C9  UNL     1     -33.764  17.188  -1.620  1.00 20.00     0.015 C 
HETATM   10  C10 UNL     1     -34.738  16.753  -0.536  1.00 20.00     0.015 C 
ENDROOT
BRANCH   6  11
HETATM   11  O11 UNL     1     -33.956  14.994  -6.795  1.00 20.00    -0.361 OA
HETATM   12  H23 UNL     1     -34.830  15.136  -7.189  1.00 20.00     0.217 HD
ENDBRANCH   6  11
TORSDOF 1
ENDMDL
MODEL 5
REMARK VINA RESULT:      -4.7      2.825      3.927
REMARK  1 active torsions:
REMARK  status: ('A' for Active; 'I' for Inactive)
REMARK    1  A    between atoms: C6_6  and  O11_11 
ROOT
HETATM    1  C1  UNL     1     -35.410  13.745  -4.167  1.00 20.00     0.011 A 
HETATM    2  C2  UNL     1     -34.016  13.651  -4.170  1.00 20.00     0.037 A 
HETATM    3  C3  UNL     1     -33.820  15.822  -3.094  1.00 20.00     0.044 A 
HETATM    4  C4  UNL     1     -35.995  14.885  -3.638  1.00 20.00    -0.048 A 
HETATM    5  C5  UNL     1     -35.203  15.913  -3.107  1.00 20.00    -0.049 A 
HETATM    6  C6  UNL     1     -33.227  14.682  -3.638  1.00 20.00     0.066 A 
HETATM    7  C7  UNL     1     -36.051  17.014  -2.553  1.00 20.00     0.040 C 
HETATM    8  C8  UNL     1     -37.388  16.737  -3.259  1.00 20.00     0.014 C 
HETATM    9  C9  UNL     1     -37.453  15.210  -3.480  1.00 20.00     0.015 C 
HETATM   10  C10 UNL     1     -38.332  14.839  -4.664  1.00 20.00     0.015 C 
ENDROOT
BRANCH   6  11
HETATM   11  O11 UNL     1     -31.869  14.563  -3.646  1.00 20.00    -0.361 OA
HETATM   12  H23 UNL     1     -31.564  14.273  -4.519  1.00 20.00     0.217 HD
ENDBRANCH   6  11
TORSDOF 1
ENDMDL
MODEL 6
REMARK VINA RESULT:      -4.7      7.385      8.709
REMARK  1 active torsions:
REMARK  status: ('A' for Active; 'I' for Inactive)
REMARK    1  A    between atoms: C6_6  and  O11_11 
ROOT
HETATM    1  C1  UNL     1     -34.199  18.196   3.155  1.00 20.00     0.011 A 
HETATM    2  C2  UNL     1     -33.491  18.337   4.351  1.00 20.00     0.037 A 
HETATM    3  C3  UNL     1     -31.523  19.109   3.149  1.00 20.00     0.044 A 
HETATM    4  C4  UNL     1     -33.555  18.500   1.965  1.00 20.00    -0.048 A 
HETATM    5  C5  UNL     1     -32.228  18.953   1.967  1.00 20.00    -0.049 A 
HETATM    6  C6  UNL     1     -32.163  18.790   4.348  1.00 20.00     0.066 A 
HETATM    7  C7  UNL     1     -31.764  19.263   0.578  1.00 20.00     0.040 C 
HETATM    8  C8  UNL     1     -32.792  18.481  -0.255  1.00 20.00     0.014 C 
HETATM    9  C9  UNL     1     -34.100  18.473   0.564  1.00 20.00     0.015 C 
HETATM   10  C10 UNL     1     -34.977  17.275   0.234  1.00 20.00     0.015 C 
ENDROOT
BRANCH   6  11
HETATM   11  O11 UNL     1     -31.496  18.927   5.528  1.00 20.00    -0.361 OA
HETATM   12  H23 UNL     1     -32.093  18.755   6.272  1.00 20.00     0.217 HD
ENDBRANCH   6  11
TORSDOF 1
ENDMDL
MODEL 7
REMARK VINA RESULT:      -4.7     12.070     13.583
REMARK  1 active torsions:
REMARK  status: ('A' for Active; 'I' for Inactive)
REMARK    1  A    between atoms: C6_6  and  O11_11 
ROOT
HETATM    1  C1  UNL     1     -43.351   5.107  -3.007  1.00 20.00     0.011 A 
HETATM    2  C2  UNL     1     -43.009   3.788  -3.316  1.00 20.00     0.037 A 
HETATM    3  C3  UNL     1     -41.092   3.887  -1.824  1.00 20.00     0.044 A 
HETATM    4  C4  UNL     1     -42.550   5.807  -2.119  1.00 20.00    -0.048 A 
HETATM    5  C5  UNL     1     -41.431   5.199  -1.534  1.00 20.00    -0.049 A 
HETATM    6  C6  UNL     1     -41.888   3.182  -2.728  1.00 20.00     0.066 A 
HETATM    7  C7  UNL     1     -40.752   6.128  -0.577  1.00 20.00     0.040 C 
HETATM    8  C8  UNL     1     -41.308   7.483  -1.041  1.00 20.00     0.014 C 
HETATM    9  C9  UNL     1     -42.721   7.206  -1.595  1.00 20.00     0.015 C 
HETATM   10  C10 UNL     1     -43.145   8.237  -2.630  1.00 20.00     0.015 C 
ENDROOT
BRANCH   6  11
HETATM   11  O11 UNL     1     -41.579   1.892  -3.040  1.00 20.00    -0.361 OA
HETATM   12  H23 UNL     1     -41.471   1.369  -2.231  1.00 20.00     0.217 HD
ENDBRANCH   6  11
TORSDOF 1
ENDMDL
MODEL 8
REMARK VINA RESULT:      -4.6      2.680      3.447
REMARK  1 active torsions:
REMARK  status: ('A' for Active; 'I' for Inactive)
REMARK    1  A    between atoms: C6_6  and  O11_11 
ROOT
HETATM    1  C1  UNL     1     -36.891  15.499  -3.616  1.00 20.00     0.011 A 
HETATM    2  C2  UNL     1     -36.520  14.284  -4.195  1.00 20.00     0.037 A 
HETATM    3  C3  UNL     1     -34.266  14.496  -3.310  1.00 20.00     0.044 A 
HETATM    4  C4  UNL     1     -35.940  16.208  -2.899  1.00 20.00    -0.048 A 
HETATM    5  C5  UNL     1     -34.639  15.708  -2.749  1.00 20.00    -0.049 A 
HETATM    6  C6  UNL     1     -35.217  13.786  -4.044  1.00 20.00     0.066 A 
HETATM    7  C7  UNL     1     -33.806  16.617  -1.901  1.00 20.00     0.040 C 
HETATM    8  C8  UNL     1     -34.616  17.920  -1.988  1.00 20.00     0.014 C 
HETATM    9  C9  UNL     1     -36.093  17.504  -2.153  1.00 20.00     0.015 C 
HETATM   10  C10 UNL     1     -36.914  18.568  -2.865  1.00 20.00     0.015 C 
ENDROOT
BRANCH   6  11
HETATM   11  O11 UNL     1     -34.881  12.594  -4.613  1.00 20.00    -0.361 OA
HETATM   12  H23 UNL     1     -33.937  12.416  -4.485  1.00 20.00     0.217 HD
ENDBRANCH   6  11
TORSDOF 1
ENDMDL
MODEL 9
REMARK VINA RESULT:      -4.6      2.218      4.019
REMARK  1 active torsions:
REMARK  status: ('A' for Active; 'I' for Inactive)
REMARK    1  A    between atoms: C6_6  and  O11_11 
ROOT
HETATM    1  C1  UNL     1     -34.163  16.939  -5.391  1.00 20.00     0.011 A 
HETATM    2  C2  UNL     1     -33.921  17.880  -4.387  1.00 20.00     0.037 A 
HETATM    3  C3  UNL     1     -33.842  16.130  -2.701  1.00 20.00     0.044 A 
HETATM    4  C4  UNL     1     -34.256  15.602  -5.036  1.00 20.00    -0.048 A 
HETATM    5  C5  UNL     1     -34.096  15.204  -3.701  1.00 20.00    -0.049 A 
HETATM    6  C6  UNL     1     -33.762  17.478  -3.052  1.00 20.00     0.066 A 
HETATM    7  C7  UNL     1     -34.189  13.717  -3.567  1.00 20.00     0.040 C 
HETATM    8  C8  UNL     1     -34.900  13.350  -4.879  1.00 20.00     0.014 C 
HETATM    9  C9  UNL     1     -34.465  14.404  -5.919  1.00 20.00     0.015 C 
HETATM   10  C10 UNL     1     -35.499  14.584  -7.021  1.00 20.00     0.015 C 
ENDROOT
BRANCH   6  11
HETATM   11  O11 UNL     1     -33.520  18.414  -2.092  1.00 20.00    -0.361 OA
HETATM   12  H23 UNL     1     -33.264  19.255  -2.500  1.00 20.00     0.217 HD
ENDBRANCH   6  11
TORSDOF 1
ENDMDL
