MODEL 1
REMARK VINA RESULT:      -4.7      0.000      0.000
REMARK  3 active torsions:
REMARK  status: ('A' for Active; 'I' for Inactive)
REMARK    1  A    between atoms: C3_3  and  C10_10 
REMARK    2  A    between atoms: C7_7  and  C11_11 
REMARK    3  A    between atoms: C10_10  and  C11_11 
ROOT
HETATM    1  C1  UNL     1     -33.411  15.677  -2.799  1.00 20.00    -0.024 C 
HETATM    2  C2  UNL     1     -34.174  16.715  -2.414  1.00 20.00    -0.087 C 
HETATM    3  C4  UNL     1     -32.806  15.549  -4.167  1.00 20.00     0.032 C 
HETATM    4  C5  UNL     1     -34.471  17.874  -3.332  1.00 20.00     0.034 C 
HETATM    5  C6  UNL     1     -33.601  17.898  -4.594  1.00 20.00     0.009 C 
HETATM    6  C7  UNL     1     -33.409  16.506  -5.209  1.00 20.00    -0.007 C 
HETATM    7  C8  UNL     1     -34.784  16.785  -1.045  1.00 20.00     0.043 C 
ENDROOT
BRANCH   6   8
HETATM    8  C11 UNL     1     -34.719  15.957  -5.786  1.00 20.00    -0.008 C 
HETATM    9  C9  UNL     1     -35.062  16.692  -7.084  1.00 20.00     0.011 C 
BRANCH   8  10
HETATM   10  C10 UNL     1     -34.603  14.443  -6.016  1.00 20.00     0.074 C 
BRANCH  10  11
HETATM   11  C3  UNL     1     -35.440  13.609  -5.072  1.00 20.00     0.231 C 
HETATM   12  O12 UNL     1     -35.024  12.664  -4.412  1.00 20.00    -0.307 OA
ENDBRANCH  10  11
ENDBRANCH   8  10
ENDBRANCH   6   8
TORSDOF 3
ENDMDL
MODEL 2
REMARK VINA RESULT:      -4.6      1.697      4.162
REMARK  3 active torsions:
REMARK  status: ('A' for Active; 'I' for Inactive)
REMARK    1  A    between atoms: C3_3  and  C10_10 
REMARK    2  A    between atoms: C7_7  and  C11_11 
REMARK    3  A    between atoms: C10_10  and  C11_11 
ROOT
HETATM    1  C1  UNL     1     -33.920  15.923  -6.009  1.00 20.00    -0.024 C 
HETATM    2  C2  UNL     1     -34.582  14.753  -6.058  1.00 20.00    -0.087 C 
HETATM    3  C4  UNL     1     -33.173  16.408  -4.801  1.00 20.00     0.032 C 
HETATM    4  C5  UNL     1     -34.606  13.798  -4.891  1.00 20.00     0.034 C 
HETATM    5  C6  UNL     1     -33.591  14.140  -3.795  1.00 20.00     0.009 C 
HETATM    6  C7  UNL     1     -33.510  15.645  -3.509  1.00 20.00    -0.007 C 
HETATM    7  C8  UNL     1     -35.342  14.324  -7.278  1.00 20.00     0.043 C 
ENDROOT
BRANCH   6   8
HETATM    8  C11 UNL     1     -34.799  16.168  -2.866  1.00 20.00    -0.008 C 
HETATM    9  C9  UNL     1     -34.604  16.306  -1.353  1.00 20.00     0.011 C 
BRANCH   8  10
HETATM   10  C10 UNL     1     -35.202  17.507  -3.500  1.00 20.00     0.074 C 
BRANCH  10  11
HETATM   11  C3  UNL     1     -36.621  17.541  -4.021  1.00 20.00     0.231 C 
HETATM   12  O12 UNL     1     -37.205  16.593  -4.533  1.00 20.00    -0.307 OA
ENDBRANCH  10  11
ENDBRANCH   8  10
ENDBRANCH   6   8
TORSDOF 3
ENDMDL
MODEL 3
REMARK VINA RESULT:      -4.5      2.293      4.643
REMARK  3 active torsions:
REMARK  status: ('A' for Active; 'I' for Inactive)
REMARK    1  A    between atoms: C3_3  and  C10_10 
REMARK    2  A    between atoms: C7_7  and  C11_11 
REMARK    3  A    between atoms: C10_10  and  C11_11 
ROOT
HETATM    1  C1  UNL     1     -34.018  15.994  -6.106  1.00 20.00    -0.024 C 
HETATM    2  C2  UNL     1     -34.732  14.858  -6.025  1.00 20.00    -0.087 C 
HETATM    3  C4  UNL     1     -33.183  16.537  -4.983  1.00 20.00     0.032 C 
HETATM    4  C5  UNL     1     -34.732  14.000  -4.785  1.00 20.00     0.034 C 
HETATM    5  C6  UNL     1     -33.643  14.377  -3.775  1.00 20.00     0.009 C 
HETATM    6  C7  UNL     1     -33.479  15.894  -3.618  1.00 20.00    -0.007 C 
HETATM    7  C8  UNL     1     -35.579  14.371  -7.164  1.00 20.00     0.043 C 
ENDROOT
BRANCH   6   8
HETATM    8  C11 UNL     1     -34.705  16.528  -2.951  1.00 20.00    -0.008 C 
HETATM    9  C9  UNL     1     -34.674  16.258  -1.444  1.00 20.00     0.011 C 
BRANCH   8  10
HETATM   10  C10 UNL     1     -34.749  18.035  -3.247  1.00 20.00     0.074 C 
BRANCH  10  11
HETATM   11  C3  UNL     1     -34.036  18.886  -2.220  1.00 20.00     0.231 C 
HETATM   12  O12 UNL     1     -32.873  19.263  -2.305  1.00 20.00    -0.307 OA
ENDBRANCH  10  11
ENDBRANCH   8  10
ENDBRANCH   6   8
TORSDOF 3
ENDMDL
MODEL 4
REMARK VINA RESULT:      -4.5      1.964      2.574
REMARK  3 active torsions:
REMARK  status: ('A' for Active; 'I' for Inactive)
REMARK    1  A    between atoms: C3_3  and  C10_10 
REMARK    2  A    between atoms: C7_7  and  C11_11 
REMARK    3  A    between atoms: C10_10  and  C11_11 
ROOT
HETATM    1  C1  UNL     1     -33.769  17.272  -1.089  1.00 20.00    -0.024 C 
HETATM    2  C2  UNL     1     -34.885  17.624  -0.427  1.00 20.00    -0.087 C 
HETATM    3  C4  UNL     1     -33.721  17.008  -2.565  1.00 20.00     0.032 C 
HETATM    4  C5  UNL     1     -36.205  17.813  -1.131  1.00 20.00     0.034 C 
HETATM    5  C6  UNL     1     -36.088  17.861  -2.659  1.00 20.00     0.009 C 
HETATM    6  C7  UNL     1     -35.105  16.821  -3.211  1.00 20.00    -0.007 C 
HETATM    7  C8  UNL     1     -34.891  17.846   1.057  1.00 20.00     0.043 C 
ENDROOT
BRANCH   6   8
HETATM    8  C11 UNL     1     -35.627  15.393  -3.018  1.00 20.00    -0.008 C 
HETATM    9  C9  UNL     1     -36.851  15.163  -3.909  1.00 20.00     0.011 C 
BRANCH   8  10
HETATM   10  C10 UNL     1     -34.516  14.377  -3.324  1.00 20.00     0.074 C 
BRANCH  10  11
HETATM   11  C3  UNL     1     -34.642  13.714  -4.677  1.00 20.00     0.231 C 
HETATM   12  O12 UNL     1     -34.757  12.508  -4.861  1.00 20.00    -0.307 OA
ENDBRANCH  10  11
ENDBRANCH   8  10
ENDBRANCH   6   8
TORSDOF 3
ENDMDL
MODEL 5
REMARK VINA RESULT:      -4.5      2.130      2.981
REMARK  3 active torsions:
REMARK  status: ('A' for Active; 'I' for Inactive)
REMARK    1  A    between atoms: C3_3  and  C10_10 
REMARK    2  A    between atoms: C7_7  and  C11_11 
REMARK    3  A    between atoms: C10_10  and  C11_11 
ROOT
HETATM    1  C1  UNL     1     -35.874  15.585  -2.830  1.00 20.00    -0.024 C 
HETATM    2  C2  UNL     1     -34.557  15.796  -2.663  1.00 20.00    -0.087 C 
HETATM    3  C4  UNL     1     -36.447  14.672  -3.874  1.00 20.00     0.032 C 
HETATM    4  C5  UNL     1     -33.521  15.098  -3.508  1.00 20.00     0.034 C 
HETATM    5  C6  UNL     1     -34.084  13.940  -4.340  1.00 20.00     0.009 C 
HETATM    6  C7  UNL     1     -35.444  14.268  -4.968  1.00 20.00    -0.007 C 
HETATM    7  C8  UNL     1     -34.032  16.744  -1.625  1.00 20.00     0.043 C 
ENDROOT
BRANCH   6   8
HETATM    8  C11 UNL     1     -35.322  15.349  -6.047  1.00 20.00    -0.008 C 
HETATM    9  C9  UNL     1     -34.479  14.826  -7.214  1.00 20.00     0.011 C 
BRANCH   8  10
HETATM   10  C10 UNL     1     -36.717  15.787  -6.519  1.00 20.00     0.074 C 
BRANCH  10  11
HETATM   11  C3  UNL     1     -37.201  15.071  -7.760  1.00 20.00     0.231 C 
HETATM   12  O12 UNL     1     -38.331  14.625  -7.918  1.00 20.00    -0.307 OA
ENDBRANCH  10  11
ENDBRANCH   8  10
ENDBRANCH   6   8
TORSDOF 3
ENDMDL
MODEL 6
REMARK VINA RESULT:      -4.5      1.543      1.624
REMARK  3 active torsions:
REMARK  status: ('A' for Active; 'I' for Inactive)
REMARK    1  A    between atoms: C3_3  and  C10_10 
REMARK    2  A    between atoms: C7_7  and  C11_11 
REMARK    3  A    between atoms: C10_10  and  C11_11 
ROOT
HETATM    1  C1  UNL     1     -34.365  14.910  -2.943  1.00 20.00    -0.024 C 
HETATM    2  C2  UNL     1     -34.209  16.183  -2.541  1.00 20.00    -0.087 C 
HETATM    3  C4  UNL     1     -34.176  14.452  -4.360  1.00 20.00     0.032 C 
HETATM    4  C5  UNL     1     -33.795  17.277  -3.493  1.00 20.00     0.034 C 
HETATM    5  C6  UNL     1     -33.295  16.759  -4.846  1.00 20.00     0.009 C 
HETATM    6  C7  UNL     1     -34.139  15.598  -5.386  1.00 20.00    -0.007 C 
HETATM    7  C8  UNL     1     -34.440  16.599  -1.118  1.00 20.00     0.043 C 
ENDROOT
BRANCH   6   8
HETATM    8  C11 UNL     1     -35.551  16.055  -5.770  1.00 20.00    -0.008 C 
HETATM    9  C9  UNL     1     -35.528  16.696  -7.160  1.00 20.00     0.011 C 
BRANCH   8  10
HETATM   10  C10 UNL     1     -36.524  14.869  -5.718  1.00 20.00     0.074 C 
BRANCH  10  11
HETATM   11  C3  UNL     1     -37.636  15.026  -4.704  1.00 20.00     0.231 C 
HETATM   12  O12 UNL     1     -37.890  14.228  -3.810  1.00 20.00    -0.307 OA
ENDBRANCH  10  11
ENDBRANCH   8  10
ENDBRANCH   6   8
TORSDOF 3
ENDMDL
MODEL 7
REMARK VINA RESULT:      -4.4      2.196      3.031
REMARK  3 active torsions:
REMARK  status: ('A' for Active; 'I' for Inactive)
REMARK    1  A    between atoms: C3_3  and  C10_10 
REMARK    2  A    between atoms: C7_7  and  C11_11 
REMARK    3  A    between atoms: C10_10  and  C11_11 
ROOT
HETATM    1  C1  UNL     1     -35.693  15.546  -2.752  1.00 20.00    -0.024 C 
HETATM    2  C2  UNL     1     -34.392  15.843  -2.594  1.00 20.00    -0.087 C 
HETATM    3  C4  UNL     1     -36.213  14.603  -3.797  1.00 20.00     0.032 C 
HETATM    4  C5  UNL     1     -33.319  15.222  -3.453  1.00 20.00     0.034 C 
HETATM    5  C6  UNL     1     -33.811  14.035  -4.289  1.00 20.00     0.009 C 
HETATM    6  C7  UNL     1     -35.195  14.275  -4.903  1.00 20.00    -0.007 C 
HETATM    7  C8  UNL     1     -33.922  16.817  -1.553  1.00 20.00     0.043 C 
ENDROOT
BRANCH   6   8
HETATM    8  C11 UNL     1     -35.156  15.370  -5.975  1.00 20.00    -0.008 C 
HETATM    9  C9  UNL     1     -34.487  14.831  -7.243  1.00 20.00     0.011 C 
BRANCH   8  10
HETATM   10  C10 UNL     1     -36.576  15.877  -6.266  1.00 20.00     0.074 C 
BRANCH  10  11
HETATM   11  C3  UNL     1     -36.730  17.378  -6.153  1.00 20.00     0.231 C 
HETATM   12  O12 UNL     1     -36.291  18.062  -5.236  1.00 20.00    -0.307 OA
ENDBRANCH  10  11
ENDBRANCH   8  10
ENDBRANCH   6   8
TORSDOF 3
ENDMDL
MODEL 8
REMARK VINA RESULT:      -4.4      2.597      4.624
REMARK  3 active torsions:
REMARK  status: ('A' for Active; 'I' for Inactive)
REMARK    1  A    between atoms: C3_3  and  C10_10 
REMARK    2  A    between atoms: C7_7  and  C11_11 
REMARK    3  A    between atoms: C10_10  and  C11_11 
ROOT
HETATM    1  C1  UNL     1     -34.118  14.261  -4.905  1.00 20.00    -0.024 C 
HETATM    2  C2  UNL     1     -34.945  14.766  -5.837  1.00 20.00    -0.087 C 
HETATM    3  C4  UNL     1     -34.447  14.198  -3.442  1.00 20.00     0.032 C 
HETATM    4  C5  UNL     1     -36.313  15.299  -5.487  1.00 20.00     0.034 C 
HETATM    5  C6  UNL     1     -36.768  14.942  -4.068  1.00 20.00     0.009 C 
HETATM    6  C7  UNL     1     -35.644  15.074  -3.033  1.00 20.00    -0.007 C 
HETATM    7  C8  UNL     1     -34.560  14.836  -7.285  1.00 20.00     0.043 C 
ENDROOT
BRANCH   6   8
HETATM    8  C11 UNL     1     -35.230  16.535  -2.832  1.00 20.00    -0.008 C 
HETATM    9  C9  UNL     1     -36.461  17.382  -2.494  1.00 20.00     0.011 C 
BRANCH   8  10
HETATM   10  C10 UNL     1     -34.164  16.637  -1.731  1.00 20.00     0.074 C 
BRANCH  10  11
HETATM   11  C3  UNL     1     -34.717  16.981  -0.366  1.00 20.00     0.231 C 
HETATM   12  O12 UNL     1     -34.179  17.727   0.444  1.00 20.00    -0.307 OA
ENDBRANCH  10  11
ENDBRANCH   8  10
ENDBRANCH   6   8
TORSDOF 3
ENDMDL
MODEL 9
REMARK VINA RESULT:      -4.3      1.813      3.103
REMARK  3 active torsions:
REMARK  status: ('A' for Active; 'I' for Inactive)
REMARK    1  A    between atoms: C3_3  and  C10_10 
REMARK    2  A    between atoms: C7_7  and  C11_11 
REMARK    3  A    between atoms: C10_10  and  C11_11 
ROOT
HETATM    1  C1  UNL     1     -33.564  18.997  -2.373  1.00 20.00    -0.024 C 
HETATM    2  C2  UNL     1     -33.328  18.416  -1.183  1.00 20.00    -0.087 C 
HETATM    3  C4  UNL     1     -34.421  18.387  -3.444  1.00 20.00     0.032 C 
HETATM    4  C5  UNL     1     -33.938  17.089  -0.806  1.00 20.00     0.034 C 
HETATM    5  C6  UNL     1     -35.052  16.632  -1.754  1.00 20.00     0.009 C 
HETATM    6  C7  UNL     1     -34.721  16.894  -3.228  1.00 20.00    -0.007 C 
HETATM    7  C8  UNL     1     -32.438  19.050  -0.154  1.00 20.00     0.043 C 
ENDROOT
BRANCH   6   8
HETATM    8  C11 UNL     1     -33.565  16.012  -3.713  1.00 20.00    -0.008 C 
HETATM    9  C9  UNL     1     -33.915  14.536  -3.502  1.00 20.00     0.011 C 
BRANCH   8  10
HETATM   10  C10 UNL     1     -33.257  16.306  -5.189  1.00 20.00     0.074 C 
BRANCH  10  11
HETATM   11  C3  UNL     1     -34.309  15.802  -6.152  1.00 20.00     0.231 C 
HETATM   12  O12 UNL     1     -34.089  15.086  -7.121  1.00 20.00    -0.307 OA
ENDBRANCH  10  11
ENDBRANCH   8  10
ENDBRANCH   6   8
TORSDOF 3
ENDMDL
