MODEL 1
REMARK VINA RESULT:      -3.8      0.000      0.000
REMARK  2 active torsions:
REMARK  status: ('A' for Active; 'I' for Inactive)
REMARK    1  A    between atoms: C3_3  and  C6_6 
REMARK    2  A    between atoms: C6_6  and  C7_7 
ROOT
HETATM    1  C1  UNL     1     -34.666  13.228  -4.691  1.00 20.00     0.281 C 
HETATM    2  C2  UNL     1     -35.165  14.209  -5.740  1.00 20.00     0.106 C 
HETATM    3  C3  UNL     1     -33.531  15.125  -3.887  1.00 20.00     0.282 C 
HETATM    4  N8  UNL     1     -34.365  13.988  -3.470  1.00 20.00     0.098 N 
HETATM    5  S9  UNL     1     -34.073  15.636  -5.549  1.00 20.00    -0.132 SA
HETATM    6  H24 UNL     1     -35.243  14.344  -3.092  1.00 20.00     0.317 HD
ENDROOT
BRANCH   3   7
HETATM    7  C6  UNL     1     -33.644  16.281  -2.904  1.00 20.00     0.050 C 
BRANCH   7   8
HETATM    8  C7  UNL     1     -34.893  16.205  -2.008  1.00 20.00    -0.020 C 
HETATM    9  C4  UNL     1     -34.629  16.729  -0.595  1.00 20.00     0.009 C 
HETATM   10  C5  UNL     1     -36.039  16.995  -2.645  1.00 20.00     0.009 C 
ENDBRANCH   7   8
ENDBRANCH   3   7
TORSDOF 2
ENDMDL
MODEL 2
REMARK VINA RESULT:      -3.8      0.882      1.421
REMARK  2 active torsions:
REMARK  status: ('A' for Active; 'I' for Inactive)
REMARK    1  A    between atoms: C3_3  and  C6_6 
REMARK    2  A    between atoms: C6_6  and  C7_7 
ROOT
HETATM    1  C1  UNL     1     -34.180  13.153  -4.762  1.00 20.00     0.281 C 
HETATM    2  C2  UNL     1     -34.874  14.094  -5.735  1.00 20.00     0.106 C 
HETATM    3  C3  UNL     1     -34.152  15.068  -3.396  1.00 20.00     0.282 C 
HETATM    4  N8  UNL     1     -34.457  13.630  -3.400  1.00 20.00     0.098 N 
HETATM    5  S9  UNL     1     -34.574  15.733  -5.037  1.00 20.00    -0.132 SA
HETATM    6  H24 UNL     1     -35.452  13.503  -3.214  1.00 20.00     0.317 HD
ENDROOT
BRANCH   3   7
HETATM    7  C6  UNL     1     -34.928  15.792  -2.305  1.00 20.00     0.050 C 
BRANCH   7   8
HETATM    8  C7  UNL     1     -34.066  16.757  -1.473  1.00 20.00    -0.020 C 
HETATM    9  C4  UNL     1     -33.771  18.063  -2.212  1.00 20.00     0.009 C 
HETATM   10  C5  UNL     1     -34.762  17.062  -0.144  1.00 20.00     0.009 C 
ENDBRANCH   7   8
ENDBRANCH   3   7
TORSDOF 2
ENDMDL
MODEL 3
REMARK VINA RESULT:      -3.7      1.612      2.003
REMARK  2 active torsions:
REMARK  status: ('A' for Active; 'I' for Inactive)
REMARK    1  A    between atoms: C3_3  and  C6_6 
REMARK    2  A    between atoms: C6_6  and  C7_7 
ROOT
HETATM    1  C1  UNL     1     -34.333  15.250  -6.582  1.00 20.00     0.281 C 
HETATM    2  C2  UNL     1     -35.130  14.055  -6.083  1.00 20.00     0.106 C 
HETATM    3  C3  UNL     1     -34.336  15.827  -4.302  1.00 20.00     0.282 C 
HETATM    4  N8  UNL     1     -33.470  15.706  -5.484  1.00 20.00     0.098 N 
HETATM    5  S9  UNL     1     -35.606  14.527  -4.405  1.00 20.00    -0.132 SA
HETATM    6  H24 UNL     1     -32.770  14.985  -5.309  1.00 20.00     0.317 HD
ENDROOT
BRANCH   3   7
HETATM    7  C6  UNL     1     -33.533  15.696  -3.016  1.00 20.00     0.050 C 
BRANCH   7   8
HETATM    8  C7  UNL     1     -33.702  16.890  -2.060  1.00 20.00    -0.020 C 
HETATM    9  C4  UNL     1     -34.175  18.153  -2.782  1.00 20.00     0.009 C 
HETATM   10  C5  UNL     1     -34.691  16.530  -0.948  1.00 20.00     0.009 C 
ENDBRANCH   7   8
ENDBRANCH   3   7
TORSDOF 2
ENDMDL
MODEL 4
REMARK VINA RESULT:      -3.5      2.013      2.866
REMARK  2 active torsions:
REMARK  status: ('A' for Active; 'I' for Inactive)
REMARK    1  A    between atoms: C3_3  and  C6_6 
REMARK    2  A    between atoms: C6_6  and  C7_7 
ROOT
HETATM    1  C1  UNL     1     -35.110  14.889  -7.872  1.00 20.00     0.281 C 
HETATM    2  C2  UNL     1     -36.330  14.959  -6.967  1.00 20.00     0.106 C 
HETATM    3  C3  UNL     1     -34.164  16.251  -6.204  1.00 20.00     0.282 C 
HETATM    4  N8  UNL     1     -33.916  15.063  -7.034  1.00 20.00     0.098 N 
HETATM    5  S9  UNL     1     -35.945  16.309  -5.830  1.00 20.00    -0.132 SA
HETATM    6  H24 UNL     1     -33.832  14.248  -6.426  1.00 20.00     0.317 HD
ENDROOT
BRANCH   3   7
HETATM    7  C6  UNL     1     -33.346  16.208  -4.921  1.00 20.00     0.050 C 
BRANCH   7   8
HETATM    8  C7  UNL     1     -34.031  15.436  -3.780  1.00 20.00    -0.020 C 
HETATM    9  C4  UNL     1     -33.513  14.002  -3.654  1.00 20.00     0.009 C 
HETATM   10  C5  UNL     1     -33.827  16.177  -2.456  1.00 20.00     0.009 C 
ENDBRANCH   7   8
ENDBRANCH   3   7
TORSDOF 2
ENDMDL
MODEL 5
REMARK VINA RESULT:      -3.5     11.601     12.206
REMARK  2 active torsions:
REMARK  status: ('A' for Active; 'I' for Inactive)
REMARK    1  A    between atoms: C3_3  and  C6_6 
REMARK    2  A    between atoms: C6_6  and  C7_7 
ROOT
HETATM    1  C1  UNL     1     -35.539   4.650   4.818  1.00 20.00     0.281 C 
HETATM    2  C2  UNL     1     -34.695   4.873   6.063  1.00 20.00     0.106 C 
HETATM    3  C3  UNL     1     -34.056   6.225   3.893  1.00 20.00     0.282 C 
HETATM    4  N8  UNL     1     -34.695   4.924   3.646  1.00 20.00     0.098 N 
HETATM    5  S9  UNL     1     -33.755   6.369   5.683  1.00 20.00    -0.132 SA
HETATM    6  H24 UNL     1     -33.973   4.205   3.599  1.00 20.00     0.317 HD
ENDROOT
BRANCH   3   7
HETATM    7  C6  UNL     1     -32.755   6.355   3.115  1.00 20.00     0.050 C 
BRANCH   7   8
HETATM    8  C7  UNL     1     -32.183   7.784   3.107  1.00 20.00    -0.020 C 
HETATM    9  C4  UNL     1     -30.892   7.900   3.919  1.00 20.00     0.009 C 
HETATM   10  C5  UNL     1     -31.928   8.234   1.666  1.00 20.00     0.009 C 
ENDBRANCH   7   8
ENDBRANCH   3   7
TORSDOF 2
ENDMDL
MODEL 6
REMARK VINA RESULT:      -3.5     12.961     14.656
REMARK  2 active torsions:
REMARK  status: ('A' for Active; 'I' for Inactive)
REMARK    1  A    between atoms: C3_3  and  C6_6 
REMARK    2  A    between atoms: C6_6  and  C7_7 
ROOT
HETATM    1  C1  UNL     1     -40.833   5.218  -0.730  1.00 20.00     0.281 C 
HETATM    2  C2  UNL     1     -41.455   6.158  -1.752  1.00 20.00     0.106 C 
HETATM    3  C3  UNL     1     -41.776   3.568  -2.117  1.00 20.00     0.282 C 
HETATM    4  N8  UNL     1     -40.546   3.945  -1.406  1.00 20.00     0.098 N 
HETATM    5  S9  UNL     1     -42.589   5.099  -2.677  1.00 20.00    -0.132 SA
HETATM    6  H24 UNL     1     -39.806   4.108  -2.089  1.00 20.00     0.317 HD
ENDROOT
BRANCH   3   7
HETATM    7  C6  UNL     1     -41.473   2.656  -3.297  1.00 20.00     0.050 C 
BRANCH   7   8
HETATM    8  C7  UNL     1     -42.522   1.550  -3.505  1.00 20.00    -0.020 C 
HETATM    9  C4  UNL     1     -41.885   0.191  -3.800  1.00 20.00     0.009 C 
HETATM   10  C5  UNL     1     -43.417   1.443  -2.268  1.00 20.00     0.009 C 
ENDBRANCH   7   8
ENDBRANCH   3   7
TORSDOF 2
ENDMDL
MODEL 7
REMARK VINA RESULT:      -3.5      2.149      4.292
REMARK  2 active torsions:
REMARK  status: ('A' for Active; 'I' for Inactive)
REMARK    1  A    between atoms: C3_3  and  C6_6 
REMARK    2  A    between atoms: C6_6  and  C7_7 
ROOT
HETATM    1  C1  UNL     1     -34.801  17.274  -0.095  1.00 20.00     0.281 C 
HETATM    2  C2  UNL     1     -33.632  18.195  -0.407  1.00 20.00     0.106 C 
HETATM    3  C3  UNL     1     -34.789  16.959  -2.426  1.00 20.00     0.282 C 
HETATM    4  N8  UNL     1     -34.857  16.245  -1.142  1.00 20.00     0.098 N 
HETATM    5  S9  UNL     1     -33.728  18.421  -2.197  1.00 20.00    -0.132 SA
HETATM    6  H24 UNL     1     -34.032  15.653  -1.050  1.00 20.00     0.317 HD
ENDROOT
BRANCH   3   7
HETATM    7  C6  UNL     1     -34.241  16.062  -3.526  1.00 20.00     0.050 C 
BRANCH   7   8
HETATM    8  C7  UNL     1     -34.587  14.574  -3.337  1.00 20.00    -0.020 C 
HETATM    9  C4  UNL     1     -35.849  14.167  -4.099  1.00 20.00     0.009 C 
HETATM   10  C5  UNL     1     -33.409  13.705  -3.786  1.00 20.00     0.009 C 
ENDBRANCH   7   8
ENDBRANCH   3   7
TORSDOF 2
ENDMDL
MODEL 8
REMARK VINA RESULT:      -3.4      1.601      1.875
REMARK  2 active torsions:
REMARK  status: ('A' for Active; 'I' for Inactive)
REMARK    1  A    between atoms: C3_3  and  C6_6 
REMARK    2  A    between atoms: C6_6  and  C7_7 
ROOT
HETATM    1  C1  UNL     1     -36.265  15.201  -5.764  1.00 20.00     0.281 C 
HETATM    2  C2  UNL     1     -35.208  14.177  -6.146  1.00 20.00     0.106 C 
HETATM    3  C3  UNL     1     -35.339  14.916  -3.620  1.00 20.00     0.282 C 
HETATM    4  N8  UNL     1     -35.778  15.933  -4.587  1.00 20.00     0.098 N 
HETATM    5  S9  UNL     1     -34.661  13.510  -4.558  1.00 20.00    -0.132 SA
HETATM    6  H24 UNL     1     -34.971  16.490  -4.869  1.00 20.00     0.317 HD
ENDROOT
BRANCH   3   7
HETATM    7  C6  UNL     1     -34.298  15.478  -2.664  1.00 20.00     0.050 C 
BRANCH   7   8
HETATM    8  C7  UNL     1     -34.704  16.821  -2.032  1.00 20.00    -0.020 C 
HETATM    9  C4  UNL     1     -34.702  16.771  -0.503  1.00 20.00     0.009 C 
HETATM   10  C5  UNL     1     -33.763  17.928  -2.514  1.00 20.00     0.009 C 
ENDBRANCH   7   8
ENDBRANCH   3   7
TORSDOF 2
ENDMDL
MODEL 9
REMARK VINA RESULT:      -3.4      2.002      2.218
REMARK  2 active torsions:
REMARK  status: ('A' for Active; 'I' for Inactive)
REMARK    1  A    between atoms: C3_3  and  C6_6 
REMARK    2  A    between atoms: C6_6  and  C7_7 
ROOT
HETATM    1  C1  UNL     1     -37.944  15.044  -4.191  1.00 20.00     0.281 C 
HETATM    2  C2  UNL     1     -37.325  15.610  -5.459  1.00 20.00     0.106 C 
HETATM    3  C3  UNL     1     -35.695  14.654  -3.623  1.00 20.00     0.282 C 
HETATM    4  N8  UNL     1     -36.963  15.190  -3.107  1.00 20.00     0.098 N 
HETATM    5  S9  UNL     1     -35.618  15.020  -5.405  1.00 20.00    -0.132 SA
HETATM    6  H24 UNL     1     -36.847  16.185  -2.914  1.00 20.00     0.317 HD
ENDROOT
BRANCH   3   7
HETATM    7  C6  UNL     1     -34.504  15.262  -2.896  1.00 20.00     0.050 C 
BRANCH   7   8
HETATM    8  C7  UNL     1     -34.796  16.643  -2.284  1.00 20.00    -0.020 C 
HETATM    9  C4  UNL     1     -34.581  16.668  -0.770  1.00 20.00     0.009 C 
HETATM   10  C5  UNL     1     -33.912  17.703  -2.948  1.00 20.00     0.009 C 
ENDBRANCH   7   8
ENDBRANCH   3   7
TORSDOF 2
ENDMDL
