MODEL 1
REMARK VINA RESULT:      -5.1      0.000      0.000
REMARK  3 active torsions:
REMARK  status: ('A' for Active; 'I' for Inactive)
REMARK    1  A    between atoms: C4_4  and  C11_11 
REMARK    2  A    between atoms: C5_5  and  C9_9 
REMARK    3  A    between atoms: C8_8  and  C11_11 
ROOT
HETATM    1  C1  UNL     1     -32.849  14.724  -3.735  1.00 20.00    -0.030 C 
HETATM    2  C2  UNL     1     -33.400  15.935  -3.580  1.00 20.00    -0.025 C 
HETATM    3  C6  UNL     1     -33.653  13.470  -3.895  1.00 20.00     0.027 C 
HETATM    4  C7  UNL     1     -35.119  13.747  -4.228  1.00 20.00     0.016 C 
HETATM    5  C8  UNL     1     -34.889  16.173  -3.507  1.00 20.00     0.025 C 
HETATM    6  C9  UNL     1     -35.688  14.861  -3.345  1.00 20.00     0.055 C 
ENDROOT
BRANCH   5   7
HETATM    7  C11 UNL     1     -35.204  17.138  -2.358  1.00 20.00     0.011 C 
HETATM    8  C10 UNL     1     -34.551  18.496  -2.608  1.00 20.00     0.015 C 
BRANCH   7   9
HETATM    9  C4  UNL     1     -34.729  16.559  -1.052  1.00 20.00    -0.032 C 
HETATM   10  C3  UNL     1     -34.778  17.211   0.115  1.00 20.00     0.007 C 
ENDBRANCH   7   9
ENDBRANCH   5   7
BRANCH   6  11
HETATM   11  C5  UNL     1     -37.126  15.071  -3.717  1.00 20.00     0.236 C 
HETATM   12  O12 UNL     1     -37.958  14.170  -3.734  1.00 20.00    -0.306 OA
ENDBRANCH   6  11
TORSDOF 3
ENDMDL
MODEL 2
REMARK VINA RESULT:      -4.6      1.986      3.012
REMARK  3 active torsions:
REMARK  status: ('A' for Active; 'I' for Inactive)
REMARK    1  A    between atoms: C4_4  and  C11_11 
REMARK    2  A    between atoms: C5_5  and  C9_9 
REMARK    3  A    between atoms: C8_8  and  C11_11 
ROOT
HETATM    1  C1  UNL     1     -34.192  15.698  -6.884  1.00 20.00    -0.030 C 
HETATM    2  C2  UNL     1     -34.197  16.058  -5.593  1.00 20.00    -0.025 C 
HETATM    3  C6  UNL     1     -35.365  15.059  -7.562  1.00 20.00     0.027 C 
HETATM    4  C7  UNL     1     -36.658  15.195  -6.759  1.00 20.00     0.016 C 
HETATM    5  C8  UNL     1     -35.365  15.826  -4.664  1.00 20.00     0.025 C 
HETATM    6  C9  UNL     1     -36.426  14.886  -5.277  1.00 20.00     0.055 C 
ENDROOT
BRANCH   5   7
HETATM    7  C11 UNL     1     -34.862  15.268  -3.328  1.00 20.00     0.011 C 
HETATM    8  C10 UNL     1     -33.755  16.155  -2.762  1.00 20.00     0.015 C 
BRANCH   7   9
HETATM    9  C4  UNL     1     -34.363  13.859  -3.512  1.00 20.00    -0.032 C 
HETATM   10  C3  UNL     1     -33.070  13.535  -3.634  1.00 20.00     0.007 C 
ENDBRANCH   7   9
ENDBRANCH   5   7
BRANCH   6  11
HETATM   11  C5  UNL     1     -37.734  15.028  -4.555  1.00 20.00     0.236 C 
HETATM   12  O12 UNL     1     -38.175  14.182  -3.783  1.00 20.00    -0.306 OA
ENDBRANCH   6  11
TORSDOF 3
ENDMDL
MODEL 3
REMARK VINA RESULT:      -4.5      1.823      1.924
REMARK  3 active torsions:
REMARK  status: ('A' for Active; 'I' for Inactive)
REMARK    1  A    between atoms: C4_4  and  C11_11 
REMARK    2  A    between atoms: C5_5  and  C9_9 
REMARK    3  A    between atoms: C8_8  and  C11_11 
ROOT
HETATM    1  C1  UNL     1     -33.520  13.683  -3.860  1.00 20.00    -0.030 C 
HETATM    2  C2  UNL     1     -33.353  14.969  -3.524  1.00 20.00    -0.025 C 
HETATM    3  C6  UNL     1     -34.549  13.220  -4.846  1.00 20.00     0.027 C 
HETATM    4  C7  UNL     1     -35.121  14.363  -5.685  1.00 20.00     0.016 C 
HETATM    5  C8  UNL     1     -34.204  16.093  -4.064  1.00 20.00     0.025 C 
HETATM    6  C9  UNL     1     -35.453  15.578  -4.814  1.00 20.00     0.055 C 
ENDROOT
BRANCH   5   7
HETATM    7  C11 UNL     1     -34.613  17.029  -2.921  1.00 20.00     0.011 C 
HETATM    8  C10 UNL     1     -33.779  18.308  -2.954  1.00 20.00     0.015 C 
BRANCH   7   9
HETATM    9  C4  UNL     1     -34.451  16.330  -1.598  1.00 20.00    -0.032 C 
HETATM   10  C3  UNL     1     -34.700  16.904  -0.415  1.00 20.00     0.007 C 
ENDBRANCH   7   9
ENDBRANCH   5   7
BRANCH   6  11
HETATM   11  C5  UNL     1     -36.017  16.651  -5.696  1.00 20.00     0.236 C 
HETATM   12  O12 UNL     1     -35.338  17.316  -6.471  1.00 20.00    -0.306 OA
ENDBRANCH   6  11
TORSDOF 3
ENDMDL
MODEL 4
REMARK VINA RESULT:      -4.5      2.201      2.842
REMARK  3 active torsions:
REMARK  status: ('A' for Active; 'I' for Inactive)
REMARK    1  A    between atoms: C4_4  and  C11_11 
REMARK    2  A    between atoms: C5_5  and  C9_9 
REMARK    3  A    between atoms: C8_8  and  C11_11 
ROOT
HETATM    1  C1  UNL     1     -34.421  16.973  -6.967  1.00 20.00    -0.030 C 
HETATM    2  C2  UNL     1     -34.514  17.167  -5.644  1.00 20.00    -0.025 C 
HETATM    3  C6  UNL     1     -34.664  15.647  -7.621  1.00 20.00     0.027 C 
HETATM    4  C7  UNL     1     -35.373  14.655  -6.699  1.00 20.00     0.016 C 
HETATM    5  C8  UNL     1     -34.833  16.070  -4.658  1.00 20.00     0.025 C 
HETATM    6  C9  UNL     1     -34.760  14.665  -5.296  1.00 20.00     0.055 C 
ENDROOT
BRANCH   5   7
HETATM    7  C11 UNL     1     -33.888  16.162  -3.455  1.00 20.00     0.011 C 
HETATM    8  C10 UNL     1     -32.711  15.204  -3.626  1.00 20.00     0.015 C 
BRANCH   7   9
HETATM    9  C4  UNL     1     -34.636  15.854  -2.185  1.00 20.00    -0.032 C 
HETATM   10  C3  UNL     1     -34.551  16.590  -1.071  1.00 20.00     0.007 C 
ENDBRANCH   7   9
ENDBRANCH   5   7
BRANCH   6  11
HETATM   11  C5  UNL     1     -35.494  13.664  -4.453  1.00 20.00     0.236 C 
HETATM   12  O12 UNL     1     -35.060  12.545  -4.201  1.00 20.00    -0.306 OA
ENDBRANCH   6  11
TORSDOF 3
ENDMDL
MODEL 5
REMARK VINA RESULT:      -4.5      1.973      4.087
REMARK  3 active torsions:
REMARK  status: ('A' for Active; 'I' for Inactive)
REMARK    1  A    between atoms: C4_4  and  C11_11 
REMARK    2  A    between atoms: C5_5  and  C9_9 
REMARK    3  A    between atoms: C8_8  and  C11_11 
ROOT
HETATM    1  C1  UNL     1     -33.504  17.541  -5.357  1.00 20.00    -0.030 C 
HETATM    2  C2  UNL     1     -33.320  16.334  -4.805  1.00 20.00    -0.025 C 
HETATM    3  C6  UNL     1     -33.863  18.760  -4.563  1.00 20.00     0.027 C 
HETATM    4  C7  UNL     1     -33.638  18.576  -3.063  1.00 20.00     0.016 C 
HETATM    5  C8  UNL     1     -33.491  16.053  -3.332  1.00 20.00     0.025 C 
HETATM    6  C9  UNL     1     -34.169  17.222  -2.584  1.00 20.00     0.055 C 
ENDROOT
BRANCH   5   7
HETATM    7  C11 UNL     1     -34.289  14.758  -3.140  1.00 20.00     0.011 C 
HETATM    8  C10 UNL     1     -33.772  13.669  -4.078  1.00 20.00     0.015 C 
BRANCH   7   9
HETATM    9  C4  UNL     1     -35.752  15.013  -3.386  1.00 20.00    -0.032 C 
HETATM   10  C3  UNL     1     -36.497  14.311  -4.248  1.00 20.00     0.007 C 
ENDBRANCH   7   9
ENDBRANCH   5   7
BRANCH   6  11
HETATM   11  C5  UNL     1     -33.927  17.114  -1.107  1.00 20.00     0.236 C 
HETATM   12  O12 UNL     1     -34.765  16.704  -0.312  1.00 20.00    -0.306 OA
ENDBRANCH   6  11
TORSDOF 3
ENDMDL
MODEL 6
REMARK VINA RESULT:      -4.5      1.869      3.059
REMARK  3 active torsions:
REMARK  status: ('A' for Active; 'I' for Inactive)
REMARK    1  A    between atoms: C4_4  and  C11_11 
REMARK    2  A    between atoms: C5_5  and  C9_9 
REMARK    3  A    between atoms: C8_8  and  C11_11 
ROOT
HETATM    1  C1  UNL     1     -36.710  15.810  -4.231  1.00 20.00    -0.030 C 
HETATM    2  C2  UNL     1     -36.130  15.939  -3.030  1.00 20.00    -0.025 C 
HETATM    3  C6  UNL     1     -36.049  15.133  -5.393  1.00 20.00     0.027 C 
HETATM    4  C7  UNL     1     -34.837  14.299  -4.980  1.00 20.00     0.016 C 
HETATM    5  C8  UNL     1     -34.734  15.456  -2.719  1.00 20.00     0.025 C 
HETATM    6  C9  UNL     1     -33.950  15.061  -3.991  1.00 20.00     0.055 C 
ENDROOT
BRANCH   5   7
HETATM    7  C11 UNL     1     -33.975  16.532  -1.934  1.00 20.00     0.011 C 
HETATM    8  C10 UNL     1     -34.665  16.806  -0.600  1.00 20.00     0.015 C 
BRANCH   7   9
HETATM    9  C4  UNL     1     -33.884  17.796  -2.748  1.00 20.00    -0.032 C 
HETATM   10  C3  UNL     1     -33.531  18.984  -2.244  1.00 20.00     0.007 C 
ENDBRANCH   7   9
ENDBRANCH   5   7
BRANCH   6  11
HETATM   11  C5  UNL     1     -32.779  14.192  -3.639  1.00 20.00     0.236 C 
HETATM   12  O12 UNL     1     -32.819  12.966  -3.654  1.00 20.00    -0.306 OA
ENDBRANCH   6  11
TORSDOF 3
ENDMDL
MODEL 7
REMARK VINA RESULT:      -4.5     11.376     12.611
REMARK  3 active torsions:
REMARK  status: ('A' for Active; 'I' for Inactive)
REMARK    1  A    between atoms: C4_4  and  C11_11 
REMARK    2  A    between atoms: C5_5  and  C9_9 
REMARK    3  A    between atoms: C8_8  and  C11_11 
ROOT
HETATM    1  C1  UNL     1     -35.508   4.343   4.459  1.00 20.00    -0.030 C 
HETATM    2  C2  UNL     1     -35.068   5.290   3.619  1.00 20.00    -0.025 C 
HETATM    3  C6  UNL     1     -35.138   4.297   5.910  1.00 20.00     0.027 C 
HETATM    4  C7  UNL     1     -34.530   5.609   6.407  1.00 20.00     0.016 C 
HETATM    5  C8  UNL     1     -34.120   6.393   4.024  1.00 20.00     0.025 C 
HETATM    6  C9  UNL     1     -33.496   6.151   5.416  1.00 20.00     0.055 C 
ENDROOT
BRANCH   5   7
HETATM    7  C11 UNL     1     -33.023   6.550   2.965  1.00 20.00     0.011 C 
HETATM    8  C10 UNL     1     -31.874   5.582   3.239  1.00 20.00     0.015 C 
BRANCH   7   9
HETATM    9  C4  UNL     1     -32.521   7.969   2.948  1.00 20.00    -0.032 C 
HETATM   10  C3  UNL     1     -32.127   8.608   1.840  1.00 20.00     0.007 C 
ENDBRANCH   7   9
ENDBRANCH   5   7
BRANCH   6  11
HETATM   11  C5  UNL     1     -32.935   7.427   5.971  1.00 20.00     0.236 C 
HETATM   12  O12 UNL     1     -33.018   7.745   7.153  1.00 20.00    -0.306 OA
ENDBRANCH   6  11
TORSDOF 3
ENDMDL
MODEL 8
REMARK VINA RESULT:      -4.4      1.340      3.808
REMARK  3 active torsions:
REMARK  status: ('A' for Active; 'I' for Inactive)
REMARK    1  A    between atoms: C4_4  and  C11_11 
REMARK    2  A    between atoms: C5_5  and  C9_9 
REMARK    3  A    between atoms: C8_8  and  C11_11 
ROOT
HETATM    1  C1  UNL     1     -34.430  17.060  -2.061  1.00 20.00    -0.030 C 
HETATM    2  C2  UNL     1     -34.313  15.783  -2.451  1.00 20.00    -0.025 C 
HETATM    3  C6  UNL     1     -35.639  17.898  -2.348  1.00 20.00     0.027 C 
HETATM    4  C7  UNL     1     -36.842  17.067  -2.792  1.00 20.00     0.016 C 
HETATM    5  C8  UNL     1     -35.360  15.055  -3.258  1.00 20.00     0.025 C 
HETATM    6  C9  UNL     1     -36.437  16.008  -3.821  1.00 20.00     0.055 C 
ENDROOT
BRANCH   5   7
HETATM    7  C11 UNL     1     -34.690  14.272  -4.393  1.00 20.00     0.011 C 
HETATM    8  C10 UNL     1     -33.492  13.486  -3.863  1.00 20.00     0.015 C 
BRANCH   7   9
HETATM    9  C4  UNL     1     -34.259  15.214  -5.485  1.00 20.00    -0.032 C 
HETATM   10  C3  UNL     1     -34.430  14.972  -6.790  1.00 20.00     0.007 C 
ENDBRANCH   7   9
ENDBRANCH   5   7
BRANCH   6  11
HETATM   11  C5  UNL     1     -37.664  15.242  -4.218  1.00 20.00     0.236 C 
HETATM   12  O12 UNL     1     -38.034  14.218  -3.653  1.00 20.00    -0.306 OA
ENDBRANCH   6  11
TORSDOF 3
ENDMDL
MODEL 9
REMARK VINA RESULT:      -4.4      2.014      2.571
REMARK  3 active torsions:
REMARK  status: ('A' for Active; 'I' for Inactive)
REMARK    1  A    between atoms: C4_4  and  C11_11 
REMARK    2  A    between atoms: C5_5  and  C9_9 
REMARK    3  A    between atoms: C8_8  and  C11_11 
ROOT
HETATM    1  C1  UNL     1     -34.781  17.370  -6.000  1.00 20.00    -0.030 C 
HETATM    2  C2  UNL     1     -35.568  17.233  -4.924  1.00 20.00    -0.025 C 
HETATM    3  C6  UNL     1     -34.029  16.230  -6.616  1.00 20.00     0.027 C 
HETATM    4  C7  UNL     1     -34.525  14.867  -6.137  1.00 20.00     0.016 C 
HETATM    5  C8  UNL     1     -35.755  15.931  -4.184  1.00 20.00     0.025 C 
HETATM    6  C9  UNL     1     -34.737  14.855  -4.621  1.00 20.00     0.055 C 
ENDROOT
BRANCH   5   7
HETATM    7  C11 UNL     1     -35.664  16.175  -2.673  1.00 20.00     0.011 C 
HETATM    8  C10 UNL     1     -36.401  17.457  -2.294  1.00 20.00     0.015 C 
BRANCH   7   9
HETATM    9  C4  UNL     1     -34.221  16.253  -2.250  1.00 20.00    -0.032 C 
HETATM   10  C3  UNL     1     -33.741  17.171  -1.402  1.00 20.00     0.007 C 
ENDBRANCH   7   9
ENDBRANCH   5   7
BRANCH   6  11
HETATM   11  C5  UNL     1     -35.211  13.488  -4.221  1.00 20.00     0.236 C 
HETATM   12  O12 UNL     1     -34.866  12.459  -4.792  1.00 20.00    -0.306 OA
ENDBRANCH   6  11
TORSDOF 3
ENDMDL
