MODEL 1
REMARK VINA RESULT:      -4.9      0.000      0.000
REMARK  1 active torsions:
REMARK  status: ('A' for Active; 'I' for Inactive)
REMARK    1  A    between atoms: C4_4  and  C11_11 
ROOT
HETATM    1  C1  UNL     1     -33.904  16.865  -5.424  1.00 20.00     0.053 C 
HETATM    2  C2  UNL     1     -34.249  15.574  -5.461  1.00 20.00    -0.072 C 
HETATM    3  C3  UNL     1     -33.919  17.256  -4.011  1.00 20.00     0.155 C 
HETATM    4  C4  UNL     1     -34.115  16.061  -3.110  1.00 20.00     0.075 C 
HETATM    5  C5  UNL     1     -34.587  14.961  -4.106  1.00 20.00    -0.013 C 
HETATM    6  C6  UNL     1     -34.347  14.785  -6.727  1.00 20.00     0.044 C 
HETATM    7  C7  UNL     1     -33.798  13.666  -3.852  1.00 20.00     0.020 C 
HETATM    8  C8  UNL     1     -36.093  14.658  -4.033  1.00 20.00     0.020 C 
HETATM    9  O12 UNL     1     -33.744  18.407  -3.640  1.00 20.00    -0.293 OA
ENDROOT
BRANCH   4  10
HETATM   10  C11 UNL     1     -35.030  16.379  -1.938  1.00 20.00    -0.010 C 
HETATM   11  C9  UNL     1     -34.227  16.923  -0.755  1.00 20.00     0.010 C 
HETATM   12  C10 UNL     1     -36.113  17.378  -2.349  1.00 20.00     0.010 C 
ENDBRANCH   4  10
TORSDOF 1
ENDMDL
MODEL 2
REMARK VINA RESULT:      -4.8      2.006      3.171
REMARK  1 active torsions:
REMARK  status: ('A' for Active; 'I' for Inactive)
REMARK    1  A    between atoms: C4_4  and  C11_11 
ROOT
HETATM    1  C1  UNL     1     -34.954  13.393  -5.736  1.00 20.00     0.053 C 
HETATM    2  C2  UNL     1     -35.283  14.483  -6.439  1.00 20.00    -0.072 C 
HETATM    3  C3  UNL     1     -34.694  13.849  -4.367  1.00 20.00     0.155 C 
HETATM    4  C4  UNL     1     -35.069  15.300  -4.188  1.00 20.00     0.075 C 
HETATM    5  C5  UNL     1     -35.233  15.790  -5.657  1.00 20.00    -0.013 C 
HETATM    6  C6  UNL     1     -35.632  14.449  -7.892  1.00 20.00     0.044 C 
HETATM    7  C7  UNL     1     -36.541  16.586  -5.789  1.00 20.00     0.020 C 
HETATM    8  C8  UNL     1     -34.063  16.653  -6.160  1.00 20.00     0.020 C 
HETATM    9  O12 UNL     1     -34.271  13.109  -3.492  1.00 20.00    -0.293 OA
ENDROOT
BRANCH   4  10
HETATM   10  C11 UNL     1     -34.069  16.039  -3.314  1.00 20.00    -0.010 C 
HETATM   11  C9  UNL     1     -34.547  16.086  -1.861  1.00 20.00     0.010 C 
HETATM   12  C10 UNL     1     -32.688  15.388  -3.397  1.00 20.00     0.010 C 
ENDBRANCH   4  10
TORSDOF 1
ENDMDL
MODEL 3
REMARK VINA RESULT:      -4.7      1.702      3.986
REMARK  1 active torsions:
REMARK  status: ('A' for Active; 'I' for Inactive)
REMARK    1  A    between atoms: C4_4  and  C11_11 
ROOT
HETATM    1  C1  UNL     1     -36.187  16.638  -3.519  1.00 20.00     0.053 C 
HETATM    2  C2  UNL     1     -35.116  16.017  -3.011  1.00 20.00    -0.072 C 
HETATM    3  C3  UNL     1     -36.272  16.228  -4.924  1.00 20.00     0.155 C 
HETATM    4  C4  UNL     1     -35.282  15.135  -5.242  1.00 20.00     0.075 C 
HETATM    5  C5  UNL     1     -34.333  15.171  -4.008  1.00 20.00    -0.013 C 
HETATM    6  C6  UNL     1     -34.679  16.164  -1.589  1.00 20.00     0.044 C 
HETATM    7  C7  UNL     1     -34.108  13.740  -3.492  1.00 20.00     0.020 C 
HETATM    8  C8  UNL     1     -32.970  15.827  -4.288  1.00 20.00     0.020 C 
HETATM    9  O12 UNL     1     -37.088  16.699  -5.702  1.00 20.00    -0.293 OA
ENDROOT
BRANCH   4  10
HETATM   10  C11 UNL     1     -34.651  15.324  -6.612  1.00 20.00    -0.010 C 
HETATM   11  C9  UNL     1     -35.388  14.498  -7.668  1.00 20.00     0.010 C 
HETATM   12  C10 UNL     1     -34.640  16.802  -7.007  1.00 20.00     0.010 C 
ENDBRANCH   4  10
TORSDOF 1
ENDMDL
MODEL 4
REMARK VINA RESULT:      -4.6      2.064      4.281
REMARK  1 active torsions:
REMARK  status: ('A' for Active; 'I' for Inactive)
REMARK    1  A    between atoms: C4_4  and  C11_11 
ROOT
HETATM    1  C1  UNL     1     -34.566  14.295  -3.260  1.00 20.00     0.053 C 
HETATM    2  C2  UNL     1     -34.505  15.617  -3.071  1.00 20.00    -0.072 C 
HETATM    3  C3  UNL     1     -34.691  14.090  -4.707  1.00 20.00     0.155 C 
HETATM    4  C4  UNL     1     -34.511  15.383  -5.464  1.00 20.00     0.075 C 
HETATM    5  C5  UNL     1     -34.633  16.453  -4.340  1.00 20.00    -0.013 C 
HETATM    6  C6  UNL     1     -34.367  16.249  -1.724  1.00 20.00     0.044 C 
HETATM    7  C7  UNL     1     -33.488  17.470  -4.473  1.00 20.00     0.020 C 
HETATM    8  C8  UNL     1     -35.977  17.202  -4.335  1.00 20.00     0.020 C 
HETATM    9  O12 UNL     1     -34.871  12.990  -5.207  1.00 20.00    -0.293 OA
ENDROOT
BRANCH   4  10
HETATM   10  C11 UNL     1     -35.472  15.490  -6.637  1.00 20.00    -0.010 C 
HETATM   11  C9  UNL     1     -34.879  14.839  -7.887  1.00 20.00     0.010 C 
HETATM   12  C10 UNL     1     -36.820  14.854  -6.295  1.00 20.00     0.010 C 
ENDBRANCH   4  10
TORSDOF 1
ENDMDL
MODEL 5
REMARK VINA RESULT:      -4.6      2.166      4.297
REMARK  1 active torsions:
REMARK  status: ('A' for Active; 'I' for Inactive)
REMARK    1  A    between atoms: C4_4  and  C11_11 
ROOT
HETATM    1  C1  UNL     1     -34.366  14.154  -3.275  1.00 20.00     0.053 C 
HETATM    2  C2  UNL     1     -34.269  15.487  -3.345  1.00 20.00    -0.072 C 
HETATM    3  C3  UNL     1     -34.571  13.683  -4.648  1.00 20.00     0.155 C 
HETATM    4  C4  UNL     1     -34.407  14.802  -5.646  1.00 20.00     0.075 C 
HETATM    5  C5  UNL     1     -34.449  16.069  -4.743  1.00 20.00    -0.013 C 
HETATM    6  C6  UNL     1     -34.048  16.359  -2.152  1.00 20.00     0.044 C 
HETATM    7  C7  UNL     1     -33.294  17.009  -5.123  1.00 20.00     0.020 C 
HETATM    8  C8  UNL     1     -35.776  16.844  -4.816  1.00 20.00     0.020 C 
HETATM    9  O12 UNL     1     -34.798  12.513  -4.919  1.00 20.00    -0.293 OA
ENDROOT
BRANCH   4  10
HETATM   10  C11 UNL     1     -35.427  14.712  -6.770  1.00 20.00    -0.010 C 
HETATM   11  C9  UNL     1     -36.832  15.033  -6.255  1.00 20.00     0.010 C 
HETATM   12  C10 UNL     1     -35.056  15.652  -7.918  1.00 20.00     0.010 C 
ENDBRANCH   4  10
TORSDOF 1
ENDMDL
MODEL 6
REMARK VINA RESULT:      -4.5      1.697      4.003
REMARK  1 active torsions:
REMARK  status: ('A' for Active; 'I' for Inactive)
REMARK    1  A    between atoms: C4_4  and  C11_11 
ROOT
HETATM    1  C1  UNL     1     -36.733  16.981  -3.338  1.00 20.00     0.053 C 
HETATM    2  C2  UNL     1     -36.155  17.618  -2.313  1.00 20.00    -0.072 C 
HETATM    3  C3  UNL     1     -35.814  15.907  -3.727  1.00 20.00     0.155 C 
HETATM    4  C4  UNL     1     -34.675  15.772  -2.745  1.00 20.00     0.075 C 
HETATM    5  C5  UNL     1     -34.776  17.094  -1.928  1.00 20.00    -0.013 C 
HETATM    6  C6  UNL     1     -36.776  18.784  -1.614  1.00 20.00     0.044 C 
HETATM    7  C7  UNL     1     -34.683  16.778  -0.427  1.00 20.00     0.020 C 
HETATM    8  C8  UNL     1     -33.704  18.135  -2.293  1.00 20.00     0.020 C 
HETATM    9  O12 UNL     1     -36.001  15.197  -4.703  1.00 20.00    -0.293 OA
ENDROOT
BRANCH   4  10
HETATM   10  C11 UNL     1     -33.356  15.484  -3.445  1.00 20.00    -0.010 C 
HETATM   11  C9  UNL     1     -33.164  13.979  -3.642  1.00 20.00     0.010 C 
HETATM   12  C10 UNL     1     -33.283  16.209  -4.789  1.00 20.00     0.010 C 
ENDBRANCH   4  10
TORSDOF 1
ENDMDL
MODEL 7
REMARK VINA RESULT:      -4.4      1.980      4.011
REMARK  1 active torsions:
REMARK  status: ('A' for Active; 'I' for Inactive)
REMARK    1  A    between atoms: C4_4  and  C11_11 
ROOT
HETATM    1  C1  UNL     1     -37.148  16.358  -3.184  1.00 20.00     0.053 C 
HETATM    2  C2  UNL     1     -36.165  17.192  -2.825  1.00 20.00    -0.072 C 
HETATM    3  C3  UNL     1     -36.510  15.071  -3.478  1.00 20.00     0.155 C 
HETATM    4  C4  UNL     1     -35.051  15.078  -3.094  1.00 20.00     0.075 C 
HETATM    5  C5  UNL     1     -34.764  16.594  -2.884  1.00 20.00    -0.013 C 
HETATM    6  C6  UNL     1     -36.396  18.616  -2.436  1.00 20.00     0.044 C 
HETATM    7  C7  UNL     1     -34.001  16.794  -1.565  1.00 20.00     0.020 C 
HETATM    8  C8  UNL     1     -33.970  17.243  -4.031  1.00 20.00     0.020 C 
HETATM    9  O12 UNL     1     -37.123  14.117  -3.932  1.00 20.00    -0.293 OA
ENDROOT
BRANCH   4  10
HETATM   10  C11 UNL     1     -34.194  14.340  -4.111  1.00 20.00    -0.010 C 
HETATM   11  C9  UNL     1     -32.861  13.916  -3.492  1.00 20.00     0.010 C 
HETATM   12  C10 UNL     1     -34.935  13.122  -4.665  1.00 20.00     0.010 C 
ENDBRANCH   4  10
TORSDOF 1
ENDMDL
MODEL 8
REMARK VINA RESULT:      -4.4      1.565      3.979
REMARK  1 active torsions:
REMARK  status: ('A' for Active; 'I' for Inactive)
REMARK    1  A    between atoms: C4_4  and  C11_11 
ROOT
HETATM    1  C1  UNL     1     -33.732  16.248  -2.301  1.00 20.00     0.053 C 
HETATM    2  C2  UNL     1     -34.957  16.780  -2.368  1.00 20.00    -0.072 C 
HETATM    3  C3  UNL     1     -33.495  15.593  -3.591  1.00 20.00     0.155 C 
HETATM    4  C4  UNL     1     -34.592  15.907  -4.578  1.00 20.00     0.075 C 
HETATM    5  C5  UNL     1     -35.704  16.507  -3.669  1.00 20.00    -0.013 C 
HETATM    6  C6  UNL     1     -35.582  17.549  -1.249  1.00 20.00     0.044 C 
HETATM    7  C7  UNL     1     -36.242  17.800  -4.302  1.00 20.00     0.020 C 
HETATM    8  C8  UNL     1     -36.877  15.548  -3.403  1.00 20.00     0.020 C 
HETATM    9  O12 UNL     1     -32.500  14.922  -3.820  1.00 20.00    -0.293 OA
ENDROOT
BRANCH   4  10
HETATM   10  C11 UNL     1     -34.958  14.696  -5.421  1.00 20.00    -0.010 C 
HETATM   11  C9  UNL     1     -34.426  14.846  -6.848  1.00 20.00     0.010 C 
HETATM   12  C10 UNL     1     -34.425  13.410  -4.788  1.00 20.00     0.010 C 
ENDBRANCH   4  10
TORSDOF 1
ENDMDL
MODEL 9
REMARK VINA RESULT:      -4.3      1.643      2.893
REMARK  1 active torsions:
REMARK  status: ('A' for Active; 'I' for Inactive)
REMARK    1  A    between atoms: C4_4  and  C11_11 
ROOT
HETATM    1  C1  UNL     1     -34.275  17.416  -6.232  1.00 20.00     0.053 C 
HETATM    2  C2  UNL     1     -35.292  16.838  -6.881  1.00 20.00    -0.072 C 
HETATM    3  C3  UNL     1     -33.740  16.402  -5.318  1.00 20.00     0.155 C 
HETATM    4  C4  UNL     1     -34.367  15.052  -5.564  1.00 20.00     0.075 C 
HETATM    5  C5  UNL     1     -35.594  15.407  -6.454  1.00 20.00    -0.013 C 
HETATM    6  C6  UNL     1     -36.109  17.539  -7.918  1.00 20.00     0.044 C 
HETATM    7  C7  UNL     1     -35.650  14.450  -7.656  1.00 20.00     0.020 C 
HETATM    8  C8  UNL     1     -36.939  15.360  -5.708  1.00 20.00     0.020 C 
HETATM    9  O12 UNL     1     -32.861  16.643  -4.504  1.00 20.00    -0.293 OA
ENDROOT
BRANCH   4  10
HETATM   10  C11 UNL     1     -34.638  14.309  -4.266  1.00 20.00    -0.010 C 
HETATM   11  C9  UNL     1     -33.457  13.408  -3.899  1.00 20.00     0.010 C 
HETATM   12  C10 UNL     1     -34.931  15.289  -3.129  1.00 20.00     0.010 C 
ENDBRANCH   4  10
TORSDOF 1
ENDMDL
