MODEL 1
REMARK VINA RESULT:      -4.9      0.000      0.000
REMARK  0 active torsions:
REMARK  status: ('A' for Active; 'I' for Inactive)
ROOT
HETATM    1  C1  UNL     1     -33.304   6.546   4.479  1.00 20.00    -0.014 A 
HETATM    2  C2  UNL     1     -34.190   5.652   4.017  1.00 20.00    -0.070 A 
HETATM    3  C3  UNL     1     -33.558   6.652   5.928  1.00 20.00     0.156 A 
HETATM    4  C4  UNL     1     -34.715   5.799   6.358  1.00 20.00     0.092 A 
HETATM    5  C5  UNL     1     -35.096   5.060   5.073  1.00 20.00     0.018 A 
HETATM    6  C6  UNL     1     -32.247   7.337   3.807  1.00 20.00     0.052 C 
HETATM    7  C7  UNL     1     -34.363   5.228   2.594  1.00 20.00     0.044 C 
HETATM    8  C8  UNL     1     -34.919   3.551   5.224  1.00 20.00     0.015 C 
HETATM    9  O9  UNL     1     -32.911   7.367   6.679  1.00 20.00    -0.293 OA
ENDROOT
TORSDOF 0
ENDMDL
MODEL 2
REMARK VINA RESULT:      -4.9     11.951     13.505
REMARK  0 active torsions:
REMARK  status: ('A' for Active; 'I' for Inactive)
ROOT
HETATM    1  C1  UNL     1     -34.409  14.734  -5.644  1.00 20.00    -0.014 A 
HETATM    2  C2  UNL     1     -33.765  15.739  -5.034  1.00 20.00    -0.070 A 
HETATM    3  C3  UNL     1     -34.307  13.579  -4.733  1.00 20.00     0.156 A 
HETATM    4  C4  UNL     1     -33.498  13.898  -3.511  1.00 20.00     0.092 A 
HETATM    5  C5  UNL     1     -33.194  15.389  -3.678  1.00 20.00     0.018 A 
HETATM    6  C6  UNL     1     -35.112  14.648  -6.945  1.00 20.00     0.052 C 
HETATM    7  C7  UNL     1     -33.553  17.116  -5.575  1.00 20.00     0.044 C 
HETATM    8  C8  UNL     1     -33.807  16.213  -2.548  1.00 20.00     0.015 C 
HETATM    9  O9  UNL     1     -34.809  12.488  -4.963  1.00 20.00    -0.293 OA
ENDROOT
TORSDOF 0
ENDMDL
MODEL 3
REMARK VINA RESULT:      -4.8      1.914      3.706
REMARK  0 active torsions:
REMARK  status: ('A' for Active; 'I' for Inactive)
ROOT
HETATM    1  C1  UNL     1     -34.575   5.202   5.741  1.00 20.00    -0.014 A 
HETATM    2  C2  UNL     1     -33.936   6.355   5.501  1.00 20.00    -0.070 A 
HETATM    3  C3  UNL     1     -34.908   4.644   4.417  1.00 20.00     0.156 A 
HETATM    4  C4  UNL     1     -34.484   5.553   3.302  1.00 20.00     0.092 A 
HETATM    5  C5  UNL     1     -33.753   6.681   4.035  1.00 20.00     0.018 A 
HETATM    6  C6  UNL     1     -34.944   4.513   6.999  1.00 20.00     0.052 C 
HETATM    7  C7  UNL     1     -33.429   7.319   6.525  1.00 20.00     0.044 C 
HETATM    8  C8  UNL     1     -32.285   6.754   3.625  1.00 20.00     0.015 C 
HETATM    9  O9  UNL     1     -35.479   3.575   4.256  1.00 20.00    -0.293 OA
ENDROOT
TORSDOF 0
ENDMDL
MODEL 4
REMARK VINA RESULT:      -4.6     11.847     12.699
REMARK  0 active torsions:
REMARK  status: ('A' for Active; 'I' for Inactive)
ROOT
HETATM    1  C1  UNL     1     -34.085  14.348  -3.456  1.00 20.00    -0.014 A 
HETATM    2  C2  UNL     1     -34.705  15.403  -2.907  1.00 20.00    -0.070 A 
HETATM    3  C3  UNL     1     -35.127  13.611  -4.196  1.00 20.00     0.156 A 
HETATM    4  C4  UNL     1     -36.479  14.239  -4.037  1.00 20.00     0.092 A 
HETATM    5  C5  UNL     1     -36.180  15.502  -3.224  1.00 20.00     0.018 A 
HETATM    6  C6  UNL     1     -32.677  13.889  -3.414  1.00 20.00     0.052 C 
HETATM    7  C7  UNL     1     -34.084  16.435  -2.022  1.00 20.00     0.044 C 
HETATM    8  C8  UNL     1     -36.533  16.765  -4.006  1.00 20.00     0.015 C 
HETATM    9  O9  UNL     1     -34.908  12.598  -4.845  1.00 20.00    -0.293 OA
ENDROOT
TORSDOF 0
ENDMDL
MODEL 5
REMARK VINA RESULT:      -4.3      9.882     11.198
REMARK  0 active torsions:
REMARK  status: ('A' for Active; 'I' for Inactive)
ROOT
HETATM    1  C1  UNL     1     -42.490   6.132  -2.689  1.00 20.00    -0.014 A 
HETATM    2  C2  UNL     1     -41.652   6.193  -1.645  1.00 20.00    -0.070 A 
HETATM    3  C3  UNL     1     -42.685   4.696  -2.964  1.00 20.00     0.156 A 
HETATM    4  C4  UNL     1     -41.864   3.834  -2.052  1.00 20.00     0.092 A 
HETATM    5  C5  UNL     1     -41.221   4.849  -1.103  1.00 20.00     0.018 A 
HETATM    6  C6  UNL     1     -43.151   7.183  -3.497  1.00 20.00     0.052 C 
HETATM    7  C7  UNL     1     -41.112   7.435  -1.012  1.00 20.00     0.044 C 
HETATM    8  C8  UNL     1     -41.665   4.623   0.340  1.00 20.00     0.015 C 
HETATM    9  O9  UNL     1     -43.417   4.268  -3.845  1.00 20.00    -0.293 OA
ENDROOT
TORSDOF 0
ENDMDL
MODEL 6
REMARK VINA RESULT:      -4.2      1.743      2.979
REMARK  0 active torsions:
REMARK  status: ('A' for Active; 'I' for Inactive)
ROOT
HETATM    1  C1  UNL     1     -34.217   5.464   3.912  1.00 20.00    -0.014 A 
HETATM    2  C2  UNL     1     -33.375   6.271   4.573  1.00 20.00    -0.070 A 
HETATM    3  C3  UNL     1     -34.922   4.684   4.946  1.00 20.00     0.156 A 
HETATM    4  C4  UNL     1     -34.431   5.009   6.326  1.00 20.00     0.092 A 
HETATM    5  C5  UNL     1     -33.433   6.144   6.079  1.00 20.00     0.018 A 
HETATM    6  C6  UNL     1     -34.488   5.279   2.467  1.00 20.00     0.052 C 
HETATM    7  C7  UNL     1     -32.405   7.231   3.965  1.00 20.00     0.044 C 
HETATM    8  C8  UNL     1     -33.876   7.435   6.764  1.00 20.00     0.015 C 
HETATM    9  O9  UNL     1     -35.790   3.859   4.699  1.00 20.00    -0.293 OA
ENDROOT
TORSDOF 0
ENDMDL
MODEL 7
REMARK VINA RESULT:      -4.1     12.037     13.361
REMARK  0 active torsions:
REMARK  status: ('A' for Active; 'I' for Inactive)
ROOT
HETATM    1  C1  UNL     1     -34.241  15.194  -3.906  1.00 20.00    -0.014 A 
HETATM    2  C2  UNL     1     -35.106  15.533  -4.872  1.00 20.00    -0.070 A 
HETATM    3  C3  UNL     1     -33.912  13.775  -4.141  1.00 20.00     0.156 A 
HETATM    4  C4  UNL     1     -34.675  13.207  -5.301  1.00 20.00     0.092 A 
HETATM    5  C5  UNL     1     -35.430  14.423  -5.846  1.00 20.00     0.018 A 
HETATM    6  C6  UNL     1     -33.656  15.959  -2.781  1.00 20.00     0.052 C 
HETATM    7  C7  UNL     1     -35.770  16.861  -5.042  1.00 20.00     0.044 C 
HETATM    8  C8  UNL     1     -35.003  14.749  -7.276  1.00 20.00     0.015 C 
HETATM    9  O9  UNL     1     -33.124  13.140  -3.456  1.00 20.00    -0.293 OA
ENDROOT
TORSDOF 0
ENDMDL
MODEL 8
REMARK VINA RESULT:      -4.1      1.463      2.520
REMARK  0 active torsions:
REMARK  status: ('A' for Active; 'I' for Inactive)
ROOT
HETATM    1  C1  UNL     1     -33.900   6.311   5.390  1.00 20.00    -0.014 A 
HETATM    2  C2  UNL     1     -33.727   6.501   4.074  1.00 20.00    -0.070 A 
HETATM    3  C3  UNL     1     -34.914   5.248   5.514  1.00 20.00     0.156 A 
HETATM    4  C4  UNL     1     -35.425   4.802   4.176  1.00 20.00     0.092 A 
HETATM    5  C5  UNL     1     -34.563   5.599   3.194  1.00 20.00     0.018 A 
HETATM    6  C6  UNL     1     -33.287   6.953   6.576  1.00 20.00     0.052 C 
HETATM    7  C7  UNL     1     -32.828   7.508   3.433  1.00 20.00     0.044 C 
HETATM    8  C8  UNL     1     -33.716   4.678   2.319  1.00 20.00     0.015 C 
HETATM    9  O9  UNL     1     -35.300   4.800   6.584  1.00 20.00    -0.293 OA
ENDROOT
TORSDOF 0
ENDMDL
MODEL 9
REMARK VINA RESULT:      -4.1     12.328     13.679
REMARK  0 active torsions:
REMARK  status: ('A' for Active; 'I' for Inactive)
ROOT
HETATM    1  C1  UNL     1     -36.177  15.157  -5.475  1.00 20.00    -0.014 A 
HETATM    2  C2  UNL     1     -34.854  15.163  -5.690  1.00 20.00    -0.070 A 
HETATM    3  C3  UNL     1     -36.384  14.325  -4.274  1.00 20.00     0.156 A 
HETATM    4  C4  UNL     1     -35.098  13.749  -3.762  1.00 20.00     0.092 A 
HETATM    5  C5  UNL     1     -34.047  14.381  -4.679  1.00 20.00     0.018 A 
HETATM    6  C6  UNL     1     -37.306  15.789  -6.196  1.00 20.00     0.052 C 
HETATM    7  C7  UNL     1     -34.143  15.836  -6.820  1.00 20.00     0.044 C 
HETATM    8  C8  UNL     1     -33.075  15.258  -3.893  1.00 20.00     0.015 C 
HETATM    9  O9  UNL     1     -37.480  14.121  -3.772  1.00 20.00    -0.293 OA
ENDROOT
TORSDOF 0
ENDMDL
