MODEL 1
REMARK VINA RESULT:      -4.1      0.000      0.000
REMARK  2 active torsions:
REMARK  status: ('A' for Active; 'I' for Inactive)
REMARK    1  A    between atoms: C1_1  and  C5_5 
REMARK    2  A    between atoms: C2_2  and  C6_6 
ROOT
HETATM    1  C1  UNL     1     -34.706  15.613  -2.478  1.00 20.00    -0.063 C 
HETATM    2  C2  UNL     1     -34.529  16.443  -1.628  1.00 20.00    -0.063 C 
ENDROOT
BRANCH   1   3
HETATM    3  C5  UNL     1     -34.917  14.625  -3.492  1.00 20.00     0.141 A 
HETATM    4  C3  UNL     1     -33.757  14.223  -4.372  1.00 20.00     0.221 A 
HETATM    5  O9  UNL     1     -34.176  13.418  -3.262  1.00 20.00    -0.362 OA
HETATM    6  C7  UNL     1     -36.316  14.390  -3.960  1.00 20.00     0.063 C 
ENDBRANCH   1   3
BRANCH   2   7
HETATM    7  C6  UNL     1     -34.313  17.452  -0.592  1.00 20.00     0.141 A 
HETATM    8  C4  UNL     1     -33.038  18.231  -0.629  1.00 20.00     0.221 A 
HETATM    9  O10 UNL     1     -34.268  18.767  -1.135  1.00 20.00    -0.362 OA
HETATM   10  C8  UNL     1     -35.100  17.310   0.653  1.00 20.00     0.063 C 
ENDBRANCH   2   7
TORSDOF 2
ENDMDL
MODEL 2
REMARK VINA RESULT:      -4.0      1.249      2.002
REMARK  2 active torsions:
REMARK  status: ('A' for Active; 'I' for Inactive)
REMARK    1  A    between atoms: C1_1  and  C5_5 
REMARK    2  A    between atoms: C2_2  and  C6_6 
ROOT
HETATM    1  C1  UNL     1     -34.566  15.639  -2.513  1.00 20.00    -0.063 C 
HETATM    2  C2  UNL     1     -34.511  16.469  -1.647  1.00 20.00    -0.063 C 
ENDROOT
BRANCH   1   3
HETATM    3  C5  UNL     1     -34.631  14.650  -3.546  1.00 20.00     0.141 A 
HETATM    4  C3  UNL     1     -35.983  14.221  -4.062  1.00 20.00     0.221 A 
HETATM    5  O9  UNL     1     -35.166  15.158  -4.776  1.00 20.00    -0.362 OA
HETATM    6  C7  UNL     1     -33.450  13.753  -3.731  1.00 20.00     0.063 C 
ENDBRANCH   1   3
BRANCH   2   7
HETATM    7  C6  UNL     1     -34.444  17.479  -0.592  1.00 20.00     0.141 A 
HETATM    8  C4  UNL     1     -35.728  18.070  -0.106  1.00 20.00     0.221 A 
HETATM    9  O10 UNL     1     -35.055  17.028   0.612  1.00 20.00    -0.362 OA
HETATM   10  C8  UNL     1     -33.153  18.181  -0.419  1.00 20.00     0.063 C 
ENDBRANCH   2   7
TORSDOF 2
ENDMDL
MODEL 3
REMARK VINA RESULT:      -4.0      1.247      4.871
REMARK  2 active torsions:
REMARK  status: ('A' for Active; 'I' for Inactive)
REMARK    1  A    between atoms: C1_1  and  C5_5 
REMARK    2  A    between atoms: C2_2  and  C6_6 
ROOT
HETATM    1  C1  UNL     1     -34.510  16.451  -1.697  1.00 20.00    -0.063 C 
HETATM    2  C2  UNL     1     -34.573  15.619  -2.561  1.00 20.00    -0.063 C 
ENDROOT
BRANCH   1   3
HETATM    3  C5  UNL     1     -34.436  17.443  -0.668  1.00 20.00     0.141 A 
HETATM    4  C3  UNL     1     -35.715  18.065  -0.162  1.00 20.00     0.221 A 
HETATM    5  O9  UNL     1     -35.046  17.023   0.560  1.00 20.00    -0.362 OA
HETATM    6  C7  UNL     1     -33.140  18.161  -0.479  1.00 20.00     0.063 C 
ENDBRANCH   1   3
BRANCH   2   7
HETATM    7  C6  UNL     1     -34.648  14.606  -3.612  1.00 20.00     0.141 A 
HETATM    8  C4  UNL     1     -36.001  14.212  -4.110  1.00 20.00     0.221 A 
HETATM    9  O10 UNL     1     -35.172  15.137  -4.825  1.00 20.00    -0.362 OA
HETATM   10  C8  UNL     1     -33.475  13.717  -3.769  1.00 20.00     0.063 C 
ENDBRANCH   2   7
TORSDOF 2
ENDMDL
MODEL 4
REMARK VINA RESULT:      -4.0      0.882      1.440
REMARK  2 active torsions:
REMARK  status: ('A' for Active; 'I' for Inactive)
REMARK    1  A    between atoms: C1_1  and  C5_5 
REMARK    2  A    between atoms: C2_2  and  C6_6 
ROOT
HETATM    1  C1  UNL     1     -34.510  15.756  -2.398  1.00 20.00    -0.063 C 
HETATM    2  C2  UNL     1     -34.394  16.566  -1.519  1.00 20.00    -0.063 C 
ENDROOT
BRANCH   1   3
HETATM    3  C5  UNL     1     -34.645  14.789  -3.446  1.00 20.00     0.141 A 
HETATM    4  C3  UNL     1     -36.029  14.410  -3.914  1.00 20.00     0.221 A 
HETATM    5  O9  UNL     1     -35.214  15.336  -4.643  1.00 20.00    -0.362 OA
HETATM    6  C7  UNL     1     -33.500  13.862  -3.695  1.00 20.00     0.063 C 
ENDBRANCH   1   3
BRANCH   2   7
HETATM    7  C6  UNL     1     -34.256  17.552  -0.449  1.00 20.00     0.141 A 
HETATM    8  C4  UNL     1     -32.995  18.353  -0.393  1.00 20.00     0.221 A 
HETATM    9  O10 UNL     1     -34.203  18.881  -0.957  1.00 20.00    -0.362 OA
HETATM   10  C8  UNL     1     -35.111  17.367   0.745  1.00 20.00     0.063 C 
ENDBRANCH   2   7
TORSDOF 2
ENDMDL
MODEL 5
REMARK VINA RESULT:      -4.0      0.884      4.796
REMARK  2 active torsions:
REMARK  status: ('A' for Active; 'I' for Inactive)
REMARK    1  A    between atoms: C1_1  and  C5_5 
REMARK    2  A    between atoms: C2_2  and  C6_6 
ROOT
HETATM    1  C1  UNL     1     -34.429  16.560  -1.516  1.00 20.00    -0.063 C 
HETATM    2  C2  UNL     1     -34.556  15.753  -2.396  1.00 20.00    -0.063 C 
ENDROOT
BRANCH   1   3
HETATM    3  C5  UNL     1     -34.276  17.523  -0.468  1.00 20.00     0.141 A 
HETATM    4  C3  UNL     1     -32.997  18.323  -0.393  1.00 20.00     0.221 A 
HETATM    5  O9  UNL     1     -34.198  18.871  -0.951  1.00 20.00    -0.362 OA
HETATM    6  C7  UNL     1     -35.125  17.371   0.752  1.00 20.00     0.063 C 
ENDBRANCH   1   3
BRANCH   2   7
HETATM    7  C6  UNL     1     -34.713  14.770  -3.467  1.00 20.00     0.141 A 
HETATM    8  C4  UNL     1     -36.099  14.444  -3.920  1.00 20.00     0.221 A 
HETATM    9  O10 UNL     1     -35.260  15.353  -4.645  1.00 20.00    -0.362 OA
HETATM   10  C8  UNL     1     -33.585  13.839  -3.690  1.00 20.00     0.063 C 
ENDBRANCH   2   7
TORSDOF 2
ENDMDL
MODEL 6
REMARK VINA RESULT:      -4.0      1.854      4.775
REMARK  2 active torsions:
REMARK  status: ('A' for Active; 'I' for Inactive)
REMARK    1  A    between atoms: C1_1  and  C5_5 
REMARK    2  A    between atoms: C2_2  and  C6_6 
ROOT
HETATM    1  C1  UNL     1     -33.977  16.901  -1.658  1.00 20.00    -0.063 C 
HETATM    2  C2  UNL     1     -33.779  16.243  -2.642  1.00 20.00    -0.063 C 
ENDROOT
BRANCH   1   3
HETATM    3  C5  UNL     1     -34.212  17.685  -0.483  1.00 20.00     0.141 A 
HETATM    4  C3  UNL     1     -35.625  18.110  -0.160  1.00 20.00     0.221 A 
HETATM    5  O9  UNL     1     -35.001  17.000   0.500  1.00 20.00    -0.362 OA
HETATM    6  C7  UNL     1     -33.062  18.443   0.094  1.00 20.00     0.063 C 
ENDBRANCH   1   3
BRANCH   2   7
HETATM    7  C6  UNL     1     -33.538  15.442  -3.842  1.00 20.00     0.141 A 
HETATM    8  C4  UNL     1     -34.021  15.980  -5.150  1.00 20.00     0.221 A 
HETATM    9  O10 UNL     1     -32.650  16.094  -4.744  1.00 20.00    -0.362 OA
HETATM   10  C8  UNL     1     -33.286  13.998  -3.642  1.00 20.00     0.063 C 
ENDBRANCH   2   7
TORSDOF 2
ENDMDL
MODEL 7
REMARK VINA RESULT:      -4.0      1.511      1.906
REMARK  2 active torsions:
REMARK  status: ('A' for Active; 'I' for Inactive)
REMARK    1  A    between atoms: C1_1  and  C5_5 
REMARK    2  A    between atoms: C2_2  and  C6_6 
ROOT
HETATM    1  C1  UNL     1     -34.049  16.225  -2.214  1.00 20.00    -0.063 C 
HETATM    2  C2  UNL     1     -34.209  16.925  -1.252  1.00 20.00    -0.063 C 
ENDROOT
BRANCH   1   3
HETATM    3  C5  UNL     1     -33.858  15.388  -3.360  1.00 20.00     0.141 A 
HETATM    4  C3  UNL     1     -33.120  15.944  -4.554  1.00 20.00     0.221 A 
HETATM    5  O9  UNL     1     -32.479  15.081  -3.606  1.00 20.00    -0.362 OA
HETATM    6  C7  UNL     1     -34.772  14.219  -3.533  1.00 20.00     0.063 C 
ENDBRANCH   1   3
BRANCH   2   7
HETATM    7  C6  UNL     1     -34.405  17.779  -0.081  1.00 20.00     0.141 A 
HETATM    8  C4  UNL     1     -35.795  18.233   0.229  1.00 20.00     0.221 A 
HETATM    9  O10 UNL     1     -35.185  17.134   0.920  1.00 20.00    -0.362 OA
HETATM   10  C8  UNL     1     -33.220  18.512   0.417  1.00 20.00     0.063 C 
ENDBRANCH   2   7
TORSDOF 2
ENDMDL
MODEL 8
REMARK VINA RESULT:      -4.0      1.586      4.799
REMARK  2 active torsions:
REMARK  status: ('A' for Active; 'I' for Inactive)
REMARK    1  A    between atoms: C1_1  and  C5_5 
REMARK    2  A    between atoms: C2_2  and  C6_6 
ROOT
HETATM    1  C1  UNL     1     -33.857  17.011  -1.592  1.00 20.00    -0.063 C 
HETATM    2  C2  UNL     1     -33.756  16.359  -2.596  1.00 20.00    -0.063 C 
ENDROOT
BRANCH   1   3
HETATM    3  C5  UNL     1     -33.977  17.787  -0.395  1.00 20.00     0.141 A 
HETATM    4  C3  UNL     1     -32.810  18.639   0.041  1.00 20.00     0.221 A 
HETATM    5  O9  UNL     1     -33.942  19.200  -0.636  1.00 20.00    -0.362 OA
HETATM    6  C7  UNL     1     -35.006  17.374   0.606  1.00 20.00     0.063 C 
ENDBRANCH   1   3
BRANCH   2   7
HETATM    7  C6  UNL     1     -33.634  15.567  -3.819  1.00 20.00     0.141 A 
HETATM    8  C4  UNL     1     -33.998  16.218  -5.114  1.00 20.00     0.221 A 
HETATM    9  O10 UNL     1     -32.634  16.087  -4.689  1.00 20.00    -0.362 OA
HETATM   10  C8  UNL     1     -33.630  14.095  -3.664  1.00 20.00     0.063 C 
ENDBRANCH   2   7
TORSDOF 2
ENDMDL
MODEL 9
REMARK VINA RESULT:      -3.7     12.765     14.864
REMARK  2 active torsions:
REMARK  status: ('A' for Active; 'I' for Inactive)
REMARK    1  A    between atoms: C1_1  and  C5_5 
REMARK    2  A    between atoms: C2_2  and  C6_6 
ROOT
HETATM    1  C1  UNL     1     -42.279   2.873  -3.067  1.00 20.00    -0.063 C 
HETATM    2  C2  UNL     1     -41.979   3.841  -2.423  1.00 20.00    -0.063 C 
ENDROOT
BRANCH   1   3
HETATM    3  C5  UNL     1     -42.635   1.718  -3.834  1.00 20.00     0.141 A 
HETATM    4  C3  UNL     1     -43.387   1.906  -5.130  1.00 20.00     0.221 A 
HETATM    5  O9  UNL     1     -41.974   1.664  -5.106  1.00 20.00    -0.362 OA
HETATM    6  C7  UNL     1     -42.691   0.400  -3.132  1.00 20.00     0.063 C 
ENDBRANCH   1   3
BRANCH   2   7
HETATM    7  C6  UNL     1     -41.616   5.020  -1.638  1.00 20.00     0.141 A 
HETATM    8  C4  UNL     1     -41.473   4.860  -0.159  1.00 20.00     0.221 A 
HETATM    9  O10 UNL     1     -40.335   4.879  -1.032  1.00 20.00    -0.362 OA
HETATM   10  C8  UNL     1     -41.880   6.340  -2.254  1.00 20.00     0.063 C 
ENDBRANCH   2   7
TORSDOF 2
ENDMDL
