MODEL 1
REMARK VINA RESULT:      -3.9      0.000      0.000
REMARK  1 active torsions:
REMARK  status: ('A' for Active; 'I' for Inactive)
REMARK    1  A    between atoms: C2_2  and  O3_3 
ROOT
HETATM    1  C2  UNL     1     -35.004   4.833   4.830  1.00 20.00     0.524 C 
HETATM    2  F4  UNL     1     -33.887   5.265   4.207  1.00 20.00    -0.144 F 
HETATM    3  F5  UNL     1     -35.006   3.484   4.822  1.00 20.00    -0.144 F 
HETATM    4  F6  UNL     1     -36.077   5.284   4.146  1.00 20.00    -0.144 F 
ENDROOT
BRANCH   1   5
HETATM    5  O3  UNL     1     -35.014   5.327   6.158  1.00 20.00    -0.303 OA
HETATM    6  C1  UNL     1     -34.081   6.382   6.345  1.00 20.00     0.211 C 
ENDBRANCH   1   5
TORSDOF 1
ENDMDL
MODEL 2
REMARK VINA RESULT:      -3.8      1.067      1.826
REMARK  1 active torsions:
REMARK  status: ('A' for Active; 'I' for Inactive)
REMARK    1  A    between atoms: C2_2  and  O3_3 
ROOT
HETATM    1  C2  UNL     1     -34.998   5.144   3.987  1.00 20.00     0.524 C 
HETATM    2  F4  UNL     1     -35.147   3.910   4.513  1.00 20.00    -0.144 F 
HETATM    3  F5  UNL     1     -36.220   5.640   3.702  1.00 20.00    -0.144 F 
HETATM    4  F6  UNL     1     -34.283   5.039   2.847  1.00 20.00    -0.144 F 
ENDROOT
BRANCH   1   5
HETATM    5  O3  UNL     1     -34.327   5.969   4.923  1.00 20.00    -0.303 OA
HETATM    6  C1  UNL     1     -34.533   5.539   6.262  1.00 20.00     0.211 C 
ENDBRANCH   1   5
TORSDOF 1
ENDMDL
MODEL 3
REMARK VINA RESULT:      -3.8      1.528      2.115
REMARK  1 active torsions:
REMARK  status: ('A' for Active; 'I' for Inactive)
REMARK    1  A    between atoms: C2_2  and  O3_3 
ROOT
HETATM    1  C2  UNL     1     -34.989   4.756   5.266  1.00 20.00     0.524 C 
HETATM    2  F4  UNL     1     -35.350   5.224   6.480  1.00 20.00    -0.144 F 
HETATM    3  F5  UNL     1     -35.953   5.078   4.379  1.00 20.00    -0.144 F 
HETATM    4  F6  UNL     1     -34.883   3.413   5.340  1.00 20.00    -0.144 F 
ENDROOT
BRANCH   1   5
HETATM    5  O3  UNL     1     -33.751   5.337   4.895  1.00 20.00    -0.303 OA
HETATM    6  C1  UNL     1     -33.900   6.311   3.872  1.00 20.00     0.211 C 
ENDBRANCH   1   5
TORSDOF 1
ENDMDL
MODEL 4
REMARK VINA RESULT:      -3.8      1.539      1.878
REMARK  1 active torsions:
REMARK  status: ('A' for Active; 'I' for Inactive)
REMARK    1  A    between atoms: C2_2  and  O3_3 
ROOT
HETATM    1  C2  UNL     1     -34.975   4.782   5.277  1.00 20.00     0.524 C 
HETATM    2  F4  UNL     1     -34.862   3.437   5.325  1.00 20.00    -0.144 F 
HETATM    3  F5  UNL     1     -35.339   5.225   6.499  1.00 20.00    -0.144 F 
HETATM    4  F6  UNL     1     -35.936   5.099   4.384  1.00 20.00    -0.144 F 
ENDROOT
BRANCH   1   5
HETATM    5  O3  UNL     1     -33.730   5.338   4.891  1.00 20.00    -0.303 OA
HETATM    6  C1  UNL     1     -33.874   6.330   3.885  1.00 20.00     0.211 C 
ENDBRANCH   1   5
TORSDOF 1
ENDMDL
MODEL 5
REMARK VINA RESULT:      -3.8      1.811      2.243
REMARK  1 active torsions:
REMARK  status: ('A' for Active; 'I' for Inactive)
REMARK    1  A    between atoms: C2_2  and  O3_3 
ROOT
HETATM    1  C2  UNL     1     -34.997   5.377   3.776  1.00 20.00     0.524 C 
HETATM    2  F4  UNL     1     -36.225   5.794   3.400  1.00 20.00    -0.144 F 
HETATM    3  F5  UNL     1     -34.396   6.373   4.459  1.00 20.00    -0.144 F 
HETATM    4  F6  UNL     1     -34.280   5.104   2.665  1.00 20.00    -0.144 F 
ENDROOT
BRANCH   1   5
HETATM    5  O3  UNL     1     -35.127   4.220   4.584  1.00 20.00    -0.303 OA
HETATM    6  C1  UNL     1     -34.894   4.497   5.958  1.00 20.00     0.211 C 
ENDBRANCH   1   5
TORSDOF 1
ENDMDL
MODEL 6
REMARK VINA RESULT:      -3.8      1.806      2.042
REMARK  1 active torsions:
REMARK  status: ('A' for Active; 'I' for Inactive)
REMARK    1  A    between atoms: C2_2  and  O3_3 
ROOT
HETATM    1  C2  UNL     1     -35.018   5.384   3.780  1.00 20.00     0.524 C 
HETATM    2  F4  UNL     1     -34.284   5.093   2.684  1.00 20.00    -0.144 F 
HETATM    3  F5  UNL     1     -36.236   5.804   3.380  1.00 20.00    -0.144 F 
HETATM    4  F6  UNL     1     -34.403   6.378   4.455  1.00 20.00    -0.144 F 
ENDROOT
BRANCH   1   5
HETATM    5  O3  UNL     1     -35.126   4.224   4.586  1.00 20.00    -0.303 OA
HETATM    6  C1  UNL     1     -34.883   4.499   5.958  1.00 20.00     0.211 C 
ENDBRANCH   1   5
TORSDOF 1
ENDMDL
MODEL 7
REMARK VINA RESULT:      -3.8      1.927      2.358
REMARK  1 active torsions:
REMARK  status: ('A' for Active; 'I' for Inactive)
REMARK    1  A    between atoms: C2_2  and  O3_3 
ROOT
HETATM    1  C2  UNL     1     -34.905   4.806   5.932  1.00 20.00     0.524 C 
HETATM    2  F4  UNL     1     -33.825   4.001   5.838  1.00 20.00    -0.144 F 
HETATM    3  F5  UNL     1     -34.508   6.002   6.415  1.00 20.00    -0.144 F 
HETATM    4  F6  UNL     1     -35.781   4.246   6.793  1.00 20.00    -0.144 F 
ENDROOT
BRANCH   1   5
HETATM    5  O3  UNL     1     -35.488   4.951   4.649  1.00 20.00    -0.303 OA
HETATM    6  C1  UNL     1     -34.587   5.525   3.712  1.00 20.00     0.211 C 
ENDBRANCH   1   5
TORSDOF 1
ENDMDL
MODEL 8
REMARK VINA RESULT:      -3.7      1.800      1.800
REMARK  1 active torsions:
REMARK  status: ('A' for Active; 'I' for Inactive)
REMARK    1  A    between atoms: C2_2  and  O3_3 
ROOT
HETATM    1  C2  UNL     1     -34.908   5.313   3.680  1.00 20.00     0.524 C 
HETATM    2  F4  UNL     1     -34.321   5.023   2.499  1.00 20.00    -0.144 F 
HETATM    3  F5  UNL     1     -35.003   4.177   4.401  1.00 20.00    -0.144 F 
HETATM    4  F6  UNL     1     -36.146   5.792   3.435  1.00 20.00    -0.144 F 
ENDROOT
BRANCH   1   5
HETATM    5  O3  UNL     1     -34.124   6.277   4.362  1.00 20.00    -0.303 OA
HETATM    6  C1  UNL     1     -32.881   6.514   3.716  1.00 20.00     0.211 C 
ENDBRANCH   1   5
TORSDOF 1
ENDMDL
MODEL 9
REMARK VINA RESULT:      -3.7      1.794      2.293
REMARK  1 active torsions:
REMARK  status: ('A' for Active; 'I' for Inactive)
REMARK    1  A    between atoms: C2_2  and  O3_3 
ROOT
HETATM    1  C2  UNL     1     -34.906   5.314   3.662  1.00 20.00     0.524 C 
HETATM    2  F4  UNL     1     -35.004   4.180   4.388  1.00 20.00    -0.144 F 
HETATM    3  F5  UNL     1     -36.149   5.791   3.442  1.00 20.00    -0.144 F 
HETATM    4  F6  UNL     1     -34.328   5.017   2.480  1.00 20.00    -0.144 F 
ENDROOT
BRANCH   1   5
HETATM    5  O3  UNL     1     -34.126   6.256   4.378  1.00 20.00    -0.303 OA
HETATM    6  C1  UNL     1     -32.884   6.520   3.741  1.00 20.00     0.211 C 
ENDBRANCH   1   5
TORSDOF 1
ENDMDL
