MODEL 1
REMARK VINA RESULT:      -5.7      0.000      0.000
REMARK  0 active torsions:
REMARK  status: ('A' for Active; 'I' for Inactive)
ROOT
HETATM    1  C1  UNL     1     -33.703  16.302  -2.659  1.00 20.00     0.002 A 
HETATM    2  C2  UNL     1     -34.017  15.012  -3.104  1.00 20.00     0.016 A 
HETATM    3  C3  UNL     1     -33.654  17.390  -3.555  1.00 20.00     0.007 A 
HETATM    4  C4  UNL     1     -34.235  14.852  -4.457  1.00 20.00     0.017 A 
HETATM    5  C5  UNL     1     -33.880  17.198  -4.923  1.00 20.00    -0.051 A 
HETATM    6  C6  UNL     1     -34.127  15.905  -5.349  1.00 20.00    -0.033 A 
HETATM    7  C7  UNL     1     -34.724  13.704  -5.213  1.00 20.00     0.160 C 
HETATM    8  C8  UNL     1     -33.997  18.337  -5.901  1.00 20.00     0.039 C 
HETATM    9  C9  UNL     1     -35.075  14.155  -6.623  1.00 20.00     0.093 C 
HETATM   10  C10 UNL     1     -34.158  17.894  -7.372  1.00 20.00     0.005 C 
HETATM   11  C11 UNL     1     -35.001  16.615  -7.536  1.00 20.00     0.010 C 
HETATM   12  C12 UNL     1     -34.323  15.486  -6.771  1.00 20.00     0.027 C 
HETATM   13  O13 UNL     1     -34.881  12.591  -4.748  1.00 20.00    -0.292 OA
ENDROOT
TORSDOF 0
ENDMDL
MODEL 2
REMARK VINA RESULT:      -5.6      0.806      3.128
REMARK  0 active torsions:
REMARK  status: ('A' for Active; 'I' for Inactive)
ROOT
HETATM    1  C1  UNL     1     -34.445  16.235  -7.395  1.00 20.00     0.002 A 
HETATM    2  C2  UNL     1     -34.599  14.938  -6.893  1.00 20.00     0.016 A 
HETATM    3  C3  UNL     1     -34.250  17.333  -6.531  1.00 20.00     0.007 A 
HETATM    4  C4  UNL     1     -34.590  14.791  -5.522  1.00 20.00     0.017 A 
HETATM    5  C5  UNL     1     -34.244  17.155  -5.142  1.00 20.00    -0.051 A 
HETATM    6  C6  UNL     1     -34.461  15.873  -4.667  1.00 20.00    -0.033 A 
HETATM    7  C7  UNL     1     -34.569  13.591  -4.693  1.00 20.00     0.160 C 
HETATM    8  C8  UNL     1     -33.885  18.252  -4.177  1.00 20.00     0.039 C 
HETATM    9  C9  UNL     1     -34.250  13.988  -3.258  1.00 20.00     0.093 C 
HETATM   10  C10 UNL     1     -34.032  17.861  -2.690  1.00 20.00     0.005 C 
HETATM   11  C11 UNL     1     -33.652  16.396  -2.404  1.00 20.00     0.010 C 
HETATM   12  C12 UNL     1     -34.561  15.491  -3.225  1.00 20.00     0.027 C 
HETATM   13  O13 UNL     1     -34.717  12.460  -5.116  1.00 20.00    -0.292 OA
ENDROOT
TORSDOF 0
ENDMDL
MODEL 3
REMARK VINA RESULT:      -5.4      2.054      4.549
REMARK  0 active torsions:
REMARK  status: ('A' for Active; 'I' for Inactive)
ROOT
HETATM    1  C1  UNL     1     -35.329  15.288  -7.918  1.00 20.00     0.002 A 
HETATM    2  C2  UNL     1     -34.844  16.565  -7.616  1.00 20.00     0.016 A 
HETATM    3  C3  UNL     1     -35.221  14.230  -6.991  1.00 20.00     0.007 A 
HETATM    4  C4  UNL     1     -34.227  16.729  -6.393  1.00 20.00     0.017 A 
HETATM    5  C5  UNL     1     -34.590  14.424  -5.757  1.00 20.00    -0.051 A 
HETATM    6  C6  UNL     1     -34.064  15.679  -5.505  1.00 20.00    -0.033 A 
HETATM    7  C7  UNL     1     -33.762  17.933  -5.715  1.00 20.00     0.160 C 
HETATM    8  C8  UNL     1     -34.583  13.385  -4.668  1.00 20.00     0.039 C 
HETATM    9  C9  UNL     1     -33.444  17.593  -4.266  1.00 20.00     0.093 C 
HETATM   10  C10 UNL     1     -33.753  13.775  -3.426  1.00 20.00     0.005 C 
HETATM   11  C11 UNL     1     -33.824  15.277  -3.091  1.00 20.00     0.010 C 
HETATM   12  C12 UNL     1     -33.295  16.065  -4.282  1.00 20.00     0.027 C 
HETATM   13  O13 UNL     1     -33.711  19.035  -6.228  1.00 20.00    -0.292 OA
ENDROOT
TORSDOF 0
ENDMDL
MODEL 4
REMARK VINA RESULT:      -5.4      1.975      4.219
REMARK  0 active torsions:
REMARK  status: ('A' for Active; 'I' for Inactive)
ROOT
HETATM    1  C1  UNL     1     -34.140  17.894  -6.740  1.00 20.00     0.002 A 
HETATM    2  C2  UNL     1     -33.866  18.383  -5.457  1.00 20.00     0.016 A 
HETATM    3  C3  UNL     1     -34.370  16.521  -6.963  1.00 20.00     0.007 A 
HETATM    4  C4  UNL     1     -33.794  17.458  -4.436  1.00 20.00     0.017 A 
HETATM    5  C5  UNL     1     -34.292  15.604  -5.908  1.00 20.00    -0.051 A 
HETATM    6  C6  UNL     1     -33.958  16.101  -4.660  1.00 20.00    -0.033 A 
HETATM    7  C7  UNL     1     -33.685  17.639  -2.993  1.00 20.00     0.160 C 
HETATM    8  C8  UNL     1     -34.680  14.157  -6.050  1.00 20.00     0.039 C 
HETATM    9  C9  UNL     1     -33.957  16.308  -2.306  1.00 20.00     0.093 C 
HETATM   10  C10 UNL     1     -34.429  13.306  -4.785  1.00 20.00     0.005 C 
HETATM   11  C11 UNL     1     -34.685  14.074  -3.473  1.00 20.00     0.010 C 
HETATM   12  C12 UNL     1     -33.756  15.279  -3.427  1.00 20.00     0.027 C 
HETATM   13  O13 UNL     1     -33.476  18.707  -2.449  1.00 20.00    -0.292 OA
ENDROOT
TORSDOF 0
ENDMDL
MODEL 5
REMARK VINA RESULT:      -5.2      1.670      3.734
REMARK  0 active torsions:
REMARK  status: ('A' for Active; 'I' for Inactive)
ROOT
HETATM    1  C1  UNL     1     -34.688  13.484  -4.817  1.00 20.00     0.002 A 
HETATM    2  C2  UNL     1     -34.612  14.313  -5.942  1.00 20.00     0.016 A 
HETATM    3  C3  UNL     1     -34.531  14.005  -3.516  1.00 20.00     0.007 A 
HETATM    4  C4  UNL     1     -34.341  15.647  -5.721  1.00 20.00     0.017 A 
HETATM    5  C5  UNL     1     -34.257  15.364  -3.320  1.00 20.00    -0.051 A 
HETATM    6  C6  UNL     1     -34.125  16.152  -4.450  1.00 20.00    -0.033 A 
HETATM    7  C7  UNL     1     -34.350  16.784  -6.634  1.00 20.00     0.160 C 
HETATM    8  C8  UNL     1     -34.235  16.008  -1.960  1.00 20.00     0.039 C 
HETATM    9  C9  UNL     1     -34.286  18.070  -5.821  1.00 20.00     0.093 C 
HETATM   10  C10 UNL     1     -33.822  17.496  -1.970  1.00 20.00     0.005 C 
HETATM   11  C11 UNL     1     -34.334  18.263  -3.205  1.00 20.00     0.010 C 
HETATM   12  C12 UNL     1     -33.765  17.604  -4.454  1.00 20.00     0.027 C 
HETATM   13  O13 UNL     1     -34.459  16.695  -7.842  1.00 20.00    -0.292 OA
ENDROOT
TORSDOF 0
ENDMDL
MODEL 6
REMARK VINA RESULT:      -5.1      2.704      3.793
REMARK  0 active torsions:
REMARK  status: ('A' for Active; 'I' for Inactive)
ROOT
HETATM    1  C1  UNL     1     -38.136  15.527  -4.125  1.00 20.00     0.002 A 
HETATM    2  C2  UNL     1     -37.262  14.472  -4.411  1.00 20.00     0.016 A 
HETATM    3  C3  UNL     1     -37.720  16.628  -3.348  1.00 20.00     0.007 A 
HETATM    4  C4  UNL     1     -35.996  14.543  -3.870  1.00 20.00     0.017 A 
HETATM    5  C5  UNL     1     -36.428  16.674  -2.811  1.00 20.00    -0.051 A 
HETATM    6  C6  UNL     1     -35.602  15.591  -3.055  1.00 20.00    -0.033 A 
HETATM    7  C7  UNL     1     -34.817  13.713  -4.092  1.00 20.00     0.160 C 
HETATM    8  C8  UNL     1     -35.875  17.886  -2.111  1.00 20.00     0.039 C 
HETATM    9  C9  UNL     1     -33.604  14.407  -3.490  1.00 20.00     0.093 C 
HETATM   10  C10 UNL     1     -34.463  17.686  -1.518  1.00 20.00     0.005 C 
HETATM   11  C11 UNL     1     -33.560  16.786  -2.384  1.00 20.00     0.010 C 
HETATM   12  C12 UNL     1     -34.219  15.420  -2.513  1.00 20.00     0.027 C 
HETATM   13  O13 UNL     1     -34.819  12.672  -4.721  1.00 20.00    -0.292 OA
ENDROOT
TORSDOF 0
ENDMDL
MODEL 7
REMARK VINA RESULT:      -5.1      6.532      8.596
REMARK  0 active torsions:
REMARK  status: ('A' for Active; 'I' for Inactive)
ROOT
HETATM    1  C1  UNL     1     -35.616  17.757   3.381  1.00 20.00     0.002 A 
HETATM    2  C2  UNL     1     -34.517  18.139   4.159  1.00 20.00     0.016 A 
HETATM    3  C3  UNL     1     -35.559  17.792   1.972  1.00 20.00     0.007 A 
HETATM    4  C4  UNL     1     -33.397  18.584   3.487  1.00 20.00     0.017 A 
HETATM    5  C5  UNL     1     -34.410  18.248   1.316  1.00 20.00    -0.051 A 
HETATM    6  C6  UNL     1     -33.358  18.678   2.106  1.00 20.00    -0.033 A 
HETATM    7  C7  UNL     1     -32.059  18.900   3.971  1.00 20.00     0.160 C 
HETATM    8  C8  UNL     1     -34.230  18.161  -0.176  1.00 20.00     0.039 C 
HETATM    9  C9  UNL     1     -31.123  19.043   2.780  1.00 20.00     0.093 C 
HETATM   10  C10 UNL     1     -32.925  18.804  -0.695  1.00 20.00     0.005 C 
HETATM   11  C11 UNL     1     -31.731  18.621   0.262  1.00 20.00     0.010 C 
HETATM   12  C12 UNL     1     -32.079  19.263   1.598  1.00 20.00     0.027 C 
HETATM   13  O13 UNL     1     -31.751  18.967   5.147  1.00 20.00    -0.292 OA
ENDROOT
TORSDOF 0
ENDMDL
MODEL 8
REMARK VINA RESULT:      -5.1      1.616      3.149
REMARK  0 active torsions:
REMARK  status: ('A' for Active; 'I' for Inactive)
ROOT
HETATM    1  C1  UNL     1     -34.645  13.318  -4.413  1.00 20.00     0.002 A 
HETATM    2  C2  UNL     1     -34.431  14.182  -3.334  1.00 20.00     0.016 A 
HETATM    3  C3  UNL     1     -34.763  13.811  -5.729  1.00 20.00     0.007 A 
HETATM    4  C4  UNL     1     -34.379  15.532  -3.613  1.00 20.00     0.017 A 
HETATM    5  C5  UNL     1     -34.707  15.186  -5.984  1.00 20.00    -0.051 A 
HETATM    6  C6  UNL     1     -34.556  16.026  -4.894  1.00 20.00    -0.033 A 
HETATM    7  C7  UNL     1     -34.023  16.666  -2.768  1.00 20.00     0.160 C 
HETATM    8  C8  UNL     1     -34.668  15.760  -7.375  1.00 20.00     0.039 C 
HETATM    9  C9  UNL     1     -33.826  17.894  -3.646  1.00 20.00     0.093 C 
HETATM   10  C10 UNL     1     -34.698  17.304  -7.423  1.00 20.00     0.005 C 
HETATM   11  C11 UNL     1     -33.924  17.966  -6.267  1.00 20.00     0.010 C 
HETATM   12  C12 UNL     1     -34.545  17.520  -4.950  1.00 20.00     0.027 C 
HETATM   13  O13 UNL     1     -33.851  16.600  -1.565  1.00 20.00    -0.292 OA
ENDROOT
TORSDOF 0
ENDMDL
MODEL 9
REMARK VINA RESULT:      -5.0      1.542      3.339
REMARK  0 active torsions:
REMARK  status: ('A' for Active; 'I' for Inactive)
ROOT
HETATM    1  C1  UNL     1     -36.382  16.214  -6.680  1.00 20.00     0.002 A 
HETATM    2  C2  UNL     1     -36.000  14.908  -6.351  1.00 20.00     0.016 A 
HETATM    3  C3  UNL     1     -36.139  17.288  -5.799  1.00 20.00     0.007 A 
HETATM    4  C4  UNL     1     -35.411  14.719  -5.119  1.00 20.00     0.017 A 
HETATM    5  C5  UNL     1     -35.539  17.067  -4.554  1.00 20.00    -0.051 A 
HETATM    6  C6  UNL     1     -35.225  15.760  -4.225  1.00 20.00    -0.033 A 
HETATM    7  C7  UNL     1     -34.767  13.545  -4.541  1.00 20.00     0.160 C 
HETATM    8  C8  UNL     1     -35.110  18.185  -3.642  1.00 20.00     0.039 C 
HETATM    9  C9  UNL     1     -34.015  13.962  -3.285  1.00 20.00     0.093 C 
HETATM   10  C10 UNL     1     -34.554  17.713  -2.280  1.00 20.00     0.005 C 
HETATM   11  C11 UNL     1     -33.742  16.407  -2.372  1.00 20.00     0.010 C 
HETATM   12  C12 UNL     1     -34.648  15.312  -2.920  1.00 20.00     0.027 C 
HETATM   13  O13 UNL     1     -34.787  12.435  -5.039  1.00 20.00    -0.292 OA
ENDROOT
TORSDOF 0
ENDMDL
