MODEL 1
REMARK VINA RESULT:      -4.2      0.000      0.000
REMARK  0 active torsions:
REMARK  status: ('A' for Active; 'I' for Inactive)
ROOT
HETATM    1  C1  UNL     1     -34.143  14.444  -3.440  1.00 20.00    -0.002 A 
HETATM    2  C2  UNL     1     -34.626  15.571  -2.890  1.00 20.00    -0.064 A 
HETATM    3  C3  UNL     1     -35.194  13.686  -4.160  1.00 20.00     0.215 A 
HETATM    4  C4  UNL     1     -36.083  15.868  -3.084  1.00 20.00     0.117 A 
HETATM    5  C5  UNL     1     -32.761  13.890  -3.417  1.00 20.00     0.053 C 
HETATM    6  C6  UNL     1     -33.851  16.574  -2.093  1.00 20.00     0.045 C 
HETATM    7  O7  UNL     1     -35.016  12.631  -4.747  1.00 20.00    -0.280 OA
HETATM    8  S8  UNL     1     -36.740  14.500  -4.068  1.00 20.00    -0.083 SA
ENDROOT
TORSDOF 0
ENDMDL
MODEL 2
REMARK VINA RESULT:      -4.2     11.661     12.079
REMARK  0 active torsions:
REMARK  status: ('A' for Active; 'I' for Inactive)
ROOT
HETATM    1  C1  UNL     1     -33.560   6.353   4.385  1.00 20.00    -0.002 A 
HETATM    2  C2  UNL     1     -33.835   6.363   5.700  1.00 20.00    -0.064 A 
HETATM    3  C3  UNL     1     -34.313   5.297   3.670  1.00 20.00     0.215 A 
HETATM    4  C4  UNL     1     -34.816   5.350   6.210  1.00 20.00     0.117 A 
HETATM    5  C5  UNL     1     -32.641   7.223   3.599  1.00 20.00     0.053 C 
HETATM    6  C6  UNL     1     -33.258   7.293   6.723  1.00 20.00     0.045 C 
HETATM    7  O7  UNL     1     -34.244   5.078   2.471  1.00 20.00    -0.280 OA
HETATM    8  S8  UNL     1     -35.329   4.389   4.767  1.00 20.00    -0.083 SA
ENDROOT
TORSDOF 0
ENDMDL
MODEL 3
REMARK VINA RESULT:      -3.9      2.673      3.201
REMARK  0 active torsions:
REMARK  status: ('A' for Active; 'I' for Inactive)
ROOT
HETATM    1  C1  UNL     1     -34.640  14.763  -6.023  1.00 20.00    -0.002 A 
HETATM    2  C2  UNL     1     -34.075  15.961  -5.793  1.00 20.00    -0.064 A 
HETATM    3  C3  UNL     1     -34.351  13.799  -4.936  1.00 20.00     0.215 A 
HETATM    4  C4  UNL     1     -33.281  16.122  -4.531  1.00 20.00     0.117 A 
HETATM    5  C5  UNL     1     -35.472  14.308  -7.171  1.00 20.00     0.053 C 
HETATM    6  C6  UNL     1     -34.158  17.167  -6.676  1.00 20.00     0.045 C 
HETATM    7  O7  UNL     1     -34.747  12.644  -4.902  1.00 20.00    -0.280 OA
HETATM    8  S8  UNL     1     -33.361  14.524  -3.689  1.00 20.00    -0.083 SA
ENDROOT
TORSDOF 0
ENDMDL
MODEL 4
REMARK VINA RESULT:      -3.8     11.851     12.370
REMARK  0 active torsions:
REMARK  status: ('A' for Active; 'I' for Inactive)
ROOT
HETATM    1  C1  UNL     1     -33.740   6.362   5.410  1.00 20.00    -0.002 A 
HETATM    2  C2  UNL     1     -33.391   6.354   4.112  1.00 20.00    -0.064 A 
HETATM    3  C3  UNL     1     -34.806   5.375   5.703  1.00 20.00     0.215 A 
HETATM    4  C4  UNL     1     -34.105   5.392   3.210  1.00 20.00     0.117 A 
HETATM    5  C5  UNL     1     -33.218   7.194   6.530  1.00 20.00     0.053 C 
HETATM    6  C6  UNL     1     -32.352   7.216   3.465  1.00 20.00     0.045 C 
HETATM    7  O7  UNL     1     -35.298   5.184   6.804  1.00 20.00    -0.280 OA
HETATM    8  S8  UNL     1     -35.280   4.506   4.261  1.00 20.00    -0.083 SA
ENDROOT
TORSDOF 0
ENDMDL
MODEL 5
REMARK VINA RESULT:      -3.8     11.801     12.380
REMARK  0 active torsions:
REMARK  status: ('A' for Active; 'I' for Inactive)
ROOT
HETATM    1  C1  UNL     1     -33.485   6.322   4.387  1.00 20.00    -0.002 A 
HETATM    2  C2  UNL     1     -34.272   5.425   3.766  1.00 20.00    -0.064 A 
HETATM    3  C3  UNL     1     -33.722   6.345   5.849  1.00 20.00     0.215 A 
HETATM    4  C4  UNL     1     -35.219   4.630   4.614  1.00 20.00     0.117 A 
HETATM    5  C5  UNL     1     -32.463   7.244   3.820  1.00 20.00     0.053 C 
HETATM    6  C6  UNL     1     -34.301   5.135   2.297  1.00 20.00     0.045 C 
HETATM    7  O7  UNL     1     -33.137   7.068   6.641  1.00 20.00    -0.280 OA
HETATM    8  S8  UNL     1     -34.956   5.195   6.312  1.00 20.00    -0.083 SA
ENDROOT
TORSDOF 0
ENDMDL
MODEL 6
REMARK VINA RESULT:      -3.8     11.986     12.482
REMARK  0 active torsions:
REMARK  status: ('A' for Active; 'I' for Inactive)
ROOT
HETATM    1  C1  UNL     1     -33.874   6.194   5.432  1.00 20.00    -0.002 A 
HETATM    2  C2  UNL     1     -34.733   5.164   5.524  1.00 20.00    -0.064 A 
HETATM    3  C3  UNL     1     -33.458   6.444   4.032  1.00 20.00     0.215 A 
HETATM    4  C4  UNL     1     -35.115   4.465   4.254  1.00 20.00     0.117 A 
HETATM    5  C5  UNL     1     -33.318   7.067   6.503  1.00 20.00     0.053 C 
HETATM    6  C6  UNL     1     -35.356   4.635   6.779  1.00 20.00     0.045 C 
HETATM    7  O7  UNL     1     -32.687   7.321   3.678  1.00 20.00    -0.280 OA
HETATM    8  S8  UNL     1     -34.218   5.314   2.933  1.00 20.00    -0.083 SA
ENDROOT
TORSDOF 0
ENDMDL
MODEL 7
REMARK VINA RESULT:      -3.7      1.651      2.441
REMARK  0 active torsions:
REMARK  status: ('A' for Active; 'I' for Inactive)
ROOT
HETATM    1  C1  UNL     1     -35.779  14.812  -3.656  1.00 20.00    -0.002 A 
HETATM    2  C2  UNL     1     -35.168  15.893  -3.142  1.00 20.00    -0.064 A 
HETATM    3  C3  UNL     1     -34.814  13.738  -3.989  1.00 20.00     0.215 A 
HETATM    4  C4  UNL     1     -33.677  15.842  -2.995  1.00 20.00     0.117 A 
HETATM    5  C5  UNL     1     -37.225  14.571  -3.919  1.00 20.00     0.053 C 
HETATM    6  C6  UNL     1     -35.830  17.160  -2.694  1.00 20.00     0.045 C 
HETATM    7  O7  UNL     1     -35.111  12.655  -4.467  1.00 20.00    -0.280 OA
HETATM    8  S8  UNL     1     -33.175  14.217  -3.608  1.00 20.00    -0.083 SA
ENDROOT
TORSDOF 0
ENDMDL
MODEL 8
REMARK VINA RESULT:      -3.7      1.810      2.812
REMARK  0 active torsions:
REMARK  status: ('A' for Active; 'I' for Inactive)
ROOT
HETATM    1  C1  UNL     1     -34.730  15.557  -2.953  1.00 20.00    -0.002 A 
HETATM    2  C2  UNL     1     -34.439  14.395  -3.561  1.00 20.00    -0.064 A 
HETATM    3  C3  UNL     1     -36.157  15.925  -3.115  1.00 20.00     0.215 A 
HETATM    4  C4  UNL     1     -35.553  13.688  -4.275  1.00 20.00     0.117 A 
HETATM    5  C5  UNL     1     -33.847  16.473  -2.179  1.00 20.00     0.053 C 
HETATM    6  C6  UNL     1     -33.102  13.723  -3.602  1.00 20.00     0.045 C 
HETATM    7  O7  UNL     1     -36.676  16.930  -2.658  1.00 20.00    -0.280 OA
HETATM    8  S8  UNL     1     -37.019  14.726  -4.054  1.00 20.00    -0.083 SA
ENDROOT
TORSDOF 0
ENDMDL
MODEL 9
REMARK VINA RESULT:      -3.7      2.387      2.492
REMARK  0 active torsions:
REMARK  status: ('A' for Active; 'I' for Inactive)
ROOT
HETATM    1  C1  UNL     1     -33.962  15.014  -4.781  1.00 20.00    -0.002 A 
HETATM    2  C2  UNL     1     -34.028  16.120  -5.542  1.00 20.00    -0.064 A 
HETATM    3  C3  UNL     1     -34.671  13.871  -5.404  1.00 20.00     0.215 A 
HETATM    4  C4  UNL     1     -34.773  16.025  -6.839  1.00 20.00     0.117 A 
HETATM    5  C5  UNL     1     -33.303  14.804  -3.462  1.00 20.00     0.053 C 
HETATM    6  C6  UNL     1     -33.426  17.454  -5.225  1.00 20.00     0.045 C 
HETATM    7  O7  UNL     1     -34.759  12.754  -4.919  1.00 20.00    -0.280 OA
HETATM    8  S8  UNL     1     -35.375  14.322  -6.940  1.00 20.00    -0.083 SA
ENDROOT
TORSDOF 0
ENDMDL
