MODEL 1
REMARK VINA RESULT:      -4.4      0.000      0.000
REMARK  4 active torsions:
REMARK  status: ('A' for Active; 'I' for Inactive)
REMARK    1  A    between atoms: C2_2  and  C7_7 
REMARK    2  A    between atoms: C7_7  and  C9_9 
REMARK    3  A    between atoms: C8_8  and  C9_9 
REMARK    4  A    between atoms: C9_9  and  O10_10 
ROOT
HETATM    1  C6  UNL     1     -34.094  13.336  -4.568  1.00 20.00     0.047 C 
HETATM    2  C9  UNL     1     -33.966  14.833  -4.221  1.00 20.00     0.064 C 
ENDROOT
BRANCH   2   3
HETATM    3  C7  UNL     1     -34.775  15.168  -2.916  1.00 20.00     0.037 C 
HETATM    4  C3  UNL     1     -36.227  15.602  -3.177  1.00 20.00     0.017 C 
BRANCH   3   5
HETATM    5  C2  UNL     1     -34.123  16.262  -2.094  1.00 20.00    -0.030 C 
HETATM    6  C1  UNL     1     -34.562  16.661  -0.894  1.00 20.00     0.007 C 
ENDBRANCH   3   5
ENDBRANCH   2   3
BRANCH   2   7
HETATM    7  C8  UNL     1     -34.376  15.738  -5.437  1.00 20.00     0.012 C 
HETATM    8  C4  UNL     1     -33.488  16.983  -5.596  1.00 20.00     0.012 C 
HETATM    9  C5  UNL     1     -34.428  14.994  -6.777  1.00 20.00     0.012 C 
ENDBRANCH   2   7
BRANCH   2  10
HETATM   10  O10 UNL     1     -32.573  15.088  -3.971  1.00 20.00    -0.389 OA
HETATM   11  H28 UNL     1     -32.256  14.337  -3.452  1.00 20.00     0.210 HD
ENDBRANCH   2  10
TORSDOF 4
ENDMDL
MODEL 2
REMARK VINA RESULT:      -4.3      1.589      2.435
REMARK  4 active torsions:
REMARK  status: ('A' for Active; 'I' for Inactive)
REMARK    1  A    between atoms: C2_2  and  C7_7 
REMARK    2  A    between atoms: C7_7  and  C9_9 
REMARK    3  A    between atoms: C8_8  and  C9_9 
REMARK    4  A    between atoms: C9_9  and  O10_10 
ROOT
HETATM    1  C6  UNL     1     -36.532  14.394  -4.149  1.00 20.00     0.047 C 
HETATM    2  C9  UNL     1     -35.156  14.090  -4.775  1.00 20.00     0.064 C 
ENDROOT
BRANCH   2   3
HETATM    3  C7  UNL     1     -34.010  14.773  -3.945  1.00 20.00     0.037 C 
HETATM    4  C3  UNL     1     -32.900  13.806  -3.500  1.00 20.00     0.017 C 
BRANCH   3   5
HETATM    5  C2  UNL     1     -34.528  15.461  -2.697  1.00 20.00    -0.030 C 
HETATM    6  C1  UNL     1     -33.947  16.525  -2.130  1.00 20.00     0.007 C 
ENDBRANCH   3   5
ENDBRANCH   2   3
BRANCH   2   7
HETATM    7  C8  UNL     1     -35.120  14.484  -6.294  1.00 20.00     0.012 C 
HETATM    8  C4  UNL     1     -36.495  14.895  -6.849  1.00 20.00     0.012 C 
HETATM    9  C5  UNL     1     -34.104  15.583  -6.629  1.00 20.00     0.012 C 
ENDBRANCH   2   7
BRANCH   2  10
HETATM   10  O10 UNL     1     -34.974  12.665  -4.715  1.00 20.00    -0.389 OA
HETATM   11  H28 UNL     1     -35.213  12.405  -3.816  1.00 20.00     0.210 HD
ENDBRANCH   2  10
TORSDOF 4
ENDMDL
MODEL 3
REMARK VINA RESULT:      -4.3      1.219      1.702
REMARK  4 active torsions:
REMARK  status: ('A' for Active; 'I' for Inactive)
REMARK    1  A    between atoms: C2_2  and  C7_7 
REMARK    2  A    between atoms: C7_7  and  C9_9 
REMARK    3  A    between atoms: C8_8  and  C9_9 
REMARK    4  A    between atoms: C9_9  and  O10_10 
ROOT
HETATM    1  C6  UNL     1     -33.495  13.966  -3.705  1.00 20.00     0.047 C 
HETATM    2  C9  UNL     1     -33.744  15.270  -4.489  1.00 20.00     0.064 C 
ENDROOT
BRANCH   2   3
HETATM    3  C7  UNL     1     -34.503  16.315  -3.592  1.00 20.00     0.037 C 
HETATM    4  C3  UNL     1     -33.792  17.673  -3.480  1.00 20.00     0.017 C 
BRANCH   3   5
HETATM    5  C2  UNL     1     -34.729  15.812  -2.180  1.00 20.00    -0.030 C 
HETATM    6  C1  UNL     1     -34.579  16.564  -1.083  1.00 20.00     0.007 C 
ENDBRANCH   3   5
ENDBRANCH   2   3
BRANCH   2   7
HETATM    7  C8  UNL     1     -34.481  14.989  -5.846  1.00 20.00     0.012 C 
HETATM    8  C4  UNL     1     -35.996  14.774  -5.683  1.00 20.00     0.012 C 
HETATM    9  C5  UNL     1     -34.247  16.063  -6.916  1.00 20.00     0.012 C 
ENDBRANCH   2   7
BRANCH   2  10
HETATM   10  O10 UNL     1     -32.455  15.811  -4.825  1.00 20.00    -0.389 OA
HETATM   11  H28 UNL     1     -32.629  16.619  -5.324  1.00 20.00     0.210 HD
ENDBRANCH   2  10
TORSDOF 4
ENDMDL
MODEL 4
REMARK VINA RESULT:      -4.2      0.777      3.772
REMARK  4 active torsions:
REMARK  status: ('A' for Active; 'I' for Inactive)
REMARK    1  A    between atoms: C2_2  and  C7_7 
REMARK    2  A    between atoms: C7_7  and  C9_9 
REMARK    3  A    between atoms: C8_8  and  C9_9 
REMARK    4  A    between atoms: C9_9  and  O10_10 
ROOT
HETATM    1  C6  UNL     1     -33.360  16.821  -4.759  1.00 20.00     0.047 C 
HETATM    2  C9  UNL     1     -33.760  15.465  -4.145  1.00 20.00     0.064 C 
ENDROOT
BRANCH   2   3
HETATM    3  C7  UNL     1     -34.687  14.665  -5.130  1.00 20.00     0.037 C 
HETATM    4  C3  UNL     1     -34.607  13.139  -4.962  1.00 20.00     0.017 C 
BRANCH   3   5
HETATM    5  C2  UNL     1     -34.387  14.970  -6.585  1.00 20.00    -0.030 C 
HETATM    6  C1  UNL     1     -35.159  14.582  -7.607  1.00 20.00     0.007 C 
ENDBRANCH   3   5
ENDBRANCH   2   3
BRANCH   2   7
HETATM    7  C8  UNL     1     -34.403  15.649  -2.724  1.00 20.00     0.012 C 
HETATM    8  C4  UNL     1     -33.756  16.779  -1.905  1.00 20.00     0.012 C 
HETATM    9  C5  UNL     1     -35.921  15.865  -2.751  1.00 20.00     0.012 C 
ENDBRANCH   2   7
BRANCH   2  10
HETATM   10  O10 UNL     1     -32.547  14.717  -3.953  1.00 20.00    -0.389 OA
HETATM   11  H28 UNL     1     -31.894  15.116  -4.543  1.00 20.00     0.210 HD
ENDBRANCH   2  10
TORSDOF 4
ENDMDL
MODEL 5
REMARK VINA RESULT:      -4.1      1.191      3.216
REMARK  4 active torsions:
REMARK  status: ('A' for Active; 'I' for Inactive)
REMARK    1  A    between atoms: C2_2  and  C7_7 
REMARK    2  A    between atoms: C7_7  and  C9_9 
REMARK    3  A    between atoms: C8_8  and  C9_9 
REMARK    4  A    between atoms: C9_9  and  O10_10 
ROOT
HETATM    1  C6  UNL     1     -33.291  16.462  -5.247  1.00 20.00     0.047 C 
HETATM    2  C9  UNL     1     -33.523  15.623  -3.974  1.00 20.00     0.064 C 
ENDROOT
BRANCH   2   3
HETATM    3  C7  UNL     1     -34.771  14.685  -4.154  1.00 20.00     0.037 C 
HETATM    4  C3  UNL     1     -34.416  13.251  -4.580  1.00 20.00     0.017 C 
BRANCH   3   5
HETATM    5  C2  UNL     1     -35.759  15.221  -5.171  1.00 20.00    -0.030 C 
HETATM    6  C1  UNL     1     -36.951  15.741  -4.857  1.00 20.00     0.007 C 
ENDBRANCH   3   5
ENDBRANCH   2   3
BRANCH   2   7
HETATM    7  C8  UNL     1     -33.629  16.535  -2.701  1.00 20.00     0.012 C 
HETATM    8  C4  UNL     1     -33.837  18.022  -3.032  1.00 20.00     0.012 C 
HETATM    9  C5  UNL     1     -34.712  16.094  -1.708  1.00 20.00     0.012 C 
ENDBRANCH   2   7
BRANCH   2  10
HETATM   10  O10 UNL     1     -32.357  14.800  -3.796  1.00 20.00    -0.389 OA
HETATM   11  H28 UNL     1     -32.019  14.625  -4.683  1.00 20.00     0.210 HD
ENDBRANCH   2  10
TORSDOF 4
ENDMDL
MODEL 6
REMARK VINA RESULT:      -4.1      1.376      3.373
REMARK  4 active torsions:
REMARK  status: ('A' for Active; 'I' for Inactive)
REMARK    1  A    between atoms: C2_2  and  C7_7 
REMARK    2  A    between atoms: C7_7  and  C9_9 
REMARK    3  A    between atoms: C8_8  and  C9_9 
REMARK    4  A    between atoms: C9_9  and  O10_10 
ROOT
HETATM    1  C6  UNL     1     -33.173  14.107  -3.734  1.00 20.00     0.047 C 
HETATM    2  C9  UNL     1     -34.671  14.270  -4.059  1.00 20.00     0.064 C 
ENDROOT
BRANCH   2   3
HETATM    3  C7  UNL     1     -34.859  14.984  -5.447  1.00 20.00     0.037 C 
HETATM    4  C3  UNL     1     -35.018  14.015  -6.630  1.00 20.00     0.017 C 
BRANCH   3   5
HETATM    5  C2  UNL     1     -33.709  15.912  -5.782  1.00 20.00    -0.030 C 
HETATM    6  C1  UNL     1     -33.724  17.233  -5.570  1.00 20.00     0.007 C 
ENDBRANCH   3   5
ENDBRANCH   2   3
BRANCH   2   7
HETATM    7  C8  UNL     1     -35.433  14.998  -2.895  1.00 20.00     0.012 C 
HETATM    8  C4  UNL     1     -34.541  15.963  -2.095  1.00 20.00     0.012 C 
HETATM    9  C5  UNL     1     -36.691  15.749  -3.348  1.00 20.00     0.012 C 
ENDBRANCH   2   7
BRANCH   2  10
HETATM   10  O10 UNL     1     -35.227  12.946  -4.149  1.00 20.00    -0.389 OA
HETATM   11  H28 UNL     1     -35.748  12.933  -4.963  1.00 20.00     0.210 HD
ENDBRANCH   2  10
TORSDOF 4
ENDMDL
MODEL 7
REMARK VINA RESULT:      -4.1      1.212      3.921
REMARK  4 active torsions:
REMARK  status: ('A' for Active; 'I' for Inactive)
REMARK    1  A    between atoms: C2_2  and  C7_7 
REMARK    2  A    between atoms: C7_7  and  C9_9 
REMARK    3  A    between atoms: C8_8  and  C9_9 
REMARK    4  A    between atoms: C9_9  and  O10_10 
ROOT
HETATM    1  C6  UNL     1     -33.667  17.738  -4.027  1.00 20.00     0.047 C 
HETATM    2  C9  UNL     1     -33.828  16.357  -4.695  1.00 20.00     0.064 C 
ENDROOT
BRANCH   2   3
HETATM    3  C7  UNL     1     -34.631  16.487  -6.040  1.00 20.00     0.037 C 
HETATM    4  C3  UNL     1     -36.158  16.484  -5.858  1.00 20.00     0.017 C 
BRANCH   3   5
HETATM    5  C2  UNL     1     -34.298  15.383  -7.024  1.00 20.00    -0.030 C 
HETATM    6  C1  UNL     1     -35.170  14.455  -7.434  1.00 20.00     0.007 C 
ENDBRANCH   3   5
ENDBRANCH   2   3
BRANCH   2   7
HETATM    7  C8  UNL     1     -34.466  15.316  -3.708  1.00 20.00     0.012 C 
HETATM    8  C4  UNL     1     -33.720  13.971  -3.678  1.00 20.00     0.012 C 
HETATM    9  C5  UNL     1     -34.614  15.831  -2.271  1.00 20.00     0.012 C 
ENDBRANCH   2   7
BRANCH   2  10
HETATM   10  O10 UNL     1     -32.506  15.881  -4.999  1.00 20.00    -0.389 OA
HETATM   11  H28 UNL     1     -32.615  15.227  -5.701  1.00 20.00     0.210 HD
ENDBRANCH   2  10
TORSDOF 4
ENDMDL
MODEL 8
REMARK VINA RESULT:      -4.0      1.696      2.738
REMARK  4 active torsions:
REMARK  status: ('A' for Active; 'I' for Inactive)
REMARK    1  A    between atoms: C2_2  and  C7_7 
REMARK    2  A    between atoms: C7_7  and  C9_9 
REMARK    3  A    between atoms: C8_8  and  C9_9 
REMARK    4  A    between atoms: C9_9  and  O10_10 
ROOT
HETATM    1  C6  UNL     1     -33.223  16.311  -4.880  1.00 20.00     0.047 C 
HETATM    2  C9  UNL     1     -34.470  15.885  -4.080  1.00 20.00     0.064 C 
ENDROOT
BRANCH   2   3
HETATM    3  C7  UNL     1     -34.769  16.919  -2.934  1.00 20.00     0.037 C 
HETATM    4  C3  UNL     1     -33.768  18.084  -2.870  1.00 20.00     0.017 C 
BRANCH   3   5
HETATM    5  C2  UNL     1     -34.791  16.274  -1.562  1.00 20.00    -0.030 C 
HETATM    6  C1  UNL     1     -34.630  16.944  -0.415  1.00 20.00     0.007 C 
ENDBRANCH   3   5
ENDBRANCH   2   3
BRANCH   2   7
HETATM    7  C8  UNL     1     -34.333  14.414  -3.548  1.00 20.00     0.012 C 
HETATM    8  C4  UNL     1     -35.258  13.418  -4.268  1.00 20.00     0.012 C 
HETATM    9  C5  UNL     1     -32.899  13.871  -3.583  1.00 20.00     0.012 C 
ENDBRANCH   2   7
BRANCH   2  10
HETATM   10  O10 UNL     1     -35.579  15.889  -4.997  1.00 20.00    -0.389 OA
HETATM   11  H28 UNL     1     -35.993  16.757  -4.907  1.00 20.00     0.210 HD
ENDBRANCH   2  10
TORSDOF 4
ENDMDL
MODEL 9
REMARK VINA RESULT:      -4.0      1.425      2.028
REMARK  4 active torsions:
REMARK  status: ('A' for Active; 'I' for Inactive)
REMARK    1  A    between atoms: C2_2  and  C7_7 
REMARK    2  A    between atoms: C7_7  and  C9_9 
REMARK    3  A    between atoms: C8_8  and  C9_9 
REMARK    4  A    between atoms: C9_9  and  O10_10 
ROOT
HETATM    1  C6  UNL     1     -32.572  14.116  -3.422  1.00 20.00     0.047 C 
HETATM    2  C9  UNL     1     -33.341  15.303  -4.036  1.00 20.00     0.064 C 
ENDROOT
BRANCH   2   3
HETATM    3  C7  UNL     1     -33.679  16.371  -2.933  1.00 20.00     0.037 C 
HETATM    4  C3  UNL     1     -34.856  15.978  -2.026  1.00 20.00     0.017 C 
BRANCH   3   5
HETATM    5  C2  UNL     1     -34.004  17.729  -3.521  1.00 20.00    -0.030 C 
HETATM    6  C1  UNL     1     -35.233  18.259  -3.554  1.00 20.00     0.007 C 
ENDBRANCH   3   5
ENDBRANCH   2   3
BRANCH   2   7
HETATM    7  C8  UNL     1     -34.612  14.816  -4.818  1.00 20.00     0.012 C 
HETATM    8  C4  UNL     1     -34.545  15.103  -6.328  1.00 20.00     0.012 C 
HETATM    9  C5  UNL     1     -34.941  13.333  -4.611  1.00 20.00     0.012 C 
ENDBRANCH   2   7
BRANCH   2  10
HETATM   10  O10 UNL     1     -32.469  15.911  -5.006  1.00 20.00    -0.389 OA
HETATM   11  H28 UNL     1     -33.021  16.097  -5.776  1.00 20.00     0.210 HD
ENDBRANCH   2  10
TORSDOF 4
ENDMDL
