MODEL 1
REMARK VINA RESULT:      -3.9      0.000      0.000
REMARK  2 active torsions:
REMARK  status: ('A' for Active; 'I' for Inactive)
REMARK    1  A    between atoms: C3_3  and  C6_6 
REMARK    2  A    between atoms: C6_6  and  C7_7 
ROOT
HETATM    1  C1  UNL     1     -34.422  15.363  -5.862  1.00 20.00     0.281 C 
HETATM    2  C2  UNL     1     -34.714  13.949  -5.386  1.00 20.00     0.106 C 
HETATM    3  C3  UNL     1     -33.113  15.417  -3.892  1.00 20.00     0.282 C 
HETATM    4  N8  UNL     1     -33.117  15.768  -5.319  1.00 20.00     0.098 N 
HETATM    5  S9  UNL     1     -34.163  13.949  -3.666  1.00 20.00    -0.132 SA
HETATM    6  H24 UNL     1     -32.363  15.289  -5.805  1.00 20.00     0.317 HD
ENDROOT
BRANCH   3   7
HETATM    7  C6  UNL     1     -33.628  16.575  -3.043  1.00 20.00     0.050 C 
BRANCH   7   8
HETATM    8  C7  UNL     1     -34.846  16.209  -2.177  1.00 20.00    -0.020 C 
HETATM    9  C4  UNL     1     -34.666  16.622  -0.715  1.00 20.00     0.009 C 
HETATM   10  C5  UNL     1     -36.105  16.865  -2.748  1.00 20.00     0.009 C 
ENDBRANCH   7   8
ENDBRANCH   3   7
TORSDOF 2
ENDMDL
MODEL 2
REMARK VINA RESULT:      -3.8      1.015      1.324
REMARK  2 active torsions:
REMARK  status: ('A' for Active; 'I' for Inactive)
REMARK    1  A    between atoms: C3_3  and  C6_6 
REMARK    2  A    between atoms: C6_6  and  C7_7 
ROOT
HETATM    1  C1  UNL     1     -34.139  15.506  -5.989  1.00 20.00     0.281 C 
HETATM    2  C2  UNL     1     -34.562  14.120  -5.526  1.00 20.00     0.106 C 
HETATM    3  C3  UNL     1     -33.373  15.671  -3.757  1.00 20.00     0.282 C 
HETATM    4  N8  UNL     1     -33.009  15.942  -5.155  1.00 20.00     0.098 N 
HETATM    5  S9  UNL     1     -34.466  14.218  -3.725  1.00 20.00    -0.132 SA
HETATM    6  H24 UNL     1     -32.163  15.436  -5.407  1.00 20.00     0.317 HD
ENDROOT
BRANCH   3   7
HETATM    7  C6  UNL     1     -34.070  16.876  -3.131  1.00 20.00     0.050 C 
BRANCH   7   8
HETATM    8  C7  UNL     1     -33.641  17.150  -1.680  1.00 20.00    -0.020 C 
HETATM    9  C4  UNL     1     -33.379  18.634  -1.421  1.00 20.00     0.009 C 
HETATM   10  C5  UNL     1     -34.714  16.638  -0.716  1.00 20.00     0.009 C 
ENDBRANCH   7   8
ENDBRANCH   3   7
TORSDOF 2
ENDMDL
MODEL 3
REMARK VINA RESULT:      -3.7      1.807      2.101
REMARK  2 active torsions:
REMARK  status: ('A' for Active; 'I' for Inactive)
REMARK    1  A    between atoms: C3_3  and  C6_6 
REMARK    2  A    between atoms: C6_6  and  C7_7 
ROOT
HETATM    1  C1  UNL     1     -34.399  13.231  -5.101  1.00 20.00     0.281 C 
HETATM    2  C2  UNL     1     -35.171  14.080  -6.098  1.00 20.00     0.106 C 
HETATM    3  C3  UNL     1     -35.431  14.684  -3.545  1.00 20.00     0.282 C 
HETATM    4  N8  UNL     1     -35.111  13.275  -3.814  1.00 20.00     0.098 N 
HETATM    5  S9  UNL     1     -35.670  15.527  -5.139  1.00 20.00    -0.132 SA
HETATM    6  H24 UNL     1     -35.961  12.719  -3.857  1.00 20.00     0.317 HD
ENDROOT
BRANCH   3   7
HETATM    7  C6  UNL     1     -34.315  15.355  -2.750  1.00 20.00     0.050 C 
BRANCH   7   8
HETATM    8  C7  UNL     1     -34.720  16.709  -2.143  1.00 20.00    -0.020 C 
HETATM    9  C4  UNL     1     -34.655  16.706  -0.615  1.00 20.00     0.009 C 
HETATM   10  C5  UNL     1     -33.821  17.817  -2.697  1.00 20.00     0.009 C 
ENDBRANCH   7   8
ENDBRANCH   3   7
TORSDOF 2
ENDMDL
MODEL 4
REMARK VINA RESULT:      -3.7      1.757      2.089
REMARK  2 active torsions:
REMARK  status: ('A' for Active; 'I' for Inactive)
REMARK    1  A    between atoms: C3_3  and  C6_6 
REMARK    2  A    between atoms: C6_6  and  C7_7 
ROOT
HETATM    1  C1  UNL     1     -34.186  13.326  -4.831  1.00 20.00     0.281 C 
HETATM    2  C2  UNL     1     -35.315  13.973  -5.616  1.00 20.00     0.106 C 
HETATM    3  C3  UNL     1     -34.743  15.004  -3.259  1.00 20.00     0.282 C 
HETATM    4  N8  UNL     1     -34.421  13.576  -3.401  1.00 20.00     0.098 N 
HETATM    5  S9  UNL     1     -35.575  15.552  -4.780  1.00 20.00    -0.132 SA
HETATM    6  H24 UNL     1     -35.188  13.003  -3.059  1.00 20.00     0.317 HD
ENDROOT
BRANCH   3   7
HETATM    7  C6  UNL     1     -33.482  15.827  -3.015  1.00 20.00     0.050 C 
BRANCH   7   8
HETATM    8  C7  UNL     1     -33.659  16.925  -1.953  1.00 20.00    -0.020 C 
HETATM    9  C4  UNL     1     -34.022  18.277  -2.568  1.00 20.00     0.009 C 
HETATM   10  C5  UNL     1     -34.736  16.507  -0.948  1.00 20.00     0.009 C 
ENDBRANCH   7   8
ENDBRANCH   3   7
TORSDOF 2
ENDMDL
MODEL 5
REMARK VINA RESULT:      -3.7      1.459      1.704
REMARK  2 active torsions:
REMARK  status: ('A' for Active; 'I' for Inactive)
REMARK    1  A    between atoms: C3_3  and  C6_6 
REMARK    2  A    between atoms: C6_6  and  C7_7 
ROOT
HETATM    1  C1  UNL     1     -34.639  14.840  -5.992  1.00 20.00     0.281 C 
HETATM    2  C2  UNL     1     -36.145  14.871  -5.785  1.00 20.00     0.106 C 
HETATM    3  C3  UNL     1     -34.667  14.073  -3.754  1.00 20.00     0.282 C 
HETATM    4  N8  UNL     1     -34.072  13.837  -5.078  1.00 20.00     0.098 N 
HETATM    5  S9  UNL     1     -36.339  14.747  -3.994  1.00 20.00    -0.132 SA
HETATM    6  H24 UNL     1     -34.286  12.897  -5.401  1.00 20.00     0.317 HD
ENDROOT
BRANCH   3   7
HETATM    7  C6  UNL     1     -33.815  15.041  -2.938  1.00 20.00     0.050 C 
BRANCH   7   8
HETATM    8  C7  UNL     1     -34.556  16.330  -2.543  1.00 20.00    -0.020 C 
HETATM    9  C4  UNL     1     -34.606  16.533  -1.028  1.00 20.00     0.009 C 
HETATM   10  C5  UNL     1     -33.887  17.537  -3.205  1.00 20.00     0.009 C 
ENDBRANCH   7   8
ENDBRANCH   3   7
TORSDOF 2
ENDMDL
MODEL 6
REMARK VINA RESULT:      -3.7      1.622      2.098
REMARK  2 active torsions:
REMARK  status: ('A' for Active; 'I' for Inactive)
REMARK    1  A    between atoms: C3_3  and  C6_6 
REMARK    2  A    between atoms: C6_6  and  C7_7 
ROOT
HETATM    1  C1  UNL     1     -36.103  14.131  -4.268  1.00 20.00     0.281 C 
HETATM    2  C2  UNL     1     -34.853  13.358  -4.655  1.00 20.00     0.106 C 
HETATM    3  C3  UNL     1     -34.510  15.687  -3.468  1.00 20.00     0.282 C 
HETATM    4  N8  UNL     1     -35.763  15.561  -4.227  1.00 20.00     0.098 N 
HETATM    5  S9  UNL     1     -33.536  14.173  -3.727  1.00 20.00    -0.132 SA
HETATM    6  H24 UNL     1     -35.645  15.928  -5.169  1.00 20.00     0.317 HD
ENDROOT
BRANCH   3   7
HETATM    7  C6  UNL     1     -34.791  15.891  -1.982  1.00 20.00     0.050 C 
BRANCH   7   8
HETATM    8  C7  UNL     1     -33.924  16.987  -1.337  1.00 20.00    -0.020 C 
HETATM    9  C4  UNL     1     -33.711  18.183  -2.266  1.00 20.00     0.009 C 
HETATM   10  C5  UNL     1     -34.567  17.454  -0.029  1.00 20.00     0.009 C 
ENDBRANCH   7   8
ENDBRANCH   3   7
TORSDOF 2
ENDMDL
MODEL 7
REMARK VINA RESULT:      -3.5      2.221      2.903
REMARK  2 active torsions:
REMARK  status: ('A' for Active; 'I' for Inactive)
REMARK    1  A    between atoms: C3_3  and  C6_6 
REMARK    2  A    between atoms: C6_6  and  C7_7 
ROOT
HETATM    1  C1  UNL     1     -34.605  13.241  -4.902  1.00 20.00     0.281 C 
HETATM    2  C2  UNL     1     -35.839  13.680  -4.131  1.00 20.00     0.106 C 
HETATM    3  C3  UNL     1     -33.578  14.924  -3.595  1.00 20.00     0.282 C 
HETATM    4  N8  UNL     1     -33.421  13.547  -4.085  1.00 20.00     0.098 N 
HETATM    5  S9  UNL     1     -35.355  15.259  -3.402  1.00 20.00    -0.132 SA
HETATM    6  H24 UNL     1     -33.348  12.898  -3.305  1.00 20.00     0.317 HD
ENDROOT
BRANCH   3   7
HETATM    7  C6  UNL     1     -32.950  15.922  -4.563  1.00 20.00     0.050 C 
BRANCH   7   8
HETATM    8  C7  UNL     1     -33.972  16.855  -5.235  1.00 20.00    -0.020 C 
HETATM    9  C4  UNL     1     -33.554  18.324  -5.165  1.00 20.00     0.009 C 
HETATM   10  C5  UNL     1     -34.169  16.442  -6.696  1.00 20.00     0.009 C 
ENDBRANCH   7   8
ENDBRANCH   3   7
TORSDOF 2
ENDMDL
MODEL 8
REMARK VINA RESULT:      -3.5      2.299      4.169
REMARK  2 active torsions:
REMARK  status: ('A' for Active; 'I' for Inactive)
REMARK    1  A    between atoms: C3_3  and  C6_6 
REMARK    2  A    between atoms: C6_6  and  C7_7 
ROOT
HETATM    1  C1  UNL     1     -35.508  17.562  -1.361  1.00 20.00     0.281 C 
HETATM    2  C2  UNL     1     -34.588  18.455  -2.178  1.00 20.00     0.106 C 
HETATM    3  C3  UNL     1     -34.373  15.853  -2.539  1.00 20.00     0.282 C 
HETATM    4  N8  UNL     1     -34.858  16.252  -1.209  1.00 20.00     0.098 N 
HETATM    5  S9  UNL     1     -33.953  17.360  -3.466  1.00 20.00    -0.132 SA
HETATM    6  H24 UNL     1     -34.085  16.311  -0.552  1.00 20.00     0.317 HD
ENDROOT
BRANCH   3   7
HETATM    7  C6  UNL     1     -35.429  15.045  -3.286  1.00 20.00     0.050 C 
BRANCH   7   8
HETATM    8  C7  UNL     1     -34.856  13.837  -4.048  1.00 20.00    -0.020 C 
HETATM    9  C4  UNL     1     -35.021  13.972  -5.562  1.00 20.00     0.009 C 
HETATM   10  C5  UNL     1     -33.376  13.660  -3.701  1.00 20.00     0.009 C 
ENDBRANCH   7   8
ENDBRANCH   3   7
TORSDOF 2
ENDMDL
MODEL 9
REMARK VINA RESULT:      -3.5     12.905     13.782
REMARK  2 active torsions:
REMARK  status: ('A' for Active; 'I' for Inactive)
REMARK    1  A    between atoms: C3_3  and  C6_6 
REMARK    2  A    between atoms: C6_6  and  C7_7 
ROOT
HETATM    1  C1  UNL     1     -42.345   2.531  -3.316  1.00 20.00     0.281 C 
HETATM    2  C2  UNL     1     -43.388   2.112  -2.292  1.00 20.00     0.106 C 
HETATM    3  C3  UNL     1     -41.787   4.101  -1.636  1.00 20.00     0.282 C 
HETATM    4  N8  UNL     1     -41.218   3.145  -2.597  1.00 20.00     0.098 N 
HETATM    5  S9  UNL     1     -43.417   3.483  -1.118  1.00 20.00    -0.132 SA
HETATM    6  H24 UNL     1     -40.674   2.435  -2.112  1.00 20.00     0.317 HD
ENDROOT
BRANCH   3   7
HETATM    7  C6  UNL     1     -41.917   5.488  -2.258  1.00 20.00     0.050 C 
BRANCH   7   8
HETATM    8  C7  UNL     1     -41.268   6.602  -1.418  1.00 20.00    -0.020 C 
HETATM    9  C4  UNL     1     -42.218   7.774  -1.172  1.00 20.00     0.009 C 
HETATM   10  C5  UNL     1     -40.790   6.032  -0.080  1.00 20.00     0.009 C 
ENDBRANCH   7   8
ENDBRANCH   3   7
TORSDOF 2
ENDMDL
