MODEL 1
REMARK VINA RESULT:      -3.7      0.000      0.000
REMARK  2 active torsions:
REMARK  status: ('A' for Active; 'I' for Inactive)
REMARK    1  A    between atoms: C2_2  and  C3_3 
REMARK    2  A    between atoms: C3_3  and  N4_4 
ROOT
HETATM    1  C1  UNL     1     -34.467  15.030  -5.546  1.00 20.00     0.055 C 
HETATM    2  C3  UNL     1     -34.321  14.661  -4.066  1.00 20.00     0.145 C 
HETATM    3 CL7  UNL     1     -32.650  15.119  -3.555  1.00 20.00    -0.097 Cl
ENDROOT
BRANCH   2   4
HETATM    4  C2  UNL     1     -35.303  15.425  -3.163  1.00 20.00     0.160 C 
HETATM    5 CL6  UNL     1     -34.538  16.095  -1.694  1.00 20.00    -0.127 Cl
ENDBRANCH   2   4
BRANCH   2   6
HETATM    6  N4  UNL     1     -34.444  13.181  -3.800  1.00 20.00    -0.036 NA
HETATM    7  O5  UNL     1     -34.861  12.527  -4.763  1.00 20.00    -0.099 OA
ENDBRANCH   2   6
TORSDOF 2
ENDMDL
MODEL 2
REMARK VINA RESULT:      -3.6      1.302      1.562
REMARK  2 active torsions:
REMARK  status: ('A' for Active; 'I' for Inactive)
REMARK    1  A    between atoms: C2_2  and  C3_3 
REMARK    2  A    between atoms: C3_3  and  N4_4 
ROOT
HETATM    1  C1  UNL     1     -36.249  15.033  -3.513  1.00 20.00     0.055 C 
HETATM    2  C3  UNL     1     -34.758  14.796  -3.776  1.00 20.00     0.145 C 
HETATM    3 CL7  UNL     1     -34.427  15.270  -5.488  1.00 20.00    -0.097 Cl
ENDROOT
BRANCH   2   4
HETATM    4  C2  UNL     1     -33.852  15.655  -2.878  1.00 20.00     0.160 C 
HETATM    5 CL6  UNL     1     -34.674  16.251  -1.407  1.00 20.00    -0.127 Cl
ENDBRANCH   2   4
BRANCH   2   6
HETATM    6  N4  UNL     1     -34.350  13.349  -3.661  1.00 20.00    -0.036 NA
HETATM    7  O5  UNL     1     -34.964  12.588  -4.417  1.00 20.00    -0.099 OA
ENDBRANCH   2   6
TORSDOF 2
ENDMDL
MODEL 3
REMARK VINA RESULT:      -3.5      1.583      2.482
REMARK  2 active torsions:
REMARK  status: ('A' for Active; 'I' for Inactive)
REMARK    1  A    between atoms: C2_2  and  C3_3 
REMARK    2  A    between atoms: C3_3  and  N4_4 
ROOT
HETATM    1  C1  UNL     1     -32.978  15.491  -4.031  1.00 20.00     0.055 C 
HETATM    2  C3  UNL     1     -34.348  14.812  -3.927  1.00 20.00     0.145 C 
HETATM    3 CL7  UNL     1     -35.209  15.539  -2.515  1.00 20.00    -0.097 Cl
ENDROOT
BRANCH   2   4
HETATM    4  C2  UNL     1     -35.224  15.045  -5.169  1.00 20.00     0.160 C 
HETATM    5 CL6  UNL     1     -34.293  15.084  -6.694  1.00 20.00    -0.127 Cl
ENDBRANCH   2   4
BRANCH   2   6
HETATM    6  N4  UNL     1     -34.266  13.332  -3.644  1.00 20.00    -0.036 NA
HETATM    7  O5  UNL     1     -35.025  12.642  -4.334  1.00 20.00    -0.099 OA
ENDBRANCH   2   6
TORSDOF 2
ENDMDL
MODEL 4
REMARK VINA RESULT:      -3.4      1.564      2.485
REMARK  2 active torsions:
REMARK  status: ('A' for Active; 'I' for Inactive)
REMARK    1  A    between atoms: C2_2  and  C3_3 
REMARK    2  A    between atoms: C3_3  and  N4_4 
ROOT
HETATM    1  C1  UNL     1     -34.169  15.710  -2.595  1.00 20.00     0.055 C 
HETATM    2  C3  UNL     1     -34.714  14.838  -3.731  1.00 20.00     0.145 C 
HETATM    3 CL7  UNL     1     -36.517  14.858  -3.612  1.00 20.00    -0.097 Cl
ENDROOT
BRANCH   2   4
HETATM    4  C2  UNL     1     -34.339  15.371  -5.123  1.00 20.00     0.160 C 
HETATM    5 CL6  UNL     1     -33.238  16.778  -5.069  1.00 20.00    -0.127 Cl
ENDBRANCH   2   4
BRANCH   2   6
HETATM    6  N4  UNL     1     -34.309  13.389  -3.625  1.00 20.00    -0.036 NA
HETATM    7  O5  UNL     1     -34.984  12.622  -4.322  1.00 20.00    -0.099 OA
ENDBRANCH   2   6
TORSDOF 2
ENDMDL
MODEL 5
REMARK VINA RESULT:      -3.4      1.256      1.256
REMARK  2 active torsions:
REMARK  status: ('A' for Active; 'I' for Inactive)
REMARK    1  A    between atoms: C2_2  and  C3_3 
REMARK    2  A    between atoms: C3_3  and  N4_4 
ROOT
HETATM    1  C1  UNL     1     -34.493  14.960  -5.598  1.00 20.00     0.055 C 
HETATM    2  C3  UNL     1     -34.334  14.621  -4.112  1.00 20.00     0.145 C 
HETATM    3 CL7  UNL     1     -32.675  15.135  -3.613  1.00 20.00    -0.097 Cl
ENDROOT
BRANCH   2   4
HETATM    4  C2  UNL     1     -35.335  15.372  -3.220  1.00 20.00     0.160 C 
HETATM    5 CL6  UNL     1     -37.037  14.937  -3.544  1.00 20.00    -0.127 Cl
ENDBRANCH   2   4
BRANCH   2   6
HETATM    6  N4  UNL     1     -34.414  13.143  -3.820  1.00 20.00    -0.036 NA
HETATM    7  O5  UNL     1     -34.905  12.473  -4.736  1.00 20.00    -0.099 OA
ENDBRANCH   2   6
TORSDOF 2
ENDMDL
MODEL 6
REMARK VINA RESULT:      -3.2     12.341     12.615
REMARK  2 active torsions:
REMARK  status: ('A' for Active; 'I' for Inactive)
REMARK    1  A    between atoms: C2_2  and  C3_3 
REMARK    2  A    between atoms: C3_3  and  N4_4 
ROOT
HETATM    1  C1  UNL     1     -35.779   5.762   3.744  1.00 20.00     0.055 C 
HETATM    2  C3  UNL     1     -34.460   5.460   4.465  1.00 20.00     0.145 C 
HETATM    3 CL7  UNL     1     -34.633   3.845   5.258  1.00 20.00    -0.097 Cl
ENDROOT
BRANCH   2   4
HETATM    4  C2  UNL     1     -33.264   5.374   3.504  1.00 20.00     0.160 C 
HETATM    5 CL6  UNL     1     -32.269   6.859   3.479  1.00 20.00    -0.127 Cl
ENDBRANCH   2   4
BRANCH   2   6
HETATM    6  N4  UNL     1     -34.145   6.433   5.573  1.00 20.00    -0.036 NA
HETATM    7  O5  UNL     1     -34.474   6.042   6.699  1.00 20.00    -0.099 OA
ENDBRANCH   2   6
TORSDOF 2
ENDMDL
MODEL 7
REMARK VINA RESULT:      -3.2     12.422     12.711
REMARK  2 active torsions:
REMARK  status: ('A' for Active; 'I' for Inactive)
REMARK    1  A    between atoms: C2_2  and  C3_3 
REMARK    2  A    between atoms: C3_3  and  N4_4 
ROOT
HETATM    1  C1  UNL     1     -34.608   3.616   4.991  1.00 20.00     0.055 C 
HETATM    2  C3  UNL     1     -34.556   5.146   4.922  1.00 20.00     0.145 C 
HETATM    3 CL7  UNL     1     -35.936   5.689   3.889  1.00 20.00    -0.097 Cl
ENDROOT
BRANCH   2   4
HETATM    4  C2  UNL     1     -34.722   5.810   6.298  1.00 20.00     0.160 C 
HETATM    5 CL6  UNL     1     -33.513   7.086   6.619  1.00 20.00    -0.127 Cl
ENDBRANCH   2   4
BRANCH   2   6
HETATM    6  N4  UNL     1     -33.309   5.675   4.258  1.00 20.00    -0.036 NA
HETATM    7  O5  UNL     1     -33.434   5.891   3.047  1.00 20.00    -0.099 OA
ENDBRANCH   2   6
TORSDOF 2
ENDMDL
MODEL 8
REMARK VINA RESULT:      -3.1      2.200      2.200
REMARK  2 active torsions:
REMARK  status: ('A' for Active; 'I' for Inactive)
REMARK    1  A    between atoms: C2_2  and  C3_3 
REMARK    2  A    between atoms: C3_3  and  N4_4 
ROOT
HETATM    1  C1  UNL     1     -35.603  15.321  -5.458  1.00 20.00     0.055 C 
HETATM    2  C3  UNL     1     -35.852  14.898  -4.007  1.00 20.00     0.145 C 
HETATM    3 CL7  UNL     1     -34.458  13.867  -3.496  1.00 20.00    -0.097 Cl
ENDROOT
BRANCH   2   4
HETATM    4  C2  UNL     1     -35.918  16.092  -3.042  1.00 20.00     0.160 C 
HETATM    5 CL6  UNL     1     -34.696  16.019  -1.741  1.00 20.00    -0.127 Cl
ENDBRANCH   2   4
BRANCH   2   6
HETATM    6  N4  UNL     1     -37.083  14.044  -3.832  1.00 20.00    -0.036 NA
HETATM    7  O5  UNL     1     -38.068  14.658  -3.404  1.00 20.00    -0.099 OA
ENDBRANCH   2   6
TORSDOF 2
ENDMDL
MODEL 9
REMARK VINA RESULT:      -3.1      1.996      2.609
REMARK  2 active torsions:
REMARK  status: ('A' for Active; 'I' for Inactive)
REMARK    1  A    between atoms: C2_2  and  C3_3 
REMARK    2  A    between atoms: C3_3  and  N4_4 
ROOT
HETATM    1  C1  UNL     1     -34.767  13.540  -3.873  1.00 20.00     0.055 C 
HETATM    2  C3  UNL     1     -35.365  14.936  -3.671  1.00 20.00     0.145 C 
HETATM    3 CL7  UNL     1     -34.491  15.706  -2.290  1.00 20.00    -0.097 Cl
ENDROOT
BRANCH   2   4
HETATM    4  C2  UNL     1     -35.180  15.845  -4.896  1.00 20.00     0.160 C 
HETATM    5 CL6  UNL     1     -33.470  16.244  -5.229  1.00 20.00    -0.127 Cl
ENDBRANCH   2   4
BRANCH   2   6
HETATM    6  N4  UNL     1     -36.821  14.916  -3.278  1.00 20.00    -0.036 NA
HETATM    7  O5  UNL     1     -37.496  14.072  -3.880  1.00 20.00    -0.099 OA
ENDBRANCH   2   6
TORSDOF 2
ENDMDL
