MODEL 1
REMARK VINA RESULT:      -4.9      0.000      0.000
REMARK  0 active torsions:
REMARK  status: ('A' for Active; 'I' for Inactive)
ROOT
HETATM    1  C1  UNL     1     -34.067  16.663  -1.787  1.00 20.00     0.095 C 
HETATM    2  C2  UNL     1     -35.284  14.735  -7.075  1.00 20.00     0.095 C 
HETATM    3  C3  UNL     1     -35.119  14.744  -2.824  1.00 20.00    -0.007 C 
HETATM    4  C4  UNL     1     -34.074  16.561  -6.041  1.00 20.00    -0.007 C 
HETATM    5  C5  UNL     1     -34.191  15.704  -2.823  1.00 20.00     0.024 C 
HETATM    6  C6  UNL     1     -34.480  15.288  -6.047  1.00 20.00     0.024 C 
HETATM    7  C7  UNL     1     -34.991  13.832  -3.998  1.00 20.00     0.039 C 
HETATM    8  C8  UNL     1     -33.189  16.867  -4.878  1.00 20.00     0.039 C 
HETATM    9  C9  UNL     1     -33.269  15.604  -4.007  1.00 20.00     0.042 C 
HETATM   10  C10 UNL     1     -33.933  14.511  -4.882  1.00 20.00     0.042 C 
HETATM   11  N11 UNL     1     -33.966  17.448  -0.939  1.00 20.00    -0.192 NA
HETATM   12  N12 UNL     1     -35.942  14.283  -7.916  1.00 20.00    -0.192 NA
ENDROOT
TORSDOF 0
ENDMDL
MODEL 2
REMARK VINA RESULT:      -4.9      0.948      4.744
REMARK  0 active torsions:
REMARK  status: ('A' for Active; 'I' for Inactive)
ROOT
HETATM    1  C1  UNL     1     -34.959  14.762  -6.849  1.00 20.00     0.095 C 
HETATM    2  C2  UNL     1     -34.751  16.503  -1.364  1.00 20.00     0.095 C 
HETATM    3  C3  UNL     1     -33.323  15.588  -5.265  1.00 20.00    -0.007 C 
HETATM    4  C4  UNL     1     -36.342  15.508  -2.895  1.00 20.00    -0.007 C 
HETATM    5  C5  UNL     1     -34.421  14.880  -5.544  1.00 20.00     0.024 C 
HETATM    6  C6  UNL     1     -35.092  15.652  -2.444  1.00 20.00     0.024 C 
HETATM    7  C7  UNL     1     -32.938  15.496  -3.827  1.00 20.00     0.039 C 
HETATM    8  C8  UNL     1     -36.434  14.507  -3.999  1.00 20.00     0.039 C 
HETATM    9  C9  UNL     1     -34.970  14.182  -4.330  1.00 20.00     0.042 C 
HETATM   10  C10 UNL     1     -34.120  14.765  -3.171  1.00 20.00     0.042 C 
HETATM   11  N11 UNL     1     -35.400  14.666  -7.918  1.00 20.00    -0.192 NA
HETATM   12  N12 UNL     1     -34.472  17.200  -0.480  1.00 20.00    -0.192 NA
ENDROOT
TORSDOF 0
ENDMDL
MODEL 3
REMARK VINA RESULT:      -4.9      0.945      1.167
REMARK  0 active torsions:
REMARK  status: ('A' for Active; 'I' for Inactive)
ROOT
HETATM    1  C1  UNL     1     -34.744  16.528  -1.394  1.00 20.00     0.095 C 
HETATM    2  C2  UNL     1     -35.075  14.744  -6.859  1.00 20.00     0.095 C 
HETATM    3  C3  UNL     1     -36.370  15.526  -2.883  1.00 20.00    -0.007 C 
HETATM    4  C4  UNL     1     -33.402  15.577  -5.318  1.00 20.00    -0.007 C 
HETATM    5  C5  UNL     1     -35.111  15.670  -2.460  1.00 20.00     0.024 C 
HETATM    6  C6  UNL     1     -34.509  14.870  -5.566  1.00 20.00     0.024 C 
HETATM    7  C7  UNL     1     -36.489  14.517  -3.975  1.00 20.00     0.039 C 
HETATM    8  C8  UNL     1     -32.987  15.495  -3.887  1.00 20.00     0.039 C 
HETATM    9  C9  UNL     1     -34.157  14.774  -3.200  1.00 20.00     0.042 C 
HETATM   10  C10 UNL     1     -35.033  14.184  -4.336  1.00 20.00     0.042 C 
HETATM   11  N11 UNL     1     -34.443  17.231  -0.522  1.00 20.00    -0.192 NA
HETATM   12  N12 UNL     1     -35.539  14.641  -7.917  1.00 20.00    -0.192 NA
ENDROOT
TORSDOF 0
ENDMDL
MODEL 4
REMARK VINA RESULT:      -4.9      3.827      7.446
REMARK  0 active torsions:
REMARK  status: ('A' for Active; 'I' for Inactive)
ROOT
HETATM    1  C1  UNL     1     -33.860  17.109  -1.851  1.00 20.00     0.095 C 
HETATM    2  C2  UNL     1     -32.729  18.697   3.567  1.00 20.00     0.095 C 
HETATM    3  C3  UNL     1     -34.946  17.086   0.313  1.00 20.00    -0.007 C 
HETATM    4  C4  UNL     1     -31.722  18.882   1.371  1.00 20.00    -0.007 C 
HETATM    5  C5  UNL     1     -34.134  17.663  -0.577  1.00 20.00     0.024 C 
HETATM    6  C6  UNL     1     -32.801  18.842   2.159  1.00 20.00     0.024 C 
HETATM    7  C7  UNL     1     -35.110  17.908   1.548  1.00 20.00     0.039 C 
HETATM    8  C8  UNL     1     -32.076  19.103  -0.062  1.00 20.00     0.039 C 
HETATM    9  C9  UNL     1     -33.607  18.985  -0.091  1.00 20.00     0.042 C 
HETATM   10  C10 UNL     1     -34.076  19.033   1.386  1.00 20.00     0.042 C 
HETATM   11  N11 UNL     1     -33.635  16.654  -2.895  1.00 20.00    -0.192 NA
HETATM   12  N12 UNL     1     -32.670  18.578   4.719  1.00 20.00    -0.192 NA
ENDROOT
TORSDOF 0
ENDMDL
MODEL 5
REMARK VINA RESULT:      -4.9      3.810      6.316
REMARK  0 active torsions:
REMARK  status: ('A' for Active; 'I' for Inactive)
ROOT
HETATM    1  C1  UNL     1     -32.805  18.697   3.552  1.00 20.00     0.095 C 
HETATM    2  C2  UNL     1     -33.790  17.093  -1.890  1.00 20.00     0.095 C 
HETATM    3  C3  UNL     1     -31.758  18.908   1.377  1.00 20.00    -0.007 C 
HETATM    4  C4  UNL     1     -34.920  17.042   0.252  1.00 20.00    -0.007 C 
HETATM    5  C5  UNL     1     -32.851  18.843   2.144  1.00 20.00     0.024 C 
HETATM    6  C6  UNL     1     -34.102  17.639  -0.620  1.00 20.00     0.024 C 
HETATM    7  C7  UNL     1     -32.087  19.124  -0.062  1.00 20.00     0.039 C 
HETATM    8  C8  UNL     1     -35.126  17.858   1.485  1.00 20.00     0.039 C 
HETATM    9  C9  UNL     1     -34.115  19.006   1.345  1.00 20.00     0.042 C 
HETATM   10  C10 UNL     1     -33.615  18.971  -0.122  1.00 20.00     0.042 C 
HETATM   11  N11 UNL     1     -32.766  18.577   4.705  1.00 20.00    -0.192 NA
HETATM   12  N12 UNL     1     -33.534  16.646  -2.929  1.00 20.00    -0.192 NA
ENDROOT
TORSDOF 0
ENDMDL
MODEL 6
REMARK VINA RESULT:      -4.8      2.221      4.869
REMARK  0 active torsions:
REMARK  status: ('A' for Active; 'I' for Inactive)
ROOT
HETATM    1  C1  UNL     1     -35.240  13.693  -4.242  1.00 20.00     0.095 C 
HETATM    2  C2  UNL     1     -36.100  18.086  -0.621  1.00 20.00     0.095 C 
HETATM    3  C3  UNL     1     -37.025  15.201  -3.607  1.00 20.00    -0.007 C 
HETATM    4  C4  UNL     1     -34.271  16.696  -1.389  1.00 20.00    -0.007 C 
HETATM    5  C5  UNL     1     -35.730  14.954  -3.826  1.00 20.00     0.024 C 
HETATM    6  C6  UNL     1     -35.424  17.335  -1.613  1.00 20.00     0.024 C 
HETATM    7  C7  UNL     1     -37.277  16.624  -3.237  1.00 20.00     0.039 C 
HETATM    8  C8  UNL     1     -33.742  16.034  -2.618  1.00 20.00     0.039 C 
HETATM    9  C9  UNL     1     -34.880  16.181  -3.639  1.00 20.00     0.042 C 
HETATM   10  C10 UNL     1     -35.871  17.213  -3.043  1.00 20.00     0.042 C 
HETATM   11  N11 UNL     1     -34.838  12.659  -4.583  1.00 20.00    -0.192 NA
HETATM   12  N12 UNL     1     -36.655  18.701   0.192  1.00 20.00    -0.192 NA
ENDROOT
TORSDOF 0
ENDMDL
MODEL 7
REMARK VINA RESULT:      -4.8      2.234      3.168
REMARK  0 active torsions:
REMARK  status: ('A' for Active; 'I' for Inactive)
ROOT
HETATM    1  C1  UNL     1     -36.072  18.123  -0.724  1.00 20.00     0.095 C 
HETATM    2  C2  UNL     1     -35.248  13.605  -4.198  1.00 20.00     0.095 C 
HETATM    3  C3  UNL     1     -34.248  16.718  -1.476  1.00 20.00    -0.007 C 
HETATM    4  C4  UNL     1     -37.033  15.123  -3.584  1.00 20.00    -0.007 C 
HETATM    5  C5  UNL     1     -35.409  17.341  -1.701  1.00 20.00     0.024 C 
HETATM    6  C6  UNL     1     -35.739  14.879  -3.818  1.00 20.00     0.024 C 
HETATM    7  C7  UNL     1     -33.737  16.016  -2.689  1.00 20.00     0.039 C 
HETATM    8  C8  UNL     1     -37.288  16.558  -3.261  1.00 20.00     0.039 C 
HETATM    9  C9  UNL     1     -35.883  17.163  -3.117  1.00 20.00     0.042 C 
HETATM   10  C10 UNL     1     -34.895  16.116  -3.693  1.00 20.00     0.042 C 
HETATM   11  N11 UNL     1     -36.616  18.763   0.077  1.00 20.00    -0.192 NA
HETATM   12  N12 UNL     1     -34.845  12.563  -4.508  1.00 20.00    -0.192 NA
ENDROOT
TORSDOF 0
ENDMDL
MODEL 8
REMARK VINA RESULT:      -4.4      2.744      4.623
REMARK  0 active torsions:
REMARK  status: ('A' for Active; 'I' for Inactive)
ROOT
HETATM    1  C1  UNL     1     -33.348  18.617   1.551  1.00 20.00     0.095 C 
HETATM    2  C2  UNL     1     -33.475  16.608  -3.844  1.00 20.00     0.095 C 
HETATM    3  C3  UNL     1     -32.560  19.261  -0.647  1.00 20.00    -0.007 C 
HETATM    4  C4  UNL     1     -34.414  16.061  -1.679  1.00 20.00    -0.007 C 
HETATM    5  C5  UNL     1     -33.474  18.688   0.142  1.00 20.00     0.024 C 
HETATM    6  C6  UNL     1     -34.002  16.962  -2.577  1.00 20.00     0.024 C 
HETATM    7  C7  UNL     1     -32.967  19.255  -2.083  1.00 20.00     0.039 C 
HETATM    8  C8  UNL     1     -34.981  16.701  -0.456  1.00 20.00     0.039 C 
HETATM    9  C9  UNL     1     -34.663  18.193  -0.634  1.00 20.00     0.042 C 
HETATM   10  C10 UNL     1     -34.224  18.373  -2.110  1.00 20.00     0.042 C 
HETATM   11  N11 UNL     1     -33.244  18.558   2.705  1.00 20.00    -0.192 NA
HETATM   12  N12 UNL     1     -33.043  16.319  -4.881  1.00 20.00    -0.192 NA
ENDROOT
TORSDOF 0
ENDMDL
MODEL 9
REMARK VINA RESULT:      -4.3      2.791      4.532
REMARK  0 active torsions:
REMARK  status: ('A' for Active; 'I' for Inactive)
ROOT
HETATM    1  C1  UNL     1     -36.993  17.642  -7.180  1.00 20.00     0.095 C 
HETATM    2  C2  UNL     1     -34.139  13.600  -4.234  1.00 20.00     0.095 C 
HETATM    3  C3  UNL     1     -34.874  16.472  -7.284  1.00 20.00    -0.007 C 
HETATM    4  C4  UNL     1     -36.326  14.640  -4.239  1.00 20.00    -0.007 C 
HETATM    5  C5  UNL     1     -36.180  16.495  -7.003  1.00 20.00     0.024 C 
HETATM    6  C6  UNL     1     -35.248  14.190  -4.889  1.00 20.00     0.024 C 
HETATM    7  C7  UNL     1     -34.270  15.126  -7.067  1.00 20.00     0.039 C 
HETATM    8  C8  UNL     1     -37.373  15.156  -5.169  1.00 20.00     0.039 C 
HETATM    9  C9  UNL     1     -36.685  15.155  -6.543  1.00 20.00     0.042 C 
HETATM   10  C10 UNL     1     -35.386  14.324  -6.380  1.00 20.00     0.042 C 
HETATM   11  N11 UNL     1     -37.658  18.581  -7.324  1.00 20.00    -0.192 NA
HETATM   12  N12 UNL     1     -33.230  13.118  -3.698  1.00 20.00    -0.192 NA
ENDROOT
TORSDOF 0
ENDMDL
