MODEL 1
REMARK VINA RESULT:      -2.9      0.000      0.000
REMARK  4 active torsions:
REMARK  status: ('A' for Active; 'I' for Inactive)
REMARK    1  A    between atoms: C1_1  and  C3_3 
REMARK    2  A    between atoms: C1_1  and  S4_4 
REMARK    3  A    between atoms: C2_2  and  C3_3 
REMARK    4  A    between atoms: C3_3  and  S5_5 
ROOT
HETATM    1  C3  UNL     1     -34.101   6.250   4.340  1.00 20.00     0.067 C 
ENDROOT
BRANCH   1   2
HETATM    2  C1  UNL     1     -32.758   6.126   3.601  1.00 20.00     0.086 C 
BRANCH   2   3
HETATM    3  S4  UNL     1     -32.209   7.616   2.706  1.00 20.00    -0.181 SA
HETATM    4  H12 UNL     1     -30.935   7.557   3.114  1.00 20.00     0.101 HD
ENDBRANCH   2   3
ENDBRANCH   1   2
BRANCH   1   5
HETATM    5  C2  UNL     1     -35.080   5.086   4.158  1.00 20.00     0.130 C 
HETATM    6 CL6  UNL     1     -35.002   3.937   5.519  1.00 20.00    -0.129 Cl
ENDBRANCH   1   5
BRANCH   1   7
HETATM    7  S5  UNL     1     -33.830   6.501   6.138  1.00 20.00    -0.176 SA
HETATM    8  H13 UNL     1     -33.935   5.207   6.460  1.00 20.00     0.102 HD
ENDBRANCH   1   7
TORSDOF 4
ENDMDL
MODEL 2
REMARK VINA RESULT:      -2.6      3.016      3.806
REMARK  4 active torsions:
REMARK  status: ('A' for Active; 'I' for Inactive)
REMARK    1  A    between atoms: C1_1  and  C3_3 
REMARK    2  A    between atoms: C1_1  and  S4_4 
REMARK    3  A    between atoms: C2_2  and  C3_3 
REMARK    4  A    between atoms: C3_3  and  S5_5 
ROOT
HETATM    1  C3  UNL     1     -33.731   6.575   4.083  1.00 20.00     0.067 C 
ENDROOT
BRANCH   1   2
HETATM    2  C1  UNL     1     -33.822   6.328   5.599  1.00 20.00     0.086 C 
BRANCH   2   3
HETATM    3  S4  UNL     1     -34.754   4.844   6.102  1.00 20.00    -0.181 SA
HETATM    4  H12 UNL     1     -34.095   3.994   5.305  1.00 20.00     0.101 HD
ENDBRANCH   2   3
ENDBRANCH   1   2
BRANCH   1   5
HETATM    5  C2  UNL     1     -32.320   6.581   3.486  1.00 20.00     0.130 C 
HETATM    6 CL6  UNL     1     -32.104   7.906   2.313  1.00 20.00    -0.129 Cl
ENDBRANCH   1   5
BRANCH   1   7
HETATM    7  S5  UNL     1     -34.741   5.348   3.165  1.00 20.00    -0.176 SA
HETATM    8  H13 UNL     1     -33.938   4.310   3.424  1.00 20.00     0.102 HD
ENDBRANCH   1   7
TORSDOF 4
ENDMDL
MODEL 3
REMARK VINA RESULT:      -2.6      2.380      2.512
REMARK  4 active torsions:
REMARK  status: ('A' for Active; 'I' for Inactive)
REMARK    1  A    between atoms: C1_1  and  C3_3 
REMARK    2  A    between atoms: C1_1  and  S4_4 
REMARK    3  A    between atoms: C2_2  and  C3_3 
REMARK    4  A    between atoms: C3_3  and  S5_5 
ROOT
HETATM    1  C3  UNL     1     -34.001   5.481   5.158  1.00 20.00     0.067 C 
ENDROOT
BRANCH   1   2
HETATM    2  C1  UNL     1     -33.984   6.417   3.937  1.00 20.00     0.086 C 
BRANCH   2   3
HETATM    3  S4  UNL     1     -32.347   6.713   3.193  1.00 20.00    -0.181 SA
HETATM    4  H12 UNL     1     -32.676   6.284   1.968  1.00 20.00     0.101 HD
ENDBRANCH   2   3
ENDBRANCH   1   2
BRANCH   1   5
HETATM    5  C2  UNL     1     -34.339   6.135   6.502  1.00 20.00     0.130 C 
HETATM    6 CL6  UNL     1     -33.217   7.465   6.891  1.00 20.00    -0.129 Cl
ENDBRANCH   1   5
BRANCH   1   7
HETATM    7  S5  UNL     1     -35.160   4.085   4.888  1.00 20.00    -0.176 SA
HETATM    8  H13 UNL     1     -34.812   3.882   3.612  1.00 20.00     0.102 HD
ENDBRANCH   1   7
TORSDOF 4
ENDMDL
MODEL 4
REMARK VINA RESULT:      -2.6     11.729     12.412
REMARK  4 active torsions:
REMARK  status: ('A' for Active; 'I' for Inactive)
REMARK    1  A    between atoms: C1_1  and  C3_3 
REMARK    2  A    between atoms: C1_1  and  S4_4 
REMARK    3  A    between atoms: C2_2  and  C3_3 
REMARK    4  A    between atoms: C3_3  and  S5_5 
ROOT
HETATM    1  C3  UNL     1     -33.584  15.338  -3.376  1.00 20.00     0.067 C 
ENDROOT
BRANCH   1   2
HETATM    2  C1  UNL     1     -34.846  15.743  -2.595  1.00 20.00     0.086 C 
BRANCH   2   3
HETATM    3  S4  UNL     1     -34.558  16.709  -1.075  1.00 20.00    -0.181 SA
HETATM    4  H12 UNL     1     -33.327  17.117  -1.406  1.00 20.00     0.101 HD
ENDBRANCH   2   3
ENDBRANCH   1   2
BRANCH   1   5
HETATM    5  C2  UNL     1     -33.512  13.875  -3.826  1.00 20.00     0.130 C 
HETATM    6 CL6  UNL     1     -35.122  13.232  -4.243  1.00 20.00    -0.129 Cl
ENDBRANCH   1   5
BRANCH   1   7
HETATM    7  S5  UNL     1     -33.363  16.408  -4.850  1.00 20.00    -0.176 SA
HETATM    8  H13 UNL     1     -33.285  15.399  -5.724  1.00 20.00     0.102 HD
ENDBRANCH   1   7
TORSDOF 4
ENDMDL
MODEL 5
REMARK VINA RESULT:      -2.6     11.921     12.493
REMARK  4 active torsions:
REMARK  status: ('A' for Active; 'I' for Inactive)
REMARK    1  A    between atoms: C1_1  and  C3_3 
REMARK    2  A    between atoms: C1_1  and  S4_4 
REMARK    3  A    between atoms: C2_2  and  C3_3 
REMARK    4  A    between atoms: C3_3  and  S5_5 
ROOT
HETATM    1  C3  UNL     1     -34.201  14.709  -3.254  1.00 20.00     0.067 C 
ENDROOT
BRANCH   1   2
HETATM    2  C1  UNL     1     -33.037  15.380  -4.002  1.00 20.00     0.086 C 
BRANCH   2   3
HETATM    3  S4  UNL     1     -33.470  16.864  -4.968  1.00 20.00    -0.181 SA
HETATM    4  H12 UNL     1     -32.444  16.773  -5.823  1.00 20.00     0.101 HD
ENDBRANCH   2   3
ENDBRANCH   1   2
BRANCH   1   5
HETATM    5  C2  UNL     1     -35.243  15.654  -2.646  1.00 20.00     0.130 C 
HETATM    6 CL6  UNL     1     -34.667  16.383  -1.125  1.00 20.00    -0.129 Cl
ENDBRANCH   1   5
BRANCH   1   7
HETATM    7  S5  UNL     1     -35.069  13.514  -4.343  1.00 20.00    -0.176 SA
HETATM    8  H13 UNL     1     -35.152  14.341  -5.391  1.00 20.00     0.102 HD
ENDBRANCH   1   7
TORSDOF 4
ENDMDL
MODEL 6
REMARK VINA RESULT:      -2.5     11.903     12.691
REMARK  4 active torsions:
REMARK  status: ('A' for Active; 'I' for Inactive)
REMARK    1  A    between atoms: C1_1  and  C3_3 
REMARK    2  A    between atoms: C1_1  and  S4_4 
REMARK    3  A    between atoms: C2_2  and  C3_3 
REMARK    4  A    between atoms: C3_3  and  S5_5 
ROOT
HETATM    1  C3  UNL     1     -34.243  15.838  -3.503  1.00 20.00     0.067 C 
ENDROOT
BRANCH   1   2
HETATM    2  C1  UNL     1     -34.157  14.305  -3.410  1.00 20.00     0.086 C 
BRANCH   2   3
HETATM    3  S4  UNL     1     -34.748  13.392  -4.873  1.00 20.00    -0.181 SA
HETATM    4  H12 UNL     1     -33.737  12.515  -4.902  1.00 20.00     0.101 HD
ENDBRANCH   2   3
ENDBRANCH   1   2
BRANCH   1   5
HETATM    5  C2  UNL     1     -33.680  16.617  -2.310  1.00 20.00     0.130 C 
HETATM    6 CL6  UNL     1     -34.708  16.444  -0.863  1.00 20.00    -0.129 Cl
ENDBRANCH   1   5
BRANCH   1   7
HETATM    7  S5  UNL     1     -33.420  16.442  -5.027  1.00 20.00    -0.176 SA
HETATM    8  H13 UNL     1     -33.539  15.290  -5.696  1.00 20.00     0.102 HD
ENDBRANCH   1   7
TORSDOF 4
ENDMDL
MODEL 7
REMARK VINA RESULT:      -2.5     12.102     12.770
REMARK  4 active torsions:
REMARK  status: ('A' for Active; 'I' for Inactive)
REMARK    1  A    between atoms: C1_1  and  C3_3 
REMARK    2  A    between atoms: C1_1  and  S4_4 
REMARK    3  A    between atoms: C2_2  and  C3_3 
REMARK    4  A    between atoms: C3_3  and  S5_5 
ROOT
HETATM    1  C3  UNL     1     -33.767  15.520  -3.210  1.00 20.00     0.067 C 
ENDROOT
BRANCH   1   2
HETATM    2  C1  UNL     1     -33.381  16.500  -4.332  1.00 20.00     0.086 C 
BRANCH   2   3
HETATM    3  S4  UNL     1     -34.053  16.114  -5.982  1.00 20.00    -0.181 SA
HETATM    4  H12 UNL     1     -33.395  17.086  -6.626  1.00 20.00     0.101 HD
ENDBRANCH   2   3
ENDBRANCH   1   2
BRANCH   1   5
HETATM    5  C2  UNL     1     -34.998  15.898  -2.381  1.00 20.00     0.130 C 
HETATM    6 CL6  UNL     1     -34.545  16.564  -0.790  1.00 20.00    -0.129 Cl
ENDBRANCH   1   5
BRANCH   1   7
HETATM    7  S5  UNL     1     -34.019  13.832  -3.884  1.00 20.00    -0.176 SA
HETATM    8  H13 UNL     1     -34.695  14.231  -4.966  1.00 20.00     0.102 HD
ENDBRANCH   1   7
TORSDOF 4
ENDMDL
MODEL 8
REMARK VINA RESULT:      -2.4     12.165     12.491
REMARK  4 active torsions:
REMARK  status: ('A' for Active; 'I' for Inactive)
REMARK    1  A    between atoms: C1_1  and  C3_3 
REMARK    2  A    between atoms: C1_1  and  S4_4 
REMARK    3  A    between atoms: C2_2  and  C3_3 
REMARK    4  A    between atoms: C3_3  and  S5_5 
ROOT
HETATM    1  C3  UNL     1     -34.886  14.353  -3.573  1.00 20.00     0.067 C 
ENDROOT
BRANCH   1   2
HETATM    2  C1  UNL     1     -34.410  13.682  -4.873  1.00 20.00     0.086 C 
BRANCH   2   3
HETATM    3  S4  UNL     1     -34.953  14.483  -6.419  1.00 20.00    -0.181 SA
HETATM    4  H12 UNL     1     -36.208  14.718  -6.015  1.00 20.00     0.101 HD
ENDBRANCH   2   3
ENDBRANCH   1   2
BRANCH   1   5
HETATM    5  C2  UNL     1     -34.039  15.527  -3.073  1.00 20.00     0.130 C 
HETATM    6 CL6  UNL     1     -34.644  16.164  -1.521  1.00 20.00    -0.129 Cl
ENDBRANCH   1   5
BRANCH   1   7
HETATM    7  S5  UNL     1     -36.623  14.920  -3.736  1.00 20.00    -0.176 SA
HETATM    8  H13 UNL     1     -36.424  15.603  -4.868  1.00 20.00     0.102 HD
ENDBRANCH   1   7
TORSDOF 4
ENDMDL
MODEL 9
REMARK VINA RESULT:      -2.3     12.801     13.290
REMARK  4 active torsions:
REMARK  status: ('A' for Active; 'I' for Inactive)
REMARK    1  A    between atoms: C1_1  and  C3_3 
REMARK    2  A    between atoms: C1_1  and  S4_4 
REMARK    3  A    between atoms: C2_2  and  C3_3 
REMARK    4  A    between atoms: C3_3  and  S5_5 
ROOT
HETATM    1  C3  UNL     1     -34.463  15.345  -4.373  1.00 20.00     0.067 C 
ENDROOT
BRANCH   1   2
HETATM    2  C1  UNL     1     -33.661  15.697  -3.108  1.00 20.00     0.086 C 
BRANCH   2   3
HETATM    3  S4  UNL     1     -34.632  16.367  -1.719  1.00 20.00    -0.181 SA
HETATM    4  H12 UNL     1     -33.577  16.683  -0.957  1.00 20.00     0.101 HD
ENDBRANCH   2   3
ENDBRANCH   1   2
BRANCH   1   5
HETATM    5  C2  UNL     1     -33.961  15.963  -5.682  1.00 20.00     0.130 C 
HETATM    6 CL6  UNL     1     -34.319  14.923  -7.085  1.00 20.00    -0.129 Cl
ENDBRANCH   1   5
BRANCH   1   7
HETATM    7  S5  UNL     1     -34.561  13.526  -4.593  1.00 20.00    -0.176 SA
HETATM    8  H13 UNL     1     -35.019  13.278  -3.361  1.00 20.00     0.102 HD
ENDBRANCH   1   7
TORSDOF 4
ENDMDL
