MODEL 1
REMARK VINA RESULT:      -4.6      0.000      0.000
REMARK  2 active torsions:
REMARK  status: ('A' for Active; 'I' for Inactive)
REMARK    1  A    between atoms: C5_5  and  O12_12 
REMARK    2  A    between atoms: C11_11  and  O12_12 
ROOT
HETATM    1  C1  UNL     1     -34.733  17.525  -3.760  1.00 20.00     0.036 C 
HETATM    2  C2  UNL     1     -34.012  15.657  -5.299  1.00 20.00     0.013 C 
HETATM    3  C3  UNL     1     -35.109  15.112  -3.074  1.00 20.00     0.040 C 
HETATM    4  C4  UNL     1     -33.693  17.073  -4.795  1.00 20.00    -0.015 C 
HETATM    5  C5  UNL     1     -34.861  16.545  -2.595  1.00 20.00     0.122 C 
HETATM    6  C6  UNL     1     -34.132  14.610  -4.167  1.00 20.00    -0.045 C 
HETATM    7  C7  UNL     1     -33.641  18.056  -5.964  1.00 20.00     0.010 C 
HETATM    8  C8  UNL     1     -34.693  13.301  -4.761  1.00 20.00     0.015 C 
HETATM    9  C9  UNL     1     -32.744  14.288  -3.579  1.00 20.00     0.015 C 
ENDROOT
BRANCH   5  10
HETATM   10  O12 UNL     1     -33.692  16.587  -1.785  1.00 20.00    -0.386 OA
BRANCH  10  11
HETATM   11  C11 UNL     1     -33.780  17.604  -0.798  1.00 20.00     0.163 C 
HETATM   12  C10 UNL     1     -34.876  17.246   0.183  1.00 20.00     0.033 C 
ENDBRANCH  10  11
ENDBRANCH   5  10
TORSDOF 2
ENDMDL
MODEL 2
REMARK VINA RESULT:      -4.3      2.239      3.770
REMARK  2 active torsions:
REMARK  status: ('A' for Active; 'I' for Inactive)
REMARK    1  A    between atoms: C5_5  and  O12_12 
REMARK    2  A    between atoms: C11_11  and  O12_12 
ROOT
HETATM    1  C1  UNL     1     -36.178  16.999  -2.197  1.00 20.00     0.036 C 
HETATM    2  C2  UNL     1     -33.761  16.324  -2.475  1.00 20.00     0.013 C 
HETATM    3  C3  UNL     1     -35.353  16.169  -4.448  1.00 20.00     0.040 C 
HETATM    4  C4  UNL     1     -34.957  16.368  -1.513  1.00 20.00    -0.015 C 
HETATM    5  C5  UNL     1     -36.548  16.290  -3.499  1.00 20.00     0.122 C 
HETATM    6  C6  UNL     1     -34.063  15.596  -3.806  1.00 20.00    -0.045 C 
HETATM    7  C7  UNL     1     -34.595  17.144  -0.247  1.00 20.00     0.010 C 
HETATM    8  C8  UNL     1     -32.888  15.830  -4.778  1.00 20.00     0.015 C 
HETATM    9  C9  UNL     1     -34.174  14.076  -3.578  1.00 20.00     0.015 C 
ENDROOT
BRANCH   5  10
HETATM   10  O12 UNL     1     -37.077  14.997  -3.223  1.00 20.00    -0.386 OA
BRANCH  10  11
HETATM   11  C11 UNL     1     -38.258  14.748  -3.970  1.00 20.00     0.163 C 
HETATM   12  C10 UNL     1     -39.419  15.459  -3.309  1.00 20.00     0.033 C 
ENDBRANCH  10  11
ENDBRANCH   5  10
TORSDOF 2
ENDMDL
MODEL 3
REMARK VINA RESULT:      -4.3      1.294      3.179
REMARK  2 active torsions:
REMARK  status: ('A' for Active; 'I' for Inactive)
REMARK    1  A    between atoms: C5_5  and  O12_12 
REMARK    2  A    between atoms: C11_11  and  O12_12 
ROOT
HETATM    1  C1  UNL     1     -33.456  15.001  -4.021  1.00 20.00     0.036 C 
HETATM    2  C2  UNL     1     -34.836  15.190  -6.127  1.00 20.00     0.013 C 
HETATM    3  C3  UNL     1     -33.499  17.187  -5.308  1.00 20.00     0.040 C 
HETATM    4  C4  UNL     1     -34.740  14.553  -4.732  1.00 20.00    -0.015 C 
HETATM    5  C5  UNL     1     -33.336  16.522  -3.938  1.00 20.00     0.122 C 
HETATM    6  C6  UNL     1     -34.745  16.733  -6.111  1.00 20.00    -0.045 C 
HETATM    7  C7  UNL     1     -34.788  13.029  -4.838  1.00 20.00     0.010 C 
HETATM    8  C8  UNL     1     -34.601  17.237  -7.562  1.00 20.00     0.015 C 
HETATM    9  C9  UNL     1     -36.039  17.346  -5.539  1.00 20.00     0.015 C 
ENDROOT
BRANCH   5  10
HETATM   10  O12 UNL     1     -34.300  17.044  -3.031  1.00 20.00    -0.386 OA
BRANCH  10  11
HETATM   11  C11 UNL     1     -33.751  17.221  -1.733  1.00 20.00     0.163 C 
HETATM   12  C10 UNL     1     -34.753  16.742  -0.704  1.00 20.00     0.033 C 
ENDBRANCH  10  11
ENDBRANCH   5  10
TORSDOF 2
ENDMDL
MODEL 4
REMARK VINA RESULT:      -4.2      1.531      3.800
REMARK  2 active torsions:
REMARK  status: ('A' for Active; 'I' for Inactive)
REMARK    1  A    between atoms: C5_5  and  O12_12 
REMARK    2  A    between atoms: C11_11  and  O12_12 
ROOT
HETATM    1  C1  UNL     1     -33.753  17.238  -3.323  1.00 20.00     0.036 C 
HETATM    2  C2  UNL     1     -34.713  14.929  -2.967  1.00 20.00     0.013 C 
HETATM    3  C3  UNL     1     -33.897  15.619  -5.271  1.00 20.00     0.040 C 
HETATM    4  C4  UNL     1     -34.787  16.407  -2.551  1.00 20.00    -0.015 C 
HETATM    5  C5  UNL     1     -33.897  17.087  -4.837  1.00 20.00     0.122 C 
HETATM    6  C6  UNL     1     -34.875  14.706  -4.488  1.00 20.00    -0.045 C 
HETATM    7  C7  UNL     1     -34.568  16.548  -1.045  1.00 20.00     0.010 C 
HETATM    8  C8  UNL     1     -34.537  13.235  -4.812  1.00 20.00     0.015 C 
HETATM    9  C9  UNL     1     -36.337  14.945  -4.917  1.00 20.00     0.015 C 
ENDROOT
BRANCH   5  10
HETATM   10  O12 UNL     1     -35.089  17.722  -5.285  1.00 20.00    -0.386 OA
BRANCH  10  11
HETATM   11  C11 UNL     1     -34.949  18.216  -6.609  1.00 20.00     0.163 C 
HETATM   12  C10 UNL     1     -33.697  19.062  -6.690  1.00 20.00     0.033 C 
ENDBRANCH  10  11
ENDBRANCH   5  10
TORSDOF 2
ENDMDL
MODEL 5
REMARK VINA RESULT:      -4.2      2.238      3.318
REMARK  2 active torsions:
REMARK  status: ('A' for Active; 'I' for Inactive)
REMARK    1  A    between atoms: C5_5  and  O12_12 
REMARK    2  A    between atoms: C11_11  and  O12_12 
ROOT
HETATM    1  C1  UNL     1     -36.173  14.913  -5.652  1.00 20.00     0.036 C 
HETATM    2  C2  UNL     1     -33.923  15.874  -5.024  1.00 20.00     0.013 C 
HETATM    3  C3  UNL     1     -34.776  13.785  -3.858  1.00 20.00     0.040 C 
HETATM    4  C4  UNL     1     -35.351  16.200  -5.487  1.00 20.00    -0.015 C 
HETATM    5  C5  UNL     1     -36.188  14.065  -4.381  1.00 20.00     0.122 C 
HETATM    6  C6  UNL     1     -33.869  15.035  -3.726  1.00 20.00    -0.045 C 
HETATM    7  C7  UNL     1     -35.321  16.986  -6.798  1.00 20.00     0.010 C 
HETATM    8  C8  UNL     1     -32.417  14.563  -3.501  1.00 20.00     0.015 C 
HETATM    9  C9  UNL     1     -34.266  15.895  -2.510  1.00 20.00     0.015 C 
ENDROOT
BRANCH   5  10
HETATM   10  O12 UNL     1     -36.958  14.706  -3.370  1.00 20.00    -0.386 OA
BRANCH  10  11
HETATM   11  C11 UNL     1     -38.311  14.867  -3.770  1.00 20.00     0.163 C 
HETATM   12  C10 UNL     1     -38.789  16.242  -3.353  1.00 20.00     0.033 C 
ENDBRANCH  10  11
ENDBRANCH   5  10
TORSDOF 2
ENDMDL
MODEL 6
REMARK VINA RESULT:      -4.2      1.793      4.047
REMARK  2 active torsions:
REMARK  status: ('A' for Active; 'I' for Inactive)
REMARK    1  A    between atoms: C5_5  and  O12_12 
REMARK    2  A    between atoms: C11_11  and  O12_12 
ROOT
HETATM    1  C1  UNL     1     -33.305  16.368  -5.177  1.00 20.00     0.036 C 
HETATM    2  C2  UNL     1     -34.216  17.701  -3.235  1.00 20.00     0.013 C 
HETATM    3  C3  UNL     1     -34.031  15.175  -3.058  1.00 20.00     0.040 C 
HETATM    4  C4  UNL     1     -34.121  17.601  -4.766  1.00 20.00    -0.015 C 
HETATM    5  C5  UNL     1     -33.860  15.076  -4.577  1.00 20.00     0.122 C 
HETATM    6  C6  UNL     1     -34.793  16.432  -2.567  1.00 20.00    -0.045 C 
HETATM    7  C7  UNL     1     -33.498  18.871  -5.345  1.00 20.00     0.010 C 
HETATM    8  C8  UNL     1     -34.608  16.549  -1.039  1.00 20.00     0.015 C 
HETATM    9  C9  UNL     1     -36.306  16.317  -2.839  1.00 20.00     0.015 C 
ENDROOT
BRANCH   5  10
HETATM   10  O12 UNL     1     -35.105  14.746  -5.182  1.00 20.00    -0.386 OA
BRANCH  10  11
HETATM   11  C11 UNL     1     -34.945  14.420  -6.555  1.00 20.00     0.163 C 
HETATM   12  C10 UNL     1     -36.127  14.960  -7.331  1.00 20.00     0.033 C 
ENDBRANCH  10  11
ENDBRANCH   5  10
TORSDOF 2
ENDMDL
MODEL 7
REMARK VINA RESULT:      -4.2      1.317      4.092
REMARK  2 active torsions:
REMARK  status: ('A' for Active; 'I' for Inactive)
REMARK    1  A    between atoms: C5_5  and  O12_12 
REMARK    2  A    between atoms: C11_11  and  O12_12 
ROOT
HETATM    1  C1  UNL     1     -34.659  16.265  -1.511  1.00 20.00     0.036 C 
HETATM    2  C2  UNL     1     -34.446  18.562  -2.538  1.00 20.00     0.013 C 
HETATM    3  C3  UNL     1     -35.676  16.726  -3.789  1.00 20.00     0.040 C 
HETATM    4  C4  UNL     1     -33.765  17.505  -1.655  1.00 20.00    -0.015 C 
HETATM    5  C5  UNL     1     -35.059  15.675  -2.863  1.00 20.00     0.122 C 
HETATM    6  C6  UNL     1     -34.856  18.033  -3.932  1.00 20.00    -0.045 C 
HETATM    7  C7  UNL     1     -33.437  18.089  -0.281  1.00 20.00     0.010 C 
HETATM    8  C8  UNL     1     -35.740  19.092  -4.624  1.00 20.00     0.015 C 
HETATM    9  C9  UNL     1     -33.611  17.825  -4.819  1.00 20.00     0.015 C 
ENDROOT
BRANCH   5  10
HETATM   10  O12 UNL     1     -33.931  15.079  -3.494  1.00 20.00    -0.386 OA
BRANCH  10  11
HETATM   11  C11 UNL     1     -34.064  13.667  -3.569  1.00 20.00     0.163 C 
HETATM   12  C10 UNL     1     -34.755  13.305  -4.866  1.00 20.00     0.033 C 
ENDBRANCH  10  11
ENDBRANCH   5  10
TORSDOF 2
ENDMDL
MODEL 8
REMARK VINA RESULT:      -4.1      1.633      3.018
REMARK  2 active torsions:
REMARK  status: ('A' for Active; 'I' for Inactive)
REMARK    1  A    between atoms: C5_5  and  O12_12 
REMARK    2  A    between atoms: C11_11  and  O12_12 
ROOT
HETATM    1  C1  UNL     1     -32.959  15.682  -4.139  1.00 20.00     0.036 C 
HETATM    2  C2  UNL     1     -34.498  14.167  -5.448  1.00 20.00     0.013 C 
HETATM    3  C3  UNL     1     -34.412  16.649  -5.981  1.00 20.00     0.040 C 
HETATM    4  C4  UNL     1     -33.857  14.439  -4.078  1.00 20.00    -0.015 C 
HETATM    5  C5  UNL     1     -33.704  16.914  -4.649  1.00 20.00     0.122 C 
HETATM    6  C6  UNL     1     -35.288  15.371  -6.011  1.00 20.00    -0.045 C 
HETATM    7  C7  UNL     1     -33.055  13.223  -3.615  1.00 20.00     0.010 C 
HETATM    8  C8  UNL     1     -35.668  15.073  -7.477  1.00 20.00     0.015 C 
HETATM    9  C9  UNL     1     -36.602  15.568  -5.229  1.00 20.00     0.015 C 
ENDROOT
BRANCH   5  10
HETATM   10  O12 UNL     1     -34.649  17.355  -3.681  1.00 20.00    -0.386 OA
BRANCH  10  11
HETATM   11  C11 UNL     1     -34.027  17.631  -2.434  1.00 20.00     0.163 C 
HETATM   12  C10 UNL     1     -34.721  16.837  -1.349  1.00 20.00     0.033 C 
ENDBRANCH  10  11
ENDBRANCH   5  10
TORSDOF 2
ENDMDL
MODEL 9
REMARK VINA RESULT:      -4.1      1.654      2.651
REMARK  2 active torsions:
REMARK  status: ('A' for Active; 'I' for Inactive)
REMARK    1  A    between atoms: C5_5  and  O12_12 
REMARK    2  A    between atoms: C11_11  and  O12_12 
ROOT
HETATM    1  C1  UNL     1     -36.342  15.269  -3.368  1.00 20.00     0.036 C 
HETATM    2  C2  UNL     1     -36.116  16.038  -5.763  1.00 20.00     0.013 C 
HETATM    3  C3  UNL     1     -34.388  14.463  -4.772  1.00 20.00     0.040 C 
HETATM    4  C4  UNL     1     -36.572  16.428  -4.349  1.00 20.00    -0.015 C 
HETATM    5  C5  UNL     1     -34.891  14.790  -3.363  1.00 20.00     0.122 C 
HETATM    6  C6  UNL     1     -34.645  15.565  -5.830  1.00 20.00    -0.045 C 
HETATM    7  C7  UNL     1     -38.046  16.835  -4.357  1.00 20.00     0.010 C 
HETATM    8  C8  UNL     1     -34.379  14.971  -7.230  1.00 20.00     0.015 C 
HETATM    9  C9  UNL     1     -33.685  16.758  -5.648  1.00 20.00     0.015 C 
ENDROOT
BRANCH   5  10
HETATM   10  O12 UNL     1     -34.049  15.772  -2.768  1.00 20.00    -0.386 OA
BRANCH  10  11
HETATM   11  C11 UNL     1     -34.586  16.240  -1.539  1.00 20.00     0.163 C 
HETATM   12  C10 UNL     1     -33.761  17.413  -1.055  1.00 20.00     0.033 C 
ENDBRANCH  10  11
ENDBRANCH   5  10
TORSDOF 2
ENDMDL
