MODEL 1
REMARK VINA RESULT:      -4.2      0.000      0.000
REMARK  4 active torsions:
REMARK  status: ('A' for Active; 'I' for Inactive)
REMARK    1  A    between atoms: C4_4  and  C5_5 
REMARK    2  A    between atoms: C5_5  and  C7_7 
REMARK    3  A    between atoms: C6_6  and  O8_8 
REMARK    4  A    between atoms: C7_7  and  O8_8 
ROOT
HETATM    1  C3  UNL     1     -35.392   5.666   3.319  1.00 20.00     0.039 C 
HETATM    2  C7  UNL     1     -34.110   5.996   4.073  1.00 20.00     0.117 C 
ENDROOT
BRANCH   2   3
HETATM    3  C5  UNL     1     -32.888   5.947   3.151  1.00 20.00     0.031 C 
BRANCH   3   4
HETATM    4  C4  UNL     1     -31.983   7.170   3.328  1.00 20.00    -0.002 C 
HETATM    5  C1  UNL     1     -32.103   8.123   2.150  1.00 20.00     0.005 C 
ENDBRANCH   3   4
ENDBRANCH   2   3
BRANCH   2   6
HETATM    6  O8  UNL     1     -33.957   5.067   5.142  1.00 20.00    -0.387 OA
BRANCH   6   7
HETATM    7  C6  UNL     1     -34.464   5.590   6.360  1.00 20.00     0.163 C 
HETATM    8  C2  UNL     1     -33.819   6.934   6.626  1.00 20.00     0.033 C 
ENDBRANCH   6   7
ENDBRANCH   2   6
TORSDOF 4
ENDMDL
MODEL 2
REMARK VINA RESULT:      -4.2      1.158      3.642
REMARK  4 active torsions:
REMARK  status: ('A' for Active; 'I' for Inactive)
REMARK    1  A    between atoms: C4_4  and  C5_5 
REMARK    2  A    between atoms: C5_5  and  C7_7 
REMARK    3  A    between atoms: C6_6  and  O8_8 
REMARK    4  A    between atoms: C7_7  and  O8_8 
ROOT
HETATM    1  C3  UNL     1     -35.572   5.806   3.276  1.00 20.00     0.039 C 
HETATM    2  C7  UNL     1     -34.183   5.531   3.836  1.00 20.00     0.117 C 
ENDROOT
BRANCH   2   3
HETATM    3  C5  UNL     1     -33.937   6.306   5.135  1.00 20.00     0.031 C 
BRANCH   3   4
HETATM    4  C4  UNL     1     -34.497   5.574   6.357  1.00 20.00    -0.002 C 
HETATM    5  C1  UNL     1     -34.831   4.126   6.032  1.00 20.00     0.005 C 
ENDBRANCH   3   4
ENDBRANCH   2   3
BRANCH   2   6
HETATM    6  O8  UNL     1     -33.215   5.896   2.856  1.00 20.00    -0.387 OA
BRANCH   6   7
HETATM    7  C6  UNL     1     -32.283   6.834   3.372  1.00 20.00     0.163 C 
HETATM    8  C2  UNL     1     -32.061   7.924   2.346  1.00 20.00     0.033 C 
ENDBRANCH   6   7
ENDBRANCH   2   6
TORSDOF 4
ENDMDL
MODEL 3
REMARK VINA RESULT:      -4.0      1.338      1.414
REMARK  4 active torsions:
REMARK  status: ('A' for Active; 'I' for Inactive)
REMARK    1  A    between atoms: C4_4  and  C5_5 
REMARK    2  A    between atoms: C5_5  and  C7_7 
REMARK    3  A    between atoms: C6_6  and  O8_8 
REMARK    4  A    between atoms: C7_7  and  O8_8 
ROOT
HETATM    1  C3  UNL     1     -34.437   5.334   2.650  1.00 20.00     0.039 C 
HETATM    2  C7  UNL     1     -33.735   6.328   3.565  1.00 20.00     0.117 C 
ENDROOT
BRANCH   2   3
HETATM    3  C5  UNL     1     -32.215   6.294   3.371  1.00 20.00     0.031 C 
BRANCH   3   4
HETATM    4  C4  UNL     1     -31.626   7.695   3.187  1.00 20.00    -0.002 C 
HETATM    5  C1  UNL     1     -32.051   8.305   1.861  1.00 20.00     0.005 C 
ENDBRANCH   3   4
ENDBRANCH   2   3
BRANCH   2   6
HETATM    6  O8  UNL     1     -34.065   6.018   4.916  1.00 20.00    -0.387 OA
BRANCH   6   7
HETATM    7  C6  UNL     1     -35.134   5.088   4.988  1.00 20.00     0.163 C 
HETATM    8  C2  UNL     1     -34.868   4.117   6.117  1.00 20.00     0.033 C 
ENDBRANCH   6   7
ENDBRANCH   2   6
TORSDOF 4
ENDMDL
MODEL 4
REMARK VINA RESULT:      -4.0      1.659      4.105
REMARK  4 active torsions:
REMARK  status: ('A' for Active; 'I' for Inactive)
REMARK    1  A    between atoms: C4_4  and  C5_5 
REMARK    2  A    between atoms: C5_5  and  C7_7 
REMARK    3  A    between atoms: C6_6  and  O8_8 
REMARK    4  A    between atoms: C7_7  and  O8_8 
ROOT
HETATM    1  C3  UNL     1     -33.920   5.354   2.592  1.00 20.00     0.039 C 
HETATM    2  C7  UNL     1     -33.194   6.189   3.639  1.00 20.00     0.117 C 
ENDROOT
BRANCH   2   3
HETATM    3  C5  UNL     1     -33.935   6.179   4.980  1.00 20.00     0.031 C 
BRANCH   3   4
HETATM    4  C4  UNL     1     -35.110   5.196   4.981  1.00 20.00    -0.002 C 
HETATM    5  C1  UNL     1     -34.864   4.038   5.934  1.00 20.00     0.005 C 
ENDBRANCH   3   4
ENDBRANCH   2   3
BRANCH   2   6
HETATM    6  O8  UNL     1     -33.074   7.524   3.155  1.00 20.00    -0.387 OA
BRANCH   6   7
HETATM    7  C6  UNL     1     -31.862   7.709   2.440  1.00 20.00     0.163 C 
HETATM    8  C2  UNL     1     -32.081   8.742   1.356  1.00 20.00     0.033 C 
ENDBRANCH   6   7
ENDBRANCH   2   6
TORSDOF 4
ENDMDL
MODEL 5
REMARK VINA RESULT:      -3.8      1.537      4.003
REMARK  4 active torsions:
REMARK  status: ('A' for Active; 'I' for Inactive)
REMARK    1  A    between atoms: C4_4  and  C5_5 
REMARK    2  A    between atoms: C5_5  and  C7_7 
REMARK    3  A    between atoms: C6_6  and  O8_8 
REMARK    4  A    between atoms: C7_7  and  O8_8 
ROOT
HETATM    1  C3  UNL     1     -33.469   6.811   5.163  1.00 20.00     0.039 C 
HETATM    2  C7  UNL     1     -33.706   6.504   3.690  1.00 20.00     0.117 C 
ENDROOT
BRANCH   2   3
HETATM    3  C5  UNL     1     -34.545   5.236   3.508  1.00 20.00     0.031 C 
BRANCH   3   4
HETATM    4  C4  UNL     1     -35.439   4.957   4.719  1.00 20.00    -0.002 C 
HETATM    5  C1  UNL     1     -34.875   3.838   5.580  1.00 20.00     0.005 C 
ENDBRANCH   3   4
ENDBRANCH   2   3
BRANCH   2   6
HETATM    6  O8  UNL     1     -32.444   6.355   3.047  1.00 20.00    -0.387 OA
BRANCH   6   7
HETATM    7  C6  UNL     1     -31.712   7.571   3.052  1.00 20.00     0.163 C 
HETATM    8  C2  UNL     1     -32.046   8.353   1.800  1.00 20.00     0.033 C 
ENDBRANCH   6   7
ENDBRANCH   2   6
TORSDOF 4
ENDMDL
MODEL 6
REMARK VINA RESULT:      -3.5     11.434     12.312
REMARK  4 active torsions:
REMARK  status: ('A' for Active; 'I' for Inactive)
REMARK    1  A    between atoms: C4_4  and  C5_5 
REMARK    2  A    between atoms: C5_5  and  C7_7 
REMARK    3  A    between atoms: C6_6  and  O8_8 
REMARK    4  A    between atoms: C7_7  and  O8_8 
ROOT
HETATM    1  C3  UNL     1     -33.235  16.498  -4.997  1.00 20.00     0.039 C 
HETATM    2  C7  UNL     1     -33.861  15.725  -3.843  1.00 20.00     0.117 C 
ENDROOT
BRANCH   2   3
HETATM    3  C5  UNL     1     -33.634  16.433  -2.503  1.00 20.00     0.031 C 
BRANCH   3   4
HETATM    4  C4  UNL     1     -34.823  16.264  -1.553  1.00 20.00    -0.002 C 
HETATM    5  C1  UNL     1     -34.631  17.065  -0.276  1.00 20.00     0.005 C 
ENDBRANCH   3   4
ENDBRANCH   2   3
BRANCH   2   6
HETATM    6  O8  UNL     1     -33.295  14.418  -3.809  1.00 20.00    -0.387 OA
BRANCH   6   7
HETATM    7  C6  UNL     1     -34.072  13.497  -4.558  1.00 20.00     0.163 C 
HETATM    8  C2  UNL     1     -35.529  13.660  -4.181  1.00 20.00     0.033 C 
ENDBRANCH   6   7
ENDBRANCH   2   6
TORSDOF 4
ENDMDL
MODEL 7
REMARK VINA RESULT:      -3.4      1.291      2.395
REMARK  4 active torsions:
REMARK  status: ('A' for Active; 'I' for Inactive)
REMARK    1  A    between atoms: C4_4  and  C5_5 
REMARK    2  A    between atoms: C5_5  and  C7_7 
REMARK    3  A    between atoms: C6_6  and  O8_8 
REMARK    4  A    between atoms: C7_7  and  O8_8 
ROOT
HETATM    1  C3  UNL     1     -33.387   7.370   6.719  1.00 20.00     0.039 C 
HETATM    2  C7  UNL     1     -33.718   6.242   5.751  1.00 20.00     0.117 C 
ENDROOT
BRANCH   2   3
HETATM    3  C5  UNL     1     -33.839   6.753   4.312  1.00 20.00     0.031 C 
BRANCH   3   4
HETATM    4  C4  UNL     1     -32.628   6.365   3.459  1.00 20.00    -0.002 C 
HETATM    5  C1  UNL     1     -32.138   7.537   2.625  1.00 20.00     0.005 C 
ENDBRANCH   3   4
ENDBRANCH   2   3
BRANCH   2   6
HETATM    6  O8  UNL     1     -34.940   5.633   6.160  1.00 20.00    -0.387 OA
BRANCH   6   7
HETATM    7  C6  UNL     1     -34.853   4.217   6.119  1.00 20.00     0.163 C 
HETATM    8  C2  UNL     1     -35.067   3.750   4.695  1.00 20.00     0.033 C 
ENDBRANCH   6   7
ENDBRANCH   2   6
TORSDOF 4
ENDMDL
MODEL 8
REMARK VINA RESULT:      -3.4     11.317     12.728
REMARK  4 active torsions:
REMARK  status: ('A' for Active; 'I' for Inactive)
REMARK    1  A    between atoms: C4_4  and  C5_5 
REMARK    2  A    between atoms: C5_5  and  C7_7 
REMARK    3  A    between atoms: C6_6  and  O8_8 
REMARK    4  A    between atoms: C7_7  and  O8_8 
ROOT
HETATM    1  C3  UNL     1     -33.367  13.677  -3.730  1.00 20.00     0.039 C 
HETATM    2  C7  UNL     1     -33.752  15.059  -4.241  1.00 20.00     0.117 C 
ENDROOT
BRANCH   2   3
HETATM    3  C5  UNL     1     -33.700  16.106  -3.123  1.00 20.00     0.031 C 
BRANCH   3   4
HETATM    4  C4  UNL     1     -34.837  15.927  -2.114  1.00 20.00    -0.002 C 
HETATM    5  C1  UNL     1     -34.557  16.679  -0.823  1.00 20.00     0.005 C 
ENDBRANCH   3   4
ENDBRANCH   2   3
BRANCH   2   6
HETATM    6  O8  UNL     1     -35.064  14.993  -4.791  1.00 20.00    -0.387 OA
BRANCH   6   7
HETATM    7  C6  UNL     1     -35.082  14.252  -6.002  1.00 20.00     0.163 C 
HETATM    8  C2  UNL     1     -34.389  15.055  -7.081  1.00 20.00     0.033 C 
ENDBRANCH   6   7
ENDBRANCH   2   6
TORSDOF 4
ENDMDL
MODEL 9
REMARK VINA RESULT:      -3.3     11.580     13.048
REMARK  4 active torsions:
REMARK  status: ('A' for Active; 'I' for Inactive)
REMARK    1  A    between atoms: C4_4  and  C5_5 
REMARK    2  A    between atoms: C5_5  and  C7_7 
REMARK    3  A    between atoms: C6_6  and  O8_8 
REMARK    4  A    between atoms: C7_7  and  O8_8 
ROOT
HETATM    1  C3  UNL     1     -33.571  13.920  -3.803  1.00 20.00     0.039 C 
HETATM    2  C7  UNL     1     -33.307  15.369  -3.415  1.00 20.00     0.117 C 
ENDROOT
BRANCH   2   3
HETATM    3  C5  UNL     1     -34.587  16.067  -2.945  1.00 20.00     0.031 C 
BRANCH   3   4
HETATM    4  C4  UNL     1     -34.586  16.318  -1.435  1.00 20.00    -0.002 C 
HETATM    5  C1  UNL     1     -33.662  17.467  -1.064  1.00 20.00     0.005 C 
ENDBRANCH   3   4
ENDBRANCH   2   3
BRANCH   2   6
HETATM    6  O8  UNL     1     -32.760  16.050  -4.541  1.00 20.00    -0.387 OA
BRANCH   6   7
HETATM    7  C6  UNL     1     -33.708  16.932  -5.122  1.00 20.00     0.163 C 
HETATM    8  C2  UNL     1     -34.063  16.431  -6.506  1.00 20.00     0.033 C 
ENDBRANCH   6   7
ENDBRANCH   2   6
TORSDOF 4
ENDMDL
