MODEL 1
REMARK VINA RESULT:      -4.3      0.000      0.000
REMARK  2 active torsions:
REMARK  status: ('A' for Active; 'I' for Inactive)
REMARK    1  A    between atoms: C1_1  and  C4_4 
REMARK    2  A    between atoms: C4_4  and  C5_5 
ROOT
HETATM    1  C1  UNL     1     -33.347   6.593   3.480  1.00 20.00     0.244 A 
HETATM    2  C3  UNL     1     -31.980   8.057   2.109  1.00 20.00     0.147 C 
HETATM    3  N6  UNL     1     -32.117   7.362   3.383  1.00 20.00    -0.168 NA
HETATM    4  O7  UNL     1     -32.149   5.954   3.031  1.00 20.00    -0.279 OA
ENDROOT
BRANCH   1   5
HETATM    5  C4  UNL     1     -33.828   6.144   4.811  1.00 20.00     0.051 C 
BRANCH   5   6
HETATM    6  C5  UNL     1     -34.915   5.078   4.682  1.00 20.00    -0.001 C 
HETATM    7  C2  UNL     1     -35.064   4.277   5.966  1.00 20.00     0.005 C 
ENDBRANCH   5   6
ENDBRANCH   1   5
TORSDOF 2
ENDMDL
MODEL 2
REMARK VINA RESULT:      -4.3      1.403      1.783
REMARK  2 active torsions:
REMARK  status: ('A' for Active; 'I' for Inactive)
REMARK    1  A    between atoms: C1_1  and  C4_4 
REMARK    2  A    between atoms: C4_4  and  C5_5 
ROOT
HETATM    1  C1  UNL     1     -34.231   5.927   3.961  1.00 20.00     0.244 A 
HETATM    2  C3  UNL     1     -32.353   7.069   2.932  1.00 20.00     0.147 C 
HETATM    3  N6  UNL     1     -32.879   5.808   3.441  1.00 20.00    -0.168 NA
HETATM    4  O7  UNL     1     -34.030   5.527   2.603  1.00 20.00    -0.279 OA
ENDROOT
BRANCH   1   5
HETATM    5  C4  UNL     1     -34.772   4.865   4.846  1.00 20.00     0.051 C 
BRANCH   5   6
HETATM    6  C5  UNL     1     -34.746   5.293   6.313  1.00 20.00    -0.001 C 
HETATM    7  C2  UNL     1     -34.000   6.605   6.497  1.00 20.00     0.005 C 
ENDBRANCH   5   6
ENDBRANCH   1   5
TORSDOF 2
ENDMDL
MODEL 3
REMARK VINA RESULT:      -3.9      1.084      1.183
REMARK  2 active torsions:
REMARK  status: ('A' for Active; 'I' for Inactive)
REMARK    1  A    between atoms: C1_1  and  C4_4 
REMARK    2  A    between atoms: C4_4  and  C5_5 
ROOT
HETATM    1  C1  UNL     1     -32.567   6.796   3.005  1.00 20.00     0.244 A 
HETATM    2  C3  UNL     1     -31.853   8.416   1.345  1.00 20.00     0.147 C 
HETATM    3  N6  UNL     1     -32.440   8.203   2.662  1.00 20.00    -0.168 NA
HETATM    4  O7  UNL     1     -31.405   7.521   3.417  1.00 20.00    -0.279 OA
ENDROOT
BRANCH   1   5
HETATM    5  C4  UNL     1     -33.470   6.390   4.111  1.00 20.00     0.051 C 
BRANCH   5   6
HETATM    6  C5  UNL     1     -34.572   5.454   3.619  1.00 20.00    -0.001 C 
HETATM    7  C2  UNL     1     -35.220   4.702   4.771  1.00 20.00     0.005 C 
ENDBRANCH   5   6
ENDBRANCH   1   5
TORSDOF 2
ENDMDL
MODEL 4
REMARK VINA RESULT:      -3.8      2.115      4.170
REMARK  2 active torsions:
REMARK  status: ('A' for Active; 'I' for Inactive)
REMARK    1  A    between atoms: C1_1  and  C4_4 
REMARK    2  A    between atoms: C4_4  and  C5_5 
ROOT
HETATM    1  C1  UNL     1     -34.114   5.479   4.144  1.00 20.00     0.244 A 
HETATM    2  C3  UNL     1     -34.909   3.965   5.866  1.00 20.00     0.147 C 
HETATM    3  N6  UNL     1     -34.889   5.333   5.365  1.00 20.00    -0.168 NA
HETATM    4  O7  UNL     1     -35.524   5.255   4.062  1.00 20.00    -0.279 OA
ENDROOT
BRANCH   1   5
HETATM    5  C4  UNL     1     -33.674   6.829   3.711  1.00 20.00     0.051 C 
BRANCH   5   6
HETATM    6  C5  UNL     1     -32.286   6.788   3.074  1.00 20.00    -0.001 C 
HETATM    7  C2  UNL     1     -32.036   8.009   2.204  1.00 20.00     0.005 C 
ENDBRANCH   5   6
ENDBRANCH   1   5
TORSDOF 2
ENDMDL
MODEL 5
REMARK VINA RESULT:      -3.8      1.835      4.033
REMARK  2 active torsions:
REMARK  status: ('A' for Active; 'I' for Inactive)
REMARK    1  A    between atoms: C1_1  and  C4_4 
REMARK    2  A    between atoms: C4_4  and  C5_5 
ROOT
HETATM    1  C1  UNL     1     -34.117   6.009   4.125  1.00 20.00     0.244 A 
HETATM    2  C3  UNL     1     -35.178   4.855   5.978  1.00 20.00     0.147 C 
HETATM    3  N6  UNL     1     -33.951   5.068   5.220  1.00 20.00    -0.168 NA
HETATM    4  O7  UNL     1     -33.652   6.477   5.394  1.00 20.00    -0.279 OA
ENDROOT
BRANCH   1   5
HETATM    5  C4  UNL     1     -33.106   6.057   3.039  1.00 20.00     0.051 C 
BRANCH   5   6
HETATM    6  C5  UNL     1     -32.091   7.176   3.268  1.00 20.00    -0.001 C 
HETATM    7  C2  UNL     1     -32.077   8.160   2.108  1.00 20.00     0.005 C 
ENDBRANCH   5   6
ENDBRANCH   1   5
TORSDOF 2
ENDMDL
MODEL 6
REMARK VINA RESULT:      -3.4     11.341     11.655
REMARK  2 active torsions:
REMARK  status: ('A' for Active; 'I' for Inactive)
REMARK    1  A    between atoms: C1_1  and  C4_4 
REMARK    2  A    between atoms: C4_4  and  C5_5 
ROOT
HETATM    1  C1  UNL     1     -34.555  14.696  -3.360  1.00 20.00     0.244 A 
HETATM    2  C3  UNL     1     -34.940  13.421  -5.389  1.00 20.00     0.147 C 
HETATM    3  N6  UNL     1     -33.977  14.157  -4.580  1.00 20.00    -0.168 NA
HETATM    4  O7  UNL     1     -33.909  13.420  -3.331  1.00 20.00    -0.279 OA
ENDROOT
BRANCH   1   5
HETATM    5  C4  UNL     1     -33.842  15.769  -2.622  1.00 20.00     0.051 C 
BRANCH   5   6
HETATM    6  C5  UNL     1     -34.696  16.329  -1.487  1.00 20.00    -0.001 C 
HETATM    7  C2  UNL     1     -33.956  17.409  -0.713  1.00 20.00     0.005 C 
ENDBRANCH   5   6
ENDBRANCH   1   5
TORSDOF 2
ENDMDL
MODEL 7
REMARK VINA RESULT:      -3.2      2.442      3.504
REMARK  2 active torsions:
REMARK  status: ('A' for Active; 'I' for Inactive)
REMARK    1  A    between atoms: C1_1  and  C4_4 
REMARK    2  A    between atoms: C4_4  and  C5_5 
ROOT
HETATM    1  C1  UNL     1     -33.997   5.579   5.259  1.00 20.00     0.244 A 
HETATM    2  C3  UNL     1     -33.302   7.217   6.909  1.00 20.00     0.147 C 
HETATM    3  N6  UNL     1     -34.404   6.672   6.127  1.00 20.00    -0.168 NA
HETATM    4  O7  UNL     1     -34.513   5.291   6.561  1.00 20.00    -0.279 OA
ENDROOT
BRANCH   1   5
HETATM    5  C4  UNL     1     -34.878   5.166   4.137  1.00 20.00     0.051 C 
BRANCH   5   6
HETATM    6  C5  UNL     1     -34.221   5.432   2.783  1.00 20.00    -0.001 C 
HETATM    7  C2  UNL     1     -32.892   6.152   2.941  1.00 20.00     0.005 C 
ENDBRANCH   5   6
ENDBRANCH   1   5
TORSDOF 2
ENDMDL
MODEL 8
REMARK VINA RESULT:      -3.2     11.527     12.299
REMARK  2 active torsions:
REMARK  status: ('A' for Active; 'I' for Inactive)
REMARK    1  A    between atoms: C1_1  and  C4_4 
REMARK    2  A    between atoms: C4_4  and  C5_5 
ROOT
HETATM    1  C1  UNL     1     -36.044  14.503  -3.866  1.00 20.00     0.244 A 
HETATM    2  C3  UNL     1     -37.508  16.340  -4.476  1.00 20.00     0.147 C 
HETATM    3  N6  UNL     1     -36.978  15.033  -4.845  1.00 20.00    -0.168 NA
HETATM    4  O7  UNL     1     -37.426  14.145  -3.789  1.00 20.00    -0.279 OA
ENDROOT
BRANCH   1   5
HETATM    5  C4  UNL     1     -35.136  13.392  -4.246  1.00 20.00     0.051 C 
BRANCH   5   6
HETATM    6  C5  UNL     1     -33.696  13.678  -3.823  1.00 20.00    -0.001 C 
HETATM    7  C2  UNL     1     -33.405  15.170  -3.807  1.00 20.00     0.005 C 
ENDBRANCH   5   6
ENDBRANCH   1   5
TORSDOF 2
ENDMDL
MODEL 9
REMARK VINA RESULT:      -3.2     12.166     12.750
REMARK  2 active torsions:
REMARK  status: ('A' for Active; 'I' for Inactive)
REMARK    1  A    between atoms: C1_1  and  C4_4 
REMARK    2  A    between atoms: C4_4  and  C5_5 
ROOT
HETATM    1  C1  UNL     1     -33.807  16.117  -3.818  1.00 20.00     0.244 A 
HETATM    2  C3  UNL     1     -34.093  16.203  -6.227  1.00 20.00     0.147 C 
HETATM    3  N6  UNL     1     -33.568  16.867  -5.040  1.00 20.00    -0.168 NA
HETATM    4  O7  UNL     1     -32.571  15.951  -4.518  1.00 20.00    -0.279 OA
ENDROOT
BRANCH   1   5
HETATM    5  C4  UNL     1     -33.690  16.798  -2.504  1.00 20.00     0.051 C 
BRANCH   5   6
HETATM    6  C5  UNL     1     -34.723  16.274  -1.508  1.00 20.00    -0.001 C 
HETATM    7  C2  UNL     1     -34.709  17.077  -0.217  1.00 20.00     0.005 C 
ENDBRANCH   5   6
ENDBRANCH   1   5
TORSDOF 2
ENDMDL
