MODEL 1
REMARK VINA RESULT:      -2.7      0.000      0.000
REMARK  1 active torsions:
REMARK  status: ('A' for Active; 'I' for Inactive)
REMARK       I    between atoms: C1_1  and  N3_3 
REMARK    1  A    between atoms: C1_1  and  S5_5 
ROOT
HETATM    1  C1  UNL     1     -34.375   5.632   4.361  1.00 20.00     0.276 C 
HETATM    2  C2  UNL     1     -32.628   6.816   3.052  1.00 20.00     0.150 C 
HETATM    3  N3  UNL     1     -33.161   6.273   4.279  1.00 20.00    -0.356 N 
HETATM    4  O4  UNL     1     -35.171   5.422   3.456  1.00 20.00    -0.261 OA
HETATM    5  H9  UNL     1     -32.614   6.380   5.128  1.00 20.00     0.162 HD
ENDROOT
BRANCH   1   6
HETATM    6  S5  UNL     1     -34.692   5.111   6.008  1.00 20.00    -0.082 SA
HETATM    7  H10 UNL     1     -34.710   6.332   6.563  1.00 20.00     0.112 HD
ENDBRANCH   1   6
TORSDOF 1
ENDMDL
MODEL 2
REMARK VINA RESULT:      -2.7      2.060      2.608
REMARK  1 active torsions:
REMARK  status: ('A' for Active; 'I' for Inactive)
REMARK       I    between atoms: C1_1  and  N3_3 
REMARK    1  A    between atoms: C1_1  and  S5_5 
ROOT
HETATM    1  C1  UNL     1     -33.905   5.915   3.963  1.00 20.00     0.276 C 
HETATM    2  C2  UNL     1     -34.721   5.450   6.262  1.00 20.00     0.150 C 
HETATM    3  N3  UNL     1     -33.785   6.030   5.328  1.00 20.00    -0.356 N 
HETATM    4  O4  UNL     1     -34.779   5.332   3.337  1.00 20.00    -0.261 OA
HETATM    5  H9  UNL     1     -32.991   6.541   5.701  1.00 20.00     0.162 HD
ENDROOT
BRANCH   1   6
HETATM    6  S5  UNL     1     -32.585   6.743   3.152  1.00 20.00    -0.082 SA
HETATM    7  H10 UNL     1     -31.877   7.035   4.253  1.00 20.00     0.112 HD
ENDBRANCH   1   6
TORSDOF 1
ENDMDL
MODEL 3
REMARK VINA RESULT:      -2.6     12.433     12.540
REMARK  1 active torsions:
REMARK  status: ('A' for Active; 'I' for Inactive)
REMARK       I    between atoms: C1_1  and  N3_3 
REMARK    1  A    between atoms: C1_1  and  S5_5 
ROOT
HETATM    1  C1  UNL     1     -34.551  13.811  -5.239  1.00 20.00     0.276 C 
HETATM    2  C2  UNL     1     -32.832  14.566  -3.613  1.00 20.00     0.150 C 
HETATM    3  N3  UNL     1     -33.647  14.746  -4.791  1.00 20.00    -0.356 N 
HETATM    4  O4  UNL     1     -34.807  12.722  -4.744  1.00 20.00    -0.261 OA
HETATM    5  H9  UNL     1     -33.538  15.605  -5.322  1.00 20.00     0.162 HD
ENDROOT
BRANCH   1   6
HETATM    6  S5  UNL     1     -35.354  14.373  -6.697  1.00 20.00    -0.082 SA
HETATM    7  H10 UNL     1     -35.722  13.166  -7.153  1.00 20.00     0.112 HD
ENDBRANCH   1   6
TORSDOF 1
ENDMDL
MODEL 4
REMARK VINA RESULT:      -2.6     12.200     12.501
REMARK  1 active torsions:
REMARK  status: ('A' for Active; 'I' for Inactive)
REMARK       I    between atoms: C1_1  and  N3_3 
REMARK    1  A    between atoms: C1_1  and  S5_5 
ROOT
HETATM    1  C1  UNL     1     -34.308  13.658  -4.811  1.00 20.00     0.276 C 
HETATM    2  C2  UNL     1     -35.193  14.284  -7.046  1.00 20.00     0.150 C 
HETATM    3  N3  UNL     1     -34.334  14.492  -5.904  1.00 20.00    -0.356 N 
HETATM    4  O4  UNL     1     -34.973  12.648  -4.627  1.00 20.00    -0.261 OA
HETATM    5  H9  UNL     1     -33.725  15.304  -5.905  1.00 20.00     0.162 HD
ENDROOT
BRANCH   1   6
HETATM    6  S5  UNL     1     -33.147  14.227  -3.623  1.00 20.00    -0.082 SA
HETATM    7  H10 UNL     1     -33.577  15.496  -3.572  1.00 20.00     0.112 HD
ENDBRANCH   1   6
TORSDOF 1
ENDMDL
MODEL 5
REMARK VINA RESULT:      -2.5     11.699     11.930
REMARK  1 active torsions:
REMARK  status: ('A' for Active; 'I' for Inactive)
REMARK       I    between atoms: C1_1  and  N3_3 
REMARK    1  A    between atoms: C1_1  and  S5_5 
ROOT
HETATM    1  C1  UNL     1     -34.917  13.831  -4.006  1.00 20.00     0.276 C 
HETATM    2  C2  UNL     1     -37.277  14.605  -3.966  1.00 20.00     0.150 C 
HETATM    3  N3  UNL     1     -35.858  14.814  -3.801  1.00 20.00    -0.356 N 
HETATM    4  O4  UNL     1     -35.110  12.672  -4.345  1.00 20.00    -0.261 OA
HETATM    5  H9  UNL     1     -35.540  15.733  -3.509  1.00 20.00     0.162 HD
ENDROOT
BRANCH   1   6
HETATM    6  S5  UNL     1     -33.300  14.449  -3.710  1.00 20.00    -0.082 SA
HETATM    7  H10 UNL     1     -33.078  14.918  -4.946  1.00 20.00     0.112 HD
ENDBRANCH   1   6
TORSDOF 1
ENDMDL
MODEL 6
REMARK VINA RESULT:      -2.3      9.819     10.008
REMARK  1 active torsions:
REMARK  status: ('A' for Active; 'I' for Inactive)
REMARK       I    between atoms: C1_1  and  N3_3 
REMARK    1  A    between atoms: C1_1  and  S5_5 
ROOT
HETATM    1  C1  UNL     1     -41.542   4.941  -1.850  1.00 20.00     0.276 C 
HETATM    2  C2  UNL     1     -41.594   2.763  -3.043  1.00 20.00     0.150 C 
HETATM    3  N3  UNL     1     -41.168   3.622  -1.964  1.00 20.00    -0.356 N 
HETATM    4  O4  UNL     1     -42.264   5.580  -2.604  1.00 20.00    -0.261 OA
HETATM    5  H9  UNL     1     -40.550   3.234  -1.258  1.00 20.00     0.162 HD
ENDROOT
BRANCH   1   6
HETATM    6  S5  UNL     1     -40.831   5.667  -0.418  1.00 20.00    -0.082 SA
HETATM    7  H10 UNL     1     -40.171   4.578   0.004  1.00 20.00     0.112 HD
ENDBRANCH   1   6
TORSDOF 1
ENDMDL
MODEL 7
REMARK VINA RESULT:      -2.3     10.256     10.416
REMARK  1 active torsions:
REMARK  status: ('A' for Active; 'I' for Inactive)
REMARK       I    between atoms: C1_1  and  N3_3 
REMARK    1  A    between atoms: C1_1  and  S5_5 
ROOT
HETATM    1  C1  UNL     1     -41.894   3.683  -2.622  1.00 20.00     0.276 C 
HETATM    2  C2  UNL     1     -40.783   4.985  -0.821  1.00 20.00     0.150 C 
HETATM    3  N3  UNL     1     -40.947   3.800  -1.630  1.00 20.00    -0.356 N 
HETATM    4  O4  UNL     1     -42.717   4.517  -2.970  1.00 20.00    -0.261 OA
HETATM    5  H9  UNL     1     -40.337   3.009  -1.450  1.00 20.00     0.162 HD
ENDROOT
BRANCH   1   6
HETATM    6  S5  UNL     1     -41.798   2.105  -3.388  1.00 20.00    -0.082 SA
HETATM    7  H10 UNL     1     -40.586   2.268  -3.940  1.00 20.00     0.112 HD
ENDBRANCH   1   6
TORSDOF 1
ENDMDL
MODEL 8
REMARK VINA RESULT:      -2.2     12.207     12.405
REMARK  1 active torsions:
REMARK  status: ('A' for Active; 'I' for Inactive)
REMARK       I    between atoms: C1_1  and  N3_3 
REMARK    1  A    between atoms: C1_1  and  S5_5 
ROOT
HETATM    1  C1  UNL     1     -36.976  14.940  -3.732  1.00 20.00     0.276 C 
HETATM    2  C2  UNL     1     -35.151  13.344  -4.269  1.00 20.00     0.150 C 
HETATM    3  N3  UNL     1     -35.648  14.663  -3.961  1.00 20.00    -0.356 N 
HETATM    4  O4  UNL     1     -37.916  14.157  -3.750  1.00 20.00    -0.261 OA
HETATM    5  H9  UNL     1     -34.983  15.429  -3.921  1.00 20.00     0.162 HD
ENDROOT
BRANCH   1   6
HETATM    6  S5  UNL     1     -37.205  16.647  -3.390  1.00 20.00    -0.082 SA
HETATM    7  H10 UNL     1     -38.545  16.624  -3.342  1.00 20.00     0.112 HD
ENDBRANCH   1   6
TORSDOF 1
ENDMDL
MODEL 9
REMARK VINA RESULT:      -2.2      2.174      2.391
REMARK  1 active torsions:
REMARK  status: ('A' for Active; 'I' for Inactive)
REMARK       I    between atoms: C1_1  and  N3_3 
REMARK    1  A    between atoms: C1_1  and  S5_5 
ROOT
HETATM    1  C1  UNL     1     -34.034   6.008   4.935  1.00 20.00     0.276 C 
HETATM    2  C2  UNL     1     -33.327   7.386   6.877  1.00 20.00     0.150 C 
HETATM    3  N3  UNL     1     -34.141   6.366   6.259  1.00 20.00    -0.356 N 
HETATM    4  O4  UNL     1     -33.271   6.468   4.097  1.00 20.00    -0.261 OA
HETATM    5  H9  UNL     1     -34.836   5.895   6.831  1.00 20.00     0.162 HD
ENDROOT
BRANCH   1   6
HETATM    6  S5  UNL     1     -35.182   4.739   4.541  1.00 20.00    -0.082 SA
HETATM    7  H10 UNL     1     -34.406   3.704   4.895  1.00 20.00     0.112 HD
ENDBRANCH   1   6
TORSDOF 1
ENDMDL
