MODEL 1
REMARK VINA RESULT:      -4.1      0.000      0.000
REMARK  1 active torsions:
REMARK  status: ('A' for Active; 'I' for Inactive)
REMARK    1  A    between atoms: C7_7  and  O9_9 
ROOT
HETATM    1  C1  UNL     1     -33.473  15.098  -3.620  1.00 20.00    -0.023 C 
HETATM    2  C2  UNL     1     -33.948  15.977  -4.517  1.00 20.00    -0.023 C 
HETATM    3  C3  UNL     1     -34.439  13.179  -4.829  1.00 20.00     0.012 C 
HETATM    4  C4  UNL     1     -34.988  14.195  -5.868  1.00 20.00     0.012 C 
HETATM    5  C5  UNL     1     -34.487  13.983  -3.509  1.00 20.00     0.037 C 
HETATM    6  C6  UNL     1     -35.277  15.443  -5.001  1.00 20.00     0.037 C 
HETATM    7  C7  UNL     1     -35.763  14.817  -3.687  1.00 20.00     0.136 C 
ENDROOT
BRANCH   7   8
HETATM    8  O9  UNL     1     -36.924  14.025  -3.833  1.00 20.00    -0.389 OA
HETATM    9  C8  UNL     1     -38.101  14.823  -3.921  1.00 20.00     0.202 C 
ENDBRANCH   7   8
TORSDOF 1
ENDMDL
MODEL 2
REMARK VINA RESULT:      -3.9      1.677      3.036
REMARK  1 active torsions:
REMARK  status: ('A' for Active; 'I' for Inactive)
REMARK    1  A    between atoms: C7_7  and  O9_9 
ROOT
HETATM    1  C1  UNL     1     -33.595  13.693  -3.805  1.00 20.00    -0.023 C 
HETATM    2  C2  UNL     1     -34.766  13.358  -4.370  1.00 20.00    -0.023 C 
HETATM    3  C3  UNL     1     -34.601  15.585  -2.587  1.00 20.00     0.012 C 
HETATM    4  C4  UNL     1     -35.958  15.197  -3.239  1.00 20.00     0.012 C 
HETATM    5  C5  UNL     1     -33.577  15.200  -3.678  1.00 20.00     0.037 C 
HETATM    6  C6  UNL     1     -35.524  14.642  -4.616  1.00 20.00     0.037 C 
HETATM    7  C7  UNL     1     -34.335  15.545  -4.967  1.00 20.00     0.136 C 
ENDROOT
BRANCH   7   8
HETATM    8  O9  UNL     1     -34.671  16.915  -5.059  1.00 20.00    -0.389 OA
HETATM    9  C8  UNL     1     -33.567  17.703  -5.496  1.00 20.00     0.202 C 
ENDBRANCH   7   8
TORSDOF 1
ENDMDL
MODEL 3
REMARK VINA RESULT:      -3.9      1.856      2.909
REMARK  1 active torsions:
REMARK  status: ('A' for Active; 'I' for Inactive)
REMARK    1  A    between atoms: C7_7  and  O9_9 
ROOT
HETATM    1  C1  UNL     1     -34.807  13.557  -4.086  1.00 20.00    -0.023 C 
HETATM    2  C2  UNL     1     -33.486  13.700  -3.891  1.00 20.00    -0.023 C 
HETATM    3  C3  UNL     1     -35.042  15.868  -4.912  1.00 20.00     0.012 C 
HETATM    4  C4  UNL     1     -33.513  16.033  -4.687  1.00 20.00     0.012 C 
HETATM    5  C5  UNL     1     -35.448  14.893  -3.784  1.00 20.00     0.037 C 
HETATM    6  C6  UNL     1     -33.252  15.130  -3.460  1.00 20.00     0.037 C 
HETATM    7  C7  UNL     1     -34.530  15.330  -2.634  1.00 20.00     0.136 C 
ENDROOT
BRANCH   7   8
HETATM    8  O9  UNL     1     -34.743  16.669  -2.237  1.00 20.00    -0.389 OA
HETATM    9  C8  UNL     1     -34.603  16.833  -0.829  1.00 20.00     0.202 C 
ENDBRANCH   7   8
TORSDOF 1
ENDMDL
MODEL 4
REMARK VINA RESULT:      -3.9      1.762      2.671
REMARK  1 active torsions:
REMARK  status: ('A' for Active; 'I' for Inactive)
REMARK    1  A    between atoms: C7_7  and  O9_9 
ROOT
HETATM    1  C1  UNL     1     -35.664  15.355  -3.042  1.00 20.00    -0.023 C 
HETATM    2  C2  UNL     1     -34.399  15.676  -2.725  1.00 20.00    -0.023 C 
HETATM    3  C3  UNL     1     -34.962  13.295  -4.202  1.00 20.00     0.012 C 
HETATM    4  C4  UNL     1     -33.498  13.666  -3.834  1.00 20.00     0.012 C 
HETATM    5  C5  UNL     1     -35.625  14.678  -4.393  1.00 20.00     0.037 C 
HETATM    6  C6  UNL     1     -33.523  15.212  -3.866  1.00 20.00     0.037 C 
HETATM    7  C7  UNL     1     -34.489  15.495  -5.024  1.00 20.00     0.136 C 
ENDROOT
BRANCH   7   8
HETATM    8  O9  UNL     1     -34.056  14.972  -6.263  1.00 20.00    -0.389 OA
HETATM    9  C8  UNL     1     -34.892  15.394  -7.337  1.00 20.00     0.202 C 
ENDBRANCH   7   8
TORSDOF 1
ENDMDL
MODEL 5
REMARK VINA RESULT:      -3.8     10.579     11.857
REMARK  1 active torsions:
REMARK  status: ('A' for Active; 'I' for Inactive)
REMARK    1  A    between atoms: C7_7  and  O9_9 
ROOT
HETATM    1  C1  UNL     1     -43.262   7.059  -0.890  1.00 20.00    -0.023 C 
HETATM    2  C2  UNL     1     -42.117   7.684  -1.208  1.00 20.00    -0.023 C 
HETATM    3  C3  UNL     1     -42.083   5.346   0.435  1.00 20.00     0.012 C 
HETATM    4  C4  UNL     1     -40.757   6.071   0.068  1.00 20.00     0.012 C 
HETATM    5  C5  UNL     1     -42.955   5.579  -0.819  1.00 20.00     0.037 C 
HETATM    6  C6  UNL     1     -41.053   6.619  -1.347  1.00 20.00     0.037 C 
HETATM    7  C7  UNL     1     -41.921   5.507  -1.949  1.00 20.00     0.136 C 
ENDROOT
BRANCH   7   8
HETATM    8  O9  UNL     1     -41.268   4.256  -2.021  1.00 20.00    -0.389 OA
HETATM    9  C8  UNL     1     -42.035   3.299  -2.747  1.00 20.00     0.202 C 
ENDBRANCH   7   8
TORSDOF 1
ENDMDL
MODEL 6
REMARK VINA RESULT:      -3.8     10.931     12.318
REMARK  1 active torsions:
REMARK  status: ('A' for Active; 'I' for Inactive)
REMARK    1  A    between atoms: C7_7  and  O9_9 
ROOT
HETATM    1  C1  UNL     1     -41.080   6.823  -1.158  1.00 20.00    -0.023 C 
HETATM    2  C2  UNL     1     -40.673   6.136  -0.079  1.00 20.00    -0.023 C 
HETATM    3  C3  UNL     1     -43.355   5.881  -1.031  1.00 20.00     0.012 C 
HETATM    4  C4  UNL     1     -42.884   5.087   0.219  1.00 20.00     0.012 C 
HETATM    5  C5  UNL     1     -42.073   5.950  -1.892  1.00 20.00     0.037 C 
HETATM    6  C6  UNL     1     -41.396   4.809  -0.097  1.00 20.00     0.037 C 
HETATM    7  C7  UNL     1     -41.426   4.587  -1.615  1.00 20.00     0.136 C 
ENDROOT
BRANCH   7   8
HETATM    8  O9  UNL     1     -42.236   3.500  -2.013  1.00 20.00    -0.389 OA
HETATM    9  C8  UNL     1     -41.624   2.731  -3.044  1.00 20.00     0.202 C 
ENDBRANCH   7   8
TORSDOF 1
ENDMDL
MODEL 7
REMARK VINA RESULT:      -3.8      1.705      2.572
REMARK  1 active torsions:
REMARK  status: ('A' for Active; 'I' for Inactive)
REMARK    1  A    between atoms: C7_7  and  O9_9 
ROOT
HETATM    1  C1  UNL     1     -33.668  16.010  -5.336  1.00 20.00    -0.023 C 
HETATM    2  C2  UNL     1     -34.873  15.453  -5.536  1.00 20.00    -0.023 C 
HETATM    3  C3  UNL     1     -33.048  14.319  -3.652  1.00 20.00     0.012 C 
HETATM    4  C4  UNL     1     -34.442  13.673  -3.885  1.00 20.00     0.012 C 
HETATM    5  C5  UNL     1     -33.329  15.822  -3.874  1.00 20.00     0.037 C 
HETATM    6  C6  UNL     1     -35.332  14.897  -4.208  1.00 20.00     0.037 C 
HETATM    7  C7  UNL     1     -34.740  15.976  -3.292  1.00 20.00     0.136 C 
ENDROOT
BRANCH   7   8
HETATM    8  O9  UNL     1     -34.809  15.653  -1.919  1.00 20.00    -0.389 OA
HETATM    9  C8  UNL     1     -34.410  16.746  -1.096  1.00 20.00     0.202 C 
ENDBRANCH   7   8
TORSDOF 1
ENDMDL
MODEL 8
REMARK VINA RESULT:      -3.7      1.428      2.622
REMARK  1 active torsions:
REMARK  status: ('A' for Active; 'I' for Inactive)
REMARK    1  A    between atoms: C7_7  and  O9_9 
ROOT
HETATM    1  C1  UNL     1     -34.792  14.259  -5.687  1.00 20.00    -0.023 C 
HETATM    2  C2  UNL     1     -34.456  13.296  -4.813  1.00 20.00    -0.023 C 
HETATM    3  C3  UNL     1     -33.295  15.900  -4.617  1.00 20.00     0.012 C 
HETATM    4  C4  UNL     1     -32.905  14.786  -3.607  1.00 20.00     0.012 C 
HETATM    5  C5  UNL     1     -34.771  15.570  -4.934  1.00 20.00     0.037 C 
HETATM    6  C6  UNL     1     -34.212  13.969  -3.482  1.00 20.00     0.037 C 
HETATM    7  C7  UNL     1     -35.285  15.062  -3.580  1.00 20.00     0.136 C 
ENDROOT
BRANCH   7   8
HETATM    8  O9  UNL     1     -35.199  16.033  -2.557  1.00 20.00    -0.389 OA
HETATM    9  C8  UNL     1     -36.229  17.011  -2.667  1.00 20.00     0.202 C 
ENDBRANCH   7   8
TORSDOF 1
ENDMDL
MODEL 9
REMARK VINA RESULT:      -3.7     10.813     12.081
REMARK  1 active torsions:
REMARK  status: ('A' for Active; 'I' for Inactive)
REMARK    1  A    between atoms: C7_7  and  O9_9 
ROOT
HETATM    1  C1  UNL     1     -42.850   4.282   0.222  1.00 20.00    -0.023 C 
HETATM    2  C2  UNL     1     -42.853   5.551   0.661  1.00 20.00    -0.023 C 
HETATM    3  C3  UNL     1     -40.748   4.606  -1.026  1.00 20.00     0.012 C 
HETATM    4  C4  UNL     1     -40.751   6.075  -0.517  1.00 20.00     0.012 C 
HETATM    5  C5  UNL     1     -42.255   4.294  -1.168  1.00 20.00     0.037 C 
HETATM    6  C6  UNL     1     -42.260   6.402  -0.438  1.00 20.00     0.037 C 
HETATM    7  C7  UNL     1     -42.819   5.638  -1.645  1.00 20.00     0.136 C 
ENDROOT
BRANCH   7   8
HETATM    8  O9  UNL     1     -42.277   6.057  -2.881  1.00 20.00    -0.389 OA
HETATM    9  C8  UNL     1     -42.927   7.223  -3.378  1.00 20.00     0.202 C 
ENDBRANCH   7   8
TORSDOF 1
ENDMDL
