MODEL 1
REMARK VINA RESULT:      -4.7      0.000      0.000
REMARK  2 active torsions:
REMARK  status: ('A' for Active; 'I' for Inactive)
REMARK    1  A    between atoms: C4_4  and  C8_8 
REMARK    2  A    between atoms: C8_8  and  N9_9 
ROOT
HETATM    1  C1  UNL     1     -35.178   4.268   5.840  1.00 20.00    -0.003 A 
HETATM    2  C2  UNL     1     -35.042   4.745   4.489  1.00 20.00     0.004 A 
HETATM    3  C3  UNL     1     -34.605   5.138   6.684  1.00 20.00    -0.022 A 
HETATM    4  C4  UNL     1     -34.384   5.915   4.491  1.00 20.00    -0.049 A 
HETATM    5  C5  UNL     1     -34.035   6.289   5.907  1.00 20.00     0.063 A 
ENDROOT
BRANCH   4   6
HETATM    6  C8  UNL     1     -34.020   6.765   3.333  1.00 20.00     0.306 C 
BRANCH   6   7
HETATM    7  N9  UNL     1     -32.593   6.950   3.348  1.00 20.00     0.083 N 
HETATM    8  C6  UNL     1     -32.177   7.980   2.384  1.00 20.00     0.309 C 
HETATM    9  C7  UNL     1     -31.889   5.692   3.056  1.00 20.00     0.309 C 
ENDBRANCH   6   7
ENDBRANCH   4   6
TORSDOF 2
ENDMDL
MODEL 2
REMARK VINA RESULT:      -4.7      0.076      1.267
REMARK  2 active torsions:
REMARK  status: ('A' for Active; 'I' for Inactive)
REMARK    1  A    between atoms: C4_4  and  C8_8 
REMARK    2  A    between atoms: C8_8  and  N9_9 
ROOT
HETATM    1  C1  UNL     1     -34.567   5.190   6.673  1.00 20.00    -0.003 A 
HETATM    2  C2  UNL     1     -34.036   6.248   5.854  1.00 20.00     0.004 A 
HETATM    3  C3  UNL     1     -35.182   4.286   5.897  1.00 20.00    -0.022 A 
HETATM    4  C4  UNL     1     -34.322   6.003   4.565  1.00 20.00    -0.049 A 
HETATM    5  C5  UNL     1     -35.090   4.713   4.460  1.00 20.00     0.063 A 
ENDROOT
BRANCH   4   6
HETATM    6  C8  UNL     1     -33.974   6.818   3.377  1.00 20.00     0.306 C 
BRANCH   6   7
HETATM    7  N9  UNL     1     -32.542   6.950   3.332  1.00 20.00     0.083 N 
HETATM    8  C6  UNL     1     -32.131   7.992   2.378  1.00 20.00     0.309 C 
HETATM    9  C7  UNL     1     -31.899   5.676   2.975  1.00 20.00     0.309 C 
ENDBRANCH   6   7
ENDBRANCH   4   6
TORSDOF 2
ENDMDL
MODEL 3
REMARK VINA RESULT:      -3.8     11.595     12.554
REMARK  2 active torsions:
REMARK  status: ('A' for Active; 'I' for Inactive)
REMARK    1  A    between atoms: C4_4  and  C8_8 
REMARK    2  A    between atoms: C8_8  and  N9_9 
ROOT
HETATM    1  C1  UNL     1     -33.320  13.778  -3.847  1.00 20.00    -0.003 A 
HETATM    2  C2  UNL     1     -32.966  15.108  -3.426  1.00 20.00     0.004 A 
HETATM    3  C3  UNL     1     -34.654  13.644  -3.837  1.00 20.00    -0.022 A 
HETATM    4  C4  UNL     1     -34.081  15.804  -3.153  1.00 20.00    -0.049 A 
HETATM    5  C5  UNL     1     -35.285  14.932  -3.390  1.00 20.00     0.063 A 
ENDROOT
BRANCH   4   6
HETATM    6  C8  UNL     1     -34.197  17.207  -2.690  1.00 20.00     0.306 C 
BRANCH   6   7
HETATM    7  N9  UNL     1     -33.682  17.276  -1.347  1.00 20.00     0.083 N 
HETATM    8  C6  UNL     1     -34.707  16.898  -0.362  1.00 20.00     0.309 C 
HETATM    9  C7  UNL     1     -33.177  18.622  -1.038  1.00 20.00     0.309 C 
ENDBRANCH   6   7
ENDBRANCH   4   6
TORSDOF 2
ENDMDL
MODEL 4
REMARK VINA RESULT:      -3.8     11.710     12.641
REMARK  2 active torsions:
REMARK  status: ('A' for Active; 'I' for Inactive)
REMARK    1  A    between atoms: C4_4  and  C8_8 
REMARK    2  A    between atoms: C8_8  and  N9_9 
ROOT
HETATM    1  C1  UNL     1     -34.837  17.185   0.048  1.00 20.00    -0.003 A 
HETATM    2  C2  UNL     1     -34.803  16.347  -1.122  1.00 20.00     0.004 A 
HETATM    3  C3  UNL     1     -33.993  18.214  -0.112  1.00 20.00    -0.022 A 
HETATM    4  C4  UNL     1     -33.936  16.854  -2.011  1.00 20.00    -0.049 A 
HETATM    5  C5  UNL     1     -33.324  18.111  -1.453  1.00 20.00     0.063 A 
ENDROOT
BRANCH   4   6
HETATM    6  C8  UNL     1     -33.581  16.326  -3.350  1.00 20.00     0.306 C 
BRANCH   6   7
HETATM    7  N9  UNL     1     -34.391  15.163  -3.599  1.00 20.00     0.083 N 
HETATM    8  C6  UNL     1     -33.560  13.967  -3.805  1.00 20.00     0.309 C 
HETATM    9  C7  UNL     1     -35.264  15.361  -4.766  1.00 20.00     0.309 C 
ENDBRANCH   6   7
ENDBRANCH   4   6
TORSDOF 2
ENDMDL
MODEL 5
REMARK VINA RESULT:      -3.7     11.792     12.435
REMARK  2 active torsions:
REMARK  status: ('A' for Active; 'I' for Inactive)
REMARK    1  A    between atoms: C4_4  and  C8_8 
REMARK    2  A    between atoms: C8_8  and  N9_9 
ROOT
HETATM    1  C1  UNL     1     -35.407  13.631  -4.201  1.00 20.00    -0.003 A 
HETATM    2  C2  UNL     1     -35.469  14.834  -3.413  1.00 20.00     0.004 A 
HETATM    3  C3  UNL     1     -34.126  13.311  -4.432  1.00 20.00    -0.022 A 
HETATM    4  C4  UNL     1     -34.225  15.263  -3.152  1.00 20.00    -0.049 A 
HETATM    5  C5  UNL     1     -33.230  14.325  -3.782  1.00 20.00     0.063 A 
ENDROOT
BRANCH   4   6
HETATM    6  C8  UNL     1     -33.809  16.456  -2.377  1.00 20.00     0.306 C 
BRANCH   6   7
HETATM    7  N9  UNL     1     -34.970  16.977  -1.705  1.00 20.00     0.083 N 
HETATM    8  C6  UNL     1     -35.302  18.328  -2.181  1.00 20.00     0.309 C 
HETATM    9  C7  UNL     1     -34.776  17.004  -0.247  1.00 20.00     0.309 C 
ENDBRANCH   6   7
ENDBRANCH   4   6
TORSDOF 2
ENDMDL
MODEL 6
REMARK VINA RESULT:      -3.7     11.656     12.732
REMARK  2 active torsions:
REMARK  status: ('A' for Active; 'I' for Inactive)
REMARK    1  A    between atoms: C4_4  and  C8_8 
REMARK    2  A    between atoms: C8_8  and  N9_9 
ROOT
HETATM    1  C1  UNL     1     -34.028  17.804  -0.263  1.00 20.00    -0.003 A 
HETATM    2  C2  UNL     1     -34.689  16.608  -0.714  1.00 20.00     0.004 A 
HETATM    3  C3  UNL     1     -33.467  18.429  -1.308  1.00 20.00    -0.022 A 
HETATM    4  C4  UNL     1     -34.540  16.488  -2.043  1.00 20.00    -0.049 A 
HETATM    5  C5  UNL     1     -33.737  17.649  -2.563  1.00 20.00     0.063 A 
ENDROOT
BRANCH   4   6
HETATM    6  C8  UNL     1     -35.052  15.416  -2.931  1.00 20.00     0.306 C 
BRANCH   6   7
HETATM    7  N9  UNL     1     -34.059  15.165  -3.942  1.00 20.00     0.083 N 
HETATM    8  C6  UNL     1     -34.625  15.303  -5.293  1.00 20.00     0.309 C 
HETATM    9  C7  UNL     1     -33.471  13.825  -3.791  1.00 20.00     0.309 C 
ENDBRANCH   6   7
ENDBRANCH   4   6
TORSDOF 2
ENDMDL
MODEL 7
REMARK VINA RESULT:      -3.7      1.381      2.341
REMARK  2 active torsions:
REMARK  status: ('A' for Active; 'I' for Inactive)
REMARK    1  A    between atoms: C4_4  and  C8_8 
REMARK    2  A    between atoms: C8_8  and  N9_9 
ROOT
HETATM    1  C1  UNL     1     -34.687   5.193   3.747  1.00 20.00    -0.003 A 
HETATM    2  C2  UNL     1     -33.773   5.822   2.830  1.00 20.00     0.004 A 
HETATM    3  C3  UNL     1     -34.485   5.671   4.983  1.00 20.00    -0.022 A 
HETATM    4  C4  UNL     1     -32.999   6.693   3.497  1.00 20.00    -0.049 A 
HETATM    5  C5  UNL     1     -33.378   6.686   4.953  1.00 20.00     0.063 A 
ENDROOT
BRANCH   4   6
HETATM    6  C8  UNL     1     -31.923   7.561   2.962  1.00 20.00     0.306 C 
BRANCH   6   7
HETATM    7  N9  UNL     1     -32.479   8.352   1.895  1.00 20.00     0.083 N 
HETATM    8  C6  UNL     1     -31.603   8.345   0.713  1.00 20.00     0.309 C 
HETATM    9  C7  UNL     1     -32.712   9.739   2.324  1.00 20.00     0.309 C 
ENDBRANCH   6   7
ENDBRANCH   4   6
TORSDOF 2
ENDMDL
MODEL 8
REMARK VINA RESULT:      -3.7     11.785     12.728
REMARK  2 active torsions:
REMARK  status: ('A' for Active; 'I' for Inactive)
REMARK    1  A    between atoms: C4_4  and  C8_8 
REMARK    2  A    between atoms: C8_8  and  N9_9 
ROOT
HETATM    1  C1  UNL     1     -33.893  18.152  -0.162  1.00 20.00    -0.003 A 
HETATM    2  C2  UNL     1     -33.301  18.000  -1.466  1.00 20.00     0.004 A 
HETATM    3  C3  UNL     1     -34.807  17.191   0.031  1.00 20.00    -0.022 A 
HETATM    4  C4  UNL     1     -33.848  16.943  -2.086  1.00 20.00    -0.049 A 
HETATM    5  C5  UNL     1     -34.876  16.312  -1.185  1.00 20.00     0.063 A 
ENDROOT
BRANCH   4   6
HETATM    6  C8  UNL     1     -33.547  16.414  -3.437  1.00 20.00     0.306 C 
BRANCH   6   7
HETATM    7  N9  UNL     1     -34.382  15.264  -3.662  1.00 20.00     0.083 N 
HETATM    8  C6  UNL     1     -33.577  14.048  -3.856  1.00 20.00     0.309 C 
HETATM    9  C7  UNL     1     -35.261  15.461  -4.824  1.00 20.00     0.309 C 
ENDBRANCH   6   7
ENDBRANCH   4   6
TORSDOF 2
ENDMDL
MODEL 9
REMARK VINA RESULT:      -3.6     12.174     12.994
REMARK  2 active torsions:
REMARK  status: ('A' for Active; 'I' for Inactive)
REMARK    1  A    between atoms: C4_4  and  C8_8 
REMARK    2  A    between atoms: C8_8  and  N9_9 
ROOT
HETATM    1  C1  UNL     1     -33.670  17.229  -1.356  1.00 20.00    -0.003 A 
HETATM    2  C2  UNL     1     -33.155  18.241  -0.472  1.00 20.00     0.004 A 
HETATM    3  C3  UNL     1     -34.760  16.669  -0.813  1.00 20.00    -0.022 A 
HETATM    4  C4  UNL     1     -33.927  18.312   0.624  1.00 20.00    -0.049 A 
HETATM    5  C5  UNL     1     -35.041  17.306   0.518  1.00 20.00     0.063 A 
ENDROOT
BRANCH   4   6
HETATM    6  C8  UNL     1     -33.776  19.208   1.796  1.00 20.00     0.306 C 
BRANCH   6   7
HETATM    7  N9  UNL     1     -33.514  18.390   2.950  1.00 20.00     0.083 N 
HETATM    8  C6  UNL     1     -34.464  18.679   4.036  1.00 20.00     0.309 C 
HETATM    9  C7  UNL     1     -32.139  18.579   3.438  1.00 20.00     0.309 C 
ENDBRANCH   6   7
ENDBRANCH   4   6
TORSDOF 2
ENDMDL
