MODEL 1
REMARK VINA RESULT:      -5.3      0.000      0.000
REMARK  2 active torsions:
REMARK  status: ('A' for Active; 'I' for Inactive)
REMARK    1  A    between atoms: C2_2  and  C3_3 
REMARK    2  A    between atoms: C3_3  and  O10_10 
ROOT
HETATM    1  C1  UNL     1     -33.681   5.833   4.102  1.00 20.00    -0.074 C 
HETATM    2  C2  UNL     1     -32.968   6.216   3.037  1.00 20.00     0.085 C 
HETATM    3  C4  UNL     1     -34.555   4.613   4.150  1.00 20.00     0.034 C 
HETATM    4  C5  UNL     1     -33.716   6.566   5.413  1.00 20.00     0.034 C 
HETATM    5  C6  UNL     1     -35.354   4.813   5.432  1.00 20.00     0.005 C 
HETATM    6  C7  UNL     1     -34.398   5.570   6.344  1.00 20.00     0.005 C 
ENDROOT
BRANCH   2   7
HETATM    7  C3  UNL     1     -32.140   7.438   3.102  1.00 20.00     0.282 C 
HETATM    8  O9  UNL     1     -31.162   7.592   3.816  1.00 20.00    -0.260 OA
BRANCH   7   9
HETATM    9  O10 UNL     1     -32.665   8.338   2.229  1.00 20.00    -0.323 OA
HETATM   10  C8  UNL     1     -31.828   8.679   1.119  1.00 20.00     0.213 C 
ENDBRANCH   7   9
ENDBRANCH   2   7
TORSDOF 2
ENDMDL
MODEL 2
REMARK VINA RESULT:      -4.9      1.002      1.573
REMARK  2 active torsions:
REMARK  status: ('A' for Active; 'I' for Inactive)
REMARK    1  A    between atoms: C2_2  and  C3_3 
REMARK    2  A    between atoms: C3_3  and  O10_10 
ROOT
HETATM    1  C1  UNL     1     -33.677   6.231   4.753  1.00 20.00    -0.074 C 
HETATM    2  C2  UNL     1     -32.748   7.093   4.322  1.00 20.00     0.085 C 
HETATM    3  C4  UNL     1     -34.152   6.129   6.174  1.00 20.00     0.034 C 
HETATM    4  C5  UNL     1     -34.385   5.234   3.881  1.00 20.00     0.034 C 
HETATM    5  C6  UNL     1     -34.944   4.827   6.178  1.00 20.00     0.005 C 
HETATM    6  C7  UNL     1     -35.522   4.746   4.772  1.00 20.00     0.005 C 
ENDROOT
BRANCH   2   7
HETATM    7  C3  UNL     1     -32.357   7.106   2.898  1.00 20.00     0.282 C 
HETATM    8  O9  UNL     1     -31.964   6.140   2.263  1.00 20.00    -0.260 OA
BRANCH   7   9
HETATM    9  O10 UNL     1     -32.520   8.376   2.438  1.00 20.00    -0.323 OA
HETATM   10  C8  UNL     1     -31.870   8.669   1.198  1.00 20.00     0.213 C 
ENDBRANCH   7   9
ENDBRANCH   2   7
TORSDOF 2
ENDMDL
MODEL 3
REMARK VINA RESULT:      -4.6     11.214     11.925
REMARK  2 active torsions:
REMARK  status: ('A' for Active; 'I' for Inactive)
REMARK    1  A    between atoms: C2_2  and  C3_3 
REMARK    2  A    between atoms: C3_3  and  O10_10 
ROOT
HETATM    1  C1  UNL     1     -34.386  15.476  -2.990  1.00 20.00    -0.074 C 
HETATM    2  C2  UNL     1     -33.712  14.559  -3.693  1.00 20.00     0.085 C 
HETATM    3  C4  UNL     1     -33.765  16.414  -1.994  1.00 20.00     0.034 C 
HETATM    4  C5  UNL     1     -35.867  15.708  -3.088  1.00 20.00     0.034 C 
HETATM    5  C6  UNL     1     -34.974  17.002  -1.277  1.00 20.00     0.005 C 
HETATM    6  C7  UNL     1     -36.058  17.026  -2.345  1.00 20.00     0.005 C 
ENDROOT
BRANCH   2   7
HETATM    7  C3  UNL     1     -34.428  13.689  -4.648  1.00 20.00     0.282 C 
HETATM    8  O9  UNL     1     -35.012  12.655  -4.362  1.00 20.00    -0.260 OA
BRANCH   7   9
HETATM    9  O10 UNL     1     -34.316  14.251  -5.881  1.00 20.00    -0.323 OA
HETATM   10  C8  UNL     1     -35.547  14.435  -6.588  1.00 20.00     0.213 C 
ENDBRANCH   7   9
ENDBRANCH   2   7
TORSDOF 2
ENDMDL
MODEL 4
REMARK VINA RESULT:      -4.2     10.327     11.464
REMARK  2 active torsions:
REMARK  status: ('A' for Active; 'I' for Inactive)
REMARK    1  A    between atoms: C2_2  and  C3_3 
REMARK    2  A    between atoms: C3_3  and  O10_10 
ROOT
HETATM    1  C1  UNL     1     -41.922   5.064  -2.070  1.00 20.00    -0.074 C 
HETATM    2  C2  UNL     1     -42.525   4.222  -2.917  1.00 20.00     0.085 C 
HETATM    3  C4  UNL     1     -42.213   6.535  -1.978  1.00 20.00     0.034 C 
HETATM    4  C5  UNL     1     -40.862   4.666  -1.083  1.00 20.00     0.034 C 
HETATM    5  C6  UNL     1     -41.070   7.056  -1.116  1.00 20.00     0.005 C 
HETATM    6  C7  UNL     1     -40.753   5.894  -0.185  1.00 20.00     0.005 C 
ENDROOT
BRANCH   2   7
HETATM    7  C3  UNL     1     -42.160   2.791  -2.921  1.00 20.00     0.282 C 
HETATM    8  O9  UNL     1     -41.192   2.309  -3.489  1.00 20.00    -0.260 OA
BRANCH   7   9
HETATM    9  O10 UNL     1     -43.089   2.127  -2.182  1.00 20.00    -0.323 OA
HETATM   10  C8  UNL     1     -43.378   0.793  -2.611  1.00 20.00     0.213 C 
ENDBRANCH   7   9
ENDBRANCH   2   7
TORSDOF 2
ENDMDL
MODEL 5
REMARK VINA RESULT:      -4.2     11.412     12.263
REMARK  2 active torsions:
REMARK  status: ('A' for Active; 'I' for Inactive)
REMARK    1  A    between atoms: C2_2  and  C3_3 
REMARK    2  A    between atoms: C3_3  and  O10_10 
ROOT
HETATM    1  C1  UNL     1     -34.353  17.123  -0.760  1.00 20.00    -0.074 C 
HETATM    2  C2  UNL     1     -34.726  16.235  -1.688  1.00 20.00     0.085 C 
HETATM    3  C4  UNL     1     -35.028  17.303   0.570  1.00 20.00     0.034 C 
HETATM    4  C5  UNL     1     -33.202  18.078  -0.907  1.00 20.00     0.034 C 
HETATM    5  C6  UNL     1     -34.432  18.608   1.083  1.00 20.00     0.005 C 
HETATM    6  C7  UNL     1     -33.023  18.618   0.507  1.00 20.00     0.005 C 
ENDROOT
BRANCH   2   7
HETATM    7  C3  UNL     1     -33.987  16.144  -2.963  1.00 20.00     0.282 C 
HETATM    8  O9  UNL     1     -33.054  15.389  -3.189  1.00 20.00    -0.260 OA
BRANCH   7   9
HETATM    9  O10 UNL     1     -34.538  17.043  -3.823  1.00 20.00    -0.323 OA
HETATM   10  C8  UNL     1     -33.630  17.642  -4.753  1.00 20.00     0.213 C 
ENDBRANCH   7   9
ENDBRANCH   2   7
TORSDOF 2
ENDMDL
MODEL 6
REMARK VINA RESULT:      -4.2     10.894     12.085
REMARK  2 active torsions:
REMARK  status: ('A' for Active; 'I' for Inactive)
REMARK    1  A    between atoms: C2_2  and  C3_3 
REMARK    2  A    between atoms: C3_3  and  O10_10 
ROOT
HETATM    1  C1  UNL     1     -34.363  16.917  -1.250  1.00 20.00    -0.074 C 
HETATM    2  C2  UNL     1     -34.762  16.001  -2.139  1.00 20.00     0.085 C 
HETATM    3  C4  UNL     1     -34.886  17.029   0.154  1.00 20.00     0.034 C 
HETATM    4  C5  UNL     1     -33.332  17.976  -1.520  1.00 20.00     0.034 C 
HETATM    5  C6  UNL     1     -34.355  18.382   0.611  1.00 20.00     0.005 C 
HETATM    6  C7  UNL     1     -33.033  18.526  -0.130  1.00 20.00     0.005 C 
ENDROOT
BRANCH   2   7
HETATM    7  C3  UNL     1     -34.178  15.985  -3.495  1.00 20.00     0.282 C 
HETATM    8  O9  UNL     1     -34.558  16.663  -4.437  1.00 20.00    -0.260 OA
BRANCH   7   9
HETATM    9  O10 UNL     1     -33.153  15.090  -3.491  1.00 20.00    -0.323 OA
HETATM   10  C8  UNL     1     -33.511  13.743  -3.816  1.00 20.00     0.213 C 
ENDBRANCH   7   9
ENDBRANCH   2   7
TORSDOF 2
ENDMDL
MODEL 7
REMARK VINA RESULT:      -4.2     11.103     11.802
REMARK  2 active torsions:
REMARK  status: ('A' for Active; 'I' for Inactive)
REMARK    1  A    between atoms: C2_2  and  C3_3 
REMARK    2  A    between atoms: C3_3  and  O10_10 
ROOT
HETATM    1  C1  UNL     1     -34.212  15.191  -3.152  1.00 20.00    -0.074 C 
HETATM    2  C2  UNL     1     -33.716  16.135  -2.344  1.00 20.00     0.085 C 
HETATM    3  C4  UNL     1     -33.383  14.191  -3.906  1.00 20.00     0.034 C 
HETATM    4  C5  UNL     1     -35.675  14.988  -3.427  1.00 20.00     0.034 C 
HETATM    5  C6  UNL     1     -34.384  13.582  -4.881  1.00 20.00     0.005 C 
HETATM    6  C7  UNL     1     -35.706  13.634  -4.128  1.00 20.00     0.005 C 
ENDROOT
BRANCH   2   7
HETATM    7  C3  UNL     1     -34.627  17.068  -1.651  1.00 20.00     0.282 C 
HETATM    8  O9  UNL     1     -35.119  18.072  -2.141  1.00 20.00    -0.260 OA
BRANCH   7   9
HETATM    9  O10 UNL     1     -34.812  16.599  -0.387  1.00 20.00    -0.323 OA
HETATM   10  C8  UNL     1     -35.186  17.581   0.584  1.00 20.00     0.213 C 
ENDBRANCH   7   9
ENDBRANCH   2   7
TORSDOF 2
ENDMDL
MODEL 8
REMARK VINA RESULT:      -4.1     11.134     12.413
REMARK  2 active torsions:
REMARK  status: ('A' for Active; 'I' for Inactive)
REMARK    1  A    between atoms: C2_2  and  C3_3 
REMARK    2  A    between atoms: C3_3  and  O10_10 
ROOT
HETATM    1  C1  UNL     1     -35.263  15.200  -3.478  1.00 20.00    -0.074 C 
HETATM    2  C2  UNL     1     -36.473  15.752  -3.336  1.00 20.00     0.085 C 
HETATM    3  C4  UNL     1     -34.012  15.702  -2.813  1.00 20.00     0.034 C 
HETATM    4  C5  UNL     1     -34.969  13.995  -4.325  1.00 20.00     0.034 C 
HETATM    5  C6  UNL     1     -32.910  14.940  -3.537  1.00 20.00     0.005 C 
HETATM    6  C7  UNL     1     -33.558  13.610  -3.895  1.00 20.00     0.005 C 
ENDROOT
BRANCH   2   7
HETATM    7  C3  UNL     1     -37.635  15.173  -4.039  1.00 20.00     0.282 C 
HETATM    8  O9  UNL     1     -38.232  14.161  -3.706  1.00 20.00    -0.260 OA
BRANCH   7   9
HETATM    9  O10 UNL     1     -37.911  15.971  -5.106  1.00 20.00    -0.323 OA
HETATM   10  C8  UNL     1     -37.813  15.340  -6.387  1.00 20.00     0.213 C 
ENDBRANCH   7   9
ENDBRANCH   2   7
TORSDOF 2
ENDMDL
MODEL 9
REMARK VINA RESULT:      -4.1     11.155     12.077
REMARK  2 active torsions:
REMARK  status: ('A' for Active; 'I' for Inactive)
REMARK    1  A    between atoms: C2_2  and  C3_3 
REMARK    2  A    between atoms: C3_3  and  O10_10 
ROOT
HETATM    1  C1  UNL     1     -33.920  16.943  -2.101  1.00 20.00    -0.074 C 
HETATM    2  C2  UNL     1     -33.747  16.424  -3.322  1.00 20.00     0.085 C 
HETATM    3  C4  UNL     1     -33.319  18.237  -1.631  1.00 20.00     0.034 C 
HETATM    4  C5  UNL     1     -34.742  16.311  -1.014  1.00 20.00     0.034 C 
HETATM    5  C6  UNL     1     -33.558  18.199  -0.127  1.00 20.00     0.005 C 
HETATM    6  C7  UNL     1     -34.863  17.427   0.017  1.00 20.00     0.005 C 
ENDROOT
BRANCH   2   7
HETATM    7  C3  UNL     1     -34.389  15.142  -3.677  1.00 20.00     0.282 C 
HETATM    8  O9  UNL     1     -33.950  14.034  -3.412  1.00 20.00    -0.260 OA
BRANCH   7   9
HETATM    9  O10 UNL     1     -35.542  15.428  -4.340  1.00 20.00    -0.323 OA
HETATM   10  C8  UNL     1     -36.717  14.789  -3.833  1.00 20.00     0.213 C 
ENDBRANCH   7   9
ENDBRANCH   2   7
TORSDOF 2
ENDMDL
