MODEL 1
REMARK VINA RESULT:      -4.5      0.000      0.000
REMARK  5 active torsions:
REMARK  status: ('A' for Active; 'I' for Inactive)
REMARK    1  A    between atoms: C1_1  and  C6_6 
REMARK    2  A    between atoms: C1_1  and  S11_11 
REMARK    3  A    between atoms: C6_6  and  C8_8 
REMARK    4  A    between atoms: C7_7  and  C9_9 
REMARK    5  A    between atoms: C9_9  and  S11_11 
ROOT
HETATM    1  C1  UNL     1     -32.518   6.512   3.252  1.00 20.00     0.186 C 
HETATM    2  O10 UNL     1     -31.988   5.454   2.935  1.00 20.00    -0.285 OA
ENDROOT
BRANCH   1   3
HETATM    3  C6  UNL     1     -31.905   7.880   3.009  1.00 20.00     0.094 C 
BRANCH   3   4
HETATM    4  C8  UNL     1     -32.442   8.566   1.742  1.00 20.00    -0.015 C 
HETATM    5  C3  UNL     1     -32.738  10.040   2.027  1.00 20.00     0.010 C 
HETATM    6  C4  UNL     1     -31.449   8.453   0.582  1.00 20.00     0.010 C 
ENDBRANCH   3   4
ENDBRANCH   1   3
BRANCH   1   7
HETATM    7  S11 UNL     1     -34.118   6.587   4.000  1.00 20.00    -0.088 SA
BRANCH   7   8
HETATM    8  C9  UNL     1     -33.734   5.992   5.662  1.00 20.00     0.051 C 
HETATM    9  C5  UNL     1     -33.668   7.191   6.606  1.00 20.00     0.022 C 
BRANCH   8  10
HETATM   10  C7  UNL     1     -34.762   4.965   6.154  1.00 20.00     0.011 C 
HETATM   11  C2  UNL     1     -35.109   3.896   5.125  1.00 20.00     0.006 C 
ENDBRANCH   8  10
ENDBRANCH   7   8
ENDBRANCH   1   7
TORSDOF 5
ENDMDL
MODEL 2
REMARK VINA RESULT:      -4.3      1.452      4.915
REMARK  5 active torsions:
REMARK  status: ('A' for Active; 'I' for Inactive)
REMARK    1  A    between atoms: C1_1  and  C6_6 
REMARK    2  A    between atoms: C1_1  and  S11_11 
REMARK    3  A    between atoms: C6_6  and  C8_8 
REMARK    4  A    between atoms: C7_7  and  C9_9 
REMARK    5  A    between atoms: C9_9  and  S11_11 
ROOT
HETATM    1  C1  UNL     1     -33.992   5.545   2.931  1.00 20.00     0.186 C 
HETATM    2  O10 UNL     1     -34.537   4.946   2.011  1.00 20.00    -0.285 OA
ENDROOT
BRANCH   1   3
HETATM    3  C6  UNL     1     -34.718   6.062   4.160  1.00 20.00     0.094 C 
BRANCH   3   4
HETATM    4  C8  UNL     1     -34.160   5.495   5.475  1.00 20.00    -0.015 C 
HETATM    5  C3  UNL     1     -34.000   6.615   6.505  1.00 20.00     0.010 C 
HETATM    6  C4  UNL     1     -35.066   4.398   6.040  1.00 20.00     0.010 C 
ENDBRANCH   3   4
ENDBRANCH   1   3
BRANCH   1   7
HETATM    7  S11 UNL     1     -32.251   5.844   2.971  1.00 20.00    -0.088 SA
BRANCH   7   8
HETATM    8  C9  UNL     1     -32.227   7.649   3.034  1.00 20.00     0.051 C 
HETATM    9  C5  UNL     1     -31.201   8.087   4.077  1.00 20.00     0.022 C 
BRANCH   8  10
HETATM   10  C7  UNL     1     -31.911   8.266   1.665  1.00 20.00     0.011 C 
HETATM   11  C2  UNL     1     -32.436   9.686   1.491  1.00 20.00     0.006 C 
ENDBRANCH   8  10
ENDBRANCH   7   8
ENDBRANCH   1   7
TORSDOF 5
ENDMDL
MODEL 3
REMARK VINA RESULT:      -4.2     11.057     12.241
REMARK  5 active torsions:
REMARK  status: ('A' for Active; 'I' for Inactive)
REMARK    1  A    between atoms: C1_1  and  C6_6 
REMARK    2  A    between atoms: C1_1  and  S11_11 
REMARK    3  A    between atoms: C6_6  and  C8_8 
REMARK    4  A    between atoms: C7_7  and  C9_9 
REMARK    5  A    between atoms: C9_9  and  S11_11 
ROOT
HETATM    1  C1  UNL     1     -35.195  13.706  -4.696  1.00 20.00     0.186 C 
HETATM    2  O10 UNL     1     -34.931  12.604  -4.232  1.00 20.00    -0.285 OA
ENDROOT
BRANCH   1   3
HETATM    3  C6  UNL     1     -35.038  14.076  -6.160  1.00 20.00     0.094 C 
BRANCH   3   4
HETATM    4  C8  UNL     1     -35.727  15.401  -6.526  1.00 20.00    -0.015 C 
HETATM    5  C3  UNL     1     -34.719  16.359  -7.162  1.00 20.00     0.010 C 
HETATM    6  C4  UNL     1     -36.901  15.174  -7.483  1.00 20.00     0.010 C 
ENDBRANCH   3   4
ENDBRANCH   1   3
BRANCH   1   7
HETATM    7  S11 UNL     1     -35.856  15.017  -3.711  1.00 20.00    -0.088 SA
BRANCH   7   8
HETATM    8  C9  UNL     1     -34.411  15.441  -2.714  1.00 20.00     0.051 C 
HETATM    9  C5  UNL     1     -33.385  16.133  -3.610  1.00 20.00     0.022 C 
BRANCH   8  10
HETATM   10  C7  UNL     1     -34.781  16.331  -1.519  1.00 20.00     0.011 C 
HETATM   11  C2  UNL     1     -33.714  17.358  -1.160  1.00 20.00     0.006 C 
ENDBRANCH   8  10
ENDBRANCH   7   8
ENDBRANCH   1   7
TORSDOF 5
ENDMDL
MODEL 4
REMARK VINA RESULT:      -4.2     10.911     12.863
REMARK  5 active torsions:
REMARK  status: ('A' for Active; 'I' for Inactive)
REMARK    1  A    between atoms: C1_1  and  C6_6 
REMARK    2  A    between atoms: C1_1  and  S11_11 
REMARK    3  A    between atoms: C6_6  and  C8_8 
REMARK    4  A    between atoms: C7_7  and  C9_9 
REMARK    5  A    between atoms: C9_9  and  S11_11 
ROOT
HETATM    1  C1  UNL     1     -35.053  13.784  -4.259  1.00 20.00     0.186 C 
HETATM    2  O10 UNL     1     -34.948  12.590  -4.512  1.00 20.00    -0.285 OA
ENDROOT
BRANCH   1   3
HETATM    3  C6  UNL     1     -34.170  14.528  -3.273  1.00 20.00     0.094 C 
BRANCH   3   4
HETATM    4  C8  UNL     1     -34.603  15.987  -3.055  1.00 20.00    -0.015 C 
HETATM    5  C3  UNL     1     -34.722  16.282  -1.559  1.00 20.00     0.010 C 
HETATM    6  C4  UNL     1     -33.615  16.964  -3.698  1.00 20.00     0.010 C 
ENDBRANCH   3   4
ENDBRANCH   1   3
BRANCH   1   7
HETATM    7  S11 UNL     1     -36.233  14.826  -5.063  1.00 20.00    -0.088 SA
BRANCH   7   8
HETATM    8  C9  UNL     1     -35.781  14.564  -6.792  1.00 20.00     0.051 C 
HETATM    9  C5  UNL     1     -36.898  15.114  -7.677  1.00 20.00     0.022 C 
BRANCH   8  10
HETATM   10  C7  UNL     1     -34.437  15.219  -7.137  1.00 20.00     0.011 C 
HETATM   11  C2  UNL     1     -34.515  16.730  -7.322  1.00 20.00     0.006 C 
ENDBRANCH   8  10
ENDBRANCH   7   8
ENDBRANCH   1   7
TORSDOF 5
ENDMDL
MODEL 5
REMARK VINA RESULT:      -4.1     10.718     12.326
REMARK  5 active torsions:
REMARK  status: ('A' for Active; 'I' for Inactive)
REMARK    1  A    between atoms: C1_1  and  C6_6 
REMARK    2  A    between atoms: C1_1  and  S11_11 
REMARK    3  A    between atoms: C6_6  and  C8_8 
REMARK    4  A    between atoms: C7_7  and  C9_9 
REMARK    5  A    between atoms: C9_9  and  S11_11 
ROOT
HETATM    1  C1  UNL     1     -34.125  13.876  -3.821  1.00 20.00     0.186 C 
HETATM    2  O10 UNL     1     -33.051  13.397  -3.480  1.00 20.00    -0.285 OA
ENDROOT
BRANCH   1   3
HETATM    3  C6  UNL     1     -34.873  14.938  -3.033  1.00 20.00     0.094 C 
BRANCH   3   4
HETATM    4  C8  UNL     1     -33.950  16.015  -2.442  1.00 20.00    -0.015 C 
HETATM    5  C3  UNL     1     -33.758  17.152  -3.447  1.00 20.00     0.010 C 
HETATM    6  C4  UNL     1     -34.509  16.572  -1.130  1.00 20.00     0.010 C 
ENDBRANCH   3   4
ENDBRANCH   1   3
BRANCH   1   7
HETATM    7  S11 UNL     1     -34.933  13.426  -5.327  1.00 20.00    -0.088 SA
BRANCH   7   8
HETATM    8  C9  UNL     1     -35.292  15.058  -6.010  1.00 20.00     0.051 C 
HETATM    9  C5  UNL     1     -34.297  15.348  -7.132  1.00 20.00     0.022 C 
BRANCH   8  10
HETATM   10  C7  UNL     1     -36.736  15.160  -6.522  1.00 20.00     0.011 C 
HETATM   11  C2  UNL     1     -37.770  15.349  -5.419  1.00 20.00     0.006 C 
ENDBRANCH   8  10
ENDBRANCH   7   8
ENDBRANCH   1   7
TORSDOF 5
ENDMDL
MODEL 6
REMARK VINA RESULT:      -4.1     11.049     12.583
REMARK  5 active torsions:
REMARK  status: ('A' for Active; 'I' for Inactive)
REMARK    1  A    between atoms: C1_1  and  C6_6 
REMARK    2  A    between atoms: C1_1  and  S11_11 
REMARK    3  A    between atoms: C6_6  and  C8_8 
REMARK    4  A    between atoms: C7_7  and  C9_9 
REMARK    5  A    between atoms: C9_9  and  S11_11 
ROOT
HETATM    1  C1  UNL     1     -34.822  13.655  -4.629  1.00 20.00     0.186 C 
HETATM    2  O10 UNL     1     -34.834  12.443  -4.808  1.00 20.00    -0.285 OA
ENDROOT
BRANCH   1   3
HETATM    3  C6  UNL     1     -35.864  14.609  -5.185  1.00 20.00     0.094 C 
BRANCH   3   4
HETATM    4  C8  UNL     1     -35.828  14.717  -6.718  1.00 20.00    -0.015 C 
HETATM    5  C3  UNL     1     -36.822  15.779  -7.194  1.00 20.00     0.010 C 
HETATM    6  C4  UNL     1     -34.423  15.062  -7.221  1.00 20.00     0.010 C 
ENDBRANCH   3   4
ENDBRANCH   1   3
BRANCH   1   7
HETATM    7  S11 UNL     1     -33.599  14.457  -3.637  1.00 20.00    -0.088 SA
BRANCH   7   8
HETATM    8  C9  UNL     1     -34.416  16.036  -3.318  1.00 20.00     0.051 C 
HETATM    9  C5  UNL     1     -34.588  16.200  -1.810  1.00 20.00     0.022 C 
BRANCH   8  10
HETATM   10  C7  UNL     1     -33.632  17.216  -3.909  1.00 20.00     0.011 C 
HETATM   11  C2  UNL     1     -34.429  18.050  -4.904  1.00 20.00     0.006 C 
ENDBRANCH   8  10
ENDBRANCH   7   8
ENDBRANCH   1   7
TORSDOF 5
ENDMDL
MODEL 7
REMARK VINA RESULT:      -4.1     11.122     12.957
REMARK  5 active torsions:
REMARK  status: ('A' for Active; 'I' for Inactive)
REMARK    1  A    between atoms: C1_1  and  C6_6 
REMARK    2  A    between atoms: C1_1  and  S11_11 
REMARK    3  A    between atoms: C6_6  and  C8_8 
REMARK    4  A    between atoms: C7_7  and  C9_9 
REMARK    5  A    between atoms: C9_9  and  S11_11 
ROOT
HETATM    1  C1  UNL     1     -35.228  13.792  -4.737  1.00 20.00     0.186 C 
HETATM    2  O10 UNL     1     -35.009  12.636  -4.399  1.00 20.00    -0.285 OA
ENDROOT
BRANCH   1   3
HETATM    3  C6  UNL     1     -35.506  14.927  -3.767  1.00 20.00     0.094 C 
BRANCH   3   4
HETATM    4  C8  UNL     1     -34.350  15.181  -2.786  1.00 20.00    -0.015 C 
HETATM    5  C3  UNL     1     -33.095  15.604  -3.552  1.00 20.00     0.010 C 
HETATM    6  C4  UNL     1     -34.716  16.254  -1.757  1.00 20.00     0.010 C 
ENDBRANCH   3   4
ENDBRANCH   1   3
BRANCH   1   7
HETATM    7  S11 UNL     1     -35.197  14.310  -6.427  1.00 20.00    -0.088 SA
BRANCH   7   8
HETATM    8  C9  UNL     1     -35.631  16.054  -6.246  1.00 20.00     0.051 C 
HETATM    9  C5  UNL     1     -34.528  16.900  -6.880  1.00 20.00     0.022 C 
BRANCH   8  10
HETATM   10  C7  UNL     1     -36.994  16.373  -6.875  1.00 20.00     0.011 C 
HETATM   11  C2  UNL     1     -37.657  15.179  -7.550  1.00 20.00     0.006 C 
ENDBRANCH   8  10
ENDBRANCH   7   8
ENDBRANCH   1   7
TORSDOF 5
ENDMDL
MODEL 8
REMARK VINA RESULT:      -4.0      1.466      1.884
REMARK  5 active torsions:
REMARK  status: ('A' for Active; 'I' for Inactive)
REMARK    1  A    between atoms: C1_1  and  C6_6 
REMARK    2  A    between atoms: C1_1  and  S11_11 
REMARK    3  A    between atoms: C6_6  and  C8_8 
REMARK    4  A    between atoms: C7_7  and  C9_9 
REMARK    5  A    between atoms: C9_9  and  S11_11 
ROOT
HETATM    1  C1  UNL     1     -31.774   7.458   3.264  1.00 20.00     0.186 C 
HETATM    2  O10 UNL     1     -31.371   7.965   4.304  1.00 20.00    -0.285 OA
ENDROOT
BRANCH   1   3
HETATM    3  C6  UNL     1     -31.545   8.047   1.884  1.00 20.00     0.094 C 
BRANCH   3   4
HETATM    4  C8  UNL     1     -32.717   8.912   1.393  1.00 20.00    -0.015 C 
HETATM    5  C3  UNL     1     -32.686  10.278   2.082  1.00 20.00     0.010 C 
HETATM    6  C4  UNL     1     -32.676   9.097  -0.126  1.00 20.00     0.010 C 
ENDBRANCH   3   4
ENDBRANCH   1   3
BRANCH   1   7
HETATM    7  S11 UNL     1     -32.645   5.921   3.232  1.00 20.00    -0.088 SA
BRANCH   7   8
HETATM    8  C9  UNL     1     -34.134   6.365   4.153  1.00 20.00     0.051 C 
HETATM    9  C5  UNL     1     -35.305   5.550   3.610  1.00 20.00     0.022 C 
BRANCH   8  10
HETATM   10  C7  UNL     1     -33.963   6.139   5.661  1.00 20.00     0.011 C 
HETATM   11  C2  UNL     1     -34.767   4.965   6.205  1.00 20.00     0.006 C 
ENDBRANCH   8  10
ENDBRANCH   7   8
ENDBRANCH   1   7
TORSDOF 5
ENDMDL
MODEL 9
REMARK VINA RESULT:      -4.0     11.079     12.744
REMARK  5 active torsions:
REMARK  status: ('A' for Active; 'I' for Inactive)
REMARK    1  A    between atoms: C1_1  and  C6_6 
REMARK    2  A    between atoms: C1_1  and  S11_11 
REMARK    3  A    between atoms: C6_6  and  C8_8 
REMARK    4  A    between atoms: C7_7  and  C9_9 
REMARK    5  A    between atoms: C9_9  and  S11_11 
ROOT
HETATM    1  C1  UNL     1     -34.056  14.727  -3.645  1.00 20.00     0.186 C 
HETATM    2  O10 UNL     1     -32.836  14.611  -3.637  1.00 20.00    -0.285 OA
ENDROOT
BRANCH   1   3
HETATM    3  C6  UNL     1     -34.847  15.495  -2.601  1.00 20.00     0.094 C 
BRANCH   3   4
HETATM    4  C8  UNL     1     -34.004  16.542  -1.854  1.00 20.00    -0.015 C 
HETATM    5  C3  UNL     1     -33.867  17.808  -2.702  1.00 20.00     0.010 C 
HETATM    6  C4  UNL     1     -34.622  16.892  -0.498  1.00 20.00     0.010 C 
ENDBRANCH   3   4
ENDBRANCH   1   3
BRANCH   1   7
HETATM    7  S11 UNL     1     -35.066  14.046  -4.925  1.00 20.00    -0.088 SA
BRANCH   7   8
HETATM    8  C9  UNL     1     -34.419  14.930  -6.361  1.00 20.00     0.051 C 
HETATM    9  C5  UNL     1     -35.245  14.542  -7.586  1.00 20.00     0.022 C 
BRANCH   8  10
HETATM   10  C7  UNL     1     -34.433  16.450  -6.152  1.00 20.00     0.011 C 
HETATM   11  C2  UNL     1     -35.825  17.031  -5.935  1.00 20.00     0.006 C 
ENDBRANCH   8  10
ENDBRANCH   7   8
ENDBRANCH   1   7
TORSDOF 5
ENDMDL
