MODEL 1
REMARK VINA RESULT:      -4.4      0.000      0.000
REMARK  0 active torsions:
REMARK  status: ('A' for Active; 'I' for Inactive)
ROOT
HETATM    1  C1  UNL     1     -36.131  14.330  -4.517  1.00 20.00     0.219 C 
HETATM    2  C2  UNL     1     -34.977  13.351  -4.386  1.00 20.00     0.103 C 
HETATM    3  C3  UNL     1     -33.943  13.779  -3.350  1.00 20.00     0.009 C 
HETATM    4  C4  UNL     1     -32.913  14.809  -3.822  1.00 20.00     0.001 C 
HETATM    5  C5  UNL     1     -33.460  16.230  -3.963  1.00 20.00     0.002 C 
HETATM    6  C6  UNL     1     -33.809  16.641  -5.395  1.00 20.00     0.020 C 
HETATM    7  C7  UNL     1     -34.750  15.697  -6.138  1.00 20.00     0.125 C 
HETATM    8  C8  UNL     1     -37.044  16.393  -5.508  1.00 20.00     0.152 C 
HETATM    9  N9  UNL     1     -35.973  15.410  -5.384  1.00 20.00    -0.356 N 
HETATM   10  O10 UNL     1     -37.149  14.137  -3.844  1.00 20.00    -0.273 OA
ENDROOT
TORSDOF 0
ENDMDL
MODEL 2
REMARK VINA RESULT:      -4.3      1.641      2.108
REMARK  0 active torsions:
REMARK  status: ('A' for Active; 'I' for Inactive)
ROOT
HETATM    1  C1  UNL     1     -34.339  13.837  -4.906  1.00 20.00     0.219 C 
HETATM    2  C2  UNL     1     -33.484  14.349  -3.761  1.00 20.00     0.103 C 
HETATM    3  C3  UNL     1     -34.264  15.201  -2.765  1.00 20.00     0.009 C 
HETATM    4  C4  UNL     1     -34.473  16.666  -3.161  1.00 20.00     0.001 C 
HETATM    5  C5  UNL     1     -35.511  16.880  -4.263  1.00 20.00     0.002 C 
HETATM    6  C6  UNL     1     -34.926  17.091  -5.660  1.00 20.00     0.020 C 
HETATM    7  C7  UNL     1     -33.952  16.015  -6.133  1.00 20.00     0.125 C 
HETATM    8  C8  UNL     1     -35.349  14.222  -7.121  1.00 20.00     0.152 C 
HETATM    9  N9  UNL     1     -34.503  14.664  -6.017  1.00 20.00    -0.356 N 
HETATM   10  O10 UNL     1     -34.862  12.722  -4.801  1.00 20.00    -0.273 OA
ENDROOT
TORSDOF 0
ENDMDL
MODEL 3
REMARK VINA RESULT:      -4.2      1.418      3.017
REMARK  0 active torsions:
REMARK  status: ('A' for Active; 'I' for Inactive)
ROOT
HETATM    1  C1  UNL     1     -35.105  13.890  -4.239  1.00 20.00     0.219 C 
HETATM    2  C2  UNL     1     -36.356  14.648  -4.645  1.00 20.00     0.103 C 
HETATM    3  C3  UNL     1     -36.362  15.053  -6.115  1.00 20.00     0.009 C 
HETATM    4  C4  UNL     1     -35.576  16.321  -6.461  1.00 20.00     0.001 C 
HETATM    5  C5  UNL     1     -34.057  16.147  -6.444  1.00 20.00     0.002 C 
HETATM    6  C6  UNL     1     -33.370  16.650  -5.173  1.00 20.00     0.020 C 
HETATM    7  C7  UNL     1     -33.924  16.095  -3.863  1.00 20.00     0.125 C 
HETATM    8  C8  UNL     1     -32.757  13.940  -3.494  1.00 20.00     0.152 C 
HETATM    9  N9  UNL     1     -33.990  14.632  -3.853  1.00 20.00    -0.356 N 
HETATM   10  O10 UNL     1     -35.123  12.655  -4.282  1.00 20.00    -0.273 OA
ENDROOT
TORSDOF 0
ENDMDL
MODEL 4
REMARK VINA RESULT:      -4.2      2.103      3.682
REMARK  0 active torsions:
REMARK  status: ('A' for Active; 'I' for Inactive)
ROOT
HETATM    1  C1  UNL     1     -33.865  16.925  -4.089  1.00 20.00     0.219 C 
HETATM    2  C2  UNL     1     -33.283  16.636  -5.462  1.00 20.00     0.103 C 
HETATM    3  C3  UNL     1     -34.315  16.106  -6.451  1.00 20.00     0.009 C 
HETATM    4  C4  UNL     1     -34.625  14.609  -6.354  1.00 20.00     0.001 C 
HETATM    5  C5  UNL     1     -35.479  14.218  -5.147  1.00 20.00     0.002 C 
HETATM    6  C6  UNL     1     -34.694  13.638  -3.970  1.00 20.00     0.020 C 
HETATM    7  C7  UNL     1     -33.534  14.494  -3.468  1.00 20.00     0.125 C 
HETATM    8  C8  UNL     1     -34.522  16.102  -1.862  1.00 20.00     0.152 C 
HETATM    9  N9  UNL     1     -33.934  15.873  -3.177  1.00 20.00    -0.356 N 
HETATM   10  O10 UNL     1     -34.263  18.069  -3.845  1.00 20.00    -0.273 OA
ENDROOT
TORSDOF 0
ENDMDL
MODEL 5
REMARK VINA RESULT:      -4.1      1.430      1.883
REMARK  0 active torsions:
REMARK  status: ('A' for Active; 'I' for Inactive)
ROOT
HETATM    1  C1  UNL     1     -35.675  15.397  -6.003  1.00 20.00     0.219 C 
HETATM    2  C2  UNL     1     -34.942  14.067  -6.032  1.00 20.00     0.103 C 
HETATM    3  C3  UNL     1     -34.974  13.336  -4.693  1.00 20.00     0.009 C 
HETATM    4  C4  UNL     1     -33.942  13.794  -3.659  1.00 20.00     0.001 C 
HETATM    5  C5  UNL     1     -34.256  15.142  -3.008  1.00 20.00     0.002 C 
HETATM    6  C6  UNL     1     -33.483  16.327  -3.589  1.00 20.00     0.020 C 
HETATM    7  C7  UNL     1     -33.584  16.499  -5.102  1.00 20.00     0.125 C 
HETATM    8  C8  UNL     1     -35.650  17.808  -5.499  1.00 20.00     0.152 C 
HETATM    9  N9  UNL     1     -34.969  16.520  -5.576  1.00 20.00    -0.356 N 
HETATM   10  O10 UNL     1     -36.863  15.424  -6.344  1.00 20.00    -0.273 OA
ENDROOT
TORSDOF 0
ENDMDL
MODEL 6
REMARK VINA RESULT:      -4.1      1.712      2.567
REMARK  0 active torsions:
REMARK  status: ('A' for Active; 'I' for Inactive)
ROOT
HETATM    1  C1  UNL     1     -36.414  15.444  -4.939  1.00 20.00     0.219 C 
HETATM    2  C2  UNL     1     -36.765  15.648  -3.475  1.00 20.00     0.103 C 
HETATM    3  C3  UNL     1     -35.740  16.491  -2.724  1.00 20.00     0.009 C 
HETATM    4  C4  UNL     1     -34.492  15.748  -2.240  1.00 20.00     0.001 C 
HETATM    5  C5  UNL     1     -33.496  15.399  -3.347  1.00 20.00     0.002 C 
HETATM    6  C6  UNL     1     -33.572  13.954  -3.842  1.00 20.00     0.020 C 
HETATM    7  C7  UNL     1     -34.954  13.484  -4.286  1.00 20.00     0.125 C 
HETATM    8  C8  UNL     1     -35.178  14.180  -6.654  1.00 20.00     0.152 C 
HETATM    9  N9  UNL     1     -35.569  14.384  -5.264  1.00 20.00    -0.356 N 
HETATM   10  O10 UNL     1     -36.876  16.231  -5.772  1.00 20.00    -0.273 OA
ENDROOT
TORSDOF 0
ENDMDL
MODEL 7
REMARK VINA RESULT:      -4.1      2.213      3.263
REMARK  0 active torsions:
REMARK  status: ('A' for Active; 'I' for Inactive)
ROOT
HETATM    1  C1  UNL     1     -33.501  16.082  -4.187  1.00 20.00     0.219 C 
HETATM    2  C2  UNL     1     -33.212  14.665  -3.725  1.00 20.00     0.103 C 
HETATM    3  C3  UNL     1     -33.972  13.608  -4.520  1.00 20.00     0.009 C 
HETATM    4  C4  UNL     1     -35.423  13.368  -4.093  1.00 20.00     0.001 C 
HETATM    5  C5  UNL     1     -36.394  14.475  -4.505  1.00 20.00     0.002 C 
HETATM    6  C6  UNL     1     -36.740  15.467  -3.393  1.00 20.00     0.020 C 
HETATM    7  C7  UNL     1     -35.548  16.120  -2.700  1.00 20.00     0.125 C 
HETATM    8  C8  UNL     1     -34.942  18.079  -4.093  1.00 20.00     0.152 C 
HETATM    9  N9  UNL     1     -34.610  16.730  -3.645  1.00 20.00    -0.356 N 
HETATM   10  O10 UNL     1     -32.755  16.593  -5.029  1.00 20.00    -0.273 OA
ENDROOT
TORSDOF 0
ENDMDL
MODEL 8
REMARK VINA RESULT:      -4.1      1.850      3.264
REMARK  0 active torsions:
REMARK  status: ('A' for Active; 'I' for Inactive)
ROOT
HETATM    1  C1  UNL     1     -35.410  16.628  -3.954  1.00 20.00     0.219 C 
HETATM    2  C2  UNL     1     -35.310  16.450  -5.459  1.00 20.00     0.103 C 
HETATM    3  C3  UNL     1     -35.881  15.123  -5.945  1.00 20.00     0.009 C 
HETATM    4  C4  UNL     1     -34.953  13.911  -5.818  1.00 20.00     0.001 C 
HETATM    5  C5  UNL     1     -34.782  13.393  -4.390  1.00 20.00     0.002 C 
HETATM    6  C6  UNL     1     -33.494  13.842  -3.698  1.00 20.00     0.020 C 
HETATM    7  C7  UNL     1     -33.245  15.347  -3.686  1.00 20.00     0.125 C 
HETATM    8  C8  UNL     1     -34.466  16.222  -1.715  1.00 20.00     0.152 C 
HETATM    9  N9  UNL     1     -34.386  16.105  -3.167  1.00 20.00    -0.356 N 
HETATM   10  O10 UNL     1     -36.397  17.213  -3.493  1.00 20.00    -0.273 OA
ENDROOT
TORSDOF 0
ENDMDL
MODEL 9
REMARK VINA RESULT:      -4.0      2.023      3.030
REMARK  0 active torsions:
REMARK  status: ('A' for Active; 'I' for Inactive)
ROOT
HETATM    1  C1  UNL     1     -34.140  16.814  -4.110  1.00 20.00     0.219 C 
HETATM    2  C2  UNL     1     -33.392  15.932  -3.126  1.00 20.00     0.103 C 
HETATM    3  C3  UNL     1     -33.069  14.551  -3.686  1.00 20.00     0.009 C 
HETATM    4  C4  UNL     1     -34.203  13.524  -3.625  1.00 20.00     0.001 C 
HETATM    5  C5  UNL     1     -35.317  13.752  -4.646  1.00 20.00     0.002 C 
HETATM    6  C6  UNL     1     -36.563  14.442  -4.089  1.00 20.00     0.020 C 
HETATM    7  C7  UNL     1     -36.314  15.760  -3.360  1.00 20.00     0.125 C 
HETATM    8  C8  UNL     1     -36.280  17.509  -5.116  1.00 20.00     0.152 C 
HETATM    9  N9  UNL     1     -35.529  16.705  -4.156  1.00 20.00    -0.356 N 
HETATM   10  O10 UNL     1     -33.490  17.577  -4.833  1.00 20.00    -0.273 OA
ENDROOT
TORSDOF 0
ENDMDL
