MODEL 1
REMARK VINA RESULT:      -4.1      0.000      0.000
REMARK  1 active torsions:
REMARK  status: ('A' for Active; 'I' for Inactive)
REMARK    1  A    between atoms: C3_3  and  C6_6 
ROOT
HETATM    1  C1  UNL     1     -33.995   6.062   6.080  1.00 20.00     0.202 C 
HETATM    2  C2  UNL     1     -34.935   5.200   5.273  1.00 20.00     0.144 C 
HETATM    3  C3  UNL     1     -33.766   6.533   3.875  1.00 20.00     0.260 C 
HETATM    4  C4  UNL     1     -35.053   3.778   5.778  1.00 20.00     0.042 C 
HETATM    5  O7  UNL     1     -33.668   7.122   5.180  1.00 20.00    -0.359 OA
HETATM    6  O8  UNL     1     -34.347   5.226   3.970  1.00 20.00    -0.354 OA
ENDROOT
BRANCH   3   7
HETATM    7  C6  UNL     1     -32.388   6.426   3.250  1.00 20.00     0.056 C 
HETATM    8  C5  UNL     1     -32.002   7.675   2.522  1.00 20.00     0.010 C 
ENDBRANCH   3   7
TORSDOF 1
ENDMDL
MODEL 2
REMARK VINA RESULT:      -4.0      1.121      3.691
REMARK  1 active torsions:
REMARK  status: ('A' for Active; 'I' for Inactive)
REMARK    1  A    between atoms: C3_3  and  C6_6 
ROOT
HETATM    1  C1  UNL     1     -33.105   5.528   2.568  1.00 20.00     0.202 C 
HETATM    2  C2  UNL     1     -33.086   6.864   3.270  1.00 20.00     0.144 C 
HETATM    3  C3  UNL     1     -34.878   5.683   3.972  1.00 20.00     0.260 C 
HETATM    4  C4  UNL     1     -31.703   7.326   3.675  1.00 20.00     0.042 C 
HETATM    5  O7  UNL     1     -34.453   5.088   2.737  1.00 20.00    -0.359 OA
HETATM    6  O8  UNL     1     -33.897   6.627   4.423  1.00 20.00    -0.354 OA
ENDROOT
BRANCH   3   7
HETATM    7  C6  UNL     1     -35.064   4.610   5.027  1.00 20.00     0.056 C 
HETATM    8  C5  UNL     1     -34.606   5.064   6.378  1.00 20.00     0.010 C 
ENDBRANCH   3   7
TORSDOF 1
ENDMDL
MODEL 3
REMARK VINA RESULT:      -3.9      0.876      3.689
REMARK  1 active torsions:
REMARK  status: ('A' for Active; 'I' for Inactive)
REMARK    1  A    between atoms: C3_3  and  C6_6 
ROOT
HETATM    1  C1  UNL     1     -33.919   5.565   2.986  1.00 20.00     0.202 C 
HETATM    2  C2  UNL     1     -33.193   6.816   3.417  1.00 20.00     0.144 C 
HETATM    3  C3  UNL     1     -34.583   6.160   5.070  1.00 20.00     0.260 C 
HETATM    4  C4  UNL     1     -31.739   6.858   3.000  1.00 20.00     0.042 C 
HETATM    5  O7  UNL     1     -35.039   5.515   3.872  1.00 20.00    -0.359 OA
HETATM    6  O8  UNL     1     -33.309   6.774   4.841  1.00 20.00    -0.354 OA
ENDROOT
BRANCH   3   7
HETATM    7  C6  UNL     1     -34.458   5.143   6.189  1.00 20.00     0.056 C 
HETATM    8  C5  UNL     1     -34.979   3.799   5.788  1.00 20.00     0.010 C 
ENDBRANCH   3   7
TORSDOF 1
ENDMDL
MODEL 4
REMARK VINA RESULT:      -3.8      1.201      1.791
REMARK  1 active torsions:
REMARK  status: ('A' for Active; 'I' for Inactive)
REMARK    1  A    between atoms: C3_3  and  C6_6 
ROOT
HETATM    1  C1  UNL     1     -35.235   5.368   3.864  1.00 20.00     0.202 C 
HETATM    2  C2  UNL     1     -34.306   5.011   4.998  1.00 20.00     0.144 C 
HETATM    3  C3  UNL     1     -33.089   5.773   3.256  1.00 20.00     0.260 C 
HETATM    4  C4  UNL     1     -34.832   5.387   6.366  1.00 20.00     0.042 C 
HETATM    5  O7  UNL     1     -34.369   5.396   2.728  1.00 20.00    -0.359 OA
HETATM    6  O8  UNL     1     -33.127   5.758   4.689  1.00 20.00    -0.354 OA
ENDROOT
BRANCH   3   7
HETATM    7  C6  UNL     1     -32.722   7.164   2.777  1.00 20.00     0.056 C 
HETATM    8  C5  UNL     1     -31.528   7.709   3.497  1.00 20.00     0.010 C 
ENDBRANCH   3   7
TORSDOF 1
ENDMDL
MODEL 5
REMARK VINA RESULT:      -3.7     11.760     12.693
REMARK  1 active torsions:
REMARK  status: ('A' for Active; 'I' for Inactive)
REMARK    1  A    between atoms: C3_3  and  C6_6 
ROOT
HETATM    1  C1  UNL     1     -34.293  13.286  -4.908  1.00 20.00     0.202 C 
HETATM    2  C2  UNL     1     -35.289  14.216  -5.557  1.00 20.00     0.144 C 
HETATM    3  C3  UNL     1     -35.036  14.797  -3.390  1.00 20.00     0.260 C 
HETATM    4  C4  UNL     1     -34.925  14.617  -6.971  1.00 20.00     0.042 C 
HETATM    5  O7  UNL     1     -34.552  13.451  -3.513  1.00 20.00    -0.359 OA
HETATM    6  O8  UNL     1     -35.272  15.353  -4.691  1.00 20.00    -0.354 OA
ENDROOT
BRANCH   3   7
HETATM    7  C6  UNL     1     -34.018  15.648  -2.657  1.00 20.00     0.056 C 
HETATM    8  C5  UNL     1     -34.605  16.309  -1.449  1.00 20.00     0.010 C 
ENDBRANCH   3   7
TORSDOF 1
ENDMDL
MODEL 6
REMARK VINA RESULT:      -3.5     11.725     12.648
REMARK  1 active torsions:
REMARK  status: ('A' for Active; 'I' for Inactive)
REMARK    1  A    between atoms: C3_3  and  C6_6 
ROOT
HETATM    1  C1  UNL     1     -34.056  15.415  -5.153  1.00 20.00     0.202 C 
HETATM    2  C2  UNL     1     -34.012  14.181  -4.285  1.00 20.00     0.144 C 
HETATM    3  C3  UNL     1     -33.320  15.961  -3.080  1.00 20.00     0.260 C 
HETATM    4  C4  UNL     1     -35.177  13.238  -4.497  1.00 20.00     0.042 C 
HETATM    5  O7  UNL     1     -33.208  16.333  -4.461  1.00 20.00    -0.359 OA
HETATM    6  O8  UNL     1     -34.036  14.724  -2.963  1.00 20.00    -0.354 OA
ENDROOT
BRANCH   3   7
HETATM    7  C6  UNL     1     -34.056  17.041  -2.311  1.00 20.00     0.056 C 
HETATM    8  C5  UNL     1     -34.628  16.527  -1.027  1.00 20.00     0.010 C 
ENDBRANCH   3   7
TORSDOF 1
ENDMDL
MODEL 7
REMARK VINA RESULT:      -3.5     12.003     12.824
REMARK  1 active torsions:
REMARK  status: ('A' for Active; 'I' for Inactive)
REMARK    1  A    between atoms: C3_3  and  C6_6 
ROOT
HETATM    1  C1  UNL     1     -35.917  15.053  -3.395  1.00 20.00     0.202 C 
HETATM    2  C2  UNL     1     -34.435  14.917  -3.145  1.00 20.00     0.144 C 
HETATM    3  C3  UNL     1     -34.975  13.792  -5.026  1.00 20.00     0.260 C 
HETATM    4  C4  UNL     1     -33.779  16.181  -2.634  1.00 20.00     0.042 C 
HETATM    5  O7  UNL     1     -36.197  13.981  -4.297  1.00 20.00    -0.359 OA
HETATM    6  O8  UNL     1     -33.927  14.571  -4.435  1.00 20.00    -0.354 OA
ENDROOT
BRANCH   3   7
HETATM    7  C6  UNL     1     -35.163  14.216  -6.470  1.00 20.00     0.056 C 
HETATM    8  C5  UNL     1     -34.275  15.362  -6.840  1.00 20.00     0.010 C 
ENDBRANCH   3   7
TORSDOF 1
ENDMDL
MODEL 8
REMARK VINA RESULT:      -3.5      9.452     10.233
REMARK  1 active torsions:
REMARK  status: ('A' for Active; 'I' for Inactive)
REMARK    1  A    between atoms: C3_3  and  C6_6 
ROOT
HETATM    1  C1  UNL     1     -41.982   5.651   0.170  1.00 20.00     0.202 C 
HETATM    2  C2  UNL     1     -41.173   6.505  -0.776  1.00 20.00     0.144 C 
HETATM    3  C3  UNL     1     -41.183   4.375  -1.525  1.00 20.00     0.260 C 
HETATM    4  C4  UNL     1     -41.761   7.879  -1.019  1.00 20.00     0.042 C 
HETATM    5  O7  UNL     1     -41.553   4.324  -0.139  1.00 20.00    -0.359 OA
HETATM    6  O8  UNL     1     -41.178   5.735  -1.980  1.00 20.00    -0.354 OA
ENDROOT
BRANCH   3   7
HETATM    7  C6  UNL     1     -42.167   3.572  -2.353  1.00 20.00     0.056 C 
HETATM    8  C5  UNL     1     -41.483   2.540  -3.194  1.00 20.00     0.010 C 
ENDBRANCH   3   7
TORSDOF 1
ENDMDL
MODEL 9
REMARK VINA RESULT:      -3.5     12.310     13.695
REMARK  1 active torsions:
REMARK  status: ('A' for Active; 'I' for Inactive)
REMARK    1  A    between atoms: C3_3  and  C6_6 
ROOT
HETATM    1  C1  UNL     1     -33.923  17.659  -4.689  1.00 20.00     0.202 C 
HETATM    2  C2  UNL     1     -33.449  16.317  -5.191  1.00 20.00     0.144 C 
HETATM    3  C3  UNL     1     -33.622  16.247  -2.941  1.00 20.00     0.260 C 
HETATM    4  C4  UNL     1     -34.117  15.870  -6.474  1.00 20.00     0.042 C 
HETATM    5  O7  UNL     1     -33.569  17.634  -3.305  1.00 20.00    -0.359 OA
HETATM    6  O8  UNL     1     -33.786  15.439  -4.114  1.00 20.00    -0.354 OA
ENDROOT
BRANCH   3   7
HETATM    7  C6  UNL     1     -34.783  16.003  -1.998  1.00 20.00     0.056 C 
HETATM    8  C5  UNL     1     -34.617  16.732  -0.701  1.00 20.00     0.010 C 
ENDBRANCH   3   7
TORSDOF 1
ENDMDL
