MODEL 1
REMARK VINA RESULT:      -4.2      0.000      0.000
REMARK  3 active torsions:
REMARK  status: ('A' for Active; 'I' for Inactive)
REMARK    1  A    between atoms: C1_1  and  C4_4 
REMARK    2  A    between atoms: C2_2  and  C7_7 
REMARK    3  A    between atoms: C7_7  and  O8_8 
ROOT
HETATM    1  C1  UNL     1     -34.315  15.623  -2.817  1.00 20.00    -0.070 C 
HETATM    2  C2  UNL     1     -34.365  14.687  -3.568  1.00 20.00    -0.070 C 
ENDROOT
BRANCH   2   3
HETATM    3  C7  UNL     1     -34.428  13.543  -4.486  1.00 20.00     0.193 C 
HETATM    4  C6  UNL     1     -34.861  13.979  -5.876  1.00 20.00     0.053 C 
BRANCH   3   5
HETATM    5  O8  UNL     1     -35.370  12.587  -4.008  1.00 20.00    -0.384 OA
HETATM    6  H18 UNL     1     -34.869  11.943  -3.484  1.00 20.00     0.211 HD
ENDBRANCH   3   5
ENDBRANCH   2   3
BRANCH   1   7
HETATM    7  C4  UNL     1     -34.253  16.739  -1.929  1.00 20.00    -0.018 C 
HETATM    8  C3  UNL     1     -34.677  16.597  -0.664  1.00 20.00     0.028 C 
HETATM    9  C5  UNL     1     -33.714  18.043  -2.440  1.00 20.00     0.057 C 
ENDBRANCH   1   7
TORSDOF 3
ENDMDL
MODEL 2
REMARK VINA RESULT:      -4.2      2.034      2.375
REMARK  3 active torsions:
REMARK  status: ('A' for Active; 'I' for Inactive)
REMARK    1  A    between atoms: C1_1  and  C4_4 
REMARK    2  A    between atoms: C2_2  and  C7_7 
REMARK    3  A    between atoms: C7_7  and  O8_8 
ROOT
HETATM    1  C1  UNL     1     -33.819  16.748  -1.792  1.00 20.00    -0.070 C 
HETATM    2  C2  UNL     1     -33.714  16.115  -2.807  1.00 20.00    -0.070 C 
ENDROOT
BRANCH   2   3
HETATM    3  C7  UNL     1     -33.587  15.342  -4.049  1.00 20.00     0.193 C 
HETATM    4  C6  UNL     1     -33.422  13.859  -3.757  1.00 20.00     0.053 C 
BRANCH   3   5
HETATM    5  O8  UNL     1     -32.444  15.779  -4.779  1.00 20.00    -0.384 OA
HETATM    6  H18 UNL     1     -32.648  16.669  -5.105  1.00 20.00     0.211 HD
ENDBRANCH   3   5
ENDBRANCH   2   3
BRANCH   1   7
HETATM    7  C4  UNL     1     -33.938  17.498  -0.584  1.00 20.00    -0.018 C 
HETATM    8  C3  UNL     1     -34.975  17.266   0.235  1.00 20.00     0.028 C 
HETATM    9  C5  UNL     1     -32.895  18.530  -0.266  1.00 20.00     0.057 C 
ENDBRANCH   1   7
TORSDOF 3
ENDMDL
MODEL 3
REMARK VINA RESULT:      -4.1      0.069      1.243
REMARK  3 active torsions:
REMARK  status: ('A' for Active; 'I' for Inactive)
REMARK    1  A    between atoms: C1_1  and  C4_4 
REMARK    2  A    between atoms: C2_2  and  C7_7 
REMARK    3  A    between atoms: C7_7  and  O8_8 
ROOT
HETATM    1  C1  UNL     1     -34.297  15.650  -2.874  1.00 20.00    -0.070 C 
HETATM    2  C2  UNL     1     -34.360  14.703  -3.609  1.00 20.00    -0.070 C 
ENDROOT
BRANCH   2   3
HETATM    3  C7  UNL     1     -34.439  13.544  -4.507  1.00 20.00     0.193 C 
HETATM    4  C6  UNL     1     -34.901  13.957  -5.895  1.00 20.00     0.053 C 
BRANCH   3   5
HETATM    5  O8  UNL     1     -35.368  12.593  -3.996  1.00 20.00    -0.384 OA
HETATM    6  H18 UNL     1     -35.996  13.089  -3.448  1.00 20.00     0.211 HD
ENDBRANCH   3   5
ENDBRANCH   2   3
BRANCH   1   7
HETATM    7  C4  UNL     1     -34.218  16.780  -2.005  1.00 20.00    -0.018 C 
HETATM    8  C3  UNL     1     -33.727  17.937  -2.473  1.00 20.00     0.028 C 
HETATM    9  C5  UNL     1     -34.690  16.637  -0.587  1.00 20.00     0.057 C 
ENDBRANCH   1   7
TORSDOF 3
ENDMDL
MODEL 4
REMARK VINA RESULT:      -4.1     11.510     12.166
REMARK  3 active torsions:
REMARK  status: ('A' for Active; 'I' for Inactive)
REMARK    1  A    between atoms: C1_1  and  C4_4 
REMARK    2  A    between atoms: C2_2  and  C7_7 
REMARK    3  A    between atoms: C7_7  and  O8_8 
ROOT
HETATM    1  C1  UNL     1     -33.220   6.475   3.871  1.00 20.00    -0.070 C 
HETATM    2  C2  UNL     1     -34.097   5.821   4.369  1.00 20.00    -0.070 C 
ENDROOT
BRANCH   2   3
HETATM    3  C7  UNL     1     -35.167   5.020   4.976  1.00 20.00     0.193 C 
HETATM    4  C6  UNL     1     -34.978   4.905   6.481  1.00 20.00     0.053 C 
BRANCH   3   5
HETATM    5  O8  UNL     1     -35.164   3.706   4.427  1.00 20.00    -0.384 OA
HETATM    6  H18 UNL     1     -34.395   3.251   4.804  1.00 20.00     0.211 HD
ENDBRANCH   3   5
ENDBRANCH   2   3
BRANCH   1   7
HETATM    7  C4  UNL     1     -32.179   7.255   3.285  1.00 20.00    -0.018 C 
HETATM    8  C3  UNL     1     -31.106   7.578   4.021  1.00 20.00     0.028 C 
HETATM    9  C5  UNL     1     -32.319   7.694   1.856  1.00 20.00     0.057 C 
ENDBRANCH   1   7
TORSDOF 3
ENDMDL
MODEL 5
REMARK VINA RESULT:      -3.9     11.339     12.110
REMARK  3 active torsions:
REMARK  status: ('A' for Active; 'I' for Inactive)
REMARK    1  A    between atoms: C1_1  and  C4_4 
REMARK    2  A    between atoms: C2_2  and  C7_7 
REMARK    3  A    between atoms: C7_7  and  O8_8 
ROOT
HETATM    1  C1  UNL     1     -33.698   5.933   4.319  1.00 20.00    -0.070 C 
HETATM    2  C2  UNL     1     -32.914   6.552   3.651  1.00 20.00    -0.070 C 
ENDROOT
BRANCH   2   3
HETATM    3  C7  UNL     1     -31.958   7.310   2.834  1.00 20.00     0.193 C 
HETATM    4  C6  UNL     1     -30.908   7.982   3.703  1.00 20.00     0.053 C 
BRANCH   3   5
HETATM    5  O8  UNL     1     -32.640   8.323   2.100  1.00 20.00    -0.384 OA
HETATM    6  H18 UNL     1     -33.388   8.605   2.649  1.00 20.00     0.211 HD
ENDBRANCH   3   5
ENDBRANCH   2   3
BRANCH   1   7
HETATM    7  C4  UNL     1     -34.623   5.196   5.117  1.00 20.00    -0.018 C 
HETATM    8  C3  UNL     1     -35.389   4.259   4.538  1.00 20.00     0.028 C 
HETATM    9  C5  UNL     1     -34.712   5.493   6.585  1.00 20.00     0.057 C 
ENDBRANCH   1   7
TORSDOF 3
ENDMDL
MODEL 6
REMARK VINA RESULT:      -3.8      9.891     10.547
REMARK  3 active torsions:
REMARK  status: ('A' for Active; 'I' for Inactive)
REMARK    1  A    between atoms: C1_1  and  C4_4 
REMARK    2  A    between atoms: C2_2  and  C7_7 
REMARK    3  A    between atoms: C7_7  and  O8_8 
ROOT
HETATM    1  C1  UNL     1     -32.675   7.677   2.550  1.00 20.00    -0.070 C 
HETATM    2  C2  UNL     1     -33.077   6.851   3.323  1.00 20.00    -0.070 C 
ENDROOT
BRANCH   2   3
HETATM    3  C7  UNL     1     -33.566   5.842   4.270  1.00 20.00     0.193 C 
HETATM    4  C6  UNL     1     -34.898   5.266   3.817  1.00 20.00     0.053 C 
BRANCH   3   5
HETATM    5  O8  UNL     1     -33.752   6.428   5.556  1.00 20.00    -0.384 OA
HETATM    6  H18 UNL     1     -34.299   7.218   5.422  1.00 20.00     0.211 HD
ENDBRANCH   3   5
ENDBRANCH   2   3
BRANCH   1   7
HETATM    7  C4  UNL     1     -32.203   8.662   1.630  1.00 20.00    -0.018 C 
HETATM    8  C3  UNL     1     -31.404   8.288   0.620  1.00 20.00     0.028 C 
HETATM    9  C5  UNL     1     -32.618  10.091   1.823  1.00 20.00     0.057 C 
ENDBRANCH   1   7
TORSDOF 3
ENDMDL
MODEL 7
REMARK VINA RESULT:      -3.8     10.052     10.798
REMARK  3 active torsions:
REMARK  status: ('A' for Active; 'I' for Inactive)
REMARK    1  A    between atoms: C1_1  and  C4_4 
REMARK    2  A    between atoms: C2_2  and  C7_7 
REMARK    3  A    between atoms: C7_7  and  O8_8 
ROOT
HETATM    1  C1  UNL     1     -33.273   6.919   3.502  1.00 20.00    -0.070 C 
HETATM    2  C2  UNL     1     -32.632   7.646   2.792  1.00 20.00    -0.070 C 
ENDROOT
BRANCH   2   3
HETATM    3  C7  UNL     1     -31.847   8.533   1.924  1.00 20.00     0.193 C 
HETATM    4  C6  UNL     1     -32.558   9.860   1.712  1.00 20.00     0.053 C 
BRANCH   3   5
HETATM    5  O8  UNL     1     -31.656   7.924   0.650  1.00 20.00    -0.384 OA
HETATM    6  H18 UNL     1     -30.731   7.633   0.619  1.00 20.00     0.211 HD
ENDBRANCH   3   5
ENDBRANCH   2   3
BRANCH   1   7
HETATM    7  C4  UNL     1     -34.040   6.058   4.343  1.00 20.00    -0.018 C 
HETATM    8  C3  UNL     1     -34.825   5.124   3.786  1.00 20.00     0.028 C 
HETATM    9  C5  UNL     1     -33.944   6.227   5.831  1.00 20.00     0.057 C 
ENDBRANCH   1   7
TORSDOF 3
ENDMDL
MODEL 8
REMARK VINA RESULT:      -3.8      2.477      4.645
REMARK  3 active torsions:
REMARK  status: ('A' for Active; 'I' for Inactive)
REMARK    1  A    between atoms: C1_1  and  C4_4 
REMARK    2  A    between atoms: C2_2  and  C7_7 
REMARK    3  A    between atoms: C7_7  and  O8_8 
ROOT
HETATM    1  C1  UNL     1     -34.577  15.427  -2.562  1.00 20.00    -0.070 C 
HETATM    2  C2  UNL     1     -34.632  16.324  -1.766  1.00 20.00    -0.070 C 
ENDROOT
BRANCH   2   3
HETATM    3  C7  UNL     1     -34.702  17.420  -0.791  1.00 20.00     0.193 C 
HETATM    4  C6  UNL     1     -33.327  18.022  -0.545  1.00 20.00     0.053 C 
BRANCH   3   5
HETATM    5  O8  UNL     1     -35.201  16.935   0.452  1.00 20.00    -0.384 OA
HETATM    6  H18 UNL     1     -35.690  17.668   0.858  1.00 20.00     0.211 HD
ENDBRANCH   3   5
ENDBRANCH   2   3
BRANCH   1   7
HETATM    7  C4  UNL     1     -34.505  14.363  -3.510  1.00 20.00    -0.018 C 
HETATM    8  C3  UNL     1     -33.324  13.770  -3.744  1.00 20.00     0.028 C 
HETATM    9  C5  UNL     1     -35.757  13.938  -4.220  1.00 20.00     0.057 C 
ENDBRANCH   1   7
TORSDOF 3
ENDMDL
MODEL 9
REMARK VINA RESULT:      -3.7     12.256     14.091
REMARK  3 active torsions:
REMARK  status: ('A' for Active; 'I' for Inactive)
REMARK    1  A    between atoms: C1_1  and  C4_4 
REMARK    2  A    between atoms: C2_2  and  C7_7 
REMARK    3  A    between atoms: C7_7  and  O8_8 
ROOT
HETATM    1  C1  UNL     1     -41.600   3.502  -2.331  1.00 20.00    -0.070 C 
HETATM    2  C2  UNL     1     -41.274   4.474  -1.705  1.00 20.00    -0.070 C 
ENDROOT
BRANCH   2   3
HETATM    3  C7  UNL     1     -40.877   5.664  -0.942  1.00 20.00     0.193 C 
HETATM    4  C6  UNL     1     -41.868   5.955   0.173  1.00 20.00     0.053 C 
BRANCH   3   5
HETATM    5  O8  UNL     1     -40.830   6.800  -1.801  1.00 20.00    -0.384 OA
HETATM    6  H18 UNL     1     -39.955   7.199  -1.683  1.00 20.00     0.211 HD
ENDBRANCH   3   5
ENDBRANCH   2   3
BRANCH   1   7
HETATM    7  C4  UNL     1     -41.987   2.342  -3.068  1.00 20.00    -0.018 C 
HETATM    8  C3  UNL     1     -41.175   1.872  -4.027  1.00 20.00     0.028 C 
HETATM    9  C5  UNL     1     -43.296   1.683  -2.746  1.00 20.00     0.057 C 
ENDBRANCH   1   7
TORSDOF 3
ENDMDL
