MODEL 1
REMARK VINA RESULT:      -4.8      0.000      0.000
REMARK  1 active torsions:
REMARK  status: ('A' for Active; 'I' for Inactive)
REMARK    1  A    between atoms: C5_5  and  C10_10 
ROOT
HETATM    1  C1  UNL     1     -35.327  15.320  -3.014  1.00 20.00    -0.018 C 
HETATM    2  C2  UNL     1     -34.843  15.842  -1.878  1.00 20.00    -0.025 C 
HETATM    3  C3  UNL     1     -33.721  16.705  -4.326  1.00 20.00     0.135 C 
HETATM    4  C4  UNL     1     -33.727  17.688  -3.176  1.00 20.00     0.087 C 
HETATM    5  C5  UNL     1     -34.899  15.733  -4.396  1.00 20.00     0.081 C 
HETATM    6  C6  UNL     1     -33.819  16.945  -1.841  1.00 20.00     0.010 C 
HETATM    7  C7  UNL     1     -34.127  17.934  -0.716  1.00 20.00     0.014 C 
HETATM    8  O11 UNL     1     -32.857  16.762  -5.201  1.00 20.00    -0.297 OA
ENDROOT
BRANCH   5   9
HETATM    9  C10 UNL     1     -34.538  14.507  -5.231  1.00 20.00    -0.008 C 
HETATM   10  C8  UNL     1     -34.895  13.222  -4.485  1.00 20.00     0.010 C 
HETATM   11  C9  UNL     1     -35.242  14.551  -6.587  1.00 20.00     0.010 C 
ENDBRANCH   5   9
TORSDOF 1
ENDMDL
MODEL 2
REMARK VINA RESULT:      -4.7      1.690      2.507
REMARK  1 active torsions:
REMARK  status: ('A' for Active; 'I' for Inactive)
REMARK    1  A    between atoms: C5_5  and  C10_10 
ROOT
HETATM    1  C1  UNL     1     -35.066  16.423  -5.004  1.00 20.00    -0.018 C 
HETATM    2  C2  UNL     1     -35.263  16.789  -3.730  1.00 20.00    -0.025 C 
HETATM    3  C3  UNL     1     -34.575  14.097  -4.250  1.00 20.00     0.135 C 
HETATM    4  C4  UNL     1     -34.139  14.684  -2.927  1.00 20.00     0.087 C 
HETATM    5  C5  UNL     1     -34.614  15.056  -5.440  1.00 20.00     0.081 C 
HETATM    6  C6  UNL     1     -35.025  15.877  -2.556  1.00 20.00     0.010 C 
HETATM    7  C7  UNL     1     -34.402  16.644  -1.389  1.00 20.00     0.014 C 
HETATM    8  O11 UNL     1     -34.790  12.890  -4.365  1.00 20.00    -0.297 OA
ENDROOT
BRANCH   5   9
HETATM    9  C10 UNL     1     -35.530  14.518  -6.538  1.00 20.00    -0.008 C 
HETATM   10  C8  UNL     1     -36.918  15.150  -6.441  1.00 20.00     0.010 C 
HETATM   11  C9  UNL     1     -34.923  14.768  -7.918  1.00 20.00     0.010 C 
ENDBRANCH   5   9
TORSDOF 1
ENDMDL
MODEL 3
REMARK VINA RESULT:      -4.6      1.486      4.469
REMARK  1 active torsions:
REMARK  status: ('A' for Active; 'I' for Inactive)
REMARK    1  A    between atoms: C5_5  and  C10_10 
ROOT
HETATM    1  C1  UNL     1     -35.363  16.385  -4.639  1.00 20.00    -0.018 C 
HETATM    2  C2  UNL     1     -35.262  16.100  -5.945  1.00 20.00    -0.025 C 
HETATM    3  C3  UNL     1     -34.317  14.190  -4.086  1.00 20.00     0.135 C 
HETATM    4  C4  UNL     1     -34.848  13.676  -5.406  1.00 20.00     0.087 C 
HETATM    5  C5  UNL     1     -34.986  15.445  -3.526  1.00 20.00     0.081 C 
HETATM    6  C6  UNL     1     -34.782  14.774  -6.470  1.00 20.00     0.010 C 
HETATM    7  C7  UNL     1     -35.587  14.354  -7.701  1.00 20.00     0.014 C 
HETATM    8  O11 UNL     1     -33.457  13.565  -3.465  1.00 20.00    -0.297 OA
ENDROOT
BRANCH   5   9
HETATM    9  C10 UNL     1     -34.070  16.145  -2.525  1.00 20.00    -0.008 C 
HETATM   10  C8  UNL     1     -33.621  17.503  -3.062  1.00 20.00     0.010 C 
HETATM   11  C9  UNL     1     -34.769  16.309  -1.176  1.00 20.00     0.010 C 
ENDBRANCH   5   9
TORSDOF 1
ENDMDL
MODEL 4
REMARK VINA RESULT:      -4.4      1.149      4.121
REMARK  1 active torsions:
REMARK  status: ('A' for Active; 'I' for Inactive)
REMARK    1  A    between atoms: C5_5  and  C10_10 
ROOT
HETATM    1  C1  UNL     1     -34.385  15.478  -2.484  1.00 20.00    -0.018 C 
HETATM    2  C2  UNL     1     -34.951  14.951  -3.579  1.00 20.00    -0.025 C 
HETATM    3  C3  UNL     1     -33.652  17.451  -3.821  1.00 20.00     0.135 C 
HETATM    4  C4  UNL     1     -33.669  16.553  -5.038  1.00 20.00     0.087 C 
HETATM    5  C5  UNL     1     -33.587  16.753  -2.462  1.00 20.00     0.081 C 
HETATM    6  C6  UNL     1     -34.831  15.560  -4.950  1.00 20.00     0.010 C 
HETATM    7  C7  UNL     1     -34.667  14.474  -6.014  1.00 20.00     0.014 C 
HETATM    8  O11 UNL     1     -33.596  18.675  -3.940  1.00 20.00    -0.297 OA
ENDROOT
BRANCH   5   9
HETATM    9  C10 UNL     1     -34.090  17.678  -1.356  1.00 20.00    -0.008 C 
HETATM   10  C8  UNL     1     -34.909  16.896  -0.329  1.00 20.00     0.010 C 
HETATM   11  C9  UNL     1     -32.923  18.393  -0.677  1.00 20.00     0.010 C 
ENDBRANCH   5   9
TORSDOF 1
ENDMDL
MODEL 5
REMARK VINA RESULT:      -4.3      3.848      5.691
REMARK  1 active torsions:
REMARK  status: ('A' for Active; 'I' for Inactive)
REMARK    1  A    between atoms: C5_5  and  C10_10 
ROOT
HETATM    1  C1  UNL     1     -34.799  17.973   1.429  1.00 20.00    -0.018 C 
HETATM    2  C2  UNL     1     -34.568  17.773   2.734  1.00 20.00    -0.025 C 
HETATM    3  C3  UNL     1     -32.488  18.873   1.165  1.00 20.00     0.135 C 
HETATM    4  C4  UNL     1     -32.541  19.263   2.626  1.00 20.00     0.087 C 
HETATM    5  C5  UNL     1     -33.831  18.624   0.479  1.00 20.00     0.081 C 
HETATM    6  C6  UNL     1     -33.307  18.209   3.430  1.00 20.00     0.010 C 
HETATM    7  C7  UNL     1     -33.617  18.747   4.828  1.00 20.00     0.014 C 
HETATM    8  O11 UNL     1     -31.419  18.855   0.555  1.00 20.00    -0.297 OA
ENDROOT
BRANCH   5   9
HETATM    9  C10 UNL     1     -33.649  17.763  -0.769  1.00 20.00    -0.008 C 
HETATM   10  C8  UNL     1     -34.682  16.638  -0.805  1.00 20.00     0.010 C 
HETATM   11  C9  UNL     1     -33.744  18.617  -2.033  1.00 20.00     0.010 C 
ENDBRANCH   5   9
TORSDOF 1
ENDMDL
MODEL 6
REMARK VINA RESULT:      -4.1      2.076      4.401
REMARK  1 active torsions:
REMARK  status: ('A' for Active; 'I' for Inactive)
REMARK    1  A    between atoms: C5_5  and  C10_10 
ROOT
HETATM    1  C1  UNL     1     -33.967  15.973  -2.760  1.00 20.00    -0.018 C 
HETATM    2  C2  UNL     1     -33.989  14.702  -3.184  1.00 20.00    -0.025 C 
HETATM    3  C3  UNL     1     -36.361  16.224  -3.414  1.00 20.00     0.135 C 
HETATM    4  C4  UNL     1     -36.131  15.132  -4.435  1.00 20.00     0.087 C 
HETATM    5  C5  UNL     1     -35.115  16.938  -2.890  1.00 20.00     0.081 C 
HETATM    6  C6  UNL     1     -35.169  14.078  -3.880  1.00 20.00     0.010 C 
HETATM    7  C7  UNL     1     -34.708  13.152  -5.006  1.00 20.00     0.014 C 
HETATM    8  O11 UNL     1     -37.501  16.570  -3.106  1.00 20.00    -0.297 OA
ENDROOT
BRANCH   5   9
HETATM    9  C10 UNL     1     -35.401  17.608  -1.548  1.00 20.00    -0.008 C 
HETATM   10  C8  UNL     1     -34.690  16.870  -0.413  1.00 20.00     0.010 C 
HETATM   11  C9  UNL     1     -34.979  19.077  -1.577  1.00 20.00     0.010 C 
ENDBRANCH   5   9
TORSDOF 1
ENDMDL
MODEL 7
REMARK VINA RESULT:      -4.1      1.701      2.591
REMARK  1 active torsions:
REMARK  status: ('A' for Active; 'I' for Inactive)
REMARK    1  A    between atoms: C5_5  and  C10_10 
ROOT
HETATM    1  C1  UNL     1     -33.613  17.270  -4.706  1.00 20.00    -0.018 C 
HETATM    2  C2  UNL     1     -33.791  17.788  -3.483  1.00 20.00    -0.025 C 
HETATM    3  C3  UNL     1     -34.994  15.296  -4.064  1.00 20.00     0.135 C 
HETATM    4  C4  UNL     1     -34.586  15.556  -2.631  1.00 20.00     0.087 C 
HETATM    5  C5  UNL     1     -34.114  15.921  -5.146  1.00 20.00     0.081 C 
HETATM    6  C6  UNL     1     -34.495  17.061  -2.368  1.00 20.00     0.010 C 
HETATM    7  C7  UNL     1     -33.799  17.314  -1.030  1.00 20.00     0.014 C 
HETATM    8  O11 UNL     1     -35.930  14.541  -4.326  1.00 20.00    -0.297 OA
ENDROOT
BRANCH   5   9
HETATM    9  C10 UNL     1     -34.878  16.040  -6.462  1.00 20.00    -0.008 C 
HETATM   10  C8  UNL     1     -34.627  17.400  -7.112  1.00 20.00     0.010 C 
HETATM   11  C9  UNL     1     -34.489  14.911  -7.417  1.00 20.00     0.010 C 
ENDBRANCH   5   9
TORSDOF 1
ENDMDL
MODEL 8
REMARK VINA RESULT:      -4.1      2.658      3.734
REMARK  1 active torsions:
REMARK  status: ('A' for Active; 'I' for Inactive)
REMARK    1  A    between atoms: C5_5  and  C10_10 
ROOT
HETATM    1  C1  UNL     1     -34.921  15.592  -6.118  1.00 20.00    -0.018 C 
HETATM    2  C2  UNL     1     -33.915  15.741  -5.244  1.00 20.00    -0.025 C 
HETATM    3  C3  UNL     1     -36.195  14.286  -4.417  1.00 20.00     0.135 C 
HETATM    4  C4  UNL     1     -34.865  13.907  -3.804  1.00 20.00     0.087 C 
HETATM    5  C5  UNL     1     -36.160  14.778  -5.864  1.00 20.00     0.081 C 
HETATM    6  C6  UNL     1     -33.884  15.080  -3.892  1.00 20.00     0.010 C 
HETATM    7  C7  UNL     1     -32.472  14.602  -3.553  1.00 20.00     0.014 C 
HETATM    8  O11 UNL     1     -37.246  14.111  -3.802  1.00 20.00    -0.297 OA
ENDROOT
BRANCH   5   9
HETATM    9  C10 UNL     1     -37.409  15.596  -6.186  1.00 20.00    -0.008 C 
HETATM   10  C8  UNL     1     -37.179  17.076  -5.879  1.00 20.00     0.010 C 
HETATM   11  C9  UNL     1     -37.815  15.411  -7.648  1.00 20.00     0.010 C 
ENDBRANCH   5   9
TORSDOF 1
ENDMDL
MODEL 9
REMARK VINA RESULT:      -4.0      2.088      3.665
REMARK  1 active torsions:
REMARK  status: ('A' for Active; 'I' for Inactive)
REMARK    1  A    between atoms: C5_5  and  C10_10 
ROOT
HETATM    1  C1  UNL     1     -34.037  15.563  -6.058  1.00 20.00    -0.018 C 
HETATM    2  C2  UNL     1     -34.569  16.462  -6.898  1.00 20.00    -0.025 C 
HETATM    3  C3  UNL     1     -33.626  17.373  -4.392  1.00 20.00     0.135 C 
HETATM    4  C4  UNL     1     -33.571  18.342  -5.553  1.00 20.00     0.087 C 
HETATM    5  C5  UNL     1     -33.416  15.897  -4.729  1.00 20.00     0.081 C 
HETATM    6  C6  UNL     1     -34.586  17.943  -6.628  1.00 20.00     0.010 C 
HETATM    7  C7  UNL     1     -34.320  18.732  -7.910  1.00 20.00     0.014 C 
HETATM    8  O11 UNL     1     -33.739  17.779  -3.236  1.00 20.00    -0.297 OA
ENDROOT
BRANCH   5   9
HETATM    9  C10 UNL     1     -33.994  15.005  -3.632  1.00 20.00    -0.008 C 
HETATM   10  C8  UNL     1     -35.518  14.955  -3.725  1.00 20.00     0.010 C 
HETATM   11  C9  UNL     1     -33.406  13.597  -3.715  1.00 20.00     0.010 C 
ENDBRANCH   5   9
TORSDOF 1
ENDMDL
