MODEL 1
REMARK VINA RESULT:      -4.8      0.000      0.000
REMARK  4 active torsions:
REMARK  status: ('A' for Active; 'I' for Inactive)
REMARK    1  A    between atoms: C1_1  and  C4_4 
REMARK    2  A    between atoms: C2_2  and  C7_7 
REMARK    3  A    between atoms: C7_7  and  C8_8 
REMARK    4  A    between atoms: C8_8  and  O9_9 
ROOT
HETATM    1  C1  UNL     1     -33.117   6.711   3.417  1.00 20.00    -0.072 C 
HETATM    2  C2  UNL     1     -34.044   6.014   3.729  1.00 20.00    -0.099 C 
ENDROOT
BRANCH   2   3
HETATM    3  C7  UNL     1     -35.182   5.160   4.108  1.00 20.00     0.125 C 
BRANCH   3   4
HETATM    4  C8  UNL     1     -35.141   4.809   5.597  1.00 20.00     0.125 C 
HETATM    5  C6  UNL     1     -34.423   5.888   6.398  1.00 20.00     0.040 C 
BRANCH   4   6
HETATM    6  O9  UNL     1     -34.437   3.579   5.759  1.00 20.00    -0.395 OA
HETATM    7  H21 UNL     1     -34.548   3.318   6.686  1.00 20.00     0.210 HD
ENDBRANCH   4   6
ENDBRANCH   3   4
ENDBRANCH   2   3
BRANCH   1   8
HETATM    8  C4  UNL     1     -32.015   7.541   3.051  1.00 20.00    -0.018 C 
HETATM    9  C3  UNL     1     -31.009   7.715   3.920  1.00 20.00     0.028 C 
HETATM   10  C5  UNL     1     -32.015   8.194   1.701  1.00 20.00     0.057 C 
ENDBRANCH   1   8
TORSDOF 4
ENDMDL
MODEL 2
REMARK VINA RESULT:      -4.8      2.657      5.219
REMARK  4 active torsions:
REMARK  status: ('A' for Active; 'I' for Inactive)
REMARK    1  A    between atoms: C1_1  and  C4_4 
REMARK    2  A    between atoms: C2_2  and  C7_7 
REMARK    3  A    between atoms: C7_7  and  C8_8 
REMARK    4  A    between atoms: C8_8  and  O9_9 
ROOT
HETATM    1  C1  UNL     1     -33.465   6.383   4.130  1.00 20.00    -0.072 C 
HETATM    2  C2  UNL     1     -32.693   7.008   3.454  1.00 20.00    -0.099 C 
ENDROOT
BRANCH   2   3
HETATM    3  C7  UNL     1     -31.745   7.770   2.625  1.00 20.00     0.125 C 
BRANCH   3   4
HETATM    4  C8  UNL     1     -32.475   8.616   1.580  1.00 20.00     0.125 C 
HETATM    5  C6  UNL     1     -31.717   8.633   0.258  1.00 20.00     0.040 C 
BRANCH   4   6
HETATM    6  O9  UNL     1     -32.575   9.955   2.062  1.00 20.00    -0.395 OA
HETATM    7  H21 UNL     1     -32.506   9.907   3.027  1.00 20.00     0.210 HD
ENDBRANCH   4   6
ENDBRANCH   3   4
ENDBRANCH   2   3
BRANCH   1   8
HETATM    8  C4  UNL     1     -34.384   5.645   4.935  1.00 20.00    -0.018 C 
HETATM    9  C3  UNL     1     -35.211   4.768   4.349  1.00 20.00     0.028 C 
HETATM   10  C5  UNL     1     -34.395   5.873   6.417  1.00 20.00     0.057 C 
ENDBRANCH   1   8
TORSDOF 4
ENDMDL
MODEL 3
REMARK VINA RESULT:      -4.6     11.279     12.103
REMARK  4 active torsions:
REMARK  status: ('A' for Active; 'I' for Inactive)
REMARK    1  A    between atoms: C1_1  and  C4_4 
REMARK    2  A    between atoms: C2_2  and  C7_7 
REMARK    3  A    between atoms: C7_7  and  C8_8 
REMARK    4  A    between atoms: C8_8  and  O9_9 
ROOT
HETATM    1  C1  UNL     1     -34.510  15.753  -2.403  1.00 20.00    -0.072 C 
HETATM    2  C2  UNL     1     -34.016  14.884  -3.069  1.00 20.00    -0.099 C 
ENDROOT
BRANCH   2   3
HETATM    3  C7  UNL     1     -33.409  13.818  -3.883  1.00 20.00     0.125 C 
BRANCH   3   4
HETATM    4  C8  UNL     1     -34.428  13.207  -4.847  1.00 20.00     0.125 C 
HETATM    5  C6  UNL     1     -35.041  14.272  -5.748  1.00 20.00     0.040 C 
BRANCH   4   6
HETATM    6  O9  UNL     1     -35.472  12.599  -4.088  1.00 20.00    -0.395 OA
HETATM    7  H21 UNL     1     -36.222  13.212  -4.111  1.00 20.00     0.210 HD
ENDBRANCH   4   6
ENDBRANCH   3   4
ENDBRANCH   2   3
BRANCH   1   8
HETATM    8  C4  UNL     1     -35.096  16.789  -1.615  1.00 20.00    -0.018 C 
HETATM    9  C3  UNL     1     -34.683  16.964  -0.352  1.00 20.00     0.028 C 
HETATM   10  C5  UNL     1     -36.159  17.653  -2.226  1.00 20.00     0.057 C 
ENDBRANCH   1   8
TORSDOF 4
ENDMDL
MODEL 4
REMARK VINA RESULT:      -4.5     11.046     11.884
REMARK  4 active torsions:
REMARK  status: ('A' for Active; 'I' for Inactive)
REMARK    1  A    between atoms: C1_1  and  C4_4 
REMARK    2  A    between atoms: C2_2  and  C7_7 
REMARK    3  A    between atoms: C7_7  and  C8_8 
REMARK    4  A    between atoms: C8_8  and  O9_9 
ROOT
HETATM    1  C1  UNL     1     -34.662  16.482  -1.465  1.00 20.00    -0.072 C 
HETATM    2  C2  UNL     1     -34.962  15.745  -2.365  1.00 20.00    -0.099 C 
ENDROOT
BRANCH   2   3
HETATM    3  C7  UNL     1     -35.332  14.840  -3.465  1.00 20.00     0.125 C 
BRANCH   3   4
HETATM    4  C8  UNL     1     -34.417  13.615  -3.510  1.00 20.00     0.125 C 
HETATM    5  C6  UNL     1     -32.964  14.021  -3.729  1.00 20.00     0.040 C 
BRANCH   4   6
HETATM    6  O9  UNL     1     -34.821  12.778  -4.592  1.00 20.00    -0.395 OA
HETATM    7  H21 UNL     1     -35.127  11.947  -4.198  1.00 20.00     0.210 HD
ENDBRANCH   4   6
ENDBRANCH   3   4
ENDBRANCH   2   3
BRANCH   1   8
HETATM    8  C4  UNL     1     -34.300  17.359  -0.399  1.00 20.00    -0.018 C 
HETATM    9  C3  UNL     1     -33.197  18.112  -0.515  1.00 20.00     0.028 C 
HETATM   10  C5  UNL     1     -35.170  17.414   0.822  1.00 20.00     0.057 C 
ENDBRANCH   1   8
TORSDOF 4
ENDMDL
MODEL 5
REMARK VINA RESULT:      -4.4      1.441      2.129
REMARK  4 active torsions:
REMARK  status: ('A' for Active; 'I' for Inactive)
REMARK    1  A    between atoms: C1_1  and  C4_4 
REMARK    2  A    between atoms: C2_2  and  C7_7 
REMARK    3  A    between atoms: C7_7  and  C8_8 
REMARK    4  A    between atoms: C8_8  and  O9_9 
ROOT
HETATM    1  C1  UNL     1     -32.486   7.722   2.455  1.00 20.00    -0.072 C 
HETATM    2  C2  UNL     1     -32.745   6.845   3.234  1.00 20.00    -0.099 C 
ENDROOT
BRANCH   2   3
HETATM    3  C7  UNL     1     -33.059   5.770   4.189  1.00 20.00     0.125 C 
BRANCH   3   4
HETATM    4  C8  UNL     1     -34.502   5.872   4.686  1.00 20.00     0.125 C 
HETATM    5  C6  UNL     1     -34.723   5.001   5.918  1.00 20.00     0.040 C 
BRANCH   4   6
HETATM    6  O9  UNL     1     -35.377   5.425   3.652  1.00 20.00    -0.395 OA
HETATM    7  H21 UNL     1     -35.789   4.609   3.974  1.00 20.00     0.210 HD
ENDBRANCH   4   6
ENDBRANCH   3   4
ENDBRANCH   2   3
BRANCH   1   8
HETATM    8  C4  UNL     1     -32.182   8.762   1.526  1.00 20.00    -0.018 C 
HETATM    9  C3  UNL     1     -32.616  10.007   1.771  1.00 20.00     0.028 C 
HETATM   10  C5  UNL     1     -31.383   8.431   0.301  1.00 20.00     0.057 C 
ENDBRANCH   1   8
TORSDOF 4
ENDMDL
MODEL 6
REMARK VINA RESULT:      -4.3     12.158     12.900
REMARK  4 active torsions:
REMARK  status: ('A' for Active; 'I' for Inactive)
REMARK    1  A    between atoms: C1_1  and  C4_4 
REMARK    2  A    between atoms: C2_2  and  C7_7 
REMARK    3  A    between atoms: C7_7  and  C8_8 
REMARK    4  A    between atoms: C8_8  and  O9_9 
ROOT
HETATM    1  C1  UNL     1     -34.221  16.637  -1.430  1.00 20.00    -0.072 C 
HETATM    2  C2  UNL     1     -34.278  15.906  -2.382  1.00 20.00    -0.099 C 
ENDROOT
BRANCH   2   3
HETATM    3  C7  UNL     1     -34.344  15.011  -3.548  1.00 20.00     0.125 C 
BRANCH   3   4
HETATM    4  C8  UNL     1     -33.948  15.741  -4.833  1.00 20.00     0.125 C 
HETATM    5  C6  UNL     1     -34.403  14.971  -6.067  1.00 20.00     0.040 C 
BRANCH   4   6
HETATM    6  O9  UNL     1     -32.527  15.862  -4.873  1.00 20.00    -0.395 OA
HETATM    7  H21 UNL     1     -32.189  15.021  -5.215  1.00 20.00     0.210 HD
ENDBRANCH   4   6
ENDBRANCH   3   4
ENDBRANCH   2   3
BRANCH   1   8
HETATM    8  C4  UNL     1     -34.158  17.507  -0.300  1.00 20.00    -0.018 C 
HETATM    9  C3  UNL     1     -35.124  17.447   0.628  1.00 20.00     0.028 C 
HETATM   10  C5  UNL     1     -33.010  18.464  -0.184  1.00 20.00     0.057 C 
ENDBRANCH   1   8
TORSDOF 4
ENDMDL
MODEL 7
REMARK VINA RESULT:      -4.2     11.646     12.071
REMARK  4 active torsions:
REMARK  status: ('A' for Active; 'I' for Inactive)
REMARK    1  A    between atoms: C1_1  and  C4_4 
REMARK    2  A    between atoms: C2_2  and  C7_7 
REMARK    3  A    between atoms: C7_7  and  C8_8 
REMARK    4  A    between atoms: C8_8  and  O9_9 
ROOT
HETATM    1  C1  UNL     1     -33.942  16.395  -1.950  1.00 20.00    -0.072 C 
HETATM    2  C2  UNL     1     -33.858  15.581  -2.830  1.00 20.00    -0.099 C 
ENDROOT
BRANCH   2   3
HETATM    3  C7  UNL     1     -33.753  14.583  -3.907  1.00 20.00     0.125 C 
BRANCH   3   4
HETATM    4  C8  UNL     1     -35.134  14.083  -4.338  1.00 20.00     0.125 C 
HETATM    5  C6  UNL     1     -36.241  14.782  -3.558  1.00 20.00     0.040 C 
BRANCH   4   6
HETATM    6  O9  UNL     1     -35.215  12.682  -4.084  1.00 20.00    -0.395 OA
HETATM    7  H21 UNL     1     -34.710  12.519  -3.272  1.00 20.00     0.210 HD
ENDBRANCH   4   6
ENDBRANCH   3   4
ENDBRANCH   2   3
BRANCH   1   8
HETATM    8  C4  UNL     1     -34.043  17.365  -0.908  1.00 20.00    -0.018 C 
HETATM    9  C3  UNL     1     -34.910  17.162   0.094  1.00 20.00     0.028 C 
HETATM   10  C5  UNL     1     -33.172  18.584  -0.965  1.00 20.00     0.057 C 
ENDBRANCH   1   8
TORSDOF 4
ENDMDL
MODEL 8
REMARK VINA RESULT:      -4.1      9.534     11.150
REMARK  4 active torsions:
REMARK  status: ('A' for Active; 'I' for Inactive)
REMARK    1  A    between atoms: C1_1  and  C4_4 
REMARK    2  A    between atoms: C2_2  and  C7_7 
REMARK    3  A    between atoms: C7_7  and  C8_8 
REMARK    4  A    between atoms: C8_8  and  O9_9 
ROOT
HETATM    1  C1  UNL     1     -41.632   3.770  -2.295  1.00 20.00    -0.072 C 
HETATM    2  C2  UNL     1     -41.214   4.558  -1.490  1.00 20.00    -0.099 C 
ENDROOT
BRANCH   2   3
HETATM    3  C7  UNL     1     -40.698   5.521  -0.504  1.00 20.00     0.125 C 
BRANCH   3   4
HETATM    4  C8  UNL     1     -41.159   6.945  -0.823  1.00 20.00     0.125 C 
HETATM    5  C6  UNL     1     -42.671   7.078  -0.686  1.00 20.00     0.040 C 
BRANCH   4   6
HETATM    6  O9  UNL     1     -40.797   7.254  -2.168  1.00 20.00    -0.395 OA
HETATM    7  H21 UNL     1     -39.962   7.744  -2.123  1.00 20.00     0.210 HD
ENDBRANCH   4   6
ENDBRANCH   3   4
ENDBRANCH   2   3
BRANCH   1   8
HETATM    8  C4  UNL     1     -42.134   2.836  -3.250  1.00 20.00    -0.018 C 
HETATM    9  C3  UNL     1     -43.417   2.915  -3.632  1.00 20.00     0.028 C 
HETATM   10  C5  UNL     1     -41.209   1.792  -3.801  1.00 20.00     0.057 C 
ENDBRANCH   1   8
TORSDOF 4
ENDMDL
MODEL 9
REMARK VINA RESULT:      -3.9     11.591     12.577
REMARK  4 active torsions:
REMARK  status: ('A' for Active; 'I' for Inactive)
REMARK    1  A    between atoms: C1_1  and  C4_4 
REMARK    2  A    between atoms: C2_2  and  C7_7 
REMARK    3  A    between atoms: C7_7  and  C8_8 
REMARK    4  A    between atoms: C8_8  and  O9_9 
ROOT
HETATM    1  C1  UNL     1     -34.118  15.994  -2.273  1.00 20.00    -0.072 C 
HETATM    2  C2  UNL     1     -34.435  16.541  -1.251  1.00 20.00    -0.099 C 
ENDROOT
BRANCH   2   3
HETATM    3  C7  UNL     1     -34.823  17.209   0.002  1.00 20.00     0.125 C 
BRANCH   3   4
HETATM    4  C8  UNL     1     -34.229  18.616   0.089  1.00 20.00     0.125 C 
HETATM    5  C6  UNL     1     -32.712  18.584  -0.060  1.00 20.00     0.040 C 
BRANCH   4   6
HETATM    6  O9  UNL     1     -34.546  19.170   1.364  1.00 20.00    -0.395 OA
HETATM    7  H21 UNL     1     -34.833  20.082   1.205  1.00 20.00     0.210 HD
ENDBRANCH   4   6
ENDBRANCH   3   4
ENDBRANCH   2   3
BRANCH   1   8
HETATM    8  C4  UNL     1     -33.745  15.347  -3.489  1.00 20.00    -0.018 C 
HETATM    9  C3  UNL     1     -33.172  16.066  -4.465  1.00 20.00     0.028 C 
HETATM   10  C5  UNL     1     -34.003  13.877  -3.638  1.00 20.00     0.057 C 
ENDBRANCH   1   8
TORSDOF 4
ENDMDL
