MODEL 1
REMARK VINA RESULT:      -4.9      0.000      0.000
REMARK  0 active torsions:
REMARK  status: ('A' for Active; 'I' for Inactive)
ROOT
HETATM    1  C1  UNL     1     -33.434  13.927  -3.766  1.00 20.00     0.047 C 
HETATM    2  C2  UNL     1     -33.038  15.119  -3.305  1.00 20.00    -0.014 C 
HETATM    3  C3  UNL     1     -34.848  13.699  -4.154  1.00 20.00     0.152 C 
HETATM    4  C4  UNL     1     -35.426  15.856  -3.024  1.00 20.00     0.025 C 
HETATM    5  C5  UNL     1     -35.793  14.894  -4.160  1.00 20.00     0.056 C 
HETATM    6  C6  UNL     1     -33.947  16.306  -3.073  1.00 20.00    -0.029 C 
HETATM    7  C7  UNL     1     -37.245  14.442  -4.026  1.00 20.00     0.018 C 
HETATM    8  C8  UNL     1     -33.593  16.965  -1.728  1.00 20.00     0.019 C 
HETATM    9  C9  UNL     1     -33.721  17.331  -4.198  1.00 20.00     0.019 C 
HETATM   10  O10 UNL     1     -35.192  12.575  -4.518  1.00 20.00    -0.293 OA
ENDROOT
TORSDOF 0
ENDMDL
MODEL 2
REMARK VINA RESULT:      -4.7      2.279      3.820
REMARK  0 active torsions:
REMARK  status: ('A' for Active; 'I' for Inactive)
ROOT
HETATM    1  C1  UNL     1     -33.786  16.910  -4.736  1.00 20.00     0.047 C 
HETATM    2  C2  UNL     1     -34.035  15.616  -4.963  1.00 20.00    -0.014 C 
HETATM    3  C3  UNL     1     -33.761  17.444  -3.351  1.00 20.00     0.152 C 
HETATM    4  C4  UNL     1     -34.798  15.298  -2.588  1.00 20.00     0.025 C 
HETATM    5  C5  UNL     1     -33.869  16.453  -2.198  1.00 20.00     0.056 C 
HETATM    6  C6  UNL     1     -34.366  14.595  -3.896  1.00 20.00    -0.029 C 
HETATM    7  C7  UNL     1     -34.377  17.141  -0.934  1.00 20.00     0.018 C 
HETATM    8  C8  UNL     1     -35.527  13.708  -4.381  1.00 20.00     0.019 C 
HETATM    9  C9  UNL     1     -33.132  13.705  -3.661  1.00 20.00     0.019 C 
HETATM   10  O10 UNL     1     -33.589  18.650  -3.179  1.00 20.00    -0.293 OA
ENDROOT
TORSDOF 0
ENDMDL
MODEL 3
REMARK VINA RESULT:      -4.5      1.991      2.712
REMARK  0 active torsions:
REMARK  status: ('A' for Active; 'I' for Inactive)
ROOT
HETATM    1  C1  UNL     1     -35.136  13.543  -5.216  1.00 20.00     0.047 C 
HETATM    2  C2  UNL     1     -34.661  13.894  -4.015  1.00 20.00    -0.014 C 
HETATM    3  C3  UNL     1     -34.982  14.445  -6.383  1.00 20.00     0.152 C 
HETATM    4  C4  UNL     1     -34.311  16.259  -4.795  1.00 20.00     0.025 C 
HETATM    5  C5  UNL     1     -34.138  15.703  -6.213  1.00 20.00     0.056 C 
HETATM    6  C6  UNL     1     -33.996  15.216  -3.698  1.00 20.00    -0.029 C 
HETATM    7  C7  UNL     1     -34.516  16.759  -7.248  1.00 20.00     0.018 C 
HETATM    8  C8  UNL     1     -34.528  15.745  -2.354  1.00 20.00     0.019 C 
HETATM    9  C9  UNL     1     -32.479  14.991  -3.572  1.00 20.00     0.019 C 
HETATM   10  O10 UNL     1     -35.482  14.120  -7.459  1.00 20.00    -0.293 OA
ENDROOT
TORSDOF 0
ENDMDL
MODEL 4
REMARK VINA RESULT:      -4.4      1.542      1.920
REMARK  0 active torsions:
REMARK  status: ('A' for Active; 'I' for Inactive)
ROOT
HETATM    1  C1  UNL     1     -34.502  14.180  -3.348  1.00 20.00     0.047 C 
HETATM    2  C2  UNL     1     -34.570  15.474  -3.020  1.00 20.00    -0.014 C 
HETATM    3  C3  UNL     1     -34.645  13.748  -4.760  1.00 20.00     0.152 C 
HETATM    4  C4  UNL     1     -35.463  16.052  -5.299  1.00 20.00     0.025 C 
HETATM    5  C5  UNL     1     -34.716  14.825  -5.836  1.00 20.00     0.056 C 
HETATM    6  C6  UNL     1     -34.850  16.602  -3.990  1.00 20.00    -0.029 C 
HETATM    7  C7  UNL     1     -35.398  14.296  -7.095  1.00 20.00     0.018 C 
HETATM    8  C8  UNL     1     -35.853  17.583  -3.357  1.00 20.00     0.019 C 
HETATM    9  C9  UNL     1     -33.537  17.354  -4.270  1.00 20.00     0.019 C 
HETATM   10  O10 UNL     1     -34.637  12.546  -5.021  1.00 20.00    -0.293 OA
ENDROOT
TORSDOF 0
ENDMDL
MODEL 5
REMARK VINA RESULT:      -4.4      1.249      2.697
REMARK  0 active torsions:
REMARK  status: ('A' for Active; 'I' for Inactive)
ROOT
HETATM    1  C1  UNL     1     -36.513  16.178  -3.371  1.00 20.00     0.047 C 
HETATM    2  C2  UNL     1     -35.945  17.132  -2.626  1.00 20.00    -0.014 C 
HETATM    3  C3  UNL     1     -35.774  14.933  -3.696  1.00 20.00     0.152 C 
HETATM    4  C4  UNL     1     -33.691  16.045  -2.867  1.00 20.00     0.025 C 
HETATM    5  C5  UNL     1     -34.421  14.707  -3.033  1.00 20.00     0.056 C 
HETATM    6  C6  UNL     1     -34.528  17.094  -2.099  1.00 20.00    -0.029 C 
HETATM    7  C7  UNL     1     -33.570  13.734  -3.846  1.00 20.00     0.018 C 
HETATM    8  C8  UNL     1     -33.874  18.474  -2.290  1.00 20.00     0.019 C 
HETATM    9  C9  UNL     1     -34.566  16.772  -0.594  1.00 20.00     0.019 C 
HETATM   10  O10 UNL     1     -36.302  14.101  -4.433  1.00 20.00    -0.293 OA
ENDROOT
TORSDOF 0
ENDMDL
MODEL 6
REMARK VINA RESULT:      -4.3     11.112     12.718
REMARK  0 active torsions:
REMARK  status: ('A' for Active; 'I' for Inactive)
ROOT
HETATM    1  C1  UNL     1     -40.669   5.689  -0.623  1.00 20.00     0.047 C 
HETATM    2  C2  UNL     1     -40.992   4.439  -0.972  1.00 20.00    -0.014 C 
HETATM    3  C3  UNL     1     -41.449   6.843  -1.137  1.00 20.00     0.152 C 
HETATM    4  C4  UNL     1     -42.519   5.288  -2.780  1.00 20.00     0.025 C 
HETATM    5  C5  UNL     1     -42.712   6.555  -1.939  1.00 20.00     0.056 C 
HETATM    6  C6  UNL     1     -42.098   4.064  -1.934  1.00 20.00    -0.029 C 
HETATM    7  C7  UNL     1     -43.071   7.738  -2.835  1.00 20.00     0.018 C 
HETATM    8  C8  UNL     1     -41.596   2.963  -2.885  1.00 20.00     0.019 C 
HETATM    9  C9  UNL     1     -43.290   3.515  -1.131  1.00 20.00     0.019 C 
HETATM   10  O10 UNL     1     -41.090   7.983  -0.846  1.00 20.00    -0.293 OA
ENDROOT
TORSDOF 0
ENDMDL
MODEL 7
REMARK VINA RESULT:      -4.3      2.561      3.435
REMARK  0 active torsions:
REMARK  status: ('A' for Active; 'I' for Inactive)
ROOT
HETATM    1  C1  UNL     1     -33.457  16.789  -5.492  1.00 20.00     0.047 C 
HETATM    2  C2  UNL     1     -33.373  16.027  -4.396  1.00 20.00    -0.014 C 
HETATM    3  C3  UNL     1     -34.325  16.389  -6.628  1.00 20.00     0.152 C 
HETATM    4  C4  UNL     1     -34.531  14.129  -5.572  1.00 20.00     0.025 C 
HETATM    5  C5  UNL     1     -35.230  15.176  -6.446  1.00 20.00     0.056 C 
HETATM    6  C6  UNL     1     -34.069  14.697  -4.209  1.00 20.00    -0.029 C 
HETATM    7  C7  UNL     1     -35.611  14.573  -7.796  1.00 20.00     0.018 C 
HETATM    8  C8  UNL     1     -33.092  13.694  -3.570  1.00 20.00     0.019 C 
HETATM    9  C9  UNL     1     -35.265  14.891  -3.261  1.00 20.00     0.019 C 
HETATM   10  O10 UNL     1     -34.333  17.080  -7.645  1.00 20.00    -0.293 OA
ENDROOT
TORSDOF 0
ENDMDL
MODEL 8
REMARK VINA RESULT:      -4.2      2.090      2.711
REMARK  0 active torsions:
REMARK  status: ('A' for Active; 'I' for Inactive)
ROOT
HETATM    1  C1  UNL     1     -35.623  13.906  -4.093  1.00 20.00     0.047 C 
HETATM    2  C2  UNL     1     -34.518  14.375  -4.683  1.00 20.00    -0.014 C 
HETATM    3  C3  UNL     1     -36.935  14.565  -4.311  1.00 20.00     0.152 C 
HETATM    4  C4  UNL     1     -35.708  16.493  -5.333  1.00 20.00     0.025 C 
HETATM    5  C5  UNL     1     -37.012  15.687  -5.340  1.00 20.00     0.056 C 
HETATM    6  C6  UNL     1     -34.456  15.611  -5.553  1.00 20.00    -0.029 C 
HETATM    7  C7  UNL     1     -38.203  16.600  -5.064  1.00 20.00     0.018 C 
HETATM    8  C8  UNL     1     -33.209  16.434  -5.183  1.00 20.00     0.019 C 
HETATM    9  C9  UNL     1     -34.340  15.177  -7.024  1.00 20.00     0.019 C 
HETATM   10  O10 UNL     1     -37.921  14.146  -3.708  1.00 20.00    -0.293 OA
ENDROOT
TORSDOF 0
ENDMDL
MODEL 9
REMARK VINA RESULT:      -4.2      1.736      2.910
REMARK  0 active torsions:
REMARK  status: ('A' for Active; 'I' for Inactive)
ROOT
HETATM    1  C1  UNL     1     -35.564  14.554  -5.897  1.00 20.00     0.047 C 
HETATM    2  C2  UNL     1     -35.487  15.884  -6.014  1.00 20.00    -0.014 C 
HETATM    3  C3  UNL     1     -34.721  13.832  -4.912  1.00 20.00     0.152 C 
HETATM    4  C4  UNL     1     -33.390  15.932  -4.627  1.00 20.00     0.025 C 
HETATM    5  C5  UNL     1     -33.888  14.657  -3.938  1.00 20.00     0.056 C 
HETATM    6  C6  UNL     1     -34.536  16.770  -5.239  1.00 20.00    -0.029 C 
HETATM    7  C7  UNL     1     -32.710  13.845  -3.404  1.00 20.00     0.018 C 
HETATM    8  C8  UNL     1     -33.923  17.814  -6.190  1.00 20.00     0.019 C 
HETATM    9  C9  UNL     1     -35.325  17.507  -4.143  1.00 20.00     0.019 C 
HETATM   10  O10 UNL     1     -34.771  12.603  -4.871  1.00 20.00    -0.293 OA
ENDROOT
TORSDOF 0
ENDMDL
