MODEL 1
REMARK VINA RESULT:      -4.9      0.000      0.000
REMARK  0 active torsions:
REMARK  status: ('A' for Active; 'I' for Inactive)
ROOT
HETATM    1  C1  UNL     1     -34.808  13.768  -3.945  1.00 20.00     0.130 C 
HETATM    2  C2  UNL     1     -33.368  14.061  -3.591  1.00 20.00     0.079 C 
HETATM    3  C3  UNL     1     -32.979  15.465  -4.039  1.00 20.00     0.016 C 
HETATM    4  C4  UNL     1     -35.391  16.199  -3.959  1.00 20.00     0.020 C 
HETATM    5  C5  UNL     1     -35.835  14.803  -3.502  1.00 20.00     0.052 C 
HETATM    6  C6  UNL     1     -33.945  16.563  -3.540  1.00 20.00    -0.047 C 
HETATM    7  C7  UNL     1     -37.225  14.482  -4.046  1.00 20.00     0.018 C 
HETATM    8  C8  UNL     1     -33.841  16.735  -2.013  1.00 20.00     0.015 C 
HETATM    9  C9  UNL     1     -33.559  17.901  -4.196  1.00 20.00     0.015 C 
HETATM   10  O10 UNL     1     -35.122  12.704  -4.478  1.00 20.00    -0.298 OA
ENDROOT
TORSDOF 0
ENDMDL
MODEL 2
REMARK VINA RESULT:      -4.4      2.288      3.858
REMARK  0 active torsions:
REMARK  status: ('A' for Active; 'I' for Inactive)
ROOT
HETATM    1  C1  UNL     1     -33.812  17.542  -3.294  1.00 20.00     0.130 C 
HETATM    2  C2  UNL     1     -33.891  16.569  -2.140  1.00 20.00     0.079 C 
HETATM    3  C3  UNL     1     -34.816  15.406  -2.481  1.00 20.00     0.016 C 
HETATM    4  C4  UNL     1     -34.428  15.770  -4.947  1.00 20.00     0.020 C 
HETATM    5  C5  UNL     1     -33.485  16.946  -4.658  1.00 20.00     0.052 C 
HETATM    6  C6  UNL     1     -34.470  14.712  -3.817  1.00 20.00    -0.047 C 
HETATM    7  C7  UNL     1     -33.584  17.992  -5.766  1.00 20.00     0.018 C 
HETATM    8  C8  UNL     1     -33.130  13.960  -3.715  1.00 20.00     0.015 C 
HETATM    9  C9  UNL     1     -35.568  13.682  -4.142  1.00 20.00     0.015 C 
HETATM   10  O10 UNL     1     -33.916  18.754  -3.104  1.00 20.00    -0.298 OA
ENDROOT
TORSDOF 0
ENDMDL
MODEL 3
REMARK VINA RESULT:      -4.3      2.413      3.832
REMARK  0 active torsions:
REMARK  status: ('A' for Active; 'I' for Inactive)
ROOT
HETATM    1  C1  UNL     1     -33.850  17.799  -2.729  1.00 20.00     0.130 C 
HETATM    2  C2  UNL     1     -33.721  17.618  -4.224  1.00 20.00     0.079 C 
HETATM    3  C3  UNL     1     -33.394  16.169  -4.564  1.00 20.00     0.016 C 
HETATM    4  C4  UNL     1     -34.427  15.389  -2.398  1.00 20.00     0.020 C 
HETATM    5  C5  UNL     1     -34.782  16.831  -2.010  1.00 20.00     0.052 C 
HETATM    6  C6  UNL     1     -34.366  15.150  -3.927  1.00 20.00    -0.047 C 
HETATM    7  C7  UNL     1     -34.714  17.007  -0.495  1.00 20.00     0.018 C 
HETATM    8  C8  UNL     1     -35.767  15.259  -4.558  1.00 20.00     0.015 C 
HETATM    9  C9  UNL     1     -33.838  13.727  -4.188  1.00 20.00     0.015 C 
HETATM   10  O10 UNL     1     -33.299  18.740  -2.158  1.00 20.00    -0.298 OA
ENDROOT
TORSDOF 0
ENDMDL
MODEL 4
REMARK VINA RESULT:      -4.3      1.443      2.679
REMARK  0 active torsions:
REMARK  status: ('A' for Active; 'I' for Inactive)
ROOT
HETATM    1  C1  UNL     1     -36.588  15.031  -3.699  1.00 20.00     0.130 C 
HETATM    2  C2  UNL     1     -36.935  16.464  -3.364  1.00 20.00     0.079 C 
HETATM    3  C3  UNL     1     -36.033  16.990  -2.254  1.00 20.00     0.016 C 
HETATM    4  C4  UNL     1     -34.252  15.305  -2.851  1.00 20.00     0.020 C 
HETATM    5  C5  UNL     1     -35.119  14.742  -3.985  1.00 20.00     0.052 C 
HETATM    6  C6  UNL     1     -34.526  16.797  -2.538  1.00 20.00    -0.047 C 
HETATM    7  C7  UNL     1     -34.865  13.246  -4.157  1.00 20.00     0.018 C 
HETATM    8  C8  UNL     1     -34.066  17.698  -3.699  1.00 20.00     0.015 C 
HETATM    9  C9  UNL     1     -33.728  17.196  -1.282  1.00 20.00     0.015 C 
HETATM   10  O10 UNL     1     -37.470  14.181  -3.821  1.00 20.00    -0.298 OA
ENDROOT
TORSDOF 0
ENDMDL
MODEL 5
REMARK VINA RESULT:      -4.2      1.110      2.722
REMARK  0 active torsions:
REMARK  status: ('A' for Active; 'I' for Inactive)
ROOT
HETATM    1  C1  UNL     1     -35.169  13.835  -4.193  1.00 20.00     0.130 C 
HETATM    2  C2  UNL     1     -36.445  14.597  -4.467  1.00 20.00     0.079 C 
HETATM    3  C3  UNL     1     -36.713  15.612  -3.363  1.00 20.00     0.016 C 
HETATM    4  C4  UNL     1     -34.258  15.692  -2.789  1.00 20.00     0.020 C 
HETATM    5  C5  UNL     1     -33.933  14.675  -3.892  1.00 20.00     0.052 C 
HETATM    6  C6  UNL     1     -35.516  16.547  -3.078  1.00 20.00    -0.047 C 
HETATM    7  C7  UNL     1     -32.749  13.803  -3.480  1.00 20.00     0.018 C 
HETATM    8  C8  UNL     1     -35.273  17.503  -4.261  1.00 20.00     0.015 C 
HETATM    9  C9  UNL     1     -35.834  17.400  -1.836  1.00 20.00     0.015 C 
HETATM   10  O10 UNL     1     -35.130  12.610  -4.305  1.00 20.00    -0.298 OA
ENDROOT
TORSDOF 0
ENDMDL
MODEL 6
REMARK VINA RESULT:      -4.1     11.108     12.858
REMARK  0 active torsions:
REMARK  status: ('A' for Active; 'I' for Inactive)
ROOT
HETATM    1  C1  UNL     1     -41.369   6.919  -1.178  1.00 20.00     0.130 C 
HETATM    2  C2  UNL     1     -40.792   5.796  -0.347  1.00 20.00     0.079 C 
HETATM    3  C3  UNL     1     -41.780   4.640  -0.245  1.00 20.00     0.016 C 
HETATM    4  C4  UNL     1     -42.893   5.354  -2.394  1.00 20.00     0.020 C 
HETATM    5  C5  UNL     1     -41.920   6.532  -2.545  1.00 20.00     0.052 C 
HETATM    6  C6  UNL     1     -42.303   4.153  -1.615  1.00 20.00    -0.047 C 
HETATM    7  C7  UNL     1     -42.613   7.710  -3.225  1.00 20.00     0.018 C 
HETATM    8  C8  UNL     1     -41.181   3.471  -2.421  1.00 20.00     0.015 C 
HETATM    9  C9  UNL     1     -43.417   3.116  -1.382  1.00 20.00     0.015 C 
HETATM   10  O10 UNL     1     -41.302   8.087  -0.794  1.00 20.00    -0.298 OA
ENDROOT
TORSDOF 0
ENDMDL
MODEL 7
REMARK VINA RESULT:      -4.1      2.274      2.954
REMARK  0 active torsions:
REMARK  status: ('A' for Active; 'I' for Inactive)
ROOT
HETATM    1  C1  UNL     1     -36.906  14.612  -4.118  1.00 20.00     0.130 C 
HETATM    2  C2  UNL     1     -35.610  13.833  -4.093  1.00 20.00     0.079 C 
HETATM    3  C3  UNL     1     -34.979  13.796  -5.479  1.00 20.00     0.016 C 
HETATM    4  C4  UNL     1     -36.187  15.914  -6.127  1.00 20.00     0.020 C 
HETATM    5  C5  UNL     1     -36.846  16.000  -4.744  1.00 20.00     0.052 C 
HETATM    6  C6  UNL     1     -34.817  15.192  -6.122  1.00 20.00    -0.047 C 
HETATM    7  C7  UNL     1     -38.235  16.626  -4.854  1.00 20.00     0.018 C 
HETATM    8  C8  UNL     1     -33.758  16.023  -5.373  1.00 20.00     0.015 C 
HETATM    9  C9  UNL     1     -34.341  15.018  -7.577  1.00 20.00     0.015 C 
HETATM   10  O10 UNL     1     -37.917  14.169  -3.574  1.00 20.00    -0.298 OA
ENDROOT
TORSDOF 0
ENDMDL
MODEL 8
REMARK VINA RESULT:      -4.1      1.667      2.053
REMARK  0 active torsions:
REMARK  status: ('A' for Active; 'I' for Inactive)
ROOT
HETATM    1  C1  UNL     1     -36.794  14.603  -3.837  1.00 20.00     0.130 C 
HETATM    2  C2  UNL     1     -35.600  13.735  -4.166  1.00 20.00     0.079 C 
HETATM    3  C3  UNL     1     -34.630  14.479  -5.075  1.00 20.00     0.016 C 
HETATM    4  C4  UNL     1     -35.494  16.699  -4.245  1.00 20.00     0.020 C 
HETATM    5  C5  UNL     1     -36.488  15.999  -3.308  1.00 20.00     0.052 C 
HETATM    6  C6  UNL     1     -34.220  15.868  -4.537  1.00 20.00    -0.047 C 
HETATM    7  C7  UNL     1     -37.757  16.833  -3.159  1.00 20.00     0.018 C 
HETATM    8  C8  UNL     1     -33.348  15.734  -3.275  1.00 20.00     0.015 C 
HETATM    9  C9  UNL     1     -33.390  16.594  -5.613  1.00 20.00     0.015 C 
HETATM   10  O10 UNL     1     -37.938  14.155  -3.910  1.00 20.00    -0.298 OA
ENDROOT
TORSDOF 0
ENDMDL
MODEL 9
REMARK VINA RESULT:      -4.1      2.325      3.670
REMARK  0 active torsions:
REMARK  status: ('A' for Active; 'I' for Inactive)
ROOT
HETATM    1  C1  UNL     1     -33.634  16.585  -4.894  1.00 20.00     0.130 C 
HETATM    2  C2  UNL     1     -33.644  15.944  -3.525  1.00 20.00     0.079 C 
HETATM    3  C3  UNL     1     -35.065  15.581  -3.112  1.00 20.00     0.016 C 
HETATM    4  C4  UNL     1     -35.780  15.470  -5.529  1.00 20.00     0.020 C 
HETATM    5  C5  UNL     1     -34.363  15.829  -5.998  1.00 20.00     0.052 C 
HETATM    6  C6  UNL     1     -35.819  14.738  -4.165  1.00 20.00    -0.047 C 
HETATM    7  C7  UNL     1     -34.420  16.640  -7.290  1.00 20.00     0.018 C 
HETATM    8  C8  UNL     1     -35.210  13.328  -4.279  1.00 20.00     0.015 C 
HETATM    9  C9  UNL     1     -37.287  14.587  -3.724  1.00 20.00     0.015 C 
HETATM   10  O10 UNL     1     -32.988  17.611  -5.104  1.00 20.00    -0.298 OA
ENDROOT
TORSDOF 0
ENDMDL
