MODEL 1
REMARK VINA RESULT:      -4.4      0.000      0.000
REMARK  2 active torsions:
REMARK  status: ('A' for Active; 'I' for Inactive)
REMARK    1  A    between atoms: C3_3  and  C5_5 
REMARK    2  A    between atoms: C5_5  and  C6_6 
ROOT
HETATM    1  C1  UNL     1     -35.626   5.078   4.151  1.00 20.00     0.202 C 
HETATM    2  C2  UNL     1     -34.946   5.349   5.474  1.00 20.00     0.144 C 
HETATM    3  C3  UNL     1     -33.825   6.366   3.764  1.00 20.00     0.261 C 
HETATM    4  C4  UNL     1     -34.173   4.146   6.001  1.00 20.00     0.042 C 
HETATM    5  O7  UNL     1     -34.589   5.296   3.195  1.00 20.00    -0.359 OA
HETATM    6  O8  UNL     1     -34.025   6.405   5.183  1.00 20.00    -0.354 OA
ENDROOT
BRANCH   3   7
HETATM    7  C5  UNL     1     -32.357   6.177   3.445  1.00 20.00     0.075 C 
BRANCH   7   8
HETATM    8  C6  UNL     1     -31.594   7.489   3.277  1.00 20.00     0.119 C 
HETATM    9 CL9  UNL     1     -32.077   8.356   1.801  1.00 20.00    -0.130 Cl
ENDBRANCH   7   8
ENDBRANCH   3   7
TORSDOF 2
ENDMDL
MODEL 2
REMARK VINA RESULT:      -3.9     11.441     12.362
REMARK  2 active torsions:
REMARK  status: ('A' for Active; 'I' for Inactive)
REMARK    1  A    between atoms: C3_3  and  C5_5 
REMARK    2  A    between atoms: C5_5  and  C6_6 
ROOT
HETATM    1  C1  UNL     1     -34.599  13.231  -4.649  1.00 20.00     0.202 C 
HETATM    2  C2  UNL     1     -34.778  14.396  -5.595  1.00 20.00     0.144 C 
HETATM    3  C3  UNL     1     -33.423  14.971  -3.849  1.00 20.00     0.261 C 
HETATM    4  C4  UNL     1     -36.146  15.056  -5.472  1.00 20.00     0.042 C 
HETATM    5  O7  UNL     1     -34.213  13.854  -3.425  1.00 20.00    -0.359 OA
HETATM    6  O8  UNL     1     -33.771  15.330  -5.192  1.00 20.00    -0.354 OA
ENDROOT
BRANCH   3   7
HETATM    7  C5  UNL     1     -33.646  16.143  -2.916  1.00 20.00     0.075 C 
BRANCH   7   8
HETATM    8  C6  UNL     1     -34.886  15.999  -2.037  1.00 20.00     0.119 C 
HETATM    9 CL9  UNL     1     -34.655  16.735  -0.435  1.00 20.00    -0.130 Cl
ENDBRANCH   7   8
ENDBRANCH   3   7
TORSDOF 2
ENDMDL
MODEL 3
REMARK VINA RESULT:      -3.8     11.238     12.327
REMARK  2 active torsions:
REMARK  status: ('A' for Active; 'I' for Inactive)
REMARK    1  A    between atoms: C3_3  and  C5_5 
REMARK    2  A    between atoms: C5_5  and  C6_6 
ROOT
HETATM    1  C1  UNL     1     -34.709  14.320  -5.937  1.00 20.00     0.202 C 
HETATM    2  C2  UNL     1     -34.587  13.293  -4.834  1.00 20.00     0.144 C 
HETATM    3  C3  UNL     1     -36.419  14.617  -4.510  1.00 20.00     0.261 C 
HETATM    4  C4  UNL     1     -33.485  13.624  -3.835  1.00 20.00     0.042 C 
HETATM    5  O7  UNL     1     -35.514  15.341  -5.351  1.00 20.00    -0.359 OA
HETATM    6  O8  UNL     1     -35.852  13.346  -4.167  1.00 20.00    -0.354 OA
ENDROOT
BRANCH   3   7
HETATM    7  C5  UNL     1     -36.711  15.418  -3.257  1.00 20.00     0.075 C 
BRANCH   7   8
HETATM    8  C6  UNL     1     -35.689  16.517  -2.982  1.00 20.00     0.119 C 
HETATM    9 CL9  UNL     1     -34.725  16.180  -1.526  1.00 20.00    -0.130 Cl
ENDBRANCH   7   8
ENDBRANCH   3   7
TORSDOF 2
ENDMDL
MODEL 4
REMARK VINA RESULT:      -3.7     11.496     12.059
REMARK  2 active torsions:
REMARK  status: ('A' for Active; 'I' for Inactive)
REMARK    1  A    between atoms: C3_3  and  C5_5 
REMARK    2  A    between atoms: C5_5  and  C6_6 
ROOT
HETATM    1  C1  UNL     1     -36.544  14.406  -3.948  1.00 20.00     0.202 C 
HETATM    2  C2  UNL     1     -35.306  13.628  -4.331  1.00 20.00     0.144 C 
HETATM    3  C3  UNL     1     -34.813  15.215  -2.765  1.00 20.00     0.261 C 
HETATM    4  C4  UNL     1     -34.761  14.017  -5.700  1.00 20.00     0.042 C 
HETATM    5  O7  UNL     1     -36.020  15.623  -3.419  1.00 20.00    -0.359 OA
HETATM    6  O8  UNL     1     -34.348  13.982  -3.329  1.00 20.00    -0.354 OA
ENDROOT
BRANCH   3   7
HETATM    7  C5  UNL     1     -33.758  16.292  -2.910  1.00 20.00     0.075 C 
BRANCH   7   8
HETATM    8  C6  UNL     1     -33.707  17.261  -1.733  1.00 20.00     0.119 C 
HETATM    9 CL9  UNL     1     -34.733  16.724  -0.383  1.00 20.00    -0.130 Cl
ENDBRANCH   7   8
ENDBRANCH   3   7
TORSDOF 2
ENDMDL
MODEL 5
REMARK VINA RESULT:      -3.7     11.562     12.815
REMARK  2 active torsions:
REMARK  status: ('A' for Active; 'I' for Inactive)
REMARK    1  A    between atoms: C3_3  and  C5_5 
REMARK    2  A    between atoms: C5_5  and  C6_6 
ROOT
HETATM    1  C1  UNL     1     -36.512  15.105  -5.863  1.00 20.00     0.202 C 
HETATM    2  C2  UNL     1     -35.388  14.367  -6.554  1.00 20.00     0.144 C 
HETATM    3  C3  UNL     1     -35.347  13.983  -4.303  1.00 20.00     0.261 C 
HETATM    4  C4  UNL     1     -34.248  15.284  -6.977  1.00 20.00     0.042 C 
HETATM    5  O7  UNL     1     -36.062  15.206  -4.513  1.00 20.00    -0.359 OA
HETATM    6  O8  UNL     1     -34.909  13.454  -5.561  1.00 20.00    -0.354 OA
ENDROOT
BRANCH   3   7
HETATM    7  C5  UNL     1     -34.161  14.229  -3.394  1.00 20.00     0.075 C 
BRANCH   7   8
HETATM    8  C6  UNL     1     -33.926  15.704  -3.080  1.00 20.00     0.119 C 
HETATM    9 CL9  UNL     1     -34.617  16.168  -1.508  1.00 20.00    -0.130 Cl
ENDBRANCH   7   8
ENDBRANCH   3   7
TORSDOF 2
ENDMDL
MODEL 6
REMARK VINA RESULT:      -3.6     11.720     12.399
REMARK  2 active torsions:
REMARK  status: ('A' for Active; 'I' for Inactive)
REMARK    1  A    between atoms: C3_3  and  C5_5 
REMARK    2  A    between atoms: C5_5  and  C6_6 
ROOT
HETATM    1  C1  UNL     1     -36.556  14.467  -3.978  1.00 20.00     0.202 C 
HETATM    2  C2  UNL     1     -35.371  13.613  -4.369  1.00 20.00     0.144 C 
HETATM    3  C3  UNL     1     -34.782  15.134  -2.770  1.00 20.00     0.261 C 
HETATM    4  C4  UNL     1     -34.791  13.990  -5.727  1.00 20.00     0.042 C 
HETATM    5  O7  UNL     1     -35.954  15.635  -3.423  1.00 20.00    -0.359 OA
HETATM    6  O8  UNL     1     -34.397  13.883  -3.355  1.00 20.00    -0.354 OA
ENDROOT
BRANCH   3   7
HETATM    7  C5  UNL     1     -33.655  16.139  -2.889  1.00 20.00     0.075 C 
BRANCH   7   8
HETATM    8  C6  UNL     1     -34.022  17.376  -3.703  1.00 20.00     0.119 C 
HETATM    9 CL9  UNL     1     -33.389  17.294  -5.363  1.00 20.00    -0.130 Cl
ENDBRANCH   7   8
ENDBRANCH   3   7
TORSDOF 2
ENDMDL
MODEL 7
REMARK VINA RESULT:      -3.5     12.135     13.174
REMARK  2 active torsions:
REMARK  status: ('A' for Active; 'I' for Inactive)
REMARK    1  A    between atoms: C3_3  and  C5_5 
REMARK    2  A    between atoms: C5_5  and  C6_6 
ROOT
HETATM    1  C1  UNL     1     -34.255  15.535  -5.781  1.00 20.00     0.202 C 
HETATM    2  C2  UNL     1     -33.208  16.432  -5.158  1.00 20.00     0.144 C 
HETATM    3  C3  UNL     1     -34.282  15.206  -3.558  1.00 20.00     0.261 C 
HETATM    4  C4  UNL     1     -33.633  17.894  -5.108  1.00 20.00     0.042 C 
HETATM    5  O7  UNL     1     -35.145  15.264  -4.699  1.00 20.00    -0.359 OA
HETATM    6  O8  UNL     1     -33.078  15.938  -3.821  1.00 20.00    -0.354 OA
ENDROOT
BRANCH   3   7
HETATM    7  C5  UNL     1     -34.990  15.775  -2.346  1.00 20.00     0.075 C 
BRANCH   7   8
HETATM    8  C6  UNL     1     -34.123  16.723  -1.521  1.00 20.00     0.119 C 
HETATM    9 CL9  UNL     1     -34.838  17.063   0.072  1.00 20.00    -0.130 Cl
ENDBRANCH   7   8
ENDBRANCH   3   7
TORSDOF 2
ENDMDL
MODEL 8
REMARK VINA RESULT:      -3.5     12.157     13.413
REMARK  2 active torsions:
REMARK  status: ('A' for Active; 'I' for Inactive)
REMARK    1  A    between atoms: C3_3  and  C5_5 
REMARK    2  A    between atoms: C5_5  and  C6_6 
ROOT
HETATM    1  C1  UNL     1     -34.048  16.104  -2.866  1.00 20.00     0.202 C 
HETATM    2  C2  UNL     1     -33.005  15.210  -3.497  1.00 20.00     0.144 C 
HETATM    3  C3  UNL     1     -33.643  16.857  -4.944  1.00 20.00     0.261 C 
HETATM    4  C4  UNL     1     -33.561  13.857  -3.922  1.00 20.00     0.042 C 
HETATM    5  O7  UNL     1     -34.698  16.698  -3.989  1.00 20.00    -0.359 OA
HETATM    6  O8  UNL     1     -32.588  15.930  -4.661  1.00 20.00    -0.354 OA
ENDROOT
BRANCH   3   7
HETATM    7  C5  UNL     1     -34.177  16.634  -6.344  1.00 20.00     0.075 C 
BRANCH   7   8
HETATM    8  C6  UNL     1     -35.522  15.913  -6.378  1.00 20.00     0.119 C 
HETATM    9 CL9  UNL     1     -35.392  14.299  -7.115  1.00 20.00    -0.130 Cl
ENDBRANCH   7   8
ENDBRANCH   3   7
TORSDOF 2
ENDMDL
MODEL 9
REMARK VINA RESULT:      -3.5     11.756     12.551
REMARK  2 active torsions:
REMARK  status: ('A' for Active; 'I' for Inactive)
REMARK    1  A    between atoms: C3_3  and  C5_5 
REMARK    2  A    between atoms: C5_5  and  C6_6 
ROOT
HETATM    1  C1  UNL     1     -34.850  17.584  -3.214  1.00 20.00     0.202 C 
HETATM    2  C2  UNL     1     -33.902  17.021  -2.180  1.00 20.00     0.144 C 
HETATM    3  C3  UNL     1     -34.271  15.508  -3.850  1.00 20.00     0.261 C 
HETATM    4  C4  UNL     1     -34.606  16.605  -0.894  1.00 20.00     0.042 C 
HETATM    5  O7  UNL     1     -35.375  16.421  -3.851  1.00 20.00    -0.359 OA
HETATM    6  O8  UNL     1     -33.352  15.858  -2.808  1.00 20.00    -0.354 OA
ENDROOT
BRANCH   3   7
HETATM    7  C5  UNL     1     -34.773  14.092  -3.654  1.00 20.00     0.075 C 
BRANCH   7   8
HETATM    8  C6  UNL     1     -34.687  13.233  -4.913  1.00 20.00     0.119 C 
HETATM    9 CL9  UNL     1     -35.080  14.159  -6.379  1.00 20.00    -0.130 Cl
ENDBRANCH   7   8
ENDBRANCH   3   7
TORSDOF 2
ENDMDL
