MODEL 1
REMARK VINA RESULT:      -4.7      0.000      0.000
REMARK  1 active torsions:
REMARK  status: ('A' for Active; 'I' for Inactive)
REMARK    1  A    between atoms: C3_3  and  C6_6 
ROOT
HETATM    1  C1  UNL     1     -33.702  16.082  -3.199  1.00 20.00    -0.024 C 
HETATM    2  C2  UNL     1     -35.023  15.913  -3.009  1.00 20.00    -0.076 C 
HETATM    3  C4  UNL     1     -32.789  15.023  -3.741  1.00 20.00     0.028 C 
HETATM    4  C5  UNL     1     -33.431  13.636  -3.775  1.00 20.00     0.009 C 
HETATM    5  C6  UNL     1     -35.712  14.613  -3.375  1.00 20.00     0.079 C 
HETATM    6  C7  UNL     1     -34.878  13.681  -4.290  1.00 20.00    -0.004 C 
HETATM    7  C8  UNL     1     -35.844  16.986  -2.346  1.00 20.00     0.044 C 
HETATM    8  C9  UNL     1     -34.902  14.067  -5.777  1.00 20.00     0.011 C 
ENDROOT
BRANCH   5   9
HETATM    9  C3  UNL     1     -37.059  14.886  -3.986  1.00 20.00     0.240 C 
HETATM   10  O10 UNL     1     -38.058  14.215  -3.749  1.00 20.00    -0.306 OA
ENDBRANCH   5   9
TORSDOF 1
ENDMDL
MODEL 2
REMARK VINA RESULT:      -4.5      1.564      2.826
REMARK  1 active torsions:
REMARK  status: ('A' for Active; 'I' for Inactive)
REMARK    1  A    between atoms: C3_3  and  C6_6 
ROOT
HETATM    1  C1  UNL     1     -36.376  16.627  -2.963  1.00 20.00    -0.024 C 
HETATM    2  C2  UNL     1     -36.349  15.378  -3.462  1.00 20.00    -0.076 C 
HETATM    3  C4  UNL     1     -35.196  17.310  -2.339  1.00 20.00     0.028 C 
HETATM    4  C5  UNL     1     -34.038  16.355  -2.042  1.00 20.00     0.009 C 
HETATM    5  C6  UNL     1     -35.073  14.558  -3.462  1.00 20.00     0.079 C 
HETATM    6  C7  UNL     1     -33.784  15.378  -3.200  1.00 20.00    -0.004 C 
HETATM    7  C8  UNL     1     -37.610  14.726  -3.959  1.00 20.00     0.044 C 
HETATM    8  C9  UNL     1     -33.253  16.133  -4.428  1.00 20.00     0.011 C 
ENDROOT
BRANCH   5   9
HETATM    9  C3  UNL     1     -34.953  13.777  -4.742  1.00 20.00     0.240 C 
HETATM   10  O10 UNL     1     -34.741  12.569  -4.779  1.00 20.00    -0.306 OA
ENDBRANCH   5   9
TORSDOF 1
ENDMDL
MODEL 3
REMARK VINA RESULT:      -4.5      2.460      3.749
REMARK  1 active torsions:
REMARK  status: ('A' for Active; 'I' for Inactive)
REMARK    1  A    between atoms: C3_3  and  C6_6 
ROOT
HETATM    1  C1  UNL     1     -34.735  14.125  -5.784  1.00 20.00    -0.024 C 
HETATM    2  C2  UNL     1     -34.329  15.398  -5.935  1.00 20.00    -0.076 C 
HETATM    3  C4  UNL     1     -34.383  13.264  -4.606  1.00 20.00     0.028 C 
HETATM    4  C5  UNL     1     -33.274  13.859  -3.738  1.00 20.00     0.009 C 
HETATM    5  C6  UNL     1     -33.493  16.090  -4.875  1.00 20.00     0.079 C 
HETATM    6  C7  UNL     1     -33.468  15.366  -3.505  1.00 20.00    -0.004 C 
HETATM    7  C8  UNL     1     -34.625  16.149  -7.204  1.00 20.00     0.044 C 
HETATM    8  C9  UNL     1     -34.709  15.616  -2.634  1.00 20.00     0.011 C 
ENDROOT
BRANCH   5   9
HETATM    9  C3  UNL     1     -33.933  17.519  -4.710  1.00 20.00     0.240 C 
HETATM   10  O10 UNL     1     -33.229  18.481  -5.001  1.00 20.00    -0.306 OA
ENDBRANCH   5   9
TORSDOF 1
ENDMDL
MODEL 4
REMARK VINA RESULT:      -4.5      1.892      3.354
REMARK  1 active torsions:
REMARK  status: ('A' for Active; 'I' for Inactive)
REMARK    1  A    between atoms: C3_3  and  C6_6 
ROOT
HETATM    1  C1  UNL     1     -33.838  16.676  -6.288  1.00 20.00    -0.024 C 
HETATM    2  C2  UNL     1     -34.462  15.484  -6.250  1.00 20.00    -0.076 C 
HETATM    3  C4  UNL     1     -33.437  17.454  -5.070  1.00 20.00     0.028 C 
HETATM    4  C5  UNL     1     -34.069  16.922  -3.783  1.00 20.00     0.009 C 
HETATM    5  C6  UNL     1     -34.781  14.804  -4.933  1.00 20.00     0.079 C 
HETATM    6  C7  UNL     1     -34.029  15.388  -3.711  1.00 20.00    -0.004 C 
HETATM    7  C8  UNL     1     -34.937  14.830  -7.519  1.00 20.00     0.044 C 
HETATM    8  C9  UNL     1     -32.579  14.899  -3.567  1.00 20.00     0.011 C 
ENDROOT
BRANCH   5   9
HETATM    9  C3  UNL     1     -34.549  13.322  -5.039  1.00 20.00     0.240 C 
HETATM   10  O10 UNL     1     -35.127  12.495  -4.341  1.00 20.00    -0.306 OA
ENDBRANCH   5   9
TORSDOF 1
ENDMDL
MODEL 5
REMARK VINA RESULT:      -4.3      2.171      3.149
REMARK  1 active torsions:
REMARK  status: ('A' for Active; 'I' for Inactive)
REMARK    1  A    between atoms: C3_3  and  C6_6 
ROOT
HETATM    1  C1  UNL     1     -33.604  16.877  -5.378  1.00 20.00    -0.024 C 
HETATM    2  C2  UNL     1     -33.700  15.635  -4.868  1.00 20.00    -0.076 C 
HETATM    3  C4  UNL     1     -34.242  17.310  -6.664  1.00 20.00     0.028 C 
HETATM    4  C5  UNL     1     -34.759  16.139  -7.502  1.00 20.00     0.009 C 
HETATM    5  C6  UNL     1     -34.517  14.561  -5.560  1.00 20.00     0.079 C 
HETATM    6  C7  UNL     1     -35.488  15.093  -6.644  1.00 20.00    -0.004 C 
HETATM    7  C8  UNL     1     -32.927  15.253  -3.636  1.00 20.00     0.044 C 
HETATM    8  C9  UNL     1     -36.797  15.677  -6.090  1.00 20.00     0.011 C 
ENDROOT
BRANCH   5   9
HETATM    9  C3  UNL     1     -35.257  13.732  -4.547  1.00 20.00     0.240 C 
HETATM   10  O10 UNL     1     -35.057  12.533  -4.378  1.00 20.00    -0.306 OA
ENDBRANCH   5   9
TORSDOF 1
ENDMDL
MODEL 6
REMARK VINA RESULT:      -4.2      1.347      1.692
REMARK  1 active torsions:
REMARK  status: ('A' for Active; 'I' for Inactive)
REMARK    1  A    between atoms: C3_3  and  C6_6 
ROOT
HETATM    1  C1  UNL     1     -33.535  14.888  -3.250  1.00 20.00    -0.024 C 
HETATM    2  C2  UNL     1     -34.523  15.620  -2.705  1.00 20.00    -0.076 C 
HETATM    3  C4  UNL     1     -33.757  13.765  -4.220  1.00 20.00     0.028 C 
HETATM    4  C5  UNL     1     -35.219  13.325  -4.304  1.00 20.00     0.009 C 
HETATM    5  C6  UNL     1     -35.975  15.381  -3.072  1.00 20.00     0.079 C 
HETATM    6  C7  UNL     1     -36.182  14.522  -4.345  1.00 20.00    -0.004 C 
HETATM    7  C8  UNL     1     -34.221  16.647  -1.648  1.00 20.00     0.044 C 
HETATM    8  C9  UNL     1     -36.016  15.293  -5.664  1.00 20.00     0.011 C 
ENDROOT
BRANCH   5   9
HETATM    9  C3  UNL     1     -36.708  16.689  -3.192  1.00 20.00     0.240 C 
HETATM   10  O10 UNL     1     -37.917  16.805  -3.018  1.00 20.00    -0.306 OA
ENDBRANCH   5   9
TORSDOF 1
ENDMDL
MODEL 7
REMARK VINA RESULT:      -4.2     10.484     11.815
REMARK  1 active torsions:
REMARK  status: ('A' for Active; 'I' for Inactive)
REMARK    1  A    between atoms: C3_3  and  C6_6 
ROOT
HETATM    1  C1  UNL     1     -41.493   4.671  -0.648  1.00 20.00    -0.024 C 
HETATM    2  C2  UNL     1     -41.934   4.828  -1.909  1.00 20.00    -0.076 C 
HETATM    3  C4  UNL     1     -41.002   5.793   0.218  1.00 20.00     0.028 C 
HETATM    4  C5  UNL     1     -40.758   7.087  -0.559  1.00 20.00     0.009 C 
HETATM    5  C6  UNL     1     -42.002   6.199  -2.554  1.00 20.00     0.079 C 
HETATM    6  C7  UNL     1     -41.886   7.382  -1.559  1.00 20.00    -0.004 C 
HETATM    7  C8  UNL     1     -42.294   3.633  -2.748  1.00 20.00     0.044 C 
HETATM    8  C9  UNL     1     -43.188   7.712  -0.813  1.00 20.00     0.011 C 
ENDROOT
BRANCH   5   9
HETATM    9  C3  UNL     1     -43.250   6.327  -3.384  1.00 20.00     0.240 C 
HETATM   10  O10 UNL     1     -43.391   7.166  -4.268  1.00 20.00    -0.306 OA
ENDBRANCH   5   9
TORSDOF 1
ENDMDL
MODEL 8
REMARK VINA RESULT:      -4.2      1.862      2.837
REMARK  1 active torsions:
REMARK  status: ('A' for Active; 'I' for Inactive)
REMARK    1  A    between atoms: C3_3  and  C6_6 
ROOT
HETATM    1  C1  UNL     1     -34.305  15.632  -6.144  1.00 20.00    -0.024 C 
HETATM    2  C2  UNL     1     -34.051  16.158  -4.932  1.00 20.00    -0.076 C 
HETATM    3  C4  UNL     1     -34.828  14.244  -6.365  1.00 20.00     0.028 C 
HETATM    4  C5  UNL     1     -34.762  13.370  -5.111  1.00 20.00     0.009 C 
HETATM    5  C6  UNL     1     -34.320  15.375  -3.661  1.00 20.00     0.079 C 
HETATM    6  C7  UNL     1     -35.219  14.128  -3.855  1.00 20.00    -0.004 C 
HETATM    7  C8  UNL     1     -33.412  17.514  -4.806  1.00 20.00     0.044 C 
HETATM    8  C9  UNL     1     -36.722  14.437  -3.936  1.00 20.00     0.011 C 
ENDROOT
BRANCH   5   9
HETATM    9  C3  UNL     1     -34.887  16.277  -2.600  1.00 20.00     0.240 C 
HETATM   10  O10 UNL     1     -34.691  16.116  -1.400  1.00 20.00    -0.306 OA
ENDBRANCH   5   9
TORSDOF 1
ENDMDL
MODEL 9
REMARK VINA RESULT:      -4.2     11.527     12.459
REMARK  1 active torsions:
REMARK  status: ('A' for Active; 'I' for Inactive)
REMARK    1  A    between atoms: C3_3  and  C6_6 
ROOT
HETATM    1  C1  UNL     1     -34.530   5.335   6.130  1.00 20.00    -0.024 C 
HETATM    2  C2  UNL     1     -33.850   6.421   5.719  1.00 20.00    -0.076 C 
HETATM    3  C4  UNL     1     -35.374   4.482   5.230  1.00 20.00     0.028 C 
HETATM    4  C5  UNL     1     -35.640   5.125   3.869  1.00 20.00     0.009 C 
HETATM    5  C6  UNL     1     -33.858   6.852   4.265  1.00 20.00     0.079 C 
HETATM    6  C7  UNL     1     -34.379   5.776   3.280  1.00 20.00    -0.004 C 
HETATM    7  C8  UNL     1     -33.127   7.291   6.711  1.00 20.00     0.044 C 
HETATM    8  C9  UNL     1     -33.345   4.699   2.914  1.00 20.00     0.011 C 
ENDROOT
BRANCH   5   9
HETATM    9  C3  UNL     1     -32.493   7.331   3.853  1.00 20.00     0.240 C 
HETATM   10  O10 UNL     1     -32.253   7.829   2.757  1.00 20.00    -0.306 OA
ENDBRANCH   5   9
TORSDOF 1
ENDMDL
