MODEL 1
REMARK VINA RESULT:      -4.8      0.000      0.000
REMARK  2 active torsions:
REMARK  status: ('A' for Active; 'I' for Inactive)
REMARK    1  A    between atoms: C6_6  and  C11_11 
REMARK    2  A    between atoms: C11_11  and  O12_12 
ROOT
HETATM    1  C1  UNL     1     -33.397  15.420  -4.235  1.00 20.00     0.005 C 
HETATM    2  C2  UNL     1     -34.154  15.260  -5.559  1.00 20.00     0.006 C 
HETATM    3  C3  UNL     1     -34.830  13.534  -4.112  1.00 20.00     0.010 C 
HETATM    4  C4  UNL     1     -34.281  14.659  -3.231  1.00 20.00    -0.007 C 
HETATM    5  C5  UNL     1     -35.430  14.507  -5.136  1.00 20.00    -0.006 C 
HETATM    6  C6  UNL     1     -35.584  15.434  -2.898  1.00 20.00     0.026 C 
HETATM    7  C7  UNL     1     -36.366  15.404  -4.257  1.00 20.00    -0.038 C 
HETATM    8  C8  UNL     1     -36.650  16.779  -4.880  1.00 20.00     0.015 C 
HETATM    9  C9  UNL     1     -37.732  14.708  -4.065  1.00 20.00     0.015 C 
ENDROOT
BRANCH   6  10
HETATM   10  C11 UNL     1     -35.364  16.790  -2.242  1.00 20.00     0.119 C 
HETATM   11  C10 UNL     1     -34.346  16.715  -1.115  1.00 20.00     0.040 C 
BRANCH  10  12
HETATM   12  O12 UNL     1     -36.602  17.265  -1.725  1.00 20.00    -0.396 OA
HETATM   13  H32 UNL     1     -37.287  17.002  -2.358  1.00 20.00     0.210 HD
ENDBRANCH  10  12
ENDBRANCH   6  10
TORSDOF 2
ENDMDL
MODEL 2
REMARK VINA RESULT:      -4.7      1.952      3.630
REMARK  2 active torsions:
REMARK  status: ('A' for Active; 'I' for Inactive)
REMARK    1  A    between atoms: C6_6  and  C11_11 
REMARK    2  A    between atoms: C11_11  and  O12_12 
ROOT
HETATM    1  C1  UNL     1     -36.471  14.997  -5.317  1.00 20.00     0.005 C 
HETATM    2  C2  UNL     1     -36.363  14.399  -3.909  1.00 20.00     0.006 C 
HETATM    3  C3  UNL     1     -34.755  13.358  -5.275  1.00 20.00     0.010 C 
HETATM    4  C4  UNL     1     -35.090  14.700  -5.930  1.00 20.00    -0.007 C 
HETATM    5  C5  UNL     1     -34.901  13.915  -3.852  1.00 20.00    -0.006 C 
HETATM    6  C6  UNL     1     -33.981  15.605  -5.331  1.00 20.00     0.026 C 
HETATM    7  C7  UNL     1     -33.895  15.117  -3.844  1.00 20.00    -0.038 C 
HETATM    8  C8  UNL     1     -34.227  16.179  -2.785  1.00 20.00     0.015 C 
HETATM    9  C9  UNL     1     -32.470  14.606  -3.537  1.00 20.00     0.015 C 
ENDROOT
BRANCH   6  10
HETATM   10  C11 UNL     1     -34.180  17.096  -5.573  1.00 20.00     0.119 C 
HETATM   11  C10 UNL     1     -34.580  17.387  -7.010  1.00 20.00     0.040 C 
BRANCH  10  12
HETATM   12  O12 UNL     1     -32.969  17.783  -5.274  1.00 20.00    -0.396 OA
HETATM   13  H32 UNL     1     -32.744  17.564  -4.356  1.00 20.00     0.210 HD
ENDBRANCH  10  12
ENDBRANCH   6  10
TORSDOF 2
ENDMDL
MODEL 3
REMARK VINA RESULT:      -4.6      1.066      2.949
REMARK  2 active torsions:
REMARK  status: ('A' for Active; 'I' for Inactive)
REMARK    1  A    between atoms: C6_6  and  C11_11 
REMARK    2  A    between atoms: C11_11  and  O12_12 
ROOT
HETATM    1  C1  UNL     1     -35.039  13.360  -4.346  1.00 20.00     0.005 C 
HETATM    2  C2  UNL     1     -33.679  13.793  -3.784  1.00 20.00     0.006 C 
HETATM    3  C3  UNL     1     -34.165  15.137  -5.652  1.00 20.00     0.010 C 
HETATM    4  C4  UNL     1     -35.501  14.596  -5.137  1.00 20.00    -0.007 C 
HETATM    5  C5  UNL     1     -33.569  15.259  -4.243  1.00 20.00    -0.006 C 
HETATM    6  C6  UNL     1     -35.945  15.753  -4.201  1.00 20.00     0.026 C 
HETATM    7  C7  UNL     1     -34.605  16.174  -3.505  1.00 20.00    -0.038 C 
HETATM    8  C8  UNL     1     -34.581  16.011  -1.978  1.00 20.00     0.015 C 
HETATM    9  C9  UNL     1     -34.299  17.659  -3.802  1.00 20.00     0.015 C 
ENDROOT
BRANCH   6  10
HETATM   10  C11 UNL     1     -37.131  15.423  -3.306  1.00 20.00     0.119 C 
HETATM   11  C10 UNL     1     -38.246  14.732  -4.074  1.00 20.00     0.040 C 
BRANCH  10  12
HETATM   12  O12 UNL     1     -37.632  16.626  -2.732  1.00 20.00    -0.396 OA
HETATM   13  H32 UNL     1     -38.142  17.074  -3.426  1.00 20.00     0.210 HD
ENDBRANCH  10  12
ENDBRANCH   6  10
TORSDOF 2
ENDMDL
MODEL 4
REMARK VINA RESULT:      -4.6      2.252      3.828
REMARK  2 active torsions:
REMARK  status: ('A' for Active; 'I' for Inactive)
REMARK    1  A    between atoms: C6_6  and  C11_11 
REMARK    2  A    between atoms: C11_11  and  O12_12 
ROOT
HETATM    1  C1  UNL     1     -34.156  17.904  -3.066  1.00 20.00     0.005 C 
HETATM    2  C2  UNL     1     -33.787  16.902  -1.965  1.00 20.00     0.006 C 
HETATM    3  C3  UNL     1     -35.955  16.396  -2.723  1.00 20.00     0.010 C 
HETATM    4  C4  UNL     1     -35.265  17.175  -3.845  1.00 20.00    -0.007 C 
HETATM    5  C5  UNL     1     -34.664  15.681  -2.304  1.00 20.00    -0.006 C 
HETATM    6  C6  UNL     1     -34.703  16.013  -4.708  1.00 20.00     0.026 C 
HETATM    7  C7  UNL     1     -34.202  14.989  -3.631  1.00 20.00    -0.038 C 
HETATM    8  C8  UNL     1     -32.697  14.686  -3.666  1.00 20.00     0.015 C 
HETATM    9  C9  UNL     1     -34.935  13.640  -3.803  1.00 20.00     0.015 C 
ENDROOT
BRANCH   6  10
HETATM   10  C11 UNL     1     -33.716  16.443  -5.784  1.00 20.00     0.119 C 
HETATM   11  C10 UNL     1     -34.147  17.733  -6.464  1.00 20.00     0.040 C 
BRANCH  10  12
HETATM   12  O12 UNL     1     -33.610  15.411  -6.760  1.00 20.00    -0.396 OA
HETATM   13  H32 UNL     1     -34.481  14.988  -6.812  1.00 20.00     0.210 HD
ENDBRANCH  10  12
ENDBRANCH   6  10
TORSDOF 2
ENDMDL
MODEL 5
REMARK VINA RESULT:      -4.6      2.098      3.103
REMARK  2 active torsions:
REMARK  status: ('A' for Active; 'I' for Inactive)
REMARK    1  A    between atoms: C6_6  and  C11_11 
REMARK    2  A    between atoms: C11_11  and  O12_12 
ROOT
HETATM    1  C1  UNL     1     -33.744  16.952  -3.894  1.00 20.00     0.005 C 
HETATM    2  C2  UNL     1     -35.037  17.718  -4.199  1.00 20.00     0.006 C 
HETATM    3  C3  UNL     1     -34.169  16.903  -6.228  1.00 20.00     0.010 C 
HETATM    4  C4  UNL     1     -33.588  16.028  -5.114  1.00 20.00    -0.007 C 
HETATM    5  C5  UNL     1     -35.516  17.073  -5.513  1.00 20.00    -0.006 C 
HETATM    6  C6  UNL     1     -34.611  14.860  -5.095  1.00 20.00     0.026 C 
HETATM    7  C7  UNL     1     -35.982  15.593  -5.293  1.00 20.00    -0.038 C 
HETATM    8  C8  UNL     1     -36.982  15.437  -4.138  1.00 20.00     0.015 C 
HETATM    9  C9  UNL     1     -36.683  15.069  -6.567  1.00 20.00     0.015 C 
ENDROOT
BRANCH   6  10
HETATM   10  C11 UNL     1     -34.480  13.923  -3.902  1.00 20.00     0.119 C 
HETATM   11  C10 UNL     1     -33.025  13.650  -3.554  1.00 20.00     0.040 C 
BRANCH  10  12
HETATM   12  O12 UNL     1     -35.129  12.692  -4.202  1.00 20.00    -0.396 OA
HETATM   13  H32 UNL     1     -35.604  12.824  -5.037  1.00 20.00     0.210 HD
ENDBRANCH  10  12
ENDBRANCH   6  10
TORSDOF 2
ENDMDL
MODEL 6
REMARK VINA RESULT:      -4.6      1.662      2.979
REMARK  2 active torsions:
REMARK  status: ('A' for Active; 'I' for Inactive)
REMARK    1  A    between atoms: C6_6  and  C11_11 
REMARK    2  A    between atoms: C11_11  and  O12_12 
ROOT
HETATM    1  C1  UNL     1     -34.926  17.705  -3.960  1.00 20.00     0.005 C 
HETATM    2  C2  UNL     1     -33.688  17.181  -4.698  1.00 20.00     0.006 C 
HETATM    3  C3  UNL     1     -33.656  16.322  -2.509  1.00 20.00     0.010 C 
HETATM    4  C4  UNL     1     -35.110  16.688  -2.819  1.00 20.00    -0.007 C 
HETATM    5  C5  UNL     1     -33.368  15.874  -3.948  1.00 20.00    -0.006 C 
HETATM    6  C6  UNL     1     -35.652  15.328  -3.334  1.00 20.00     0.026 C 
HETATM    7  C7  UNL     1     -34.464  14.782  -4.198  1.00 20.00    -0.038 C 
HETATM    8  C8  UNL     1     -34.779  14.568  -5.686  1.00 20.00     0.015 C 
HETATM    9  C9  UNL     1     -33.987  13.422  -3.641  1.00 20.00     0.015 C 
ENDROOT
BRANCH   6  10
HETATM   10  C11 UNL     1     -37.025  15.400  -3.989  1.00 20.00     0.119 C 
HETATM   11  C10 UNL     1     -37.894  16.479  -3.364  1.00 20.00     0.040 C 
BRANCH  10  12
HETATM   12  O12 UNL     1     -37.673  14.140  -3.856  1.00 20.00    -0.396 OA
HETATM   13  H32 UNL     1     -37.481  13.642  -4.666  1.00 20.00     0.210 HD
ENDBRANCH  10  12
ENDBRANCH   6  10
TORSDOF 2
ENDMDL
MODEL 7
REMARK VINA RESULT:      -4.5      1.883      3.283
REMARK  2 active torsions:
REMARK  status: ('A' for Active; 'I' for Inactive)
REMARK    1  A    between atoms: C6_6  and  C11_11 
REMARK    2  A    between atoms: C11_11  and  O12_12 
ROOT
HETATM    1  C1  UNL     1     -36.641  15.732  -3.346  1.00 20.00     0.005 C 
HETATM    2  C2  UNL     1     -37.266  14.717  -4.310  1.00 20.00     0.006 C 
HETATM    3  C3  UNL     1     -36.623  16.609  -5.551  1.00 20.00     0.010 C 
HETATM    4  C4  UNL     1     -35.781  16.611  -4.272  1.00 20.00    -0.007 C 
HETATM    5  C5  UNL     1     -36.615  15.078  -5.659  1.00 20.00    -0.006 C 
HETATM    6  C6  UNL     1     -34.506  15.872  -4.758  1.00 20.00     0.026 C 
HETATM    7  C7  UNL     1     -35.086  14.737  -5.672  1.00 20.00    -0.038 C 
HETATM    8  C8  UNL     1     -34.779  13.304  -5.212  1.00 20.00     0.015 C 
HETATM    9  C9  UNL     1     -34.529  14.877  -7.106  1.00 20.00     0.015 C 
ENDROOT
BRANCH   6  10
HETATM   10  C11 UNL     1     -33.550  15.461  -3.647  1.00 20.00     0.119 C 
HETATM   11  C10 UNL     1     -33.555  16.458  -2.499  1.00 20.00     0.040 C 
BRANCH  10  12
HETATM   12  O12 UNL     1     -32.232  15.362  -4.177  1.00 20.00    -0.396 OA
HETATM   13  H32 UNL     1     -31.885  16.267  -4.229  1.00 20.00     0.210 HD
ENDBRANCH  10  12
ENDBRANCH   6  10
TORSDOF 2
ENDMDL
MODEL 8
REMARK VINA RESULT:      -4.4      1.748      2.863
REMARK  2 active torsions:
REMARK  status: ('A' for Active; 'I' for Inactive)
REMARK    1  A    between atoms: C6_6  and  C11_11 
REMARK    2  A    between atoms: C11_11  and  O12_12 
ROOT
HETATM    1  C1  UNL     1     -34.130  15.233  -5.560  1.00 20.00     0.005 C 
HETATM    2  C2  UNL     1     -34.946  14.323  -4.634  1.00 20.00     0.006 C 
HETATM    3  C3  UNL     1     -32.930  14.860  -3.547  1.00 20.00     0.010 C 
HETATM    4  C4  UNL     1     -33.175  15.953  -4.590  1.00 20.00    -0.007 C 
HETATM    5  C5  UNL     1     -34.424  14.700  -3.234  1.00 20.00    -0.006 C 
HETATM    6  C6  UNL     1     -33.910  17.019  -3.734  1.00 20.00     0.026 C 
HETATM    7  C7  UNL     1     -34.853  16.152  -2.831  1.00 20.00    -0.038 C 
HETATM    8  C8  UNL     1     -36.356  16.413  -3.012  1.00 20.00     0.015 C 
HETATM    9  C9  UNL     1     -34.532  16.399  -1.340  1.00 20.00     0.015 C 
ENDROOT
BRANCH   6  10
HETATM   10  C11 UNL     1     -34.544  18.148  -4.534  1.00 20.00     0.119 C 
HETATM   11  C10 UNL     1     -33.639  18.620  -5.661  1.00 20.00     0.040 C 
BRANCH  10  12
HETATM   12  O12 UNL     1     -34.818  19.241  -3.664  1.00 20.00    -0.396 OA
HETATM   13  H32 UNL     1     -35.253  19.921  -4.201  1.00 20.00     0.210 HD
ENDBRANCH  10  12
ENDBRANCH   6  10
TORSDOF 2
ENDMDL
MODEL 9
REMARK VINA RESULT:      -4.4      1.477      3.412
REMARK  2 active torsions:
REMARK  status: ('A' for Active; 'I' for Inactive)
REMARK    1  A    between atoms: C6_6  and  C11_11 
REMARK    2  A    between atoms: C11_11  and  O12_12 
ROOT
HETATM    1  C1  UNL     1     -35.978  15.369  -7.028  1.00 20.00     0.005 C 
HETATM    2  C2  UNL     1     -34.599  14.733  -6.811  1.00 20.00     0.006 C 
HETATM    3  C3  UNL     1     -34.626  16.820  -5.725  1.00 20.00     0.010 C 
HETATM    4  C4  UNL     1     -36.085  16.378  -5.871  1.00 20.00    -0.007 C 
HETATM    5  C5  UNL     1     -34.122  15.388  -5.500  1.00 20.00    -0.006 C 
HETATM    6  C6  UNL     1     -36.318  15.677  -4.506  1.00 20.00     0.026 C 
HETATM    7  C7  UNL     1     -34.971  14.909  -4.273  1.00 20.00    -0.038 C 
HETATM    8  C8  UNL     1     -35.095  13.381  -4.181  1.00 20.00     0.015 C 
HETATM    9  C9  UNL     1     -34.311  15.385  -2.960  1.00 20.00     0.015 C 
ENDROOT
BRANCH   6  10
HETATM   10  C11 UNL     1     -37.610  14.876  -4.418  1.00 20.00     0.119 C 
HETATM   11  C10 UNL     1     -38.741  15.540  -5.187  1.00 20.00     0.040 C 
BRANCH  10  12
HETATM   12  O12 UNL     1     -37.985  14.743  -3.052  1.00 20.00    -0.396 OA
HETATM   13  H32 UNL     1     -37.688  13.865  -2.765  1.00 20.00     0.210 HD
ENDBRANCH  10  12
ENDBRANCH   6  10
TORSDOF 2
ENDMDL
