MODEL 1
REMARK VINA RESULT:      -4.8      0.000      0.000
REMARK  0 active torsions:
REMARK  status: ('A' for Active; 'I' for Inactive)
ROOT
HETATM    1  C1  UNL     1     -34.049  13.673  -4.395  1.00 20.00     0.006 C 
HETATM    2  C2  UNL     1     -33.428  14.791  -3.548  1.00 20.00     0.006 C 
HETATM    3  C3  UNL     1     -36.361  14.425  -3.850  1.00 20.00     0.021 C 
HETATM    4  C4  UNL     1     -35.432  14.016  -4.999  1.00 20.00     0.005 C 
HETATM    5  C5  UNL     1     -34.453  15.503  -2.648  1.00 20.00    -0.005 C 
HETATM    6  C6  UNL     1     -35.796  15.758  -3.367  1.00 20.00     0.052 C 
HETATM    7  C7  UNL     1     -35.466  15.201  -6.004  1.00 20.00     0.005 C 
HETATM    8  C8  UNL     1     -33.856  16.781  -2.052  1.00 20.00     0.011 C 
HETATM    9  C9  UNL     1     -36.735  15.147  -6.877  1.00 20.00     0.027 C 
HETATM   10  C10 UNL     1     -34.250  15.298  -6.927  1.00 20.00     0.027 C 
HETATM   11  S11 UNL     1     -35.591  16.691  -4.931  1.00 20.00    -0.154 SA
ENDROOT
TORSDOF 0
ENDMDL
MODEL 2
REMARK VINA RESULT:      -4.6      1.128      3.592
REMARK  0 active torsions:
REMARK  status: ('A' for Active; 'I' for Inactive)
ROOT
HETATM    1  C1  UNL     1     -34.635  13.784  -4.858  1.00 20.00     0.006 C 
HETATM    2  C2  UNL     1     -34.989  14.541  -6.144  1.00 20.00     0.006 C 
HETATM    3  C3  UNL     1     -32.965  15.511  -4.196  1.00 20.00     0.021 C 
HETATM    4  C4  UNL     1     -34.154  14.683  -3.694  1.00 20.00     0.005 C 
HETATM    5  C5  UNL     1     -33.998  15.674  -6.467  1.00 20.00    -0.005 C 
HETATM    6  C6  UNL     1     -33.580  16.470  -5.212  1.00 20.00     0.052 C 
HETATM    7  C7  UNL     1     -35.182  15.715  -3.154  1.00 20.00     0.005 C 
HETATM    8  C8  UNL     1     -34.546  16.574  -7.577  1.00 20.00     0.011 C 
HETATM    9  C9  UNL     1     -34.792  16.197  -1.744  1.00 20.00     0.027 C 
HETATM   10  C10 UNL     1     -36.629  15.220  -3.111  1.00 20.00     0.027 C 
HETATM   11  S11 UNL     1     -35.017  17.148  -4.298  1.00 20.00    -0.154 SA
ENDROOT
TORSDOF 0
ENDMDL
MODEL 3
REMARK VINA RESULT:      -4.6      1.596      2.555
REMARK  0 active torsions:
REMARK  status: ('A' for Active; 'I' for Inactive)
ROOT
HETATM    1  C1  UNL     1     -33.577  17.708  -4.444  1.00 20.00     0.006 C 
HETATM    2  C2  UNL     1     -34.203  17.825  -3.048  1.00 20.00     0.006 C 
HETATM    3  C3  UNL     1     -32.926  15.336  -4.051  1.00 20.00     0.021 C 
HETATM    4  C4  UNL     1     -33.606  16.283  -5.045  1.00 20.00     0.005 C 
HETATM    5  C5  UNL     1     -33.844  16.644  -2.128  1.00 20.00    -0.005 C 
HETATM    6  C6  UNL     1     -33.884  15.287  -2.864  1.00 20.00     0.052 C 
HETATM    7  C7  UNL     1     -35.013  15.676  -5.302  1.00 20.00     0.005 C 
HETATM    8  C8  UNL     1     -34.713  16.653  -0.868  1.00 20.00     0.011 C 
HETATM    9  C9  UNL     1     -34.937  14.512  -6.309  1.00 20.00     0.027 C 
HETATM   10  C10 UNL     1     -36.064  16.672  -5.797  1.00 20.00     0.027 C 
HETATM   11  S11 UNL     1     -35.499  14.972  -3.672  1.00 20.00    -0.154 SA
ENDROOT
TORSDOF 0
ENDMDL
MODEL 4
REMARK VINA RESULT:      -4.5      1.137      3.730
REMARK  0 active torsions:
REMARK  status: ('A' for Active; 'I' for Inactive)
ROOT
HETATM    1  C1  UNL     1     -36.739  14.869  -4.096  1.00 20.00     0.006 C 
HETATM    2  C2  UNL     1     -36.385  15.070  -5.574  1.00 20.00     0.006 C 
HETATM    3  C3  UNL     1     -34.442  14.062  -3.564  1.00 20.00     0.021 C 
HETATM    4  C4  UNL     1     -35.548  15.027  -3.121  1.00 20.00     0.005 C 
HETATM    5  C5  UNL     1     -35.041  14.427  -5.964  1.00 20.00    -0.005 C 
HETATM    6  C6  UNL     1     -33.951  14.637  -4.890  1.00 20.00     0.052 C 
HETATM    7  C7  UNL     1     -34.881  16.431  -3.076  1.00 20.00     0.005 C 
HETATM    8  C8  UNL     1     -34.596  14.898  -7.350  1.00 20.00     0.011 C 
HETATM    9  C9  UNL     1     -34.065  16.612  -1.782  1.00 20.00     0.027 C 
HETATM   10  C10 UNL     1     -35.850  17.608  -3.203  1.00 20.00     0.027 C 
HETATM   11  S11 UNL     1     -33.696  16.407  -4.484  1.00 20.00    -0.154 SA
ENDROOT
TORSDOF 0
ENDMDL
MODEL 5
REMARK VINA RESULT:      -4.4      1.168      3.773
REMARK  0 active torsions:
REMARK  status: ('A' for Active; 'I' for Inactive)
ROOT
HETATM    1  C1  UNL     1     -33.518  14.230  -3.884  1.00 20.00     0.006 C 
HETATM    2  C2  UNL     1     -34.703  13.912  -4.805  1.00 20.00     0.006 C 
HETATM    3  C3  UNL     1     -33.001  16.326  -5.129  1.00 20.00     0.021 C 
HETATM    4  C4  UNL     1     -33.211  15.739  -3.728  1.00 20.00     0.005 C 
HETATM    5  C5  UNL     1     -34.736  14.791  -6.068  1.00 20.00    -0.005 C 
HETATM    6  C6  UNL     1     -34.383  16.264  -5.773  1.00 20.00     0.052 C 
HETATM    7  C7  UNL     1     -34.329  16.602  -3.079  1.00 20.00     0.005 C 
HETATM    8  C8  UNL     1     -36.074  14.643  -6.797  1.00 20.00     0.011 C 
HETATM    9  C9  UNL     1     -33.760  17.931  -2.546  1.00 20.00     0.027 C 
HETATM   10  C10 UNL     1     -35.094  15.917  -1.945  1.00 20.00     0.027 C 
HETATM   11  S11 UNL     1     -35.455  17.000  -4.480  1.00 20.00    -0.154 SA
ENDROOT
TORSDOF 0
ENDMDL
MODEL 6
REMARK VINA RESULT:      -4.4      1.762      2.728
REMARK  0 active torsions:
REMARK  status: ('A' for Active; 'I' for Inactive)
ROOT
HETATM    1  C1  UNL     1     -34.515  16.025  -1.944  1.00 20.00     0.006 C 
HETATM    2  C2  UNL     1     -33.759  17.248  -2.479  1.00 20.00     0.006 C 
HETATM    3  C3  UNL     1     -36.151  16.104  -3.822  1.00 20.00     0.021 C 
HETATM    4  C4  UNL     1     -35.220  15.178  -3.031  1.00 20.00     0.005 C 
HETATM    5  C5  UNL     1     -34.525  17.989  -3.590  1.00 20.00    -0.005 C 
HETATM    6  C6  UNL     1     -35.203  17.024  -4.587  1.00 20.00     0.052 C 
HETATM    7  C7  UNL     1     -34.296  14.514  -4.089  1.00 20.00     0.005 C 
HETATM    8  C8  UNL     1     -33.620  19.009  -4.285  1.00 20.00     0.011 C 
HETATM    9  C9  UNL     1     -35.016  13.351  -4.797  1.00 20.00     0.027 C 
HETATM   10  C10 UNL     1     -32.963  13.996  -3.545  1.00 20.00     0.027 C 
HETATM   11  S11 UNL     1     -34.020  15.840  -5.335  1.00 20.00    -0.154 SA
ENDROOT
TORSDOF 0
ENDMDL
MODEL 7
REMARK VINA RESULT:      -4.3      1.408      2.234
REMARK  0 active torsions:
REMARK  status: ('A' for Active; 'I' for Inactive)
ROOT
HETATM    1  C1  UNL     1     -36.294  15.250  -3.381  1.00 20.00     0.006 C 
HETATM    2  C2  UNL     1     -35.331  15.743  -2.295  1.00 20.00     0.006 C 
HETATM    3  C3  UNL     1     -35.659  17.111  -4.912  1.00 20.00     0.021 C 
HETATM    4  C4  UNL     1     -35.864  15.593  -4.827  1.00 20.00     0.005 C 
HETATM    5  C5  UNL     1     -34.785  17.156  -2.571  1.00 20.00    -0.005 C 
HETATM    6  C6  UNL     1     -34.423  17.371  -4.056  1.00 20.00     0.052 C 
HETATM    7  C7  UNL     1     -34.527  14.966  -5.312  1.00 20.00     0.005 C 
HETATM    8  C8  UNL     1     -33.622  17.482  -1.631  1.00 20.00     0.011 C 
HETATM    9  C9  UNL     1     -34.442  14.969  -6.850  1.00 20.00     0.027 C 
HETATM   10  C10 UNL     1     -34.269  13.541  -4.819  1.00 20.00     0.027 C 
HETATM   11  S11 UNL     1     -33.239  16.118  -4.680  1.00 20.00    -0.154 SA
ENDROOT
TORSDOF 0
ENDMDL
MODEL 8
REMARK VINA RESULT:      -4.3      1.087      3.683
REMARK  0 active torsions:
REMARK  status: ('A' for Active; 'I' for Inactive)
ROOT
HETATM    1  C1  UNL     1     -36.466  14.444  -3.794  1.00 20.00     0.006 C 
HETATM    2  C2  UNL     1     -36.911  15.487  -4.826  1.00 20.00     0.006 C 
HETATM    3  C3  UNL     1     -34.793  13.474  -5.366  1.00 20.00     0.021 C 
HETATM    4  C4  UNL     1     -34.995  13.986  -3.935  1.00 20.00     0.005 C 
HETATM    5  C5  UNL     1     -36.375  15.201  -6.240  1.00 20.00    -0.005 C 
HETATM    6  C6  UNL     1     -34.906  14.726  -6.231  1.00 20.00     0.052 C 
HETATM    7  C7  UNL     1     -33.913  15.083  -3.729  1.00 20.00     0.005 C 
HETATM    8  C8  UNL     1     -36.596  16.405  -7.158  1.00 20.00     0.011 C 
HETATM    9  C9  UNL     1     -32.541  14.454  -3.418  1.00 20.00     0.027 C 
HETATM   10  C10 UNL     1     -34.233  16.105  -2.637  1.00 20.00     0.027 C 
HETATM   11  S11 UNL     1     -33.791  15.902  -5.373  1.00 20.00    -0.154 SA
ENDROOT
TORSDOF 0
ENDMDL
MODEL 9
REMARK VINA RESULT:      -4.2      1.772      3.482
REMARK  0 active torsions:
REMARK  status: ('A' for Active; 'I' for Inactive)
ROOT
HETATM    1  C1  UNL     1     -36.205  16.178  -3.034  1.00 20.00     0.006 C 
HETATM    2  C2  UNL     1     -35.963  14.902  -3.850  1.00 20.00     0.006 C 
HETATM    3  C3  UNL     1     -33.803  16.326  -2.388  1.00 20.00     0.021 C 
HETATM    4  C4  UNL     1     -34.985  17.127  -2.945  1.00 20.00     0.005 C 
HETATM    5  C5  UNL     1     -34.579  14.279  -3.595  1.00 20.00    -0.005 C 
HETATM    6  C6  UNL     1     -33.461  15.339  -3.500  1.00 20.00     0.052 C 
HETATM    7  C7  UNL     1     -34.485  17.727  -4.289  1.00 20.00     0.005 C 
HETATM    8  C8  UNL     1     -34.273  13.194  -4.630  1.00 20.00     0.011 C 
HETATM    9  C9  UNL     1     -33.621  18.979  -4.045  1.00 20.00     0.027 C 
HETATM   10  C10 UNL     1     -35.589  18.089  -5.283  1.00 20.00     0.027 C 
HETATM   11  S11 UNL     1     -33.389  16.419  -4.979  1.00 20.00    -0.154 SA
ENDROOT
TORSDOF 0
ENDMDL
