MODEL 1
REMARK VINA RESULT:      -3.5      0.000      0.000
REMARK  1 active torsions:
REMARK  status: ('A' for Active; 'I' for Inactive)
REMARK    1  A    between atoms: C3_3  and  C4_4 
ROOT
HETATM    1  C1  UNL     1     -34.526  13.714  -4.206  1.00 20.00     0.086 C 
HETATM    2  C2  UNL     1     -32.388  14.803  -3.614  1.00 20.00     0.050 C 
HETATM    3  C4  UNL     1     -33.875  15.004  -3.914  1.00 20.00     0.134 C 
HETATM    4  N5  UNL     1     -35.035  12.698  -4.440  1.00 20.00    -0.195 NA
HETATM    5 CL7  UNL     1     -34.663  15.630  -2.416  1.00 20.00    -0.102 Cl
ENDROOT
BRANCH   3   6
HETATM    6  C3  UNL     1     -34.126  16.027  -5.032  1.00 20.00     0.155 C 
HETATM    7 CL6  UNL     1     -34.173  15.293  -6.660  1.00 20.00    -0.127 Cl
ENDBRANCH   3   6
TORSDOF 1
ENDMDL
MODEL 2
REMARK VINA RESULT:      -3.4      1.619      2.495
REMARK  1 active torsions:
REMARK  status: ('A' for Active; 'I' for Inactive)
REMARK    1  A    between atoms: C3_3  and  C4_4 
ROOT
HETATM    1  C1  UNL     1     -34.530  13.685  -4.520  1.00 20.00     0.086 C 
HETATM    2  C2  UNL     1     -33.978  15.881  -5.509  1.00 20.00     0.050 C 
HETATM    3  C4  UNL     1     -34.076  15.055  -4.224  1.00 20.00     0.134 C 
HETATM    4  N5  UNL     1     -34.892  12.607  -4.754  1.00 20.00    -0.195 NA
HETATM    5 CL7  UNL     1     -32.412  14.891  -3.543  1.00 20.00    -0.102 Cl
ENDROOT
BRANCH   3   6
HETATM    6  C3  UNL     1     -34.951  15.720  -3.152  1.00 20.00     0.155 C 
HETATM    7 CL6  UNL     1     -34.006  16.456  -1.828  1.00 20.00    -0.127 Cl
ENDBRANCH   3   6
TORSDOF 1
ENDMDL
MODEL 3
REMARK VINA RESULT:      -3.4      1.033      2.861
REMARK  1 active torsions:
REMARK  status: ('A' for Active; 'I' for Inactive)
REMARK    1  A    between atoms: C3_3  and  C4_4 
ROOT
HETATM    1  C1  UNL     1     -34.738  13.838  -4.868  1.00 20.00     0.086 C 
HETATM    2  C2  UNL     1     -35.893  16.009  -5.112  1.00 20.00     0.050 C 
HETATM    3  C4  UNL     1     -34.579  15.243  -5.283  1.00 20.00     0.134 C 
HETATM    4  N5  UNL     1     -34.864  12.733  -4.537  1.00 20.00    -0.195 NA
HETATM    5 CL7  UNL     1     -34.189  15.200  -7.045  1.00 20.00    -0.102 Cl
ENDROOT
BRANCH   3   6
HETATM    6  C3  UNL     1     -33.399  15.913  -4.564  1.00 20.00     0.155 C 
HETATM    7 CL6  UNL     1     -33.602  15.977  -2.790  1.00 20.00    -0.127 Cl
ENDBRANCH   3   6
TORSDOF 1
ENDMDL
MODEL 4
REMARK VINA RESULT:      -3.3      1.609      1.811
REMARK  1 active torsions:
REMARK  status: ('A' for Active; 'I' for Inactive)
REMARK    1  A    between atoms: C3_3  and  C4_4 
ROOT
HETATM    1  C1  UNL     1     -36.587  14.595  -3.787  1.00 20.00     0.086 C 
HETATM    2  C2  UNL     1     -34.310  13.636  -3.781  1.00 20.00     0.050 C 
HETATM    3  C4  UNL     1     -35.149  14.916  -3.786  1.00 20.00     0.134 C 
HETATM    4  N5  UNL     1     -37.719  14.340  -3.792  1.00 20.00    -0.195 NA
HETATM    5 CL7  UNL     1     -34.835  15.790  -2.239  1.00 20.00    -0.102 Cl
ENDROOT
BRANCH   3   6
HETATM    6  C3  UNL     1     -34.783  15.865  -4.937  1.00 20.00     0.155 C 
HETATM    7 CL6  UNL     1     -34.368  15.009  -6.449  1.00 20.00    -0.127 Cl
ENDBRANCH   3   6
TORSDOF 1
ENDMDL
MODEL 5
REMARK VINA RESULT:      -3.3      2.002      2.759
REMARK  1 active torsions:
REMARK  status: ('A' for Active; 'I' for Inactive)
REMARK    1  A    between atoms: C3_3  and  C4_4 
ROOT
HETATM    1  C1  UNL     1     -35.991  14.497  -4.048  1.00 20.00     0.086 C 
HETATM    2  C2  UNL     1     -34.405  15.129  -5.834  1.00 20.00     0.050 C 
HETATM    3  C4  UNL     1     -34.617  14.951  -4.329  1.00 20.00     0.134 C 
HETATM    4  N5  UNL     1     -37.074  14.143  -3.828  1.00 20.00    -0.195 NA
HETATM    5 CL7  UNL     1     -33.530  13.624  -3.769  1.00 20.00    -0.102 Cl
ENDROOT
BRANCH   3   6
HETATM    6  C3  UNL     1     -34.264  16.210  -3.523  1.00 20.00     0.155 C 
HETATM    7 CL6  UNL     1     -34.618  16.051  -1.779  1.00 20.00    -0.127 Cl
ENDBRANCH   3   6
TORSDOF 1
ENDMDL
MODEL 6
REMARK VINA RESULT:      -3.2      2.277      2.571
REMARK  1 active torsions:
REMARK  status: ('A' for Active; 'I' for Inactive)
REMARK    1  A    between atoms: C3_3  and  C4_4 
ROOT
HETATM    1  C1  UNL     1     -36.434  14.766  -3.615  1.00 20.00     0.086 C 
HETATM    2  C2  UNL     1     -34.934  15.991  -2.080  1.00 20.00     0.050 C 
HETATM    3  C4  UNL     1     -35.064  15.276  -3.427  1.00 20.00     0.134 C 
HETATM    4  N5  UNL     1     -37.512  14.361  -3.759  1.00 20.00    -0.195 NA
HETATM    5 CL7  UNL     1     -34.806  16.497  -4.729  1.00 20.00    -0.102 Cl
ENDROOT
BRANCH   3   6
HETATM    6  C3  UNL     1     -34.019  14.167  -3.617  1.00 20.00     0.155 C 
HETATM    7 CL6  UNL     1     -34.438  13.022  -4.922  1.00 20.00    -0.127 Cl
ENDBRANCH   3   6
TORSDOF 1
ENDMDL
MODEL 7
REMARK VINA RESULT:      -3.2     12.268     13.011
REMARK  1 active torsions:
REMARK  status: ('A' for Active; 'I' for Inactive)
REMARK    1  A    between atoms: C3_3  and  C4_4 
ROOT
HETATM    1  C1  UNL     1     -34.158   6.186   5.639  1.00 20.00     0.086 C 
HETATM    2  C2  UNL     1     -35.797   5.815   3.827  1.00 20.00     0.050 C 
HETATM    3  C4  UNL     1     -34.480   5.360   4.462  1.00 20.00     0.134 C 
HETATM    4  N5  UNL     1     -33.903   6.840   6.563  1.00 20.00    -0.195 NA
HETATM    5 CL7  UNL     1     -34.716   3.682   5.082  1.00 20.00    -0.102 Cl
ENDROOT
BRANCH   3   6
HETATM    6  C3  UNL     1     -33.316   5.326   3.461  1.00 20.00     0.155 C 
HETATM    7 CL6  UNL     1     -32.359   6.834   3.445  1.00 20.00    -0.127 Cl
ENDBRANCH   3   6
TORSDOF 1
ENDMDL
MODEL 8
REMARK VINA RESULT:      -3.2      1.708      2.477
REMARK  1 active torsions:
REMARK  status: ('A' for Active; 'I' for Inactive)
REMARK    1  A    between atoms: C3_3  and  C4_4 
ROOT
HETATM    1  C1  UNL     1     -34.601  13.850  -4.973  1.00 20.00     0.086 C 
HETATM    2  C2  UNL     1     -34.227  15.496  -6.779  1.00 20.00     0.050 C 
HETATM    3  C4  UNL     1     -34.467  15.285  -5.282  1.00 20.00     0.134 C 
HETATM    4  N5  UNL     1     -34.710  12.720  -4.733  1.00 20.00    -0.195 NA
HETATM    5 CL7  UNL     1     -32.997  15.848  -4.400  1.00 20.00    -0.102 Cl
ENDROOT
BRANCH   3   6
HETATM    6  C3  UNL     1     -35.663  16.089  -4.750  1.00 20.00     0.155 C 
HETATM    7 CL6  UNL     1     -36.088  15.685  -3.063  1.00 20.00    -0.127 Cl
ENDBRANCH   3   6
TORSDOF 1
ENDMDL
MODEL 9
REMARK VINA RESULT:      -3.2      2.107      3.249
REMARK  1 active torsions:
REMARK  status: ('A' for Active; 'I' for Inactive)
REMARK    1  A    between atoms: C3_3  and  C4_4 
ROOT
HETATM    1  C1  UNL     1     -33.606  15.934  -4.748  1.00 20.00     0.086 C 
HETATM    2  C2  UNL     1     -33.330  13.699  -3.733  1.00 20.00     0.050 C 
HETATM    3  C4  UNL     1     -34.320  14.742  -4.257  1.00 20.00     0.134 C 
HETATM    4  N5  UNL     1     -33.043  16.875  -5.131  1.00 20.00    -0.195 NA
HETATM    5 CL7  UNL     1     -35.158  14.038  -5.692  1.00 20.00    -0.102 Cl
ENDROOT
BRANCH   3   6
HETATM    6  C3  UNL     1     -35.396  15.114  -3.228  1.00 20.00     0.155 C 
HETATM    7 CL6  UNL     1     -34.748  16.008  -1.824  1.00 20.00    -0.127 Cl
ENDBRANCH   3   6
TORSDOF 1
ENDMDL
