MODEL 1
REMARK VINA RESULT:      -3.6      0.000      0.000
REMARK  2 active torsions:
REMARK  status: ('A' for Active; 'I' for Inactive)
REMARK    1  A    between atoms: C3_3  and  C4_4 
REMARK    2  A    between atoms: C4_4  and  S8_8 
ROOT
HETATM    1  C1  UNL     1     -37.340  14.913  -3.677  1.00 20.00     0.109 C 
HETATM    2  C3  UNL     1     -36.089  15.630  -3.591  1.00 20.00     0.116 C 
HETATM    3  N5  UNL     1     -38.340  14.327  -3.745  1.00 20.00    -0.191 NA
HETATM    4  S7  UNL     1     -36.181  17.289  -3.753  1.00 20.00    -0.071 SA
ENDROOT
BRANCH   2   5
HETATM    5  C4  UNL     1     -34.792  14.884  -3.370  1.00 20.00     0.206 C 
HETATM    6  C2  UNL     1     -34.759  13.626  -4.132  1.00 20.00     0.080 C 
HETATM    7  N6  UNL     1     -34.734  12.631  -4.729  1.00 20.00    -0.196 NA
BRANCH   5   8
HETATM    8  S8  UNL     1     -33.404  15.974  -3.830  1.00 20.00    -0.157 SA
HETATM    9  H10 UNL     1     -34.129  16.798  -4.597  1.00 20.00     0.103 HD
ENDBRANCH   5   8
ENDBRANCH   2   5
TORSDOF 2
ENDMDL
MODEL 2
REMARK VINA RESULT:      -3.6      2.329      2.543
REMARK  2 active torsions:
REMARK  status: ('A' for Active; 'I' for Inactive)
REMARK    1  A    between atoms: C3_3  and  C4_4 
REMARK    2  A    between atoms: C4_4  and  S8_8 
ROOT
HETATM    1  C1  UNL     1     -34.778  16.396  -1.404  1.00 20.00     0.109 C 
HETATM    2  C3  UNL     1     -35.035  15.810  -2.699  1.00 20.00     0.116 C 
HETATM    3  N5  UNL     1     -34.559  16.861  -0.363  1.00 20.00    -0.191 NA
HETATM    4  S7  UNL     1     -36.567  16.047  -3.320  1.00 20.00    -0.071 SA
ENDROOT
BRANCH   2   5
HETATM    5  C4  UNL     1     -33.956  15.032  -3.417  1.00 20.00     0.206 C 
HETATM    6  C2  UNL     1     -34.479  13.774  -3.972  1.00 20.00     0.080 C 
HETATM    7  N6  UNL     1     -34.891  12.779  -4.405  1.00 20.00    -0.196 NA
BRANCH   5   8
HETATM    8  S8  UNL     1     -33.243  16.086  -4.724  1.00 20.00    -0.157 SA
HETATM    9  H10 UNL     1     -32.393  15.163  -5.191  1.00 20.00     0.103 HD
ENDBRANCH   5   8
ENDBRANCH   2   5
TORSDOF 2
ENDMDL
MODEL 3
REMARK VINA RESULT:      -3.5      1.364      3.042
REMARK  2 active torsions:
REMARK  status: ('A' for Active; 'I' for Inactive)
REMARK    1  A    between atoms: C3_3  and  C4_4 
REMARK    2  A    between atoms: C4_4  and  S8_8 
ROOT
HETATM    1  C1  UNL     1     -34.849  13.761  -4.909  1.00 20.00     0.109 C 
HETATM    2  C3  UNL     1     -35.126  15.176  -5.006  1.00 20.00     0.116 C 
HETATM    3  N5  UNL     1     -34.634  12.624  -4.821  1.00 20.00    -0.191 NA
HETATM    4  S7  UNL     1     -34.380  15.985  -6.262  1.00 20.00    -0.071 SA
ENDROOT
BRANCH   2   5
HETATM    5  C4  UNL     1     -36.039  15.849  -4.007  1.00 20.00     0.206 C 
HETATM    6  C2  UNL     1     -37.257  15.057  -3.773  1.00 20.00     0.080 C 
HETATM    7  N6  UNL     1     -38.220  14.435  -3.593  1.00 20.00    -0.196 NA
BRANCH   5   8
HETATM    8  S8  UNL     1     -35.116  16.115  -2.456  1.00 20.00    -0.157 SA
HETATM    9  H10 UNL     1     -33.944  15.663  -2.919  1.00 20.00     0.103 HD
ENDBRANCH   5   8
ENDBRANCH   2   5
TORSDOF 2
ENDMDL
MODEL 4
REMARK VINA RESULT:      -3.5      2.234      2.713
REMARK  2 active torsions:
REMARK  status: ('A' for Active; 'I' for Inactive)
REMARK    1  A    between atoms: C3_3  and  C4_4 
REMARK    2  A    between atoms: C4_4  and  S8_8 
ROOT
HETATM    1  C1  UNL     1     -36.962  14.515  -3.892  1.00 20.00     0.109 C 
HETATM    2  C3  UNL     1     -35.544  14.725  -4.066  1.00 20.00     0.116 C 
HETATM    3  N5  UNL     1     -38.103  14.357  -3.749  1.00 20.00    -0.191 NA
HETATM    4  S7  UNL     1     -34.676  13.426  -4.658  1.00 20.00    -0.071 SA
ENDROOT
BRANCH   2   5
HETATM    5  C4  UNL     1     -34.917  16.055  -3.716  1.00 20.00     0.206 C 
HETATM    6  C2  UNL     1     -34.769  16.214  -2.261  1.00 20.00     0.080 C 
HETATM    7  N6  UNL     1     -34.656  16.340  -1.113  1.00 20.00    -0.196 NA
BRANCH   5   8
HETATM    8  S8  UNL     1     -33.308  16.186  -4.564  1.00 20.00    -0.157 SA
HETATM    9  H10 UNL     1     -32.713  15.203  -3.875  1.00 20.00     0.103 HD
ENDBRANCH   5   8
ENDBRANCH   2   5
TORSDOF 2
ENDMDL
MODEL 5
REMARK VINA RESULT:      -3.4      2.230      2.990
REMARK  2 active torsions:
REMARK  status: ('A' for Active; 'I' for Inactive)
REMARK    1  A    between atoms: C3_3  and  C4_4 
REMARK    2  A    between atoms: C4_4  and  S8_8 
ROOT
HETATM    1  C1  UNL     1     -35.307  13.749  -4.139  1.00 20.00     0.109 C 
HETATM    2  C3  UNL     1     -35.912  15.017  -3.801  1.00 20.00     0.116 C 
HETATM    3  N5  UNL     1     -34.810  12.736  -4.408  1.00 20.00    -0.191 NA
HETATM    4  S7  UNL     1     -37.582  15.059  -3.809  1.00 20.00    -0.071 SA
ENDROOT
BRANCH   2   5
HETATM    5  C4  UNL     1     -35.050  16.214  -3.471  1.00 20.00     0.206 C 
HETATM    6  C2  UNL     1     -34.813  16.323  -2.023  1.00 20.00     0.080 C 
HETATM    7  N6  UNL     1     -34.630  16.412  -0.881  1.00 20.00    -0.196 NA
BRANCH   5   8
HETATM    8  S8  UNL     1     -33.481  16.078  -4.390  1.00 20.00    -0.157 SA
HETATM    9  H10 UNL     1     -33.593  17.255  -5.020  1.00 20.00     0.103 HD
ENDBRANCH   5   8
ENDBRANCH   2   5
TORSDOF 2
ENDMDL
MODEL 6
REMARK VINA RESULT:      -3.4      0.573      3.084
REMARK  2 active torsions:
REMARK  status: ('A' for Active; 'I' for Inactive)
REMARK    1  A    between atoms: C3_3  and  C4_4 
REMARK    2  A    between atoms: C4_4  and  S8_8 
ROOT
HETATM    1  C1  UNL     1     -34.942  13.803  -4.172  1.00 20.00     0.109 C 
HETATM    2  C3  UNL     1     -35.080  15.180  -3.759  1.00 20.00     0.116 C 
HETATM    3  N5  UNL     1     -34.843  12.696  -4.507  1.00 20.00    -0.191 NA
HETATM    4  S7  UNL     1     -33.743  15.865  -3.029  1.00 20.00    -0.071 SA
ENDROOT
BRANCH   2   5
HETATM    5  C4  UNL     1     -36.376  15.923  -3.988  1.00 20.00     0.206 C 
HETATM    6  C2  UNL     1     -37.538  15.030  -3.860  1.00 20.00     0.080 C 
HETATM    7  N6  UNL     1     -38.454  14.324  -3.763  1.00 20.00    -0.196 NA
BRANCH   5   8
HETATM    8  S8  UNL     1     -36.474  17.310  -2.807  1.00 20.00    -0.157 SA
HETATM    9  H10 UNL     1     -35.350  17.912  -3.216  1.00 20.00     0.103 HD
ENDBRANCH   5   8
ENDBRANCH   2   5
TORSDOF 2
ENDMDL
MODEL 7
REMARK VINA RESULT:      -3.4      2.339      3.032
REMARK  2 active torsions:
REMARK  status: ('A' for Active; 'I' for Inactive)
REMARK    1  A    between atoms: C3_3  and  C4_4 
REMARK    2  A    between atoms: C4_4  and  S8_8 
ROOT
HETATM    1  C1  UNL     1     -35.030  13.643  -4.164  1.00 20.00     0.109 C 
HETATM    2  C3  UNL     1     -35.242  14.928  -3.538  1.00 20.00     0.116 C 
HETATM    3  N5  UNL     1     -34.849  12.612  -4.666  1.00 20.00    -0.191 NA
HETATM    4  S7  UNL     1     -36.824  15.457  -3.464  1.00 20.00    -0.071 SA
ENDROOT
BRANCH   2   5
HETATM    5  C4  UNL     1     -34.072  15.719  -2.997  1.00 20.00     0.206 C 
HETATM    6  C2  UNL     1     -33.584  16.697  -3.981  1.00 20.00     0.080 C 
HETATM    7  N6  UNL     1     -33.195  17.465  -4.760  1.00 20.00    -0.196 NA
BRANCH   5   8
HETATM    8  S8  UNL     1     -34.583  16.536  -1.449  1.00 20.00    -0.157 SA
HETATM    9  H10 UNL     1     -33.372  16.510  -0.878  1.00 20.00     0.103 HD
ENDBRANCH   5   8
ENDBRANCH   2   5
TORSDOF 2
ENDMDL
MODEL 8
REMARK VINA RESULT:      -3.4      2.935      3.663
REMARK  2 active torsions:
REMARK  status: ('A' for Active; 'I' for Inactive)
REMARK    1  A    between atoms: C3_3  and  C4_4 
REMARK    2  A    between atoms: C4_4  and  S8_8 
ROOT
HETATM    1  C1  UNL     1     -34.601  13.730  -4.812  1.00 20.00     0.109 C 
HETATM    2  C3  UNL     1     -34.163  14.972  -5.408  1.00 20.00     0.116 C 
HETATM    3  N5  UNL     1     -34.947  12.737  -4.323  1.00 20.00    -0.191 NA
HETATM    4  S7  UNL     1     -34.574  15.202  -7.010  1.00 20.00    -0.071 SA
ENDROOT
BRANCH   2   5
HETATM    5  C4  UNL     1     -33.377  15.976  -4.597  1.00 20.00     0.206 C 
HETATM    6  C2  UNL     1     -33.467  17.325  -5.178  1.00 20.00     0.080 C 
HETATM    7  N6  UNL     1     -33.533  18.388  -5.639  1.00 20.00    -0.196 NA
BRANCH   5   8
HETATM    8  S8  UNL     1     -33.992  15.953  -2.880  1.00 20.00    -0.157 SA
HETATM    9  H10 UNL     1     -34.216  17.271  -2.800  1.00 20.00     0.103 HD
ENDBRANCH   5   8
ENDBRANCH   2   5
TORSDOF 2
ENDMDL
MODEL 9
REMARK VINA RESULT:      -3.4      1.944      1.987
REMARK  2 active torsions:
REMARK  status: ('A' for Active; 'I' for Inactive)
REMARK    1  A    between atoms: C3_3  and  C4_4 
REMARK    2  A    between atoms: C4_4  and  S8_8 
ROOT
HETATM    1  C1  UNL     1     -37.289  14.940  -4.286  1.00 20.00     0.109 C 
HETATM    2  C3  UNL     1     -36.267  15.679  -4.991  1.00 20.00     0.116 C 
HETATM    3  N5  UNL     1     -38.104  14.336  -3.723  1.00 20.00    -0.191 NA
HETATM    4  S7  UNL     1     -36.350  17.343  -4.872  1.00 20.00    -0.071 SA
ENDROOT
BRANCH   2   5
HETATM    5  C4  UNL     1     -35.205  14.952  -5.784  1.00 20.00     0.206 C 
HETATM    6  C2  UNL     1     -34.848  13.670  -5.157  1.00 20.00     0.080 C 
HETATM    7  N6  UNL     1     -34.564  12.661  -4.659  1.00 20.00    -0.196 NA
BRANCH   5   8
HETATM    8  S8  UNL     1     -35.809  14.710  -7.488  1.00 20.00    -0.157 SA
HETATM    9  H10 UNL     1     -34.676  14.171  -7.956  1.00 20.00     0.103 HD
ENDBRANCH   5   8
ENDBRANCH   2   5
TORSDOF 2
ENDMDL
