MODEL 1
REMARK VINA RESULT:      -3.1      0.000      0.000
REMARK  0 active torsions:
REMARK  status: ('A' for Active; 'I' for Inactive)
ROOT
HETATM    1  C1  UNL     1     -34.707   5.207   3.598  1.00 20.00     0.061 A 
HETATM    2  C2  UNL     1     -35.241   4.456   4.565  1.00 20.00     0.061 A 
HETATM    3  C3  UNL     1     -33.910   6.303   5.811  1.00 20.00     0.254 A 
HETATM    4  O4  UNL     1     -33.392   7.020   6.655  1.00 20.00    -0.272 OA
HETATM    5  S5  UNL     1     -33.736   6.558   4.078  1.00 20.00    -0.052 SA
HETATM    6  S6  UNL     1     -34.910   4.908   6.203  1.00 20.00    -0.052 SA
ENDROOT
TORSDOF 0
ENDMDL
MODEL 2
REMARK VINA RESULT:      -3.1      0.049      1.863
REMARK  0 active torsions:
REMARK  status: ('A' for Active; 'I' for Inactive)
ROOT
HETATM    1  C1  UNL     1     -35.246   4.462   4.629  1.00 20.00     0.061 A 
HETATM    2  C2  UNL     1     -34.723   5.205   3.649  1.00 20.00     0.061 A 
HETATM    3  C3  UNL     1     -33.899   6.316   5.846  1.00 20.00     0.254 A 
HETATM    4  O4  UNL     1     -33.371   7.039   6.677  1.00 20.00    -0.272 OA
HETATM    5  S5  UNL     1     -34.895   4.924   6.259  1.00 20.00    -0.052 SA
HETATM    6  S6  UNL     1     -33.744   6.558   4.109  1.00 20.00    -0.052 SA
ENDROOT
TORSDOF 0
ENDMDL
MODEL 3
REMARK VINA RESULT:      -3.1     12.934     13.747
REMARK  0 active torsions:
REMARK  status: ('A' for Active; 'I' for Inactive)
ROOT
HETATM    1  C1  UNL     1     -33.997  16.017  -5.984  1.00 20.00     0.061 A 
HETATM    2  C2  UNL     1     -33.345  16.097  -4.820  1.00 20.00     0.061 A 
HETATM    3  C3  UNL     1     -34.508  13.777  -4.778  1.00 20.00     0.254 A 
HETATM    4  O4  UNL     1     -34.917  12.666  -4.473  1.00 20.00    -0.272 OA
HETATM    5  S5  UNL     1     -34.899  14.574  -6.298  1.00 20.00    -0.052 SA
HETATM    6  S6  UNL     1     -33.468  14.748  -3.741  1.00 20.00    -0.052 SA
ENDROOT
TORSDOF 0
ENDMDL
MODEL 4
REMARK VINA RESULT:      -3.1     12.886     13.751
REMARK  0 active torsions:
REMARK  status: ('A' for Active; 'I' for Inactive)
ROOT
HETATM    1  C1  UNL     1     -33.318  16.042  -4.730  1.00 20.00     0.061 A 
HETATM    2  C2  UNL     1     -33.964  16.011  -5.899  1.00 20.00     0.061 A 
HETATM    3  C3  UNL     1     -34.511  13.738  -4.771  1.00 20.00     0.254 A 
HETATM    4  O4  UNL     1     -34.935  12.622  -4.507  1.00 20.00    -0.272 OA
HETATM    5  S5  UNL     1     -33.463  14.660  -3.697  1.00 20.00    -0.052 SA
HETATM    6  S6  UNL     1     -34.885  14.591  -6.265  1.00 20.00    -0.052 SA
ENDROOT
TORSDOF 0
ENDMDL
MODEL 5
REMARK VINA RESULT:      -2.9     12.438     12.801
REMARK  0 active torsions:
REMARK  status: ('A' for Active; 'I' for Inactive)
ROOT
HETATM    1  C1  UNL     1     -34.139  15.729  -3.016  1.00 20.00     0.061 A 
HETATM    2  C2  UNL     1     -35.469  15.791  -3.137  1.00 20.00     0.061 A 
HETATM    3  C3  UNL     1     -34.792  13.578  -4.312  1.00 20.00     0.254 A 
HETATM    4  O4  UNL     1     -34.786  12.514  -4.914  1.00 20.00    -0.272 OA
HETATM    5  S5  UNL     1     -33.336  14.356  -3.700  1.00 20.00    -0.052 SA
HETATM    6  S6  UNL     1     -36.257  14.491  -3.966  1.00 20.00    -0.052 SA
ENDROOT
TORSDOF 0
ENDMDL
MODEL 6
REMARK VINA RESULT:      -2.9     12.367     12.909
REMARK  0 active torsions:
REMARK  status: ('A' for Active; 'I' for Inactive)
ROOT
HETATM    1  C1  UNL     1     -35.359  16.128  -3.229  1.00 20.00     0.061 A 
HETATM    2  C2  UNL     1     -34.033  15.975  -3.176  1.00 20.00     0.061 A 
HETATM    3  C3  UNL     1     -34.931  13.714  -4.080  1.00 20.00     0.254 A 
HETATM    4  O4  UNL     1     -35.044  12.575  -4.507  1.00 20.00    -0.272 OA
HETATM    5  S5  UNL     1     -36.297  14.788  -3.798  1.00 20.00    -0.052 SA
HETATM    6  S6  UNL     1     -33.383  14.452  -3.683  1.00 20.00    -0.052 SA
ENDROOT
TORSDOF 0
ENDMDL
MODEL 7
REMARK VINA RESULT:      -2.8     12.630     12.856
REMARK  0 active torsions:
REMARK  status: ('A' for Active; 'I' for Inactive)
ROOT
HETATM    1  C1  UNL     1     -33.635  14.336  -3.949  1.00 20.00     0.061 A 
HETATM    2  C2  UNL     1     -33.909  15.445  -3.255  1.00 20.00     0.061 A 
HETATM    3  C3  UNL     1     -36.225  14.406  -3.798  1.00 20.00     0.254 A 
HETATM    4  O4  UNL     1     -37.420  14.171  -3.894  1.00 20.00    -0.272 OA
HETATM    5  S5  UNL     1     -34.972  13.376  -4.484  1.00 20.00    -0.052 SA
HETATM    6  S6  UNL     1     -35.575  15.811  -2.960  1.00 20.00    -0.052 SA
ENDROOT
TORSDOF 0
ENDMDL
MODEL 8
REMARK VINA RESULT:      -2.7      1.935      2.259
REMARK  0 active torsions:
REMARK  status: ('A' for Active; 'I' for Inactive)
ROOT
HETATM    1  C1  UNL     1     -34.813   5.282   6.169  1.00 20.00     0.061 A 
HETATM    2  C2  UNL     1     -35.275   4.682   5.068  1.00 20.00     0.061 A 
HETATM    3  C3  UNL     1     -33.527   6.398   4.212  1.00 20.00     0.254 A 
HETATM    4  O4  UNL     1     -32.787   7.089   3.526  1.00 20.00    -0.272 OA
HETATM    5  S5  UNL     1     -33.608   6.508   5.967  1.00 20.00    -0.052 SA
HETATM    6  S6  UNL     1     -34.622   5.191   3.547  1.00 20.00    -0.052 SA
ENDROOT
TORSDOF 0
ENDMDL
MODEL 9
REMARK VINA RESULT:      -2.7     10.260     10.713
REMARK  0 active torsions:
REMARK  status: ('A' for Active; 'I' for Inactive)
ROOT
HETATM    1  C1  UNL     1     -40.822   5.931  -0.721  1.00 20.00     0.061 A 
HETATM    2  C2  UNL     1     -40.882   4.613  -0.937  1.00 20.00     0.061 A 
HETATM    3  C3  UNL     1     -42.472   5.654  -2.705  1.00 20.00     0.254 A 
HETATM    4  O4  UNL     1     -43.262   5.840  -3.618  1.00 20.00    -0.272 OA
HETATM    5  S5  UNL     1     -41.778   6.953  -1.740  1.00 20.00    -0.052 SA
HETATM    6  S6  UNL     1     -41.910   4.059  -2.215  1.00 20.00    -0.052 SA
ENDROOT
TORSDOF 0
ENDMDL
