MODEL 1
REMARK VINA RESULT:      -3.7      0.000      0.000
REMARK  2 active torsions:
REMARK  status: ('A' for Active; 'I' for Inactive)
REMARK    1  A    between atoms: C3_3  and  S9_9 
REMARK    2  A    between atoms: C6_6  and  S9_9 
ROOT
HETATM    1  C1  UNL     1     -32.244   9.576   1.118  1.00 20.00     0.013 C 
HETATM    2  C2  UNL     1     -32.246   8.504   1.660  1.00 20.00    -0.107 C 
HETATM    3  C6  UNL     1     -32.249   7.193   2.314  1.00 20.00     0.174 C 
ENDROOT
BRANCH   3   4
HETATM    4  S9  UNL     1     -32.217   7.333   4.115  1.00 20.00    -0.092 SA
BRANCH   4   5
HETATM    5  C3  UNL     1     -33.571   6.323   4.506  1.00 20.00     0.125 C 
HETATM    6  N7  UNL     1     -34.226   5.657   3.615  1.00 20.00    -0.275 NA
HETATM    7  C4  UNL     1     -35.348   4.954   4.273  1.00 20.00     0.161 C 
HETATM    8  C5  UNL     1     -35.027   4.720   5.741  1.00 20.00     0.103 C 
HETATM    9  S8  UNL     1     -34.051   6.172   6.171  1.00 20.00    -0.102 SA
ENDBRANCH   4   5
ENDBRANCH   3   4
TORSDOF 2
ENDMDL
MODEL 2
REMARK VINA RESULT:      -3.6     11.469     12.853
REMARK  2 active torsions:
REMARK  status: ('A' for Active; 'I' for Inactive)
REMARK    1  A    between atoms: C3_3  and  S9_9 
REMARK    2  A    between atoms: C6_6  and  S9_9 
ROOT
HETATM    1  C1  UNL     1     -34.788  16.945  -0.398  1.00 20.00     0.013 C 
HETATM    2  C2  UNL     1     -34.281  16.608  -1.433  1.00 20.00    -0.107 C 
HETATM    3  C6  UNL     1     -33.658  16.203  -2.696  1.00 20.00     0.174 C 
ENDROOT
BRANCH   3   4
HETATM    4  S9  UNL     1     -34.408  14.706  -3.372  1.00 20.00    -0.092 SA
BRANCH   4   5
HETATM    5  C3  UNL     1     -34.361  15.099  -5.060  1.00 20.00     0.125 C 
HETATM    6  N7  UNL     1     -34.768  14.288  -5.979  1.00 20.00    -0.275 NA
HETATM    7  C4  UNL     1     -34.532  14.906  -7.301  1.00 20.00     0.161 C 
HETATM    8  C5  UNL     1     -34.500  16.421  -7.170  1.00 20.00     0.103 C 
HETATM    9  S8  UNL     1     -33.770  16.663  -5.540  1.00 20.00    -0.102 SA
ENDBRANCH   4   5
ENDBRANCH   3   4
TORSDOF 2
ENDMDL
MODEL 3
REMARK VINA RESULT:      -3.6     11.219     12.036
REMARK  2 active torsions:
REMARK  status: ('A' for Active; 'I' for Inactive)
REMARK    1  A    between atoms: C3_3  and  S9_9 
REMARK    2  A    between atoms: C6_6  and  S9_9 
ROOT
HETATM    1  C1  UNL     1     -34.529  16.286  -1.602  1.00 20.00     0.013 C 
HETATM    2  C2  UNL     1     -34.137  15.729  -2.591  1.00 20.00    -0.107 C 
HETATM    3  C6  UNL     1     -33.651  15.054  -3.797  1.00 20.00     0.174 C 
ENDROOT
BRANCH   3   4
HETATM    4  S9  UNL     1     -34.671  13.628  -4.233  1.00 20.00    -0.092 SA
BRANCH   4   5
HETATM    5  C3  UNL     1     -36.200  14.420  -4.434  1.00 20.00     0.125 C 
HETATM    6  N7  UNL     1     -37.221  14.168  -3.684  1.00 20.00    -0.275 NA
HETATM    7  C4  UNL     1     -38.372  14.964  -4.162  1.00 20.00     0.161 C 
HETATM    8  C5  UNL     1     -37.881  16.203  -4.894  1.00 20.00     0.103 C 
HETATM    9  S8  UNL     1     -36.363  15.626  -5.676  1.00 20.00    -0.102 SA
ENDBRANCH   4   5
ENDBRANCH   3   4
TORSDOF 2
ENDMDL
MODEL 4
REMARK VINA RESULT:      -3.6     11.687     12.914
REMARK  2 active torsions:
REMARK  status: ('A' for Active; 'I' for Inactive)
REMARK    1  A    between atoms: C3_3  and  S9_9 
REMARK    2  A    between atoms: C6_6  and  S9_9 
ROOT
HETATM    1  C1  UNL     1     -34.556  17.035  -0.432  1.00 20.00     0.013 C 
HETATM    2  C2  UNL     1     -34.687  16.356  -1.414  1.00 20.00    -0.107 C 
HETATM    3  C6  UNL     1     -34.855  15.526  -2.610  1.00 20.00     0.174 C 
ENDROOT
BRANCH   3   4
HETATM    4  S9  UNL     1     -33.328  15.398  -3.566  1.00 20.00    -0.092 SA
BRANCH   4   5
HETATM    5  C3  UNL     1     -33.981  15.516  -5.168  1.00 20.00     0.125 C 
HETATM    6  N7  UNL     1     -33.779  16.537  -5.932  1.00 20.00    -0.275 NA
HETATM    7  C4  UNL     1     -34.524  16.343  -7.195  1.00 20.00     0.161 C 
HETATM    8  C5  UNL     1     -34.737  14.859  -7.451  1.00 20.00     0.103 C 
HETATM    9  S8  UNL     1     -34.924  14.192  -5.788  1.00 20.00    -0.102 SA
ENDBRANCH   4   5
ENDBRANCH   3   4
TORSDOF 2
ENDMDL
MODEL 5
REMARK VINA RESULT:      -3.6     11.296     11.980
REMARK  2 active torsions:
REMARK  status: ('A' for Active; 'I' for Inactive)
REMARK    1  A    between atoms: C3_3  and  S9_9 
REMARK    2  A    between atoms: C6_6  and  S9_9 
ROOT
HETATM    1  C1  UNL     1     -34.350  17.896   0.509  1.00 20.00     0.013 C 
HETATM    2  C2  UNL     1     -34.515  17.141  -0.410  1.00 20.00    -0.107 C 
HETATM    3  C6  UNL     1     -34.722  16.215  -1.527  1.00 20.00     0.174 C 
ENDROOT
BRANCH   3   4
HETATM    4  S9  UNL     1     -33.885  16.768  -3.029  1.00 20.00    -0.092 SA
BRANCH   4   5
HETATM    5  C3  UNL     1     -34.201  15.404  -4.052  1.00 20.00     0.125 C 
HETATM    6  N7  UNL     1     -34.424  14.220  -3.589  1.00 20.00    -0.275 NA
HETATM    7  C4  UNL     1     -34.593  13.286  -4.724  1.00 20.00     0.161 C 
HETATM    8  C5  UNL     1     -35.066  14.044  -5.954  1.00 20.00     0.103 C 
HETATM    9  S8  UNL     1     -34.253  15.642  -5.774  1.00 20.00    -0.102 SA
ENDBRANCH   4   5
ENDBRANCH   3   4
TORSDOF 2
ENDMDL
MODEL 6
REMARK VINA RESULT:      -3.5     11.368     11.910
REMARK  2 active torsions:
REMARK  status: ('A' for Active; 'I' for Inactive)
REMARK    1  A    between atoms: C3_3  and  S9_9 
REMARK    2  A    between atoms: C6_6  and  S9_9 
ROOT
HETATM    1  C1  UNL     1     -34.945  13.215  -4.451  1.00 20.00     0.013 C 
HETATM    2  C2  UNL     1     -34.113  14.006  -4.099  1.00 20.00    -0.107 C 
HETATM    3  C6  UNL     1     -33.093  14.965  -3.668  1.00 20.00     0.174 C 
ENDROOT
BRANCH   3   4
HETATM    4  S9  UNL     1     -33.609  16.674  -3.942  1.00 20.00    -0.092 SA
BRANCH   4   5
HETATM    5  C3  UNL     1     -33.978  17.128  -2.310  1.00 20.00     0.125 C 
HETATM    6  N7  UNL     1     -34.525  16.319  -1.466  1.00 20.00    -0.275 NA
HETATM    7  C4  UNL     1     -34.756  17.038  -0.194  1.00 20.00     0.161 C 
HETATM    8  C5  UNL     1     -33.776  18.193  -0.065  1.00 20.00     0.103 C 
HETATM    9  S8  UNL     1     -33.566  18.730  -1.772  1.00 20.00    -0.102 SA
ENDBRANCH   4   5
ENDBRANCH   3   4
TORSDOF 2
ENDMDL
MODEL 7
REMARK VINA RESULT:      -3.5     11.137     11.568
REMARK  2 active torsions:
REMARK  status: ('A' for Active; 'I' for Inactive)
REMARK    1  A    between atoms: C3_3  and  S9_9 
REMARK    2  A    between atoms: C6_6  and  S9_9 
ROOT
HETATM    1  C1  UNL     1     -33.742  18.409   0.707  1.00 20.00     0.013 C 
HETATM    2  C2  UNL     1     -34.145  17.578  -0.060  1.00 20.00    -0.107 C 
HETATM    3  C6  UNL     1     -34.641  16.560  -0.989  1.00 20.00     0.174 C 
ENDROOT
BRANCH   3   4
HETATM    4  S9  UNL     1     -33.942  16.753  -2.643  1.00 20.00    -0.092 SA
BRANCH   4   5
HETATM    5  C3  UNL     1     -34.592  15.334  -3.398  1.00 20.00     0.125 C 
HETATM    6  N7  UNL     1     -35.840  15.215  -3.704  1.00 20.00    -0.275 NA
HETATM    7  C4  UNL     1     -36.067  13.868  -4.271  1.00 20.00     0.161 C 
HETATM    8  C5  UNL     1     -34.777  13.333  -4.873  1.00 20.00     0.103 C 
HETATM    9  S8  UNL     1     -33.515  14.025  -3.789  1.00 20.00    -0.102 SA
ENDBRANCH   4   5
ENDBRANCH   3   4
TORSDOF 2
ENDMDL
MODEL 8
REMARK VINA RESULT:      -3.4     11.455     12.280
REMARK  2 active torsions:
REMARK  status: ('A' for Active; 'I' for Inactive)
REMARK    1  A    between atoms: C3_3  and  S9_9 
REMARK    2  A    between atoms: C6_6  and  S9_9 
ROOT
HETATM    1  C1  UNL     1     -34.787  15.213  -7.358  1.00 20.00     0.013 C 
HETATM    2  C2  UNL     1     -34.787  14.451  -6.430  1.00 20.00    -0.107 C 
HETATM    3  C6  UNL     1     -34.785  13.515  -5.302  1.00 20.00     0.174 C 
ENDROOT
BRANCH   3   4
HETATM    4  S9  UNL     1     -34.853  14.370  -3.712  1.00 20.00    -0.092 SA
BRANCH   4   5
HETATM    5  C3  UNL     1     -36.482  14.961  -3.773  1.00 20.00     0.125 C 
HETATM    6  N7  UNL     1     -37.510  14.180  -3.755  1.00 20.00    -0.275 NA
HETATM    7  C4  UNL     1     -38.735  14.999  -3.882  1.00 20.00     0.161 C 
HETATM    8  C5  UNL     1     -38.472  16.410  -3.379  1.00 20.00     0.103 C 
HETATM    9  S8  UNL     1     -36.749  16.679  -3.830  1.00 20.00    -0.102 SA
ENDBRANCH   4   5
ENDBRANCH   3   4
TORSDOF 2
ENDMDL
MODEL 9
REMARK VINA RESULT:      -3.3     11.287     12.379
REMARK  2 active torsions:
REMARK  status: ('A' for Active; 'I' for Inactive)
REMARK    1  A    between atoms: C3_3  and  S9_9 
REMARK    2  A    between atoms: C6_6  and  S9_9 
ROOT
HETATM    1  C1  UNL     1     -35.181  14.412  -7.119  1.00 20.00     0.013 C 
HETATM    2  C2  UNL     1     -35.127  13.995  -5.994  1.00 20.00    -0.107 C 
HETATM    3  C6  UNL     1     -35.067  13.483  -4.622  1.00 20.00     0.174 C 
ENDROOT
BRANCH   3   4
HETATM    4  S9  UNL     1     -33.522  13.927  -3.799  1.00 20.00    -0.092 SA
BRANCH   4   5
HETATM    5  C3  UNL     1     -33.813  15.615  -3.531  1.00 20.00     0.125 C 
HETATM    6  N7  UNL     1     -33.365  16.535  -4.318  1.00 20.00    -0.275 NA
HETATM    7  C4  UNL     1     -33.739  17.857  -3.769  1.00 20.00     0.161 C 
HETATM    8  C5  UNL     1     -34.976  17.726  -2.895  1.00 20.00     0.103 C 
HETATM    9  S8  UNL     1     -34.775  16.092  -2.163  1.00 20.00    -0.102 SA
ENDBRANCH   4   5
ENDBRANCH   3   4
TORSDOF 2
ENDMDL
