MODEL 1
REMARK VINA RESULT:      -4.5      0.000      0.000
REMARK  2 active torsions:
REMARK  status: ('A' for Active; 'I' for Inactive)
REMARK    1  A    between atoms: C4_4  and  C6_6 
REMARK    2  A    between atoms: C5_5  and  C6_6 
ROOT
HETATM    1  C1  UNL     1     -34.790   4.571   6.287  1.00 20.00     0.012 C 
HETATM    2  C2  UNL     1     -35.070   4.930   5.176  1.00 20.00    -0.117 C 
HETATM    3  C5  UNL     1     -35.419   5.371   3.819  1.00 20.00     0.095 C 
ENDROOT
BRANCH   3   4
HETATM    4  C6  UNL     1     -34.170   5.534   2.953  1.00 20.00     0.046 C 
BRANCH   4   5
HETATM    5  C4  UNL     1     -33.183   6.475   3.571  1.00 20.00     0.146 A 
HETATM    6  C3  UNL     1     -32.328   7.374   2.722  1.00 20.00     0.200 A 
HETATM    7  O7  UNL     1     -31.813   6.163   3.298  1.00 20.00    -0.381 OA
ENDBRANCH   4   5
ENDBRANCH   3   4
TORSDOF 2
ENDMDL
MODEL 2
REMARK VINA RESULT:      -4.3      0.960      1.044
REMARK  2 active torsions:
REMARK  status: ('A' for Active; 'I' for Inactive)
REMARK    1  A    between atoms: C4_4  and  C6_6 
REMARK    2  A    between atoms: C5_5  and  C6_6 
ROOT
HETATM    1  C1  UNL     1     -35.089   4.205   6.094  1.00 20.00     0.012 C 
HETATM    2  C2  UNL     1     -34.967   4.720   5.016  1.00 20.00    -0.117 C 
HETATM    3  C5  UNL     1     -34.820   5.345   3.695  1.00 20.00     0.095 C 
ENDROOT
BRANCH   3   4
HETATM    4  C6  UNL     1     -34.018   6.643   3.784  1.00 20.00     0.046 C 
BRANCH   4   5
HETATM    5  C4  UNL     1     -32.663   6.503   3.160  1.00 20.00     0.146 A 
HETATM    6  C3  UNL     1     -31.534   7.421   3.538  1.00 20.00     0.200 A 
HETATM    7  O7  UNL     1     -32.279   7.599   2.322  1.00 20.00    -0.381 OA
ENDBRANCH   4   5
ENDBRANCH   3   4
TORSDOF 2
ENDMDL
MODEL 3
REMARK VINA RESULT:      -4.2      1.753      4.232
REMARK  2 active torsions:
REMARK  status: ('A' for Active; 'I' for Inactive)
REMARK    1  A    between atoms: C4_4  and  C6_6 
REMARK    2  A    between atoms: C5_5  and  C6_6 
ROOT
HETATM    1  C1  UNL     1     -32.070   8.822   1.299  1.00 20.00     0.012 C 
HETATM    2  C2  UNL     1     -32.062   8.029   2.202  1.00 20.00    -0.117 C 
HETATM    3  C5  UNL     1     -32.048   7.064   3.308  1.00 20.00     0.095 C 
ENDROOT
BRANCH   3   4
HETATM    4  C6  UNL     1     -33.120   5.991   3.119  1.00 20.00     0.046 C 
BRANCH   4   5
HETATM    5  C4  UNL     1     -34.256   6.163   4.080  1.00 20.00     0.146 A 
HETATM    6  C3  UNL     1     -34.769   5.007   4.893  1.00 20.00     0.200 A 
HETATM    7  O7  UNL     1     -35.453   5.468   3.717  1.00 20.00    -0.381 OA
ENDBRANCH   4   5
ENDBRANCH   3   4
TORSDOF 2
ENDMDL
MODEL 4
REMARK VINA RESULT:      -4.2      1.677      3.652
REMARK  2 active torsions:
REMARK  status: ('A' for Active; 'I' for Inactive)
REMARK    1  A    between atoms: C4_4  and  C6_6 
REMARK    2  A    between atoms: C5_5  and  C6_6 
ROOT
HETATM    1  C1  UNL     1     -32.003   7.137   3.310  1.00 20.00     0.012 C 
HETATM    2  C2  UNL     1     -32.926   6.405   3.076  1.00 20.00    -0.117 C 
HETATM    3  C5  UNL     1     -34.051   5.508   2.785  1.00 20.00     0.095 C 
ENDROOT
BRANCH   3   4
HETATM    4  C6  UNL     1     -35.024   5.441   3.962  1.00 20.00     0.046 C 
BRANCH   4   5
HETATM    5  C4  UNL     1     -34.349   4.982   5.217  1.00 20.00     0.146 A 
HETATM    6  C3  UNL     1     -35.135   4.375   6.346  1.00 20.00     0.200 A 
HETATM    7  O7  UNL     1     -34.686   5.739   6.385  1.00 20.00    -0.381 OA
ENDBRANCH   4   5
ENDBRANCH   3   4
TORSDOF 2
ENDMDL
MODEL 5
REMARK VINA RESULT:      -3.9     11.457     11.881
REMARK  2 active torsions:
REMARK  status: ('A' for Active; 'I' for Inactive)
REMARK    1  A    between atoms: C4_4  and  C6_6 
REMARK    2  A    between atoms: C5_5  and  C6_6 
ROOT
HETATM    1  C1  UNL     1     -34.801  17.026  -0.242  1.00 20.00     0.012 C 
HETATM    2  C2  UNL     1     -34.425  16.580  -1.291  1.00 20.00    -0.117 C 
HETATM    3  C5  UNL     1     -33.961  16.038  -2.575  1.00 20.00     0.095 C 
ENDROOT
BRANCH   3   4
HETATM    4  C6  UNL     1     -34.920  14.974  -3.105  1.00 20.00     0.046 C 
BRANCH   4   5
HETATM    5  C4  UNL     1     -34.204  13.926  -3.900  1.00 20.00     0.146 A 
HETATM    6  C3  UNL     1     -34.649  13.565  -5.290  1.00 20.00     0.200 A 
HETATM    7  O7  UNL     1     -34.972  12.745  -4.155  1.00 20.00    -0.381 OA
ENDBRANCH   4   5
ENDBRANCH   3   4
TORSDOF 2
ENDMDL
MODEL 6
REMARK VINA RESULT:      -3.8      1.578      2.333
REMARK  2 active torsions:
REMARK  status: ('A' for Active; 'I' for Inactive)
REMARK    1  A    between atoms: C4_4  and  C6_6 
REMARK    2  A    between atoms: C5_5  and  C6_6 
ROOT
HETATM    1  C1  UNL     1     -33.714   6.998   6.707  1.00 20.00     0.012 C 
HETATM    2  C2  UNL     1     -34.339   5.998   6.481  1.00 20.00    -0.117 C 
HETATM    3  C5  UNL     1     -35.106   4.775   6.211  1.00 20.00     0.095 C 
ENDROOT
BRANCH   3   4
HETATM    4  C6  UNL     1     -34.891   4.293   4.777  1.00 20.00     0.046 C 
BRANCH   4   5
HETATM    5  C4  UNL     1     -34.865   5.431   3.805  1.00 20.00     0.146 A 
HETATM    6  C3  UNL     1     -34.371   5.241   2.397  1.00 20.00     0.200 A 
HETATM    7  O7  UNL     1     -33.552   5.846   3.411  1.00 20.00    -0.381 OA
ENDBRANCH   4   5
ENDBRANCH   3   4
TORSDOF 2
ENDMDL
MODEL 7
REMARK VINA RESULT:      -3.7      1.603      2.316
REMARK  2 active torsions:
REMARK  status: ('A' for Active; 'I' for Inactive)
REMARK    1  A    between atoms: C4_4  and  C6_6 
REMARK    2  A    between atoms: C5_5  and  C6_6 
ROOT
HETATM    1  C1  UNL     1     -35.169   5.039   4.355  1.00 20.00     0.012 C 
HETATM    2  C2  UNL     1     -34.206   5.750   4.256  1.00 20.00    -0.117 C 
HETATM    3  C5  UNL     1     -33.028   6.618   4.140  1.00 20.00     0.095 C 
ENDROOT
BRANCH   3   4
HETATM    4  C6  UNL     1     -32.611   6.795   2.680  1.00 20.00     0.046 C 
BRANCH   4   5
HETATM    5  C4  UNL     1     -31.896   8.092   2.458  1.00 20.00     0.146 A 
HETATM    6  C3  UNL     1     -32.539   9.212   1.688  1.00 20.00     0.200 A 
HETATM    7  O7  UNL     1     -31.551   8.354   1.094  1.00 20.00    -0.381 OA
ENDBRANCH   4   5
ENDBRANCH   3   4
TORSDOF 2
ENDMDL
MODEL 8
REMARK VINA RESULT:      -3.4     11.534     12.028
REMARK  2 active torsions:
REMARK  status: ('A' for Active; 'I' for Inactive)
REMARK    1  A    between atoms: C4_4  and  C6_6 
REMARK    2  A    between atoms: C5_5  and  C6_6 
ROOT
HETATM    1  C1  UNL     1     -35.067  17.396   0.635  1.00 20.00     0.012 C 
HETATM    2  C2  UNL     1     -34.560  17.108  -0.414  1.00 20.00    -0.117 C 
HETATM    3  C5  UNL     1     -33.936  16.759  -1.697  1.00 20.00     0.095 C 
ENDROOT
BRANCH   3   4
HETATM    4  C6  UNL     1     -34.715  15.653  -2.408  1.00 20.00     0.046 C 
BRANCH   4   5
HETATM    5  C4  UNL     1     -34.065  15.256  -3.698  1.00 20.00     0.146 A 
HETATM    6  C3  UNL     1     -33.612  13.842  -3.937  1.00 20.00     0.200 A 
HETATM    7  O7  UNL     1     -32.688  14.882  -3.579  1.00 20.00    -0.381 OA
ENDBRANCH   4   5
ENDBRANCH   3   4
TORSDOF 2
ENDMDL
MODEL 9
REMARK VINA RESULT:      -3.4     11.500     12.797
REMARK  2 active torsions:
REMARK  status: ('A' for Active; 'I' for Inactive)
REMARK    1  A    between atoms: C4_4  and  C6_6 
REMARK    2  A    between atoms: C5_5  and  C6_6 
ROOT
HETATM    1  C1  UNL     1     -33.559  17.727  -4.851  1.00 20.00     0.012 C 
HETATM    2  C2  UNL     1     -33.604  16.945  -3.941  1.00 20.00    -0.117 C 
HETATM    3  C5  UNL     1     -33.656  15.993  -2.824  1.00 20.00     0.095 C 
ENDROOT
BRANCH   3   4
HETATM    4  C6  UNL     1     -34.673  14.883  -3.090  1.00 20.00     0.046 C 
BRANCH   4   5
HETATM    5  C4  UNL     1     -34.136  13.851  -4.033  1.00 20.00     0.146 A 
HETATM    6  C3  UNL     1     -34.784  13.606  -5.368  1.00 20.00     0.200 A 
HETATM    7  O7  UNL     1     -35.005  12.734  -4.248  1.00 20.00    -0.381 OA
ENDBRANCH   4   5
ENDBRANCH   3   4
TORSDOF 2
ENDMDL
