MODEL 1
REMARK VINA RESULT:      -4.6      0.000      0.000
REMARK  0 active torsions:
REMARK  status: ('A' for Active; 'I' for Inactive)
ROOT
HETATM    1  C1  UNL     1     -34.511   3.782   4.489  1.00 20.00    -0.021 C 
HETATM    2  C2  UNL     1     -34.777   4.202   5.737  1.00 20.00    -0.025 C 
HETATM    3  C3  UNL     1     -33.396   5.901   3.963  1.00 20.00    -0.081 C 
HETATM    4  C4  UNL     1     -32.353   6.224   3.195  1.00 20.00     0.015 C 
HETATM    5  C5  UNL     1     -33.671   6.410   5.374  1.00 20.00     0.042 C 
HETATM    6  C6  UNL     1     -35.688   5.759   4.289  1.00 20.00     0.022 C 
HETATM    7  C7  UNL     1     -34.557   4.996   3.590  1.00 20.00     0.036 C 
HETATM    8  C8  UNL     1     -35.015   5.697   5.666  1.00 20.00     0.013 C 
ENDROOT
TORSDOF 0
ENDMDL
MODEL 2
REMARK VINA RESULT:      -4.4      0.916      2.345
REMARK  0 active torsions:
REMARK  status: ('A' for Active; 'I' for Inactive)
ROOT
HETATM    1  C1  UNL     1     -33.484   6.035   3.318  1.00 20.00    -0.021 C 
HETATM    2  C2  UNL     1     -33.781   4.726   3.282  1.00 20.00    -0.025 C 
HETATM    3  C3  UNL     1     -34.191   6.179   5.661  1.00 20.00    -0.081 C 
HETATM    4  C4  UNL     1     -33.768   6.895   6.706  1.00 20.00     0.015 C 
HETATM    5  C5  UNL     1     -34.530   4.692   5.663  1.00 20.00     0.042 C 
HETATM    6  C6  UNL     1     -35.701   5.838   3.935  1.00 20.00     0.022 C 
HETATM    7  C7  UNL     1     -34.469   6.690   4.259  1.00 20.00     0.036 C 
HETATM    8  C8  UNL     1     -34.975   4.511   4.190  1.00 20.00     0.013 C 
ENDROOT
TORSDOF 0
ENDMDL
MODEL 3
REMARK VINA RESULT:      -4.3     11.919     12.804
REMARK  0 active torsions:
REMARK  status: ('A' for Active; 'I' for Inactive)
ROOT
HETATM    1  C1  UNL     1     -33.520  13.757  -3.746  1.00 20.00    -0.021 C 
HETATM    2  C2  UNL     1     -34.652  13.366  -4.354  1.00 20.00    -0.025 C 
HETATM    3  C3  UNL     1     -34.681  15.643  -2.694  1.00 20.00    -0.081 C 
HETATM    4  C4  UNL     1     -34.553  16.258  -1.515  1.00 20.00     0.015 C 
HETATM    5  C5  UNL     1     -35.988  15.225  -3.359  1.00 20.00     0.042 C 
HETATM    6  C6  UNL     1     -34.273  15.562  -4.975  1.00 20.00     0.022 C 
HETATM    7  C7  UNL     1     -33.563  15.265  -3.649  1.00 20.00     0.036 C 
HETATM    8  C8  UNL     1     -35.445  14.618  -4.676  1.00 20.00     0.013 C 
ENDROOT
TORSDOF 0
ENDMDL
MODEL 4
REMARK VINA RESULT:      -4.1      8.445      9.674
REMARK  0 active torsions:
REMARK  status: ('A' for Active; 'I' for Inactive)
ROOT
HETATM    1  C1  UNL     1     -41.513   4.392  -1.832  1.00 20.00    -0.021 C 
HETATM    2  C2  UNL     1     -40.624   4.661  -0.862  1.00 20.00    -0.025 C 
HETATM    3  C3  UNL     1     -42.021   6.776  -2.093  1.00 20.00    -0.081 C 
HETATM    4  C4  UNL     1     -42.345   7.537  -3.141  1.00 20.00     0.015 C 
HETATM    5  C5  UNL     1     -41.013   7.122  -1.002  1.00 20.00     0.042 C 
HETATM    6  C6  UNL     1     -42.643   5.580  -0.206  1.00 20.00     0.022 C 
HETATM    7  C7  UNL     1     -42.611   5.425  -1.731  1.00 20.00     0.036 C 
HETATM    8  C8  UNL     1     -41.140   5.867  -0.103  1.00 20.00     0.013 C 
ENDROOT
TORSDOF 0
ENDMDL
MODEL 5
REMARK VINA RESULT:      -4.0     11.978     13.223
REMARK  0 active torsions:
REMARK  status: ('A' for Active; 'I' for Inactive)
ROOT
HETATM    1  C1  UNL     1     -35.369  14.930  -3.236  1.00 20.00    -0.021 C 
HETATM    2  C2  UNL     1     -35.834  13.940  -4.014  1.00 20.00    -0.025 C 
HETATM    3  C3  UNL     1     -33.871  15.693  -5.020  1.00 20.00    -0.081 C 
HETATM    4  C4  UNL     1     -33.431  16.895  -5.399  1.00 20.00     0.015 C 
HETATM    5  C5  UNL     1     -34.380  14.586  -5.937  1.00 20.00     0.042 C 
HETATM    6  C6  UNL     1     -33.537  13.690  -3.899  1.00 20.00     0.022 C 
HETATM    7  C7  UNL     1     -33.919  15.146  -3.604  1.00 20.00     0.036 C 
HETATM    8  C8  UNL     1     -34.687  13.484  -4.894  1.00 20.00     0.013 C 
ENDROOT
TORSDOF 0
ENDMDL
MODEL 6
REMARK VINA RESULT:      -4.0      8.598      9.879
REMARK  0 active torsions:
REMARK  status: ('A' for Active; 'I' for Inactive)
ROOT
HETATM    1  C1  UNL     1     -43.327   5.518  -0.776  1.00 20.00    -0.021 C 
HETATM    2  C2  UNL     1     -42.407   5.822   0.154  1.00 20.00    -0.025 C 
HETATM    3  C3  UNL     1     -41.682   4.221  -2.049  1.00 20.00    -0.081 C 
HETATM    4  C4  UNL     1     -41.761   3.116  -2.794  1.00 20.00     0.015 C 
HETATM    5  C5  UNL     1     -40.612   4.536  -1.010  1.00 20.00     0.042 C 
HETATM    6  C6  UNL     1     -41.572   6.531  -1.883  1.00 20.00     0.022 C 
HETATM    7  C7  UNL     1     -42.609   5.423  -2.102  1.00 20.00     0.036 C 
HETATM    8  C8  UNL     1     -41.074   5.943  -0.557  1.00 20.00     0.013 C 
ENDROOT
TORSDOF 0
ENDMDL
MODEL 7
REMARK VINA RESULT:      -4.0     11.901     12.977
REMARK  0 active torsions:
REMARK  status: ('A' for Active; 'I' for Inactive)
ROOT
HETATM    1  C1  UNL     1     -35.865  15.348  -5.101  1.00 20.00    -0.021 C 
HETATM    2  C2  UNL     1     -34.811  14.851  -5.768  1.00 20.00    -0.025 C 
HETATM    3  C3  UNL     1     -34.621  15.285  -2.990  1.00 20.00    -0.081 C 
HETATM    4  C4  UNL     1     -34.612  16.064  -1.906  1.00 20.00     0.015 C 
HETATM    5  C5  UNL     1     -33.399  14.728  -3.713  1.00 20.00     0.042 C 
HETATM    6  C6  UNL     1     -35.310  13.355  -4.075  1.00 20.00     0.022 C 
HETATM    7  C7  UNL     1     -35.842  14.747  -3.715  1.00 20.00     0.036 C 
HETATM    8  C8  UNL     1     -34.091  13.905  -4.827  1.00 20.00     0.013 C 
ENDROOT
TORSDOF 0
ENDMDL
MODEL 8
REMARK VINA RESULT:      -4.0      8.434      9.854
REMARK  0 active torsions:
REMARK  status: ('A' for Active; 'I' for Inactive)
ROOT
HETATM    1  C1  UNL     1     -40.665   6.125  -0.212  1.00 20.00    -0.021 C 
HETATM    2  C2  UNL     1     -41.054   7.261  -0.813  1.00 20.00    -0.025 C 
HETATM    3  C3  UNL     1     -41.902   4.780  -1.846  1.00 20.00    -0.081 C 
HETATM    4  C4  UNL     1     -41.685   3.588  -2.407  1.00 20.00     0.015 C 
HETATM    5  C5  UNL     1     -42.356   6.047  -2.562  1.00 20.00     0.042 C 
HETATM    6  C6  UNL     1     -42.973   6.094  -0.264  1.00 20.00     0.022 C 
HETATM    7  C7  UNL     1     -41.788   5.127  -0.372  1.00 20.00     0.036 C 
HETATM    8  C8  UNL     1     -42.446   7.024  -1.364  1.00 20.00     0.013 C 
ENDROOT
TORSDOF 0
ENDMDL
MODEL 9
REMARK VINA RESULT:      -3.9     12.017     13.368
REMARK  0 active torsions:
REMARK  status: ('A' for Active; 'I' for Inactive)
ROOT
HETATM    1  C1  UNL     1     -34.287  13.331  -4.679  1.00 20.00    -0.021 C 
HETATM    2  C2  UNL     1     -33.412  13.706  -3.731  1.00 20.00    -0.025 C 
HETATM    3  C3  UNL     1     -34.238  15.570  -5.676  1.00 20.00    -0.081 C 
HETATM    4  C4  UNL     1     -34.330  16.019  -6.930  1.00 20.00     0.015 C 
HETATM    5  C5  UNL     1     -33.236  16.030  -4.622  1.00 20.00     0.042 C 
HETATM    6  C6  UNL     1     -35.207  15.160  -3.610  1.00 20.00     0.022 C 
HETATM    7  C7  UNL     1     -35.132  14.540  -5.010  1.00 20.00     0.036 C 
HETATM    8  C8  UNL     1     -33.685  15.164  -3.420  1.00 20.00     0.013 C 
ENDROOT
TORSDOF 0
ENDMDL
