MODEL 1
REMARK VINA RESULT:      -4.6      0.000      0.000
REMARK  0 active torsions:
REMARK  status: ('A' for Active; 'I' for Inactive)
ROOT
HETATM    1  C1  UNL     1     -34.443   5.375   4.374  1.00 20.00     0.017 A 
HETATM    2  C2  UNL     1     -33.820   6.269   5.357  1.00 20.00     0.296 A 
HETATM    3  C3  UNL     1     -32.861   6.665   3.355  1.00 20.00     0.270 A 
HETATM    4  C4  UNL     1     -35.404   4.510   4.706  1.00 20.00     0.025 C 
HETATM    5  C5  UNL     1     -33.852   5.590   3.038  1.00 20.00     0.155 A 
HETATM    6  O6  UNL     1     -34.070   6.353   6.545  1.00 20.00    -0.259 OA
HETATM    7  O7  UNL     1     -32.112   7.183   2.539  1.00 20.00    -0.264 OA
HETATM    8  O8  UNL     1     -32.899   6.998   4.676  1.00 20.00    -0.241 OA
ENDROOT
TORSDOF 0
ENDMDL
MODEL 2
REMARK VINA RESULT:      -4.6      1.825      3.333
REMARK  0 active torsions:
REMARK  status: ('A' for Active; 'I' for Inactive)
ROOT
HETATM    1  C1  UNL     1     -33.867   6.379   5.933  1.00 20.00     0.017 A 
HETATM    2  C2  UNL     1     -33.576   6.306   4.497  1.00 20.00     0.296 A 
HETATM    3  C3  UNL     1     -34.854   4.528   5.036  1.00 20.00     0.270 A 
HETATM    4  C4  UNL     1     -33.409   7.367   6.704  1.00 20.00     0.025 C 
HETATM    5  C5  UNL     1     -34.706   5.235   6.346  1.00 20.00     0.155 A 
HETATM    6  O6  UNL     1     -32.916   7.084   3.834  1.00 20.00    -0.259 OA
HETATM    7  O7  UNL     1     -35.485   3.494   4.871  1.00 20.00    -0.264 OA
HETATM    8  O8  UNL     1     -34.195   5.186   4.041  1.00 20.00    -0.241 OA
ENDROOT
TORSDOF 0
ENDMDL
MODEL 3
REMARK VINA RESULT:      -4.5      2.066      2.813
REMARK  0 active torsions:
REMARK  status: ('A' for Active; 'I' for Inactive)
ROOT
HETATM    1  C1  UNL     1     -34.294   5.556   4.133  1.00 20.00     0.017 A 
HETATM    2  C2  UNL     1     -34.776   4.688   5.213  1.00 20.00     0.296 A 
HETATM    3  C3  UNL     1     -33.887   6.536   6.153  1.00 20.00     0.270 A 
HETATM    4  C4  UNL     1     -34.407   5.221   2.846  1.00 20.00     0.025 C 
HETATM    5  C5  UNL     1     -33.699   6.788   4.690  1.00 20.00     0.155 A 
HETATM    6  O6  UNL     1     -35.316   3.603   5.108  1.00 20.00    -0.259 OA
HETATM    7  O7  UNL     1     -33.541   7.301   7.041  1.00 20.00    -0.264 OA
HETATM    8  O8  UNL     1     -34.500   5.338   6.374  1.00 20.00    -0.241 OA
ENDROOT
TORSDOF 0
ENDMDL
MODEL 4
REMARK VINA RESULT:      -4.5      1.942      2.470
REMARK  0 active torsions:
REMARK  status: ('A' for Active; 'I' for Inactive)
ROOT
HETATM    1  C1  UNL     1     -34.126   6.131   5.528  1.00 20.00     0.017 A 
HETATM    2  C2  UNL     1     -34.923   4.899   5.558  1.00 20.00     0.296 A 
HETATM    3  C3  UNL     1     -34.397   5.331   3.408  1.00 20.00     0.270 A 
HETATM    4  C4  UNL     1     -33.818   6.807   6.636  1.00 20.00     0.025 C 
HETATM    5  C5  UNL     1     -33.750   6.465   4.139  1.00 20.00     0.155 A 
HETATM    6  O6  UNL     1     -35.393   4.344   6.534  1.00 20.00    -0.259 OA
HETATM    7  O7  UNL     1     -34.358   5.173   2.196  1.00 20.00    -0.264 OA
HETATM    8  O8  UNL     1     -35.037   4.489   4.268  1.00 20.00    -0.241 OA
ENDROOT
TORSDOF 0
ENDMDL
MODEL 5
REMARK VINA RESULT:      -4.5      1.305      2.735
REMARK  0 active torsions:
REMARK  status: ('A' for Active; 'I' for Inactive)
ROOT
HETATM    1  C1  UNL     1     -34.615   5.040   5.158  1.00 20.00     0.017 A 
HETATM    2  C2  UNL     1     -33.844   5.856   4.213  1.00 20.00     0.296 A 
HETATM    3  C3  UNL     1     -33.641   6.786   6.257  1.00 20.00     0.270 A 
HETATM    4  C4  UNL     1     -35.287   3.952   4.776  1.00 20.00     0.025 C 
HETATM    5  C5  UNL     1     -34.518   5.603   6.520  1.00 20.00     0.155 A 
HETATM    6  O6  UNL     1     -33.709   5.677   3.017  1.00 20.00    -0.259 OA
HETATM    7  O7  UNL     1     -33.272   7.582   7.109  1.00 20.00    -0.264 OA
HETATM    8  O8  UNL     1     -33.299   6.866   4.940  1.00 20.00    -0.241 OA
ENDROOT
TORSDOF 0
ENDMDL
MODEL 6
REMARK VINA RESULT:      -4.2      1.831      3.597
REMARK  0 active torsions:
REMARK  status: ('A' for Active; 'I' for Inactive)
ROOT
HETATM    1  C1  UNL     1     -33.423   6.249   4.027  1.00 20.00     0.017 A 
HETATM    2  C2  UNL     1     -34.330   5.327   3.334  1.00 20.00     0.296 A 
HETATM    3  C3  UNL     1     -34.814   5.251   5.536  1.00 20.00     0.270 A 
HETATM    4  C4  UNL     1     -32.503   6.966   3.378  1.00 20.00     0.025 C 
HETATM    5  C5  UNL     1     -33.695   6.243   5.479  1.00 20.00     0.155 A 
HETATM    6  O6  UNL     1     -34.377   5.090   2.141  1.00 20.00    -0.259 OA
HETATM    7  O7  UNL     1     -35.386   4.906   6.559  1.00 20.00    -0.264 OA
HETATM    8  O8  UNL     1     -35.119   4.778   4.294  1.00 20.00    -0.241 OA
ENDROOT
TORSDOF 0
ENDMDL
MODEL 7
REMARK VINA RESULT:      -4.2      1.586      2.027
REMARK  0 active torsions:
REMARK  status: ('A' for Active; 'I' for Inactive)
ROOT
HETATM    1  C1  UNL     1     -34.012   6.058   5.268  1.00 20.00     0.017 A 
HETATM    2  C2  UNL     1     -34.591   5.285   4.164  1.00 20.00     0.296 A 
HETATM    3  C3  UNL     1     -32.980   6.611   3.309  1.00 20.00     0.270 A 
HETATM    4  C4  UNL     1     -34.434   5.929   6.527  1.00 20.00     0.025 C 
HETATM    5  C5  UNL     1     -32.945   6.948   4.766  1.00 20.00     0.155 A 
HETATM    6  O6  UNL     1     -35.486   4.463   4.225  1.00 20.00    -0.259 OA
HETATM    7  O7  UNL     1     -32.254   7.111   2.462  1.00 20.00    -0.264 OA
HETATM    8  O8  UNL     1     -33.928   5.668   3.043  1.00 20.00    -0.241 OA
ENDROOT
TORSDOF 0
ENDMDL
MODEL 8
REMARK VINA RESULT:      -4.2     11.398     11.991
REMARK  0 active torsions:
REMARK  status: ('A' for Active; 'I' for Inactive)
ROOT
HETATM    1  C1  UNL     1     -34.806  15.309  -2.846  1.00 20.00     0.017 A 
HETATM    2  C2  UNL     1     -36.172  15.258  -3.380  1.00 20.00     0.296 A 
HETATM    3  C3  UNL     1     -35.033  13.505  -4.225  1.00 20.00     0.270 A 
HETATM    4  C4  UNL     1     -34.403  16.268  -2.010  1.00 20.00     0.025 C 
HETATM    5  C5  UNL     1     -34.009  14.179  -3.367  1.00 20.00     0.155 A 
HETATM    6  O6  UNL     1     -37.084  16.032  -3.157  1.00 20.00    -0.259 OA
HETATM    7  O7  UNL     1     -34.833  12.492  -4.880  1.00 20.00    -0.264 OA
HETATM    8  O8  UNL     1     -36.225  14.165  -4.184  1.00 20.00    -0.241 OA
ENDROOT
TORSDOF 0
ENDMDL
MODEL 9
REMARK VINA RESULT:      -4.1     11.310     12.081
REMARK  0 active torsions:
REMARK  status: ('A' for Active; 'I' for Inactive)
ROOT
HETATM    1  C1  UNL     1     -34.569  14.963  -3.514  1.00 20.00     0.017 A 
HETATM    2  C2  UNL     1     -34.585  13.602  -4.062  1.00 20.00     0.296 A 
HETATM    3  C3  UNL     1     -36.723  14.279  -3.825  1.00 20.00     0.270 A 
HETATM    4  C4  UNL     1     -33.432  15.606  -3.236  1.00 20.00     0.025 C 
HETATM    5  C5  UNL     1     -35.948  15.461  -3.336  1.00 20.00     0.155 A 
HETATM    6  O6  UNL     1     -33.629  12.899  -4.330  1.00 20.00    -0.259 OA
HETATM    7  O7  UNL     1     -37.943  14.218  -3.870  1.00 20.00    -0.264 OA
HETATM    8  O8  UNL     1     -35.893  13.271  -4.218  1.00 20.00    -0.241 OA
ENDROOT
TORSDOF 0
ENDMDL
