MODEL 1
REMARK VINA RESULT:      -4.1      0.000      0.000
REMARK  1 active torsions:
REMARK  status: ('A' for Active; 'I' for Inactive)
REMARK    1  A    between atoms: C1_1  and  C2_2 
ROOT
HETATM    1  C2  UNL     1     -34.999   4.988   4.288  1.00 20.00     0.412 C 
HETATM    2  F4  UNL     1     -36.220   5.478   3.982  1.00 20.00    -0.168 F 
HETATM    3  F5  UNL     1     -35.154   3.707   4.684  1.00 20.00    -0.168 F 
HETATM    4  F6  UNL     1     -34.258   4.991   3.160  1.00 20.00    -0.168 F 
ENDROOT
BRANCH   1   5
HETATM    5  C1  UNL     1     -34.348   5.810   5.364  1.00 20.00     0.339 C 
HETATM    6  F3  UNL     1     -34.940   5.522   6.553  1.00 20.00    -0.246 F 
ENDBRANCH   1   5
TORSDOF 1
ENDMDL
MODEL 2
REMARK VINA RESULT:      -4.1      0.011      1.544
REMARK  1 active torsions:
REMARK  status: ('A' for Active; 'I' for Inactive)
REMARK    1  A    between atoms: C1_1  and  C2_2 
ROOT
HETATM    1  C2  UNL     1     -35.008   4.993   4.282  1.00 20.00     0.412 C 
HETATM    2  F4  UNL     1     -34.262   4.996   3.156  1.00 20.00    -0.168 F 
HETATM    3  F5  UNL     1     -36.225   5.486   3.973  1.00 20.00    -0.168 F 
HETATM    4  F6  UNL     1     -35.162   3.710   4.672  1.00 20.00    -0.168 F 
ENDROOT
BRANCH   1   5
HETATM    5  C1  UNL     1     -34.352   5.810   5.358  1.00 20.00     0.339 C 
HETATM    6  F3  UNL     1     -34.937   5.515   6.549  1.00 20.00    -0.246 F 
ENDBRANCH   1   5
TORSDOF 1
ENDMDL
MODEL 3
REMARK VINA RESULT:      -4.0      0.863      1.738
REMARK  1 active torsions:
REMARK  status: ('A' for Active; 'I' for Inactive)
REMARK    1  A    between atoms: C1_1  and  C2_2 
ROOT
HETATM    1  C2  UNL     1     -34.944   4.826   4.828  1.00 20.00     0.412 C 
HETATM    2  F4  UNL     1     -34.980   3.478   4.754  1.00 20.00    -0.168 F 
HETATM    3  F5  UNL     1     -33.883   5.251   4.111  1.00 20.00    -0.168 F 
HETATM    4  F6  UNL     1     -36.063   5.302   4.243  1.00 20.00    -0.168 F 
ENDROOT
BRANCH   1   5
HETATM    5  C1  UNL     1     -34.846   5.279   6.257  1.00 20.00     0.339 C 
HETATM    6  F3  UNL     1     -34.282   6.515   6.287  1.00 20.00    -0.246 F 
ENDBRANCH   1   5
TORSDOF 1
ENDMDL
MODEL 4
REMARK VINA RESULT:      -4.0      1.282      1.859
REMARK  1 active torsions:
REMARK  status: ('A' for Active; 'I' for Inactive)
REMARK    1  A    between atoms: C1_1  and  C2_2 
ROOT
HETATM    1  C2  UNL     1     -34.793   4.911   5.736  1.00 20.00     0.412 C 
HETATM    2  F4  UNL     1     -35.622   5.003   6.799  1.00 20.00    -0.168 F 
HETATM    3  F5  UNL     1     -33.953   3.877   5.955  1.00 20.00    -0.168 F 
HETATM    4  F6  UNL     1     -35.542   4.621   4.652  1.00 20.00    -0.168 F 
ENDROOT
BRANCH   1   5
HETATM    5  C1  UNL     1     -34.032   6.192   5.541  1.00 20.00     0.339 C 
HETATM    6  F3  UNL     1     -34.041   6.889   6.708  1.00 20.00    -0.246 F 
ENDBRANCH   1   5
TORSDOF 1
ENDMDL
MODEL 5
REMARK VINA RESULT:      -4.0      1.140      1.506
REMARK  1 active torsions:
REMARK  status: ('A' for Active; 'I' for Inactive)
REMARK    1  A    between atoms: C1_1  and  C2_2 
ROOT
HETATM    1  C2  UNL     1     -34.985   5.418   3.903  1.00 20.00     0.412 C 
HETATM    2  F4  UNL     1     -36.230   5.753   3.500  1.00 20.00    -0.168 F 
HETATM    3  F5  UNL     1     -34.302   4.986   2.822  1.00 20.00    -0.168 F 
HETATM    4  F6  UNL     1     -34.383   6.537   4.358  1.00 20.00    -0.168 F 
ENDROOT
BRANCH   1   5
HETATM    5  C1  UNL     1     -35.035   4.360   4.969  1.00 20.00     0.339 C 
HETATM    6  F3  UNL     1     -35.250   4.959   6.170  1.00 20.00    -0.246 F 
ENDBRANCH   1   5
TORSDOF 1
ENDMDL
MODEL 6
REMARK VINA RESULT:      -4.0      1.138      1.580
REMARK  1 active torsions:
REMARK  status: ('A' for Active; 'I' for Inactive)
REMARK    1  A    between atoms: C1_1  and  C2_2 
ROOT
HETATM    1  C2  UNL     1     -34.985   5.414   3.915  1.00 20.00     0.412 C 
HETATM    2  F4  UNL     1     -34.388   6.536   4.370  1.00 20.00    -0.168 F 
HETATM    3  F5  UNL     1     -36.228   5.743   3.506  1.00 20.00    -0.168 F 
HETATM    4  F6  UNL     1     -34.291   4.983   2.840  1.00 20.00    -0.168 F 
ENDROOT
BRANCH   1   5
HETATM    5  C1  UNL     1     -35.030   4.361   4.986  1.00 20.00     0.339 C 
HETATM    6  F3  UNL     1     -35.241   4.966   6.185  1.00 20.00    -0.246 F 
ENDBRANCH   1   5
TORSDOF 1
ENDMDL
MODEL 7
REMARK VINA RESULT:      -3.9      1.143      1.911
REMARK  1 active torsions:
REMARK  status: ('A' for Active; 'I' for Inactive)
REMARK    1  A    between atoms: C1_1  and  C2_2 
ROOT
HETATM    1  C2  UNL     1     -34.975   5.446   3.917  1.00 20.00     0.412 C 
HETATM    2  F4  UNL     1     -34.278   4.951   2.871  1.00 20.00    -0.168 F 
HETATM    3  F5  UNL     1     -34.378   6.591   4.307  1.00 20.00    -0.168 F 
HETATM    4  F6  UNL     1     -36.216   5.747   3.480  1.00 20.00    -0.168 F 
ENDROOT
BRANCH   1   5
HETATM    5  C1  UNL     1     -35.025   4.452   5.043  1.00 20.00     0.339 C 
HETATM    6  F3  UNL     1     -35.143   5.127   6.217  1.00 20.00    -0.246 F 
ENDBRANCH   1   5
TORSDOF 1
ENDMDL
MODEL 8
REMARK VINA RESULT:      -3.9      1.276      2.653
REMARK  1 active torsions:
REMARK  status: ('A' for Active; 'I' for Inactive)
REMARK    1  A    between atoms: C1_1  and  C2_2 
ROOT
HETATM    1  C2  UNL     1     -34.534   4.998   5.956  1.00 20.00     0.412 C 
HETATM    2  F4  UNL     1     -33.735   3.922   6.128  1.00 20.00    -0.168 F 
HETATM    3  F5  UNL     1     -35.730   4.718   6.515  1.00 20.00    -0.168 F 
HETATM    4  F6  UNL     1     -33.987   6.031   6.630  1.00 20.00    -0.168 F 
ENDROOT
BRANCH   1   5
HETATM    5  C1  UNL     1     -34.683   5.323   4.497  1.00 20.00     0.339 C 
HETATM    6  F3  UNL     1     -35.988   5.170   4.145  1.00 20.00    -0.246 F 
ENDBRANCH   1   5
TORSDOF 1
ENDMDL
MODEL 9
REMARK VINA RESULT:      -3.9      0.710      2.151
REMARK  1 active torsions:
REMARK  status: ('A' for Active; 'I' for Inactive)
REMARK    1  A    between atoms: C1_1  and  C2_2 
ROOT
HETATM    1  C2  UNL     1     -35.133   4.978   4.643  1.00 20.00     0.412 C 
HETATM    2  F4  UNL     1     -35.261   5.327   5.942  1.00 20.00    -0.168 F 
HETATM    3  F5  UNL     1     -35.028   3.634   4.584  1.00 20.00    -0.168 F 
HETATM    4  F6  UNL     1     -36.267   5.339   4.005  1.00 20.00    -0.168 F 
ENDROOT
BRANCH   1   5
HETATM    5  C1  UNL     1     -33.933   5.640   4.029  1.00 20.00     0.339 C 
HETATM    6  F3  UNL     1     -33.934   5.395   2.691  1.00 20.00    -0.246 F 
ENDBRANCH   1   5
TORSDOF 1
ENDMDL
