MODEL 1
REMARK VINA RESULT:      -4.9      0.000      0.000
REMARK  3 active torsions:
REMARK  status: ('A' for Active; 'I' for Inactive)
REMARK    1  A    between atoms: C1_1  and  C7_7 
REMARK    2  A    between atoms: C4_4  and  C6_6 
REMARK    3  A    between atoms: C6_6  and  C7_7 
ROOT
HETATM    1  C6  UNL     1     -33.992   6.432   3.903  1.00 20.00     0.015 C 
ENDROOT
BRANCH   1   2
HETATM    2  C4  UNL     1     -32.628   6.483   3.226  1.00 20.00    -0.014 A 
HETATM    3  C2  UNL     1     -32.239   7.674   2.396  1.00 20.00     0.005 A 
HETATM    4  C3  UNL     1     -31.573   7.432   3.722  1.00 20.00     0.005 A 
ENDBRANCH   1   2
BRANCH   1   5
HETATM    5  C7  UNL     1     -33.970   5.646   5.220  1.00 20.00     0.043 C 
HETATM    6  C5  UNL     1     -33.997   6.596   6.416  1.00 20.00     0.017 C 
BRANCH   5   7
HETATM    7  C1  UNL     1     -35.142   4.690   5.361  1.00 20.00     0.235 C 
HETATM    8  O8  UNL     1     -35.135   3.515   5.012  1.00 20.00    -0.306 OA
ENDBRANCH   5   7
ENDBRANCH   1   5
TORSDOF 3
ENDMDL
MODEL 2
REMARK VINA RESULT:      -4.5      1.697      2.188
REMARK  3 active torsions:
REMARK  status: ('A' for Active; 'I' for Inactive)
REMARK    1  A    between atoms: C1_1  and  C7_7 
REMARK    2  A    between atoms: C4_4  and  C6_6 
REMARK    3  A    between atoms: C6_6  and  C7_7 
ROOT
HETATM    1  C6  UNL     1     -34.470   5.955   3.939  1.00 20.00     0.015 C 
ENDROOT
BRANCH   1   2
HETATM    2  C4  UNL     1     -33.019   6.422   3.928  1.00 20.00    -0.014 A 
HETATM    3  C2  UNL     1     -32.046   5.849   2.937  1.00 20.00     0.005 A 
HETATM    4  C3  UNL     1     -32.507   7.274   2.800  1.00 20.00     0.005 A 
ENDBRANCH   1   2
BRANCH   1   5
HETATM    5  C7  UNL     1     -34.929   5.482   5.324  1.00 20.00     0.043 C 
HETATM    6  C5  UNL     1     -34.910   3.958   5.408  1.00 20.00     0.017 C 
BRANCH   5   7
HETATM    7  C1  UNL     1     -34.062   6.020   6.451  1.00 20.00     0.235 C 
HETATM    8  O8  UNL     1     -34.096   7.170   6.875  1.00 20.00    -0.306 OA
ENDBRANCH   5   7
ENDBRANCH   1   5
TORSDOF 3
ENDMDL
MODEL 3
REMARK VINA RESULT:      -4.4      2.275      4.239
REMARK  3 active torsions:
REMARK  status: ('A' for Active; 'I' for Inactive)
REMARK    1  A    between atoms: C1_1  and  C7_7 
REMARK    2  A    between atoms: C4_4  and  C6_6 
REMARK    3  A    between atoms: C6_6  and  C7_7 
ROOT
HETATM    1  C6  UNL     1     -33.746   6.250   4.971  1.00 20.00     0.015 C 
ENDROOT
BRANCH   1   2
HETATM    2  C4  UNL     1     -34.919   5.297   5.167  1.00 20.00    -0.014 A 
HETATM    3  C2  UNL     1     -34.673   3.841   5.448  1.00 20.00     0.005 A 
HETATM    4  C3  UNL     1     -35.217   4.734   6.529  1.00 20.00     0.005 A 
ENDBRANCH   1   2
BRANCH   1   5
HETATM    5  C7  UNL     1     -32.979   5.984   3.670  1.00 20.00     0.043 C 
HETATM    6  C5  UNL     1     -33.944   5.676   2.527  1.00 20.00     0.017 C 
BRANCH   5   7
HETATM    7  C1  UNL     1     -32.113   7.157   3.241  1.00 20.00     0.235 C 
HETATM    8  O8  UNL     1     -32.223   7.760   2.179  1.00 20.00    -0.306 OA
ENDBRANCH   5   7
ENDBRANCH   1   5
TORSDOF 3
ENDMDL
MODEL 4
REMARK VINA RESULT:      -4.4      0.943      1.520
REMARK  3 active torsions:
REMARK  status: ('A' for Active; 'I' for Inactive)
REMARK    1  A    between atoms: C1_1  and  C7_7 
REMARK    2  A    between atoms: C4_4  and  C6_6 
REMARK    3  A    between atoms: C6_6  and  C7_7 
ROOT
HETATM    1  C6  UNL     1     -33.642   6.396   5.070  1.00 20.00     0.015 C 
ENDROOT
BRANCH   1   2
HETATM    2  C4  UNL     1     -33.240   6.668   3.625  1.00 20.00    -0.014 A 
HETATM    3  C2  UNL     1     -31.946   7.368   3.318  1.00 20.00     0.005 A 
HETATM    4  C3  UNL     1     -32.104   5.907   3.000  1.00 20.00     0.005 A 
ENDBRANCH   1   2
BRANCH   1   5
HETATM    5  C7  UNL     1     -34.968   5.633   5.181  1.00 20.00     0.043 C 
HETATM    6  C5  UNL     1     -35.634   5.505   3.813  1.00 20.00     0.017 C 
BRANCH   5   7
HETATM    7  C1  UNL     1     -34.801   4.233   5.748  1.00 20.00     0.235 C 
HETATM    8  O8  UNL     1     -34.908   3.197   5.101  1.00 20.00    -0.306 OA
ENDBRANCH   5   7
ENDBRANCH   1   5
TORSDOF 3
ENDMDL
MODEL 5
REMARK VINA RESULT:      -4.0      2.710      4.348
REMARK  3 active torsions:
REMARK  status: ('A' for Active; 'I' for Inactive)
REMARK    1  A    between atoms: C1_1  and  C7_7 
REMARK    2  A    between atoms: C4_4  and  C6_6 
REMARK    3  A    between atoms: C6_6  and  C7_7 
ROOT
HETATM    1  C6  UNL     1     -33.125   6.172   3.172  1.00 20.00     0.015 C 
ENDROOT
BRANCH   1   2
HETATM    2  C4  UNL     1     -34.380   6.136   4.036  1.00 20.00    -0.014 A 
HETATM    3  C2  UNL     1     -35.002   4.821   4.415  1.00 20.00     0.005 A 
HETATM    4  C3  UNL     1     -34.306   5.651   5.457  1.00 20.00     0.005 A 
ENDBRANCH   1   2
BRANCH   1   5
HETATM    5  C7  UNL     1     -32.481   7.563   3.122  1.00 20.00     0.043 C 
HETATM    6  C5  UNL     1     -31.241   7.616   4.012  1.00 20.00     0.017 C 
BRANCH   5   7
HETATM    7  C1  UNL     1     -32.063   7.973   1.720  1.00 20.00     0.235 C 
HETATM    8  O8  UNL     1     -32.133   9.112   1.272  1.00 20.00    -0.306 OA
ENDBRANCH   5   7
ENDBRANCH   1   5
TORSDOF 3
ENDMDL
MODEL 6
REMARK VINA RESULT:      -4.0     11.557     12.131
REMARK  3 active torsions:
REMARK  status: ('A' for Active; 'I' for Inactive)
REMARK    1  A    between atoms: C1_1  and  C7_7 
REMARK    2  A    between atoms: C4_4  and  C6_6 
REMARK    3  A    between atoms: C6_6  and  C7_7 
ROOT
HETATM    1  C6  UNL     1     -33.749  15.612  -2.904  1.00 20.00     0.015 C 
ENDROOT
BRANCH   1   2
HETATM    2  C4  UNL     1     -34.431  16.750  -2.153  1.00 20.00    -0.014 A 
HETATM    3  C2  UNL     1     -34.631  16.662  -0.665  1.00 20.00     0.005 A 
HETATM    4  C3  UNL     1     -33.635  17.634  -1.234  1.00 20.00     0.005 A 
ENDBRANCH   1   2
BRANCH   1   5
HETATM    5  C7  UNL     1     -34.711  14.468  -3.246  1.00 20.00     0.043 C 
HETATM    6  C5  UNL     1     -36.094  15.013  -3.596  1.00 20.00     0.017 C 
BRANCH   5   7
HETATM    7  C1  UNL     1     -34.236  13.623  -4.416  1.00 20.00     0.235 C 
HETATM    8  O8  UNL     1     -34.766  12.584  -4.792  1.00 20.00    -0.306 OA
ENDBRANCH   5   7
ENDBRANCH   1   5
TORSDOF 3
ENDMDL
MODEL 7
REMARK VINA RESULT:      -4.0      1.320      2.102
REMARK  3 active torsions:
REMARK  status: ('A' for Active; 'I' for Inactive)
REMARK    1  A    between atoms: C1_1  and  C7_7 
REMARK    2  A    between atoms: C4_4  and  C6_6 
REMARK    3  A    between atoms: C6_6  and  C7_7 
ROOT
HETATM    1  C6  UNL     1     -32.607   6.306   3.209  1.00 20.00     0.015 C 
ENDROOT
BRANCH   1   2
HETATM    2  C4  UNL     1     -31.925   7.632   2.897  1.00 20.00    -0.014 A 
HETATM    3  C2  UNL     1     -31.794   8.101   1.475  1.00 20.00     0.005 A 
HETATM    4  C3  UNL     1     -32.735   8.804   2.414  1.00 20.00     0.005 A 
ENDBRANCH   1   2
BRANCH   1   5
HETATM    5  C7  UNL     1     -33.923   6.483   3.978  1.00 20.00     0.043 C 
HETATM    6  C5  UNL     1     -34.928   5.403   3.585  1.00 20.00     0.017 C 
BRANCH   5   7
HETATM    7  C1  UNL     1     -33.742   6.422   5.485  1.00 20.00     0.235 C 
HETATM    8  O8  UNL     1     -34.482   5.822   6.257  1.00 20.00    -0.306 OA
ENDBRANCH   5   7
ENDBRANCH   1   5
TORSDOF 3
ENDMDL
MODEL 8
REMARK VINA RESULT:      -3.8      1.845      3.773
REMARK  3 active torsions:
REMARK  status: ('A' for Active; 'I' for Inactive)
REMARK    1  A    between atoms: C1_1  and  C7_7 
REMARK    2  A    between atoms: C4_4  and  C6_6 
REMARK    3  A    between atoms: C6_6  and  C7_7 
ROOT
HETATM    1  C6  UNL     1     -34.725   5.914   3.946  1.00 20.00     0.015 C 
ENDROOT
BRANCH   1   2
HETATM    2  C4  UNL     1     -35.349   4.700   4.624  1.00 20.00    -0.014 A 
HETATM    3  C2  UNL     1     -34.476   3.625   5.206  1.00 20.00     0.005 A 
HETATM    4  C3  UNL     1     -35.255   4.534   6.115  1.00 20.00     0.005 A 
ENDBRANCH   1   2
BRANCH   1   5
HETATM    5  C7  UNL     1     -33.258   6.123   4.344  1.00 20.00     0.043 C 
HETATM    6  C5  UNL     1     -32.422   6.524   3.130  1.00 20.00     0.017 C 
BRANCH   5   7
HETATM    7  C1  UNL     1     -33.078   7.196   5.405  1.00 20.00     0.235 C 
HETATM    8  O8  UNL     1     -33.351   7.061   6.593  1.00 20.00    -0.306 OA
ENDBRANCH   5   7
ENDBRANCH   1   5
TORSDOF 3
ENDMDL
MODEL 9
REMARK VINA RESULT:      -3.7      1.521      3.730
REMARK  3 active torsions:
REMARK  status: ('A' for Active; 'I' for Inactive)
REMARK    1  A    between atoms: C1_1  and  C7_7 
REMARK    2  A    between atoms: C4_4  and  C6_6 
REMARK    3  A    between atoms: C6_6  and  C7_7 
ROOT
HETATM    1  C6  UNL     1     -33.821   6.226   5.180  1.00 20.00     0.015 C 
ENDROOT
BRANCH   1   2
HETATM    2  C4  UNL     1     -34.986   5.266   5.386  1.00 20.00    -0.014 A 
HETATM    3  C2  UNL     1     -34.738   3.788   5.505  1.00 20.00     0.005 A 
HETATM    4  C3  UNL     1     -35.174   4.577   6.709  1.00 20.00     0.005 A 
ENDBRANCH   1   2
BRANCH   1   5
HETATM    5  C7  UNL     1     -33.623   6.609   3.708  1.00 20.00     0.043 C 
HETATM    6  C5  UNL     1     -32.151   6.506   3.316  1.00 20.00     0.017 C 
BRANCH   5   7
HETATM    7  C1  UNL     1     -34.419   5.732   2.755  1.00 20.00     0.235 C 
HETATM    8  O8  UNL     1     -33.940   4.859   2.040  1.00 20.00    -0.306 OA
ENDBRANCH   5   7
ENDBRANCH   1   5
TORSDOF 3
ENDMDL
