MODEL 1
REMARK VINA RESULT:      -3.5      0.000      0.000
REMARK  0 active torsions:
REMARK  status: ('A' for Active; 'I' for Inactive)
ROOT
HETATM    1  C1  UNL     1     -34.967   4.202   5.903  1.00 20.00     0.050 C 
HETATM    2  C2  UNL     1     -34.523   5.380   5.409  1.00 20.00     0.094 C 
HETATM    3 CL3  UNL     1     -34.480   5.692   3.705  1.00 20.00    -0.072 Cl
HETATM    4 CL4  UNL     1     -33.970   6.648   6.452  1.00 20.00    -0.072 Cl
ENDROOT
TORSDOF 0
ENDMDL
MODEL 2
REMARK VINA RESULT:      -3.5      0.018      2.088
REMARK  0 active torsions:
REMARK  status: ('A' for Active; 'I' for Inactive)
ROOT
HETATM    1  C1  UNL     1     -34.987   4.202   5.916  1.00 20.00     0.050 C 
HETATM    2  C2  UNL     1     -34.535   5.378   5.420  1.00 20.00     0.094 C 
HETATM    3 CL3  UNL     1     -33.975   6.645   6.459  1.00 20.00    -0.072 Cl
HETATM    4 CL4  UNL     1     -34.492   5.684   3.715  1.00 20.00    -0.072 Cl
ENDROOT
TORSDOF 0
ENDMDL
MODEL 3
REMARK VINA RESULT:      -3.4      1.579      1.904
REMARK  0 active torsions:
REMARK  status: ('A' for Active; 'I' for Inactive)
ROOT
HETATM    1  C1  UNL     1     -34.346   5.856   3.923  1.00 20.00     0.050 C 
HETATM    2  C2  UNL     1     -34.403   5.521   5.232  1.00 20.00     0.094 C 
HETATM    3 CL3  UNL     1     -34.917   3.949   5.746  1.00 20.00    -0.072 Cl
HETATM    4 CL4  UNL     1     -33.964   6.648   6.474  1.00 20.00    -0.072 Cl
ENDROOT
TORSDOF 0
ENDMDL
MODEL 4
REMARK VINA RESULT:      -3.4      1.578      2.481
REMARK  0 active torsions:
REMARK  status: ('A' for Active; 'I' for Inactive)
ROOT
HETATM    1  C1  UNL     1     -34.350   5.856   3.917  1.00 20.00     0.050 C 
HETATM    2  C2  UNL     1     -34.404   5.524   5.228  1.00 20.00     0.094 C 
HETATM    3 CL3  UNL     1     -33.960   6.648   6.469  1.00 20.00    -0.072 Cl
HETATM    4 CL4  UNL     1     -34.922   3.952   5.742  1.00 20.00    -0.072 Cl
ENDROOT
TORSDOF 0
ENDMDL
MODEL 5
REMARK VINA RESULT:      -3.3      1.635      1.923
REMARK  0 active torsions:
REMARK  status: ('A' for Active; 'I' for Inactive)
ROOT
HETATM    1  C1  UNL     1     -34.000   6.513   6.361  1.00 20.00     0.050 C 
HETATM    2  C2  UNL     1     -34.365   5.597   5.434  1.00 20.00     0.094 C 
HETATM    3 CL3  UNL     1     -34.220   5.914   3.738  1.00 20.00    -0.072 Cl
HETATM    4 CL4  UNL     1     -35.001   4.052   5.892  1.00 20.00    -0.072 Cl
ENDROOT
TORSDOF 0
ENDMDL
MODEL 6
REMARK VINA RESULT:      -3.3      1.634      2.359
REMARK  0 active torsions:
REMARK  status: ('A' for Active; 'I' for Inactive)
ROOT
HETATM    1  C1  UNL     1     -34.000   6.513   6.361  1.00 20.00     0.050 C 
HETATM    2  C2  UNL     1     -34.366   5.597   5.435  1.00 20.00     0.094 C 
HETATM    3 CL3  UNL     1     -35.001   4.051   5.890  1.00 20.00    -0.072 Cl
HETATM    4 CL4  UNL     1     -34.219   5.916   3.738  1.00 20.00    -0.072 Cl
ENDROOT
TORSDOF 0
ENDMDL
MODEL 7
REMARK VINA RESULT:      -3.3      1.192      1.192
REMARK  0 active torsions:
REMARK  status: ('A' for Active; 'I' for Inactive)
ROOT
HETATM    1  C1  UNL     1     -35.166   4.954   4.557  1.00 20.00     0.050 C 
HETATM    2  C2  UNL     1     -34.154   5.806   4.838  1.00 20.00     0.094 C 
HETATM    3 CL3  UNL     1     -32.953   6.210   3.657  1.00 20.00    -0.072 Cl
HETATM    4 CL4  UNL     1     -33.999   6.545   6.398  1.00 20.00    -0.072 Cl
ENDROOT
TORSDOF 0
ENDMDL
MODEL 8
REMARK VINA RESULT:      -3.3      1.194      2.253
REMARK  0 active torsions:
REMARK  status: ('A' for Active; 'I' for Inactive)
ROOT
HETATM    1  C1  UNL     1     -35.170   4.955   4.545  1.00 20.00     0.050 C 
HETATM    2  C2  UNL     1     -34.161   5.807   4.837  1.00 20.00     0.094 C 
HETATM    3 CL3  UNL     1     -34.006   6.530   6.404  1.00 20.00    -0.072 Cl
HETATM    4 CL4  UNL     1     -32.962   6.227   3.658  1.00 20.00    -0.072 Cl
ENDROOT
TORSDOF 0
ENDMDL
MODEL 9
REMARK VINA RESULT:      -3.2      1.954      2.128
REMARK  0 active torsions:
REMARK  status: ('A' for Active; 'I' for Inactive)
ROOT
HETATM    1  C1  UNL     1     -34.046   6.422   6.311  1.00 20.00     0.050 C 
HETATM    2  C2  UNL     1     -34.100   5.919   5.056  1.00 20.00     0.094 C 
HETATM    3 CL3  UNL     1     -32.980   6.415   3.831  1.00 20.00    -0.072 Cl
HETATM    4 CL4  UNL     1     -35.292   4.747   4.601  1.00 20.00    -0.072 Cl
ENDROOT
TORSDOF 0
ENDMDL
