MODEL 1
REMARK VINA RESULT:      -3.2      0.000      0.000
REMARK  1 active torsions:
REMARK  status: ('A' for Active; 'I' for Inactive)
REMARK    1  A    between atoms: C1_1  and  C2_2 
ROOT
HETATM    1  C2  UNL     1     -34.460   5.364   4.603  1.00 20.00     0.200 C 
HETATM    2 CL4  UNL     1     -35.944   5.869   3.727  1.00 20.00    -0.083 Cl
HETATM    3 CL5  UNL     1     -34.180   6.526   5.935  1.00 20.00    -0.083 Cl
HETATM    4 CL6  UNL     1     -34.748   3.736   5.288  1.00 20.00    -0.083 Cl
ENDROOT
BRANCH   1   5
HETATM    5  C1  UNL     1     -33.289   5.354   3.617  1.00 20.00     0.173 C 
HETATM    6 CL3  UNL     1     -32.474   6.936   3.461  1.00 20.00    -0.126 Cl
ENDBRANCH   1   5
TORSDOF 1
ENDMDL
MODEL 2
REMARK VINA RESULT:      -3.1      0.108      2.061
REMARK  1 active torsions:
REMARK  status: ('A' for Active; 'I' for Inactive)
REMARK    1  A    between atoms: C1_1  and  C2_2 
ROOT
HETATM    1  C2  UNL     1     -34.489   5.382   4.611  1.00 20.00     0.200 C 
HETATM    2 CL4  UNL     1     -34.720   3.738   5.295  1.00 20.00    -0.083 Cl
HETATM    3 CL5  UNL     1     -35.998   5.850   3.770  1.00 20.00    -0.083 Cl
HETATM    4 CL6  UNL     1     -34.192   6.511   5.967  1.00 20.00    -0.083 Cl
ENDROOT
BRANCH   1   5
HETATM    5  C1  UNL     1     -33.301   5.347   3.645  1.00 20.00     0.173 C 
HETATM    6 CL3  UNL     1     -32.336   6.851   3.647  1.00 20.00    -0.126 Cl
ENDBRANCH   1   5
TORSDOF 1
ENDMDL
MODEL 3
REMARK VINA RESULT:      -3.1      0.052      2.050
REMARK  1 active torsions:
REMARK  status: ('A' for Active; 'I' for Inactive)
REMARK    1  A    between atoms: C1_1  and  C2_2 
ROOT
HETATM    1  C2  UNL     1     -34.483   5.349   4.600  1.00 20.00     0.200 C 
HETATM    2 CL4  UNL     1     -34.165   6.527   5.918  1.00 20.00    -0.083 Cl
HETATM    3 CL5  UNL     1     -34.752   3.744   5.344  1.00 20.00    -0.083 Cl
HETATM    4 CL6  UNL     1     -35.969   5.862   3.746  1.00 20.00    -0.083 Cl
ENDROOT
BRANCH   1   5
HETATM    5  C1  UNL     1     -33.277   5.331   3.657  1.00 20.00     0.173 C 
HETATM    6 CL3  UNL     1     -32.440   6.905   3.541  1.00 20.00    -0.126 Cl
ENDBRANCH   1   5
TORSDOF 1
ENDMDL
MODEL 4
REMARK VINA RESULT:      -3.0      1.289      2.360
REMARK  1 active torsions:
REMARK  status: ('A' for Active; 'I' for Inactive)
REMARK    1  A    between atoms: C1_1  and  C2_2 
ROOT
HETATM    1  C2  UNL     1     -34.696   5.370   3.990  1.00 20.00     0.200 C 
HETATM    2 CL4  UNL     1     -33.809   4.941   2.489  1.00 20.00    -0.083 Cl
HETATM    3 CL5  UNL     1     -36.302   6.004   3.522  1.00 20.00    -0.083 Cl
HETATM    4 CL6  UNL     1     -34.907   3.877   4.955  1.00 20.00    -0.083 Cl
ENDROOT
BRANCH   1   5
HETATM    5  C1  UNL     1     -33.885   6.418   4.757  1.00 20.00     0.173 C 
HETATM    6 CL3  UNL     1     -34.149   6.373   6.523  1.00 20.00    -0.126 Cl
ENDBRANCH   1   5
TORSDOF 1
ENDMDL
MODEL 5
REMARK VINA RESULT:      -3.0      1.300      2.846
REMARK  1 active torsions:
REMARK  status: ('A' for Active; 'I' for Inactive)
REMARK    1  A    between atoms: C1_1  and  C2_2 
ROOT
HETATM    1  C2  UNL     1     -34.705   5.387   3.936  1.00 20.00     0.200 C 
HETATM    2 CL4  UNL     1     -34.934   3.865   4.861  1.00 20.00    -0.083 Cl
HETATM    3 CL5  UNL     1     -33.802   4.997   2.441  1.00 20.00    -0.083 Cl
HETATM    4 CL6  UNL     1     -36.322   6.022   3.504  1.00 20.00    -0.083 Cl
ENDROOT
BRANCH   1   5
HETATM    5  C1  UNL     1     -33.933   6.380   4.810  1.00 20.00     0.173 C 
HETATM    6 CL3  UNL     1     -34.249   6.185   6.558  1.00 20.00    -0.126 Cl
ENDBRANCH   1   5
TORSDOF 1
ENDMDL
MODEL 6
REMARK VINA RESULT:      -3.0      1.292      2.443
REMARK  1 active torsions:
REMARK  status: ('A' for Active; 'I' for Inactive)
REMARK    1  A    between atoms: C1_1  and  C2_2 
ROOT
HETATM    1  C2  UNL     1     -34.685   5.360   3.961  1.00 20.00     0.200 C 
HETATM    2 CL4  UNL     1     -36.299   6.015   3.523  1.00 20.00    -0.083 Cl
HETATM    3 CL5  UNL     1     -34.932   3.855   4.897  1.00 20.00    -0.083 Cl
HETATM    4 CL6  UNL     1     -33.812   4.979   2.446  1.00 20.00    -0.083 Cl
ENDROOT
BRANCH   1   5
HETATM    5  C1  UNL     1     -33.937   6.412   4.784  1.00 20.00     0.173 C 
HETATM    6 CL3  UNL     1     -34.206   6.263   6.544  1.00 20.00    -0.126 Cl
ENDBRANCH   1   5
TORSDOF 1
ENDMDL
MODEL 7
REMARK VINA RESULT:      -2.9     12.002     12.781
REMARK  1 active torsions:
REMARK  status: ('A' for Active; 'I' for Inactive)
REMARK    1  A    between atoms: C1_1  and  C2_2 
ROOT
HETATM    1  C2  UNL     1     -34.169  15.096  -3.904  1.00 20.00     0.200 C 
HETATM    2 CL4  UNL     1     -33.176  13.612  -3.713  1.00 20.00    -0.083 Cl
HETATM    3 CL5  UNL     1     -33.985  15.673  -5.588  1.00 20.00    -0.083 Cl
HETATM    4 CL6  UNL     1     -35.880  14.660  -3.612  1.00 20.00    -0.083 Cl
ENDROOT
BRANCH   1   5
HETATM    5  C1  UNL     1     -33.683  16.144  -2.899  1.00 20.00     0.173 C 
HETATM    6 CL3  UNL     1     -34.666  16.213  -1.409  1.00 20.00    -0.126 Cl
ENDBRANCH   1   5
TORSDOF 1
ENDMDL
MODEL 8
REMARK VINA RESULT:      -2.9     12.008     12.779
REMARK  1 active torsions:
REMARK  status: ('A' for Active; 'I' for Inactive)
REMARK    1  A    between atoms: C1_1  and  C2_2 
ROOT
HETATM    1  C2  UNL     1     -34.120  15.121  -3.889  1.00 20.00     0.200 C 
HETATM    2 CL4  UNL     1     -35.839  14.707  -3.576  1.00 20.00    -0.083 Cl
HETATM    3 CL5  UNL     1     -33.147  13.632  -3.696  1.00 20.00    -0.083 Cl
HETATM    4 CL6  UNL     1     -33.988  15.700  -5.577  1.00 20.00    -0.083 Cl
ENDROOT
BRANCH   1   5
HETATM    5  C1  UNL     1     -33.687  16.202  -2.895  1.00 20.00     0.173 C 
HETATM    6 CL3  UNL     1     -34.658  16.220  -1.394  1.00 20.00    -0.126 Cl
ENDBRANCH   1   5
TORSDOF 1
ENDMDL
MODEL 9
REMARK VINA RESULT:      -2.9     11.990     12.706
REMARK  1 active torsions:
REMARK  status: ('A' for Active; 'I' for Inactive)
REMARK    1  A    between atoms: C1_1  and  C2_2 
ROOT
HETATM    1  C2  UNL     1     -34.185  15.090  -3.873  1.00 20.00     0.200 C 
HETATM    2 CL4  UNL     1     -34.019  15.674  -5.562  1.00 20.00    -0.083 Cl
HETATM    3 CL5  UNL     1     -35.900  14.658  -3.601  1.00 20.00    -0.083 Cl
HETATM    4 CL6  UNL     1     -33.169  13.628  -3.689  1.00 20.00    -0.083 Cl
ENDROOT
BRANCH   1   5
HETATM    5  C1  UNL     1     -33.734  16.204  -2.923  1.00 20.00     0.173 C 
HETATM    6 CL3  UNL     1     -34.628  16.227  -1.376  1.00 20.00    -0.126 Cl
ENDBRANCH   1   5
TORSDOF 1
ENDMDL
