MODEL 1
REMARK VINA RESULT:      -3.0      0.000      0.000
REMARK  0 active torsions:
REMARK  status: ('A' for Active; 'I' for Inactive)
ROOT
HETATM    1  C1  UNL     1     -34.459   3.940   5.292  1.00 20.00     0.068 C 
HETATM    2  C2  UNL     1     -34.432   5.387   4.817  1.00 20.00     0.184 C 
HETATM    3 CL3  UNL     1     -35.919   5.747   3.898  1.00 20.00    -0.084 Cl
HETATM    4 CL4  UNL     1     -34.332   6.481   6.224  1.00 20.00    -0.084 Cl
HETATM    5 CL5  UNL     1     -33.014   5.651   3.766  1.00 20.00    -0.084 Cl
ENDROOT
TORSDOF 0
ENDMDL
MODEL 2
REMARK VINA RESULT:      -3.0      0.022      2.257
REMARK  0 active torsions:
REMARK  status: ('A' for Active; 'I' for Inactive)
ROOT
HETATM    1  C1  UNL     1     -34.462   3.930   5.286  1.00 20.00     0.068 C 
HETATM    2  C2  UNL     1     -34.436   5.374   4.802  1.00 20.00     0.184 C 
HETATM    3 CL3  UNL     1     -34.330   6.476   6.203  1.00 20.00    -0.084 Cl
HETATM    4 CL4  UNL     1     -33.020   5.630   3.745  1.00 20.00    -0.084 Cl
HETATM    5 CL5  UNL     1     -35.926   5.730   3.886  1.00 20.00    -0.084 Cl
ENDROOT
TORSDOF 0
ENDMDL
MODEL 3
REMARK VINA RESULT:      -3.0      0.027      2.252
REMARK  0 active torsions:
REMARK  status: ('A' for Active; 'I' for Inactive)
ROOT
HETATM    1  C1  UNL     1     -34.460   3.946   5.306  1.00 20.00     0.068 C 
HETATM    2  C2  UNL     1     -34.427   5.385   4.807  1.00 20.00     0.184 C 
HETATM    3 CL3  UNL     1     -33.011   5.621   3.746  1.00 20.00    -0.084 Cl
HETATM    4 CL4  UNL     1     -35.916   5.736   3.885  1.00 20.00    -0.084 Cl
HETATM    5 CL5  UNL     1     -34.317   6.502   6.194  1.00 20.00    -0.084 Cl
ENDROOT
TORSDOF 0
ENDMDL
MODEL 4
REMARK VINA RESULT:      -3.0      1.484      2.150
REMARK  0 active torsions:
REMARK  status: ('A' for Active; 'I' for Inactive)
ROOT
HETATM    1  C1  UNL     1     -35.655   5.715   4.008  1.00 20.00     0.068 C 
HETATM    2  C2  UNL     1     -34.377   5.427   4.786  1.00 20.00     0.184 C 
HETATM    3 CL3  UNL     1     -32.960   5.685   3.731  1.00 20.00    -0.084 Cl
HETATM    4 CL4  UNL     1     -34.269   6.522   6.192  1.00 20.00    -0.084 Cl
HETATM    5 CL5  UNL     1     -34.386   3.736   5.357  1.00 20.00    -0.084 Cl
ENDROOT
TORSDOF 0
ENDMDL
MODEL 5
REMARK VINA RESULT:      -3.0      1.483      2.518
REMARK  0 active torsions:
REMARK  status: ('A' for Active; 'I' for Inactive)
ROOT
HETATM    1  C1  UNL     1     -35.657   5.717   4.007  1.00 20.00     0.068 C 
HETATM    2  C2  UNL     1     -34.380   5.428   4.786  1.00 20.00     0.184 C 
HETATM    3 CL3  UNL     1     -34.392   3.735   5.353  1.00 20.00    -0.084 Cl
HETATM    4 CL4  UNL     1     -32.961   5.684   3.733  1.00 20.00    -0.084 Cl
HETATM    5 CL5  UNL     1     -34.272   6.519   6.193  1.00 20.00    -0.084 Cl
ENDROOT
TORSDOF 0
ENDMDL
MODEL 6
REMARK VINA RESULT:      -3.0      1.484      2.150
REMARK  0 active torsions:
REMARK  status: ('A' for Active; 'I' for Inactive)
ROOT
HETATM    1  C1  UNL     1     -35.654   5.715   4.009  1.00 20.00     0.068 C 
HETATM    2  C2  UNL     1     -34.377   5.428   4.788  1.00 20.00     0.184 C 
HETATM    3 CL3  UNL     1     -34.272   6.522   6.195  1.00 20.00    -0.084 Cl
HETATM    4 CL4  UNL     1     -34.386   3.736   5.358  1.00 20.00    -0.084 Cl
HETATM    5 CL5  UNL     1     -32.959   5.686   3.736  1.00 20.00    -0.084 Cl
ENDROOT
TORSDOF 0
ENDMDL
MODEL 7
REMARK VINA RESULT:      -3.0      1.479      2.153
REMARK  0 active torsions:
REMARK  status: ('A' for Active; 'I' for Inactive)
ROOT
HETATM    1  C1  UNL     1     -34.363   6.343   5.968  1.00 20.00     0.068 C 
HETATM    2  C2  UNL     1     -34.421   5.407   4.767  1.00 20.00     0.184 C 
HETATM    3 CL3  UNL     1     -35.895   5.737   3.817  1.00 20.00    -0.084 Cl
HETATM    4 CL4  UNL     1     -32.986   5.662   3.735  1.00 20.00    -0.084 Cl
HETATM    5 CL5  UNL     1     -34.449   3.712   5.325  1.00 20.00    -0.084 Cl
ENDROOT
TORSDOF 0
ENDMDL
MODEL 8
REMARK VINA RESULT:      -3.0      1.480      2.161
REMARK  0 active torsions:
REMARK  status: ('A' for Active; 'I' for Inactive)
ROOT
HETATM    1  C1  UNL     1     -34.364   6.339   5.971  1.00 20.00     0.068 C 
HETATM    2  C2  UNL     1     -34.423   5.406   4.768  1.00 20.00     0.184 C 
HETATM    3 CL3  UNL     1     -34.455   3.710   5.323  1.00 20.00    -0.084 Cl
HETATM    4 CL4  UNL     1     -35.896   5.740   3.816  1.00 20.00    -0.084 Cl
HETATM    5 CL5  UNL     1     -32.988   5.660   3.738  1.00 20.00    -0.084 Cl
ENDROOT
TORSDOF 0
ENDMDL
MODEL 9
REMARK VINA RESULT:      -2.9      1.463      2.152
REMARK  0 active torsions:
REMARK  status: ('A' for Active; 'I' for Inactive)
ROOT
HETATM    1  C1  UNL     1     -33.209   5.641   3.854  1.00 20.00     0.068 C 
HETATM    2  C2  UNL     1     -34.421   5.431   4.753  1.00 20.00     0.184 C 
HETATM    3 CL3  UNL     1     -34.464   3.739   5.321  1.00 20.00    -0.084 Cl
HETATM    4 CL4  UNL     1     -34.321   6.522   6.163  1.00 20.00    -0.084 Cl
HETATM    5 CL5  UNL     1     -35.915   5.783   3.843  1.00 20.00    -0.084 Cl
ENDROOT
TORSDOF 0
ENDMDL
